MODEL 1
REMARK VINA RESULT:      -7.7      0.000      0.000
REMARK SMILES O=C(/C=C/c1ccc(NC(=O)c2cc(C(F)(F)F)cc(C(F)(F)F)c2)cc1)OCCOCCOCCOC(=O)c1ccc(-c2c3nc(c(-c4c(F)cccc4F)c4ccc([nH]4)c(-c4c(F)cccc4F)c4nc(c(-c5c(F)cccc5F)c5ccc2[nH]5)C=C4)C=C3)cc1
REMARK SMILES IDX 32 1 31 2 30 3 29 4 28 5 2 6 1 7 3 8 4 9 5 10 6 11 27 12
REMARK SMILES IDX 7 13 26 14 8 15 9 16 10 17 11 19 12 20 13 21 25 22 14 23
REMARK SMILES IDX 20 24 19 25 15 26 16 27 17 28 18 29 21 30 22 31 23 32 24 33
REMARK SMILES IDX 33 34 34 35 35 36 36 37 37 38 38 39 39 40 40 41 41 42 93 43
REMARK SMILES IDX 42 44 92 45 43 46 44 47 45 48 86 49 46 50 91 51 85 52 87 53
REMARK SMILES IDX 47 54 90 55 84 56 83 57 48 59 74 60 57 61 73 62 58 63 61 64
REMARK SMILES IDX 72 65 88 66 59 67 60 68 71 70 89 71 62 72 49 73 50 74 55 75
REMARK SMILES IDX 51 76 52 77 54 78 56 79 53 80 75 81 76 82 81 83 77 84 78 85
REMARK SMILES IDX 80 86 82 87 79 88 63 89 64 90 69 91 65 92 66 93 68 94 70 95
REMARK SMILES IDX 67 96
REMARK H PARENT 9 18 87 58 61 69
REMARK Flexibility Score: inf
ROOT
ATOM      1  C   UNL A   1      46.708  25.358  28.823  1.00  0.00     0.188 C 
ENDROOT
BRANCH   1   2
ATOM      2  O   UNL A   1      46.729  26.279  29.900  1.00  0.00    -0.376 OA
BRANCH   2   3
ATOM      3  C   UNL A   1      47.919  26.505  30.631  1.00  0.00     0.202 C 
BRANCH   3   4
ATOM      4  C   UNL A   1      48.899  27.587  30.171  1.00  0.00     0.261 C 
BRANCH   4   5
ATOM      5  O   UNL A   1      48.550  28.270  28.965  1.00  0.00    -0.460 OA
BRANCH   5   6
ATOM      6  C   UNL A   1      48.709  29.616  28.940  1.00  0.00     0.330 C 
ATOM      7  O   UNL A   1      49.797  30.168  28.996  1.00  0.00    -0.247 OA
BRANCH   6   8
ATOM      8  C   UNL A   1      47.457  30.337  29.223  1.00  0.00     0.094 C 
ATOM      9  C   UNL A   1      46.289  29.694  29.345  1.00  0.00     0.015 C 
BRANCH   9  10
ATOM     10  C   UNL A   1      45.049  30.368  29.737  1.00  0.00    -0.025 A 
ATOM     11  C   UNL A   1      44.116  30.677  28.743  1.00  0.00     0.010 A 
ATOM     12  C   UNL A   1      44.783  30.759  31.051  1.00  0.00     0.010 A 
ATOM     13  C   UNL A   1      42.936  31.357  29.056  1.00  0.00     0.027 A 
ATOM     14  C   UNL A   1      43.592  31.428  31.364  1.00  0.00     0.027 A 
ATOM     15  C   UNL A   1      42.646  31.714  30.372  1.00  0.00     0.041 A 
BRANCH  15  16
ATOM     16  N   UNL A   1      41.486  32.406  30.772  1.00  0.00    -0.322 N 
ATOM     17  C   UNL A   1      41.231  33.740  30.992  1.00  0.00     0.255 C 
ATOM     18  H   UNL A   1      40.706  31.823  30.920  1.00  0.00     0.170 HD
ATOM     19  O   UNL A   1      40.234  34.084  31.625  1.00  0.00    -0.269 OA
BRANCH  17  20
ATOM     20  C   UNL A   1      42.095  34.798  30.428  1.00  0.00     0.041 A 
ATOM     21  C   UNL A   1      42.013  35.076  29.059  1.00  0.00     0.027 A 
ATOM     22  C   UNL A   1      42.992  35.502  31.241  1.00  0.00     0.027 A 
ATOM     23  C   UNL A   1      42.781  36.108  28.500  1.00  0.00     0.057 A 
ATOM     24  C   UNL A   1      43.755  36.549  30.708  1.00  0.00     0.057 A 
ATOM     25  C   UNL A   1      43.640  36.843  29.336  1.00  0.00     0.026 A 
BRANCH  23  26
ATOM     26  C   UNL A   1      42.656  36.425  27.027  1.00  0.00     0.416 C 
ATOM     27  F   UNL A   1      41.859  37.500  26.787  1.00  0.00    -0.166 F 
ATOM     28  F   UNL A   1      43.860  36.711  26.459  1.00  0.00    -0.166 F 
ATOM     29  F   UNL A   1      42.134  35.399  26.298  1.00  0.00    -0.166 F 
ENDBRANCH  23  26
BRANCH  24  30
ATOM     30  C   UNL A   1      44.659  37.380  31.589  1.00  0.00     0.416 C 
ATOM     31  F   UNL A   1      45.947  37.396  31.148  1.00  0.00    -0.166 F 
ATOM     32  F   UNL A   1      44.267  38.683  31.643  1.00  0.00    -0.166 F 
ATOM     33  F   UNL A   1      44.711  36.948  32.879  1.00  0.00    -0.166 F 
ENDBRANCH  24  30
ENDBRANCH  17  20
ENDBRANCH  15  16
ENDBRANCH   9  10
ENDBRANCH   6   8
ENDBRANCH   5   6
ENDBRANCH   4   5
ENDBRANCH   3   4
ENDBRANCH   2   3
ENDBRANCH   1   2
BRANCH   1  34
ATOM     34  C   UNL A   1      48.010  24.864  28.177  1.00  0.00     0.188 C 
BRANCH  34  35
ATOM     35  O   UNL A   1      48.000  24.285  26.883  1.00  0.00    -0.376 OA
BRANCH  35  36
ATOM     36  C   UNL A   1      47.598  25.055  25.758  1.00  0.00     0.202 C 
BRANCH  36  37
ATOM     37  C   UNL A   1      46.591  24.439  24.790  1.00  0.00     0.261 C 
BRANCH  37  38
ATOM     38  O   UNL A   1      45.419  25.258  24.629  1.00  0.00    -0.460 OA
BRANCH  38  39
ATOM     39  C   UNL A   1      44.248  24.644  24.915  1.00  0.00     0.338 C 
ATOM     40  O   UNL A   1      43.924  23.503  24.638  1.00  0.00    -0.246 OA
BRANCH  39  41
ATOM     41  C   UNL A   1      43.400  25.518  25.747  1.00  0.00     0.060 A 
ATOM     42  C   UNL A   1      43.923  26.763  26.112  1.00  0.00     0.016 A 
ATOM     43  C   UNL A   1      42.175  25.083  26.262  1.00  0.00     0.016 A 
ATOM     44  C   UNL A   1      43.259  27.546  27.053  1.00  0.00     0.010 A 
ATOM     45  C   UNL A   1      41.512  25.870  27.212  1.00  0.00     0.010 A 
ATOM     46  C   UNL A   1      42.077  27.081  27.646  1.00  0.00    -0.014 A 
BRANCH  46  47
ATOM     47  C   UNL A   1      41.548  27.791  28.837  1.00  0.00     0.031 A 
ATOM     48  C   UNL A   1      42.268  27.646  30.153  1.00  0.00     0.074 A 
ATOM     49  C   UNL A   1      40.489  28.611  28.740  1.00  0.00     0.049 A 
ATOM     50  N   UNL A   1      42.022  28.222  31.301  1.00  0.00    -0.248 NA
ATOM     51  C   UNL A   1      43.423  26.735  30.172  1.00  0.00     0.031 C 
ATOM     52  C   UNL A   1      39.719  28.860  27.523  1.00  0.00     0.029 A 
ATOM     53  N   UNL A   1      39.883  29.396  29.690  1.00  0.00    -0.354 N 
ATOM     54  C   UNL A   1      42.999  27.758  32.174  1.00  0.00     0.074 A 
ATOM     55  C   UNL A   1      43.815  26.819  31.435  1.00  0.00     0.031 C 
ATOM     56  C   UNL A   1      38.738  29.737  27.801  1.00  0.00     0.029 A 
ATOM     57  C   UNL A   1      38.804  30.100  29.216  1.00  0.00     0.049 A 
ATOM     58  H   UNL A   1      40.193  29.449  30.623  1.00  0.00     0.167 HD
ATOM     59  C   UNL A   1      43.210  28.094  33.469  1.00  0.00     0.037 A 
ATOM     60  C   UNL A   1      37.964  30.937  29.853  1.00  0.00     0.037 A 
ATOM     61  C   UNL A   1      42.397  29.015  34.216  1.00  0.00     0.049 A 
ATOM     62  C   UNL A   1      38.187  31.252  31.309  1.00  0.00     0.074 A 
ATOM     63  C   UNL A   1      42.527  29.407  35.538  1.00  0.00     0.029 A 
ATOM     64  N   UNL A   1      41.298  29.687  33.706  1.00  0.00    -0.354 N 
ATOM     65  N   UNL A   1      39.128  30.824  32.115  1.00  0.00    -0.248 NA
ATOM     66  C   UNL A   1      37.234  32.179  31.940  1.00  0.00     0.031 C 
ATOM     67  C   UNL A   1      41.486  30.293  35.836  1.00  0.00     0.029 A 
ATOM     68  C   UNL A   1      40.732  30.481  34.690  1.00  0.00     0.049 A 
ATOM     69  H   UNL A   1      40.967  29.611  32.781  1.00  0.00     0.167 HD
ATOM     70  C   UNL A   1      38.895  31.444  33.336  1.00  0.00     0.074 A 
ATOM     71  C   UNL A   1      37.734  32.291  33.162  1.00  0.00     0.031 C 
ATOM     72  C   UNL A   1      39.579  31.323  34.499  1.00  0.00     0.037 A 
BRANCH  59  73
ATOM     73  C   UNL A   1      44.374  27.451  34.162  1.00  0.00     0.057 A 
ATOM     74  C   UNL A   1      45.625  28.079  34.226  1.00  0.00     0.134 A 
ATOM     75  C   UNL A   1      44.238  26.211  34.795  1.00  0.00     0.134 A 
ATOM     76  F   UNL A   1      45.823  29.262  33.625  1.00  0.00    -0.206 F 
ATOM     77  C   UNL A   1      46.705  27.487  34.884  1.00  0.00     0.040 A 
ATOM     78  C   UNL A   1      45.304  25.619  35.474  1.00  0.00     0.040 A 
ATOM     79  F   UNL A   1      43.065  25.559  34.773  1.00  0.00    -0.206 F 
ATOM     80  C   UNL A   1      46.544  26.256  35.515  1.00  0.00     0.006 A 
ENDBRANCH  59  73
BRANCH  60  81
ATOM     81  C   UNL A   1      36.823  31.541  29.123  1.00  0.00     0.057 A 
ATOM     82  C   UNL A   1      36.835  32.885  28.734  1.00  0.00     0.134 A 
ATOM     83  C   UNL A   1      35.675  30.794  28.830  1.00  0.00     0.134 A 
ATOM     84  F   UNL A   1      37.897  33.657  29.008  1.00  0.00    -0.206 F 
ATOM     85  C   UNL A   1      35.739  33.472  28.100  1.00  0.00     0.040 A 
ATOM     86  C   UNL A   1      34.581  31.362  28.177  1.00  0.00     0.040 A 
ATOM     87  F   UNL A   1      35.604  29.500  29.174  1.00  0.00    -0.206 F 
ATOM     88  C   UNL A   1      34.608  32.708  27.817  1.00  0.00     0.006 A 
ENDBRANCH  60  81
BRANCH  72  89
ATOM     89  C   UNL A   1      39.106  32.142  35.664  1.00  0.00     0.057 A 
ATOM     90  C   UNL A   1      39.498  33.476  35.836  1.00  0.00     0.134 A 
ATOM     91  C   UNL A   1      38.227  31.599  36.609  1.00  0.00     0.134 A 
ATOM     92  F   UNL A   1      40.348  34.051  34.971  1.00  0.00    -0.206 F 
ATOM     93  C   UNL A   1      39.052  34.232  36.920  1.00  0.00     0.040 A 
ATOM     94  C   UNL A   1      37.755  32.353  37.685  1.00  0.00     0.040 A 
ATOM     95  F   UNL A   1      37.805  30.330  36.498  1.00  0.00    -0.206 F 
ATOM     96  C   UNL A   1      38.174  33.673  37.847  1.00  0.00     0.006 A 
ENDBRANCH  72  89
ENDBRANCH  46  47
ENDBRANCH  39  41
ENDBRANCH  38  39
ENDBRANCH  37  38
ENDBRANCH  36  37
ENDBRANCH  35  36
ENDBRANCH  34  35
ENDBRANCH   1  34
TORSDOF 22
ENDMDL
MODEL 2
REMARK VINA RESULT:      -7.5      0.307      2.199
REMARK SMILES O=C(/C=C/c1ccc(NC(=O)c2cc(C(F)(F)F)cc(C(F)(F)F)c2)cc1)OCCOCCOCCOC(=O)c1ccc(-c2c3nc(c(-c4c(F)cccc4F)c4ccc([nH]4)c(-c4c(F)cccc4F)c4nc(c(-c5c(F)cccc5F)c5ccc2[nH]5)C=C4)C=C3)cc1
REMARK SMILES IDX 32 1 31 2 30 3 29 4 28 5 2 6 1 7 3 8 4 9 5 10 6 11 27 12
REMARK SMILES IDX 7 13 26 14 8 15 9 16 10 17 11 19 12 20 13 21 25 22 14 23
REMARK SMILES IDX 20 24 19 25 15 26 16 27 17 28 18 29 21 30 22 31 23 32 24 33
REMARK SMILES IDX 33 34 34 35 35 36 36 37 37 38 38 39 39 40 40 41 41 42 93 43
REMARK SMILES IDX 42 44 92 45 43 46 44 47 45 48 86 49 46 50 91 51 85 52 87 53
REMARK SMILES IDX 47 54 90 55 84 56 83 57 48 59 74 60 57 61 73 62 58 63 61 64
REMARK SMILES IDX 72 65 88 66 59 67 60 68 71 70 89 71 62 72 49 73 50 74 55 75
REMARK SMILES IDX 51 76 52 77 54 78 56 79 53 80 75 81 76 82 81 83 77 84 78 85
REMARK SMILES IDX 80 86 82 87 79 88 63 89 64 90 69 91 65 92 66 93 68 94 70 95
REMARK SMILES IDX 67 96
REMARK H PARENT 9 18 87 58 61 69
REMARK Flexibility Score: inf
ROOT
ATOM      1  C   UNL A   1      46.655  25.474  28.729  1.00  0.00     0.188 C 
ENDROOT
BRANCH   1   2
ATOM      2  O   UNL A   1      46.734  26.529  29.672  1.00  0.00    -0.376 OA
BRANCH   2   3
ATOM      3  C   UNL A   1      47.947  26.802  30.346  1.00  0.00     0.202 C 
BRANCH   3   4
ATOM      4  C   UNL A   1      48.939  27.805  29.752  1.00  0.00     0.261 C 
BRANCH   4   5
ATOM      5  O   UNL A   1      48.539  28.421  28.525  1.00  0.00    -0.460 OA
BRANCH   5   6
ATOM      6  C   UNL A   1      48.649  29.769  28.436  1.00  0.00     0.330 C 
ATOM      7  O   UNL A   1      49.718  30.358  28.410  1.00  0.00    -0.247 OA
BRANCH   6   8
ATOM      8  C   UNL A   1      47.388  30.460  28.757  1.00  0.00     0.094 C 
ATOM      9  C   UNL A   1      46.222  29.803  28.806  1.00  0.00     0.015 C 
BRANCH   9  10
ATOM     10  C   UNL A   1      44.973  30.439  29.232  1.00  0.00    -0.025 A 
ATOM     11  C   UNL A   1      44.137  30.986  28.254  1.00  0.00     0.010 A 
ATOM     12  C   UNL A   1      44.606  30.564  30.573  1.00  0.00     0.010 A 
ATOM     13  C   UNL A   1      42.954  31.640  28.609  1.00  0.00     0.027 A 
ATOM     14  C   UNL A   1      43.412  31.207  30.925  1.00  0.00     0.027 A 
ATOM     15  C   UNL A   1      42.563  31.733  29.944  1.00  0.00     0.041 A 
BRANCH  15  16
ATOM     16  N   UNL A   1      41.392  32.380  30.386  1.00  0.00    -0.322 N 
ATOM     17  C   UNL A   1      41.114  33.695  30.681  1.00  0.00     0.255 C 
ATOM     18  H   UNL A   1      40.624  31.775  30.505  1.00  0.00     0.170 HD
ATOM     19  O   UNL A   1      40.115  33.985  31.337  1.00  0.00    -0.269 OA
BRANCH  17  20
ATOM     20  C   UNL A   1      41.956  34.798  30.172  1.00  0.00     0.041 A 
ATOM     21  C   UNL A   1      42.923  35.352  31.017  1.00  0.00     0.027 A 
ATOM     22  C   UNL A   1      41.782  35.293  28.873  1.00  0.00     0.027 A 
ATOM     23  C   UNL A   1      43.773  36.366  30.549  1.00  0.00     0.057 A 
ATOM     24  C   UNL A   1      42.631  36.292  28.379  1.00  0.00     0.057 A 
ATOM     25  C   UNL A   1      43.624  36.820  29.226  1.00  0.00     0.026 A 
BRANCH  23  26
ATOM     26  C   UNL A   1      44.840  36.931  31.458  1.00  0.00     0.416 C 
ATOM     27  F   UNL A   1      45.996  37.210  30.800  1.00  0.00    -0.166 F 
ATOM     28  F   UNL A   1      44.449  38.095  32.048  1.00  0.00    -0.166 F 
ATOM     29  F   UNL A   1      45.179  36.093  32.477  1.00  0.00    -0.166 F 
ENDBRANCH  23  26
BRANCH  24  30
ATOM     30  C   UNL A   1      42.518  36.772  26.951  1.00  0.00     0.416 C 
ATOM     31  F   UNL A   1      43.672  37.334  26.497  1.00  0.00    -0.166 F 
ATOM     32  F   UNL A   1      42.231  35.759  26.088  1.00  0.00    -0.166 F 
ATOM     33  F   UNL A   1      41.548  37.710  26.766  1.00  0.00    -0.166 F 
ENDBRANCH  24  30
ENDBRANCH  17  20
ENDBRANCH  15  16
ENDBRANCH   9  10
ENDBRANCH   6   8
ENDBRANCH   5   6
ENDBRANCH   4   5
ENDBRANCH   3   4
ENDBRANCH   2   3
ENDBRANCH   1   2
BRANCH   1  34
ATOM     34  C   UNL A   1      47.923  24.849  28.130  1.00  0.00     0.188 C 
BRANCH  34  35
ATOM     35  O   UNL A   1      47.872  24.156  26.894  1.00  0.00    -0.376 OA
BRANCH  35  36
ATOM     36  C   UNL A   1      47.468  24.832  25.711  1.00  0.00     0.202 C 
BRANCH  36  37
ATOM     37  C   UNL A   1      46.392  24.181  24.845  1.00  0.00     0.261 C 
BRANCH  37  38
ATOM     38  O   UNL A   1      45.258  25.042  24.648  1.00  0.00    -0.460 OA
BRANCH  38  39
ATOM     39  C   UNL A   1      44.057  24.478  24.917  1.00  0.00     0.338 C 
ATOM     40  O   UNL A   1      43.686  23.355  24.627  1.00  0.00    -0.246 OA
BRANCH  39  41
ATOM     41  C   UNL A   1      43.239  25.383  25.745  1.00  0.00     0.060 A 
ATOM     42  C   UNL A   1      43.815  26.597  26.133  1.00  0.00     0.016 A 
ATOM     43  C   UNL A   1      41.987  25.001  26.237  1.00  0.00     0.016 A 
ATOM     44  C   UNL A   1      43.174  27.401  27.072  1.00  0.00     0.010 A 
ATOM     45  C   UNL A   1      41.347  25.808  27.186  1.00  0.00     0.010 A 
ATOM     46  C   UNL A   1      41.962  26.987  27.642  1.00  0.00    -0.014 A 
BRANCH  46  47
ATOM     47  C   UNL A   1      41.449  27.708  28.834  1.00  0.00     0.031 A 
ATOM     48  C   UNL A   1      42.173  27.556  30.146  1.00  0.00     0.074 A 
ATOM     49  C   UNL A   1      40.402  28.543  28.738  1.00  0.00     0.049 A 
ATOM     50  N   UNL A   1      41.940  28.139  31.294  1.00  0.00    -0.248 NA
ATOM     51  C   UNL A   1      43.314  26.627  30.164  1.00  0.00     0.031 C 
ATOM     52  C   UNL A   1      39.631  28.800  27.524  1.00  0.00     0.029 A 
ATOM     53  N   UNL A   1      39.812  29.340  29.688  1.00  0.00    -0.354 N 
ATOM     54  C   UNL A   1      42.914  27.663  32.164  1.00  0.00     0.074 A 
ATOM     55  C   UNL A   1      43.713  26.710  31.424  1.00  0.00     0.031 C 
ATOM     56  C   UNL A   1      38.665  29.693  27.803  1.00  0.00     0.029 A 
ATOM     57  C   UNL A   1      38.742  30.058  29.216  1.00  0.00     0.049 A 
ATOM     58  H   UNL A   1      40.127  29.391  30.620  1.00  0.00     0.167 HD
ATOM     59  C   UNL A   1      43.136  28.000  33.457  1.00  0.00     0.037 A 
ATOM     60  C   UNL A   1      37.917  30.911  29.855  1.00  0.00     0.037 A 
ATOM     61  C   UNL A   1      42.340  28.936  34.205  1.00  0.00     0.049 A 
ATOM     62  C   UNL A   1      38.151  31.227  31.309  1.00  0.00     0.074 A 
ATOM     63  C   UNL A   1      42.482  29.330  35.525  1.00  0.00     0.029 A 
ATOM     64  N   UNL A   1      41.249  29.623  33.698  1.00  0.00    -0.354 N 
ATOM     65  N   UNL A   1      39.089  30.787  32.112  1.00  0.00    -0.248 NA
ATOM     66  C   UNL A   1      37.215  32.169  31.941  1.00  0.00     0.031 C 
ATOM     67  C   UNL A   1      41.455  30.232  35.825  1.00  0.00     0.029 A 
ATOM     68  C   UNL A   1      40.699  30.428  34.681  1.00  0.00     0.049 A 
ATOM     69  H   UNL A   1      40.913  29.548  32.774  1.00  0.00     0.167 HD
ATOM     70  C   UNL A   1      38.871  31.414  33.332  1.00  0.00     0.074 A 
ATOM     71  C   UNL A   1      37.722  32.278  33.161  1.00  0.00     0.031 C 
ATOM     72  C   UNL A   1      39.558  31.286  34.493  1.00  0.00     0.037 A 
BRANCH  59  73
ATOM     73  C   UNL A   1      44.293  27.342  34.147  1.00  0.00     0.057 A 
ATOM     74  C   UNL A   1      44.135  26.147  34.860  1.00  0.00     0.134 A 
ATOM     75  C   UNL A   1      45.579  27.889  34.074  1.00  0.00     0.134 A 
ATOM     76  F   UNL A   1      42.925  25.581  34.980  1.00  0.00    -0.206 F 
ATOM     77  C   UNL A   1      45.216  25.527  35.491  1.00  0.00     0.040 A 
ATOM     78  C   UNL A   1      46.671  27.267  34.682  1.00  0.00     0.040 A 
ATOM     79  F   UNL A   1      45.797  29.031  33.403  1.00  0.00    -0.206 F 
ATOM     80  C   UNL A   1      46.489  26.085  35.398  1.00  0.00     0.006 A 
ENDBRANCH  59  73
BRANCH  60  81
ATOM     81  C   UNL A   1      36.782  31.529  29.128  1.00  0.00     0.057 A 
ATOM     82  C   UNL A   1      36.828  32.861  28.701  1.00  0.00     0.134 A 
ATOM     83  C   UNL A   1      35.607  30.811  28.876  1.00  0.00     0.134 A 
ATOM     84  F   UNL A   1      37.919  33.607  28.934  1.00  0.00    -0.206 F 
ATOM     85  C   UNL A   1      35.740  33.464  28.069  1.00  0.00     0.040 A 
ATOM     86  C   UNL A   1      34.519  31.394  28.227  1.00  0.00     0.040 A 
ATOM     87  F   UNL A   1      35.502  29.530  29.258  1.00  0.00    -0.206 F 
ATOM     88  C   UNL A   1      34.581  32.728  27.828  1.00  0.00     0.006 A 
ENDBRANCH  60  81
BRANCH  72  89
ATOM     89  C   UNL A   1      39.103  32.116  35.657  1.00  0.00     0.057 A 
ATOM     90  C   UNL A   1      38.244  31.603  36.637  1.00  0.00     0.134 A 
ATOM     91  C   UNL A   1      39.550  33.435  35.813  1.00  0.00     0.134 A 
ATOM     92  F   UNL A   1      37.771  30.351  36.539  1.00  0.00    -0.206 F 
ATOM     93  C   UNL A   1      37.826  32.381  37.719  1.00  0.00     0.040 A 
ATOM     94  C   UNL A   1      39.157  34.214  36.902  1.00  0.00     0.040 A 
ATOM     95  F   UNL A   1      40.381  33.983  34.914  1.00  0.00    -0.206 F 
ATOM     96  C   UNL A   1      38.287  33.689  37.856  1.00  0.00     0.006 A 
ENDBRANCH  72  89
ENDBRANCH  46  47
ENDBRANCH  39  41
ENDBRANCH  38  39
ENDBRANCH  37  38
ENDBRANCH  36  37
ENDBRANCH  35  36
ENDBRANCH  34  35
ENDBRANCH   1  34
TORSDOF 22
ENDMDL
MODEL 3
REMARK VINA RESULT:      -7.5      5.273     11.968
REMARK SMILES O=C(/C=C/c1ccc(NC(=O)c2cc(C(F)(F)F)cc(C(F)(F)F)c2)cc1)OCCOCCOCCOC(=O)c1ccc(-c2c3nc(c(-c4c(F)cccc4F)c4ccc([nH]4)c(-c4c(F)cccc4F)c4nc(c(-c5c(F)cccc5F)c5ccc2[nH]5)C=C4)C=C3)cc1
REMARK SMILES IDX 32 1 31 2 30 3 29 4 28 5 2 6 1 7 3 8 4 9 5 10 6 11 27 12
REMARK SMILES IDX 7 13 26 14 8 15 9 16 10 17 11 19 12 20 13 21 25 22 14 23
REMARK SMILES IDX 20 24 19 25 15 26 16 27 17 28 18 29 21 30 22 31 23 32 24 33
REMARK SMILES IDX 33 34 34 35 35 36 36 37 37 38 38 39 39 40 40 41 41 42 93 43
REMARK SMILES IDX 42 44 92 45 43 46 44 47 45 48 86 49 46 50 91 51 85 52 87 53
REMARK SMILES IDX 47 54 90 55 84 56 83 57 48 59 74 60 57 61 73 62 58 63 61 64
REMARK SMILES IDX 72 65 88 66 59 67 60 68 71 70 89 71 62 72 49 73 50 74 55 75
REMARK SMILES IDX 51 76 52 77 54 78 56 79 53 80 75 81 76 82 81 83 77 84 78 85
REMARK SMILES IDX 80 86 82 87 79 88 63 89 64 90 69 91 65 92 66 93 68 94 70 95
REMARK SMILES IDX 67 96
REMARK H PARENT 9 18 87 58 61 69
REMARK Flexibility Score: inf
ROOT
ATOM      1  C   UNL A   1      36.123  32.624  43.189  1.00  0.00     0.188 C 
ENDROOT
BRANCH   1   2
ATOM      2  O   UNL A   1      35.440  31.810  42.251  1.00  0.00    -0.376 OA
BRANCH   2   3
ATOM      3  C   UNL A   1      36.020  31.518  40.994  1.00  0.00     0.202 C 
BRANCH   3   4
ATOM      4  C   UNL A   1      36.132  32.618  39.935  1.00  0.00     0.261 C 
BRANCH   4   5
ATOM      5  O   UNL A   1      37.415  33.237  39.818  1.00  0.00    -0.460 OA
BRANCH   5   6
ATOM      6  C   UNL A   1      38.149  32.953  38.714  1.00  0.00     0.330 C 
ATOM      7  O   UNL A   1      39.352  33.147  38.635  1.00  0.00    -0.247 OA
BRANCH   6   8
ATOM      8  C   UNL A   1      37.314  32.755  37.518  1.00  0.00     0.094 C 
ATOM      9  C   UNL A   1      37.353  33.610  36.487  1.00  0.00     0.015 C 
BRANCH   9  10
ATOM     10  C   UNL A   1      36.621  33.380  35.239  1.00  0.00    -0.025 A 
ATOM     11  C   UNL A   1      35.536  34.209  34.941  1.00  0.00     0.010 A 
ATOM     12  C   UNL A   1      36.930  32.339  34.361  1.00  0.00     0.010 A 
ATOM     13  C   UNL A   1      34.778  34.007  33.784  1.00  0.00     0.027 A 
ATOM     14  C   UNL A   1      36.177  32.148  33.195  1.00  0.00     0.027 A 
ATOM     15  C   UNL A   1      35.106  32.995  32.884  1.00  0.00     0.041 A 
BRANCH  15  16
ATOM     16  N   UNL A   1      34.392  32.720  31.701  1.00  0.00    -0.322 N 
ATOM     17  C   UNL A   1      34.773  32.660  30.380  1.00  0.00     0.255 C 
ATOM     18  H   UNL A   1      33.436  32.533  31.848  1.00  0.00     0.170 HD
ATOM     19  O   UNL A   1      33.927  32.702  29.489  1.00  0.00    -0.269 OA
BRANCH  17  20
ATOM     20  C   UNL A   1      36.187  32.479  29.989  1.00  0.00     0.041 A 
ATOM     21  C   UNL A   1      37.063  33.563  30.106  1.00  0.00     0.027 A 
ATOM     22  C   UNL A   1      36.642  31.250  29.494  1.00  0.00     0.027 A 
ATOM     23  C   UNL A   1      38.422  33.411  29.792  1.00  0.00     0.057 A 
ATOM     24  C   UNL A   1      37.998  31.070  29.191  1.00  0.00     0.057 A 
ATOM     25  C   UNL A   1      38.879  32.159  29.345  1.00  0.00     0.026 A 
BRANCH  23  26
ATOM     26  C   UNL A   1      39.367  34.578  29.960  1.00  0.00     0.416 C 
ATOM     27  F   UNL A   1      40.410  34.539  29.089  1.00  0.00    -0.166 F 
ATOM     28  F   UNL A   1      38.748  35.774  29.757  1.00  0.00    -0.166 F 
ATOM     29  F   UNL A   1      39.918  34.652  31.204  1.00  0.00    -0.166 F 
ENDBRANCH  23  26
BRANCH  24  30
ATOM     30  C   UNL A   1      38.524  29.726  28.745  1.00  0.00     0.416 C 
ATOM     31  F   UNL A   1      39.759  29.455  29.251  1.00  0.00    -0.166 F 
ATOM     32  F   UNL A   1      37.723  28.701  29.147  1.00  0.00    -0.166 F 
ATOM     33  F   UNL A   1      38.640  29.607  27.394  1.00  0.00    -0.166 F 
ENDBRANCH  24  30
ENDBRANCH  17  20
ENDBRANCH  15  16
ENDBRANCH   9  10
ENDBRANCH   6   8
ENDBRANCH   5   6
ENDBRANCH   4   5
ENDBRANCH   3   4
ENDBRANCH   2   3
ENDBRANCH   1   2
BRANCH   1  34
ATOM     34  C   UNL A   1      37.480  32.199  43.767  1.00  0.00     0.188 C 
BRANCH  34  35
ATOM     35  O   UNL A   1      38.683  32.488  43.075  1.00  0.00    -0.376 OA
BRANCH  35  36
ATOM     36  C   UNL A   1      39.399  33.684  43.354  1.00  0.00     0.202 C 
BRANCH  36  37
ATOM     37  C   UNL A   1      39.120  34.906  42.483  1.00  0.00     0.261 C 
BRANCH  37  38
ATOM     38  O   UNL A   1      39.965  34.951  41.321  1.00  0.00    -0.460 OA
BRANCH  38  39
ATOM     39  C   UNL A   1      40.690  36.085  41.183  1.00  0.00     0.338 C 
ATOM     40  O   UNL A   1      41.040  36.850  42.063  1.00  0.00    -0.246 OA
BRANCH  39  41
ATOM     41  C   UNL A   1      41.135  36.243  39.786  1.00  0.00     0.060 A 
ATOM     42  C   UNL A   1      40.152  36.498  38.823  1.00  0.00     0.016 A 
ATOM     43  C   UNL A   1      42.462  36.024  39.405  1.00  0.00     0.016 A 
ATOM     44  C   UNL A   1      40.480  36.460  37.470  1.00  0.00     0.010 A 
ATOM     45  C   UNL A   1      42.788  35.981  38.044  1.00  0.00     0.010 A 
ATOM     46  C   UNL A   1      41.788  36.152  37.072  1.00  0.00    -0.014 A 
BRANCH  46  47
ATOM     47  C   UNL A   1      42.045  35.839  35.644  1.00  0.00     0.031 A 
ATOM     48  C   UNL A   1      42.662  36.896  34.765  1.00  0.00     0.074 A 
ATOM     49  C   UNL A   1      41.805  34.613  35.150  1.00  0.00     0.049 A 
ATOM     50  N   UNL A   1      43.030  36.821  33.511  1.00  0.00    -0.248 NA
ATOM     51  C   UNL A   1      42.900  38.209  35.384  1.00  0.00     0.031 C 
ATOM     52  C   UNL A   1      41.236  33.495  35.900  1.00  0.00     0.029 A 
ATOM     53  N   UNL A   1      42.021  34.103  33.894  1.00  0.00    -0.354 N 
ATOM     54  C   UNL A   1      43.558  38.068  33.198  1.00  0.00     0.074 A 
ATOM     55  C   UNL A   1      43.422  38.894  34.378  1.00  0.00     0.031 C 
ATOM     56  C   UNL A   1      41.144  32.428  35.086  1.00  0.00     0.029 A 
ATOM     57  C   UNL A   1      41.635  32.793  33.758  1.00  0.00     0.049 A 
ATOM     58  H   UNL A   1      42.416  34.627  33.160  1.00  0.00     0.167 HD
ATOM     59  C   UNL A   1      44.121  38.485  32.038  1.00  0.00     0.037 A 
ATOM     60  C   UNL A   1      41.672  31.983  32.683  1.00  0.00     0.037 A 
ATOM     61  C   UNL A   1      44.248  37.676  30.856  1.00  0.00     0.049 A 
ATOM     62  C   UNL A   1      42.252  32.488  31.387  1.00  0.00     0.074 A 
ATOM     63  C   UNL A   1      44.793  38.018  29.630  1.00  0.00     0.029 A 
ATOM     64  N   UNL A   1      43.821  36.362  30.751  1.00  0.00    -0.354 N 
ATOM     65  N   UNL A   1      42.768  33.661  31.112  1.00  0.00    -0.248 NA
ATOM     66  C   UNL A   1      42.263  31.548  30.256  1.00  0.00     0.031 C 
ATOM     67  C   UNL A   1      44.666  36.919  28.773  1.00  0.00     0.029 A 
ATOM     68  C   UNL A   1      44.078  35.882  29.478  1.00  0.00     0.049 A 
ATOM     69  H   UNL A   1      43.397  35.846  31.475  1.00  0.00     0.167 HD
ATOM     70  C   UNL A   1      43.185  33.593  29.789  1.00  0.00     0.074 A 
ATOM     71  C   UNL A   1      42.878  32.258  29.320  1.00  0.00     0.031 C 
ATOM     72  C   UNL A   1      43.770  34.549  29.028  1.00  0.00     0.037 A 
BRANCH  59  73
ATOM     73  C   UNL A   1      44.641  39.890  31.996  1.00  0.00     0.057 A 
ATOM     74  C   UNL A   1      43.815  40.965  31.642  1.00  0.00     0.134 A 
ATOM     75  C   UNL A   1      45.966  40.177  32.341  1.00  0.00     0.134 A 
ATOM     76  F   UNL A   1      42.539  40.753  31.286  1.00  0.00    -0.206 F 
ATOM     77  C   UNL A   1      44.296  42.276  31.616  1.00  0.00     0.040 A 
ATOM     78  C   UNL A   1      46.452  41.485  32.340  1.00  0.00     0.040 A 
ATOM     79  F   UNL A   1      46.807  39.192  32.693  1.00  0.00    -0.206 F 
ATOM     80  C   UNL A   1      45.617  42.539  31.972  1.00  0.00     0.006 A 
ENDBRANCH  59  73
BRANCH  60  81
ATOM     81  C   UNL A   1      41.137  30.602  32.775  1.00  0.00     0.057 A 
ATOM     82  C   UNL A   1      41.968  29.517  33.075  1.00  0.00     0.134 A 
ATOM     83  C   UNL A   1      39.785  30.333  32.528  1.00  0.00     0.134 A 
ATOM     84  F   UNL A   1      43.276  29.711  33.298  1.00  0.00    -0.206 F 
ATOM     85  C   UNL A   1      41.480  28.210  33.104  1.00  0.00     0.040 A 
ATOM     86  C   UNL A   1      39.279  29.033  32.576  1.00  0.00     0.040 A 
ATOM     87  F   UNL A   1      38.938  31.331  32.239  1.00  0.00    -0.206 F 
ATOM     88  C   UNL A   1      40.130  27.966  32.857  1.00  0.00     0.006 A 
ENDBRANCH  60  81
BRANCH  72  89
ATOM     89  C   UNL A   1      44.137  34.179  27.621  1.00  0.00     0.057 A 
ATOM     90  C   UNL A   1      43.370  34.594  26.525  1.00  0.00     0.134 A 
ATOM     91  C   UNL A   1      45.286  33.422  27.358  1.00  0.00     0.134 A 
ATOM     92  F   UNL A   1      42.251  35.311  26.711  1.00  0.00    -0.206 F 
ATOM     93  C   UNL A   1      43.719  34.248  25.219  1.00  0.00     0.040 A 
ATOM     94  C   UNL A   1      45.658  33.089  26.054  1.00  0.00     0.040 A 
ATOM     95  F   UNL A   1      46.069  33.001  28.362  1.00  0.00    -0.206 F 
ATOM     96  C   UNL A   1      44.869  33.497  24.980  1.00  0.00     0.006 A 
ENDBRANCH  72  89
ENDBRANCH  46  47
ENDBRANCH  39  41
ENDBRANCH  38  39
ENDBRANCH  37  38
ENDBRANCH  36  37
ENDBRANCH  35  36
ENDBRANCH  34  35
ENDBRANCH   1  34
TORSDOF 22
ENDMDL
