MODEL 1
REMARK VINA RESULT:     -11.0      0.000      0.000
REMARK SMILES O=C(OCCOCCOCCOC(=O)c1ccc(-c2c3nc(c(-c4c(F)cccc4F)c4ccc([nH]4)c(-c4c(F)cccc4F)c4nc(c(-c5c(F)cccc5F)c5ccc2[nH]5)C=C4)C=C3)cc1)c1ccc(NS(=O)(=O)C2=Cc3ccccc3CC2)cc1
REMARK SMILES IDX 7 1 6 2 5 3 4 4 3 5 2 6 1 7 69 8 70 9 88 10 71 11 87 12
REMARK SMILES IDX 72 13 73 14 74 16 75 17 76 18 77 19 78 20 86 21 79 22 85 23
REMARK SMILES IDX 80 24 84 25 81 26 83 27 82 28 8 29 9 30 10 31 11 32 12 33
REMARK SMILES IDX 13 34 14 35 15 36 16 37 68 38 17 39 67 40 18 41 19 42 20 43
REMARK SMILES IDX 61 44 21 45 66 46 60 47 62 48 22 49 65 50 59 51 58 52 23 54
REMARK SMILES IDX 49 55 32 56 48 57 33 58 36 59 47 60 63 61 34 62 35 63 46 65
REMARK SMILES IDX 64 66 37 67 24 68 25 69 30 70 26 71 27 72 29 73 31 74 28 75
REMARK SMILES IDX 50 76 51 77 56 78 52 79 53 80 55 81 57 82 54 83 38 84 39 85
REMARK SMILES IDX 44 86 40 87 41 88 43 89 45 90 42 91
REMARK H PARENT 73 15 62 53 36 64
REMARK Flexibility Score: inf
ROOT
ATOM      1  C   UNL A   1      32.941  35.499  29.886  1.00  0.00     0.188 C 
ENDROOT
BRANCH   1   2
ATOM      2  O   UNL A   1      32.815  34.371  29.012  1.00  0.00    -0.376 OA
BRANCH   2   3
ATOM      3  C   UNL A   1      34.060  33.872  28.533  1.00  0.00     0.202 C 
BRANCH   3   4
ATOM      4  C   UNL A   1      34.361  32.396  28.806  1.00  0.00     0.261 C 
BRANCH   4   5
ATOM      5  O   UNL A   1      33.821  31.436  27.886  1.00  0.00    -0.460 OA
BRANCH   5   6
ATOM      6  C   UNL A   1      34.296  30.242  27.473  1.00  0.00     0.338 C 
ATOM      7  O   UNL A   1      35.466  29.958  27.719  1.00  0.00    -0.246 OA
BRANCH   6   8
ATOM      8  C   UNL A   1      33.512  29.292  26.635  1.00  0.00     0.060 A 
ATOM      9  C   UNL A   1      33.699  29.042  25.280  1.00  0.00     0.018 A 
ATOM     10  C   UNL A   1      32.464  28.623  27.276  1.00  0.00     0.018 A 
ATOM     11  C   UNL A   1      32.997  28.010  24.642  1.00  0.00     0.027 A 
ATOM     12  C   UNL A   1      31.754  27.617  26.621  1.00  0.00     0.027 A 
ATOM     13  C   UNL A   1      32.087  27.224  25.328  1.00  0.00     0.049 A 
BRANCH  13  14
ATOM     14  N   UNL A   1      31.631  25.952  24.878  1.00  0.00    -0.280 N 
ATOM     15  H   UNL A   1      30.782  25.936  24.380  1.00  0.00     0.180 HD
BRANCH  14  16
ATOM     16  S   UNL A   1      32.398  24.479  25.117  1.00  0.00     0.258 S 
ATOM     17  O   UNL A   1      33.703  24.858  25.627  1.00  0.00    -0.202 OA
ATOM     18  O   UNL A   1      31.507  23.696  25.950  1.00  0.00    -0.202 OA
BRANCH  16  19
ATOM     19  C   UNL A   1      32.591  23.692  23.517  1.00  0.00     0.066 C 
ATOM     20  C   UNL A   1      33.839  23.747  22.989  1.00  0.00     0.026 C 
ATOM     21  C   UNL A   1      31.997  22.298  23.410  1.00  0.00     0.055 C 
ATOM     22  C   UNL A   1      34.779  22.766  23.619  1.00  0.00    -0.021 A 
ATOM     23  C   UNL A   1      32.792  21.317  24.284  1.00  0.00     0.041 C 
ATOM     24  C   UNL A   1      36.157  22.980  23.562  1.00  0.00     0.008 A 
ATOM     25  C   UNL A   1      34.273  21.631  24.295  1.00  0.00    -0.040 A 
ATOM     26  C   UNL A   1      37.021  22.123  24.248  1.00  0.00     0.001 A 
ATOM     27  C   UNL A   1      35.143  20.810  25.017  1.00  0.00     0.004 A 
ATOM     28  C   UNL A   1      36.512  21.062  24.998  1.00  0.00     0.000 A 
ENDBRANCH  16  19
ENDBRANCH  14  16
ENDBRANCH  13  14
ENDBRANCH   6   8
ENDBRANCH   5   6
ENDBRANCH   4   5
ENDBRANCH   3   4
ENDBRANCH   2   3
ENDBRANCH   1   2
BRANCH   1  29
ATOM     29  C   UNL A   1      33.878  35.203  31.062  1.00  0.00     0.188 C 
BRANCH  29  30
ATOM     30  O   UNL A   1      33.239  34.659  32.217  1.00  0.00    -0.376 OA
BRANCH  30  31
ATOM     31  C   UNL A   1      34.084  34.173  33.258  1.00  0.00     0.202 C 
BRANCH  31  32
ATOM     32  C   UNL A   1      34.855  32.889  32.949  1.00  0.00     0.261 C 
BRANCH  32  33
ATOM     33  O   UNL A   1      36.268  33.118  32.785  1.00  0.00    -0.460 OA
BRANCH  33  34
ATOM     34  C   UNL A   1      37.064  32.294  33.507  1.00  0.00     0.338 C 
ATOM     35  O   UNL A   1      37.087  32.151  34.717  1.00  0.00    -0.246 OA
BRANCH  34  36
ATOM     36  C   UNL A   1      37.967  31.537  32.624  1.00  0.00     0.060 A 
ATOM     37  C   UNL A   1      39.164  31.022  33.133  1.00  0.00     0.016 A 
ATOM     38  C   UNL A   1      37.716  31.519  31.252  1.00  0.00     0.016 A 
ATOM     39  C   UNL A   1      40.135  30.520  32.258  1.00  0.00     0.010 A 
ATOM     40  C   UNL A   1      38.683  31.004  30.383  1.00  0.00     0.010 A 
ATOM     41  C   UNL A   1      39.915  30.531  30.873  1.00  0.00    -0.014 A 
BRANCH  41  42
ATOM     42  C   UNL A   1      40.963  30.109  29.902  1.00  0.00     0.031 A 
ATOM     43  C   UNL A   1      41.008  28.699  29.407  1.00  0.00     0.074 A 
ATOM     44  C   UNL A   1      41.920  30.960  29.496  1.00  0.00     0.049 A 
ATOM     45  N   UNL A   1      41.952  28.103  28.727  1.00  0.00    -0.248 NA
ATOM     46  C   UNL A   1      39.831  27.862  29.682  1.00  0.00     0.031 C 
ATOM     47  C   UNL A   1      41.936  32.378  29.797  1.00  0.00     0.029 A 
ATOM     48  N   UNL A   1      43.087  30.758  28.796  1.00  0.00    -0.354 N 
ATOM     49  C   UNL A   1      41.480  26.826  28.471  1.00  0.00     0.074 A 
ATOM     50  C   UNL A   1      40.180  26.721  29.102  1.00  0.00     0.031 C 
ATOM     51  C   UNL A   1      43.100  32.908  29.388  1.00  0.00     0.029 A 
ATOM     52  C   UNL A   1      43.926  31.847  28.835  1.00  0.00     0.049 A 
ATOM     53  H   UNL A   1      43.298  29.924  28.318  1.00  0.00     0.167 HD
ATOM     54  C   UNL A   1      42.072  25.847  27.750  1.00  0.00     0.037 A 
ATOM     55  C   UNL A   1      45.232  31.972  28.537  1.00  0.00     0.037 A 
ATOM     56  C   UNL A   1      43.360  25.958  27.116  1.00  0.00     0.049 A 
ATOM     57  C   UNL A   1      45.955  30.805  27.941  1.00  0.00     0.074 A 
ATOM     58  C   UNL A   1      43.997  25.043  26.296  1.00  0.00     0.029 A 
ATOM     59  N   UNL A   1      44.220  27.037  27.252  1.00  0.00    -0.354 N 
ATOM     60  N   UNL A   1      45.485  29.617  27.652  1.00  0.00    -0.248 NA
ATOM     61  C   UNL A   1      47.372  30.993  27.603  1.00  0.00     0.031 C 
ATOM     62  C   UNL A   1      45.265  25.544  25.979  1.00  0.00     0.029 A 
ATOM     63  C   UNL A   1      45.401  26.789  26.571  1.00  0.00     0.049 A 
ATOM     64  H   UNL A   1      44.020  27.858  27.756  1.00  0.00     0.167 HD
ATOM     65  C   UNL A   1      46.531  28.934  27.052  1.00  0.00     0.074 A 
ATOM     66  C   UNL A   1      47.665  29.834  27.031  1.00  0.00     0.031 C 
ATOM     67  C   UNL A   1      46.533  27.678  26.546  1.00  0.00     0.037 A 
BRANCH  54  68
ATOM     68  C   UNL A   1      41.332  24.557  27.604  1.00  0.00     0.057 A 
ATOM     69  C   UNL A   1      40.262  24.423  26.710  1.00  0.00     0.134 A 
ATOM     70  C   UNL A   1      41.743  23.419  28.307  1.00  0.00     0.134 A 
ATOM     71  F   UNL A   1      39.817  25.481  26.017  1.00  0.00    -0.206 F 
ATOM     72  C   UNL A   1      39.623  23.197  26.523  1.00  0.00     0.040 A 
ATOM     73  C   UNL A   1      41.122  22.185  28.116  1.00  0.00     0.040 A 
ATOM     74  F   UNL A   1      42.763  23.487  29.176  1.00  0.00    -0.206 F 
ATOM     75  C   UNL A   1      40.060  22.071  27.220  1.00  0.00     0.006 A 
ENDBRANCH  54  68
BRANCH  55  76
ATOM     76  C   UNL A   1      45.960  33.222  28.875  1.00  0.00     0.057 A 
ATOM     77  C   UNL A   1      46.593  33.399  30.107  1.00  0.00     0.134 A 
ATOM     78  C   UNL A   1      46.001  34.291  27.969  1.00  0.00     0.134 A 
ATOM     79  F   UNL A   1      46.575  32.418  31.021  1.00  0.00    -0.206 F 
ATOM     80  C   UNL A   1      47.219  34.602  30.439  1.00  0.00     0.040 A 
ATOM     81  C   UNL A   1      46.639  35.492  28.278  1.00  0.00     0.040 A 
ATOM     82  F   UNL A   1      45.426  34.177  26.763  1.00  0.00    -0.206 F 
ATOM     83  C   UNL A   1      47.243  35.653  29.523  1.00  0.00     0.006 A 
ENDBRANCH  55  76
BRANCH  67  84
ATOM     84  C   UNL A   1      47.789  27.218  25.877  1.00  0.00     0.057 A 
ATOM     85  C   UNL A   1      48.831  26.621  26.596  1.00  0.00     0.134 A 
ATOM     86  C   UNL A   1      47.954  27.364  24.493  1.00  0.00     0.134 A 
ATOM     87  F   UNL A   1      48.744  26.475  27.926  1.00  0.00    -0.206 F 
ATOM     88  C   UNL A   1      50.001  26.198  25.964  1.00  0.00     0.040 A 
ATOM     89  C   UNL A   1      49.108  26.924  23.847  1.00  0.00     0.040 A 
ATOM     90  F   UNL A   1      46.992  27.930  23.749  1.00  0.00    -0.206 F 
ATOM     91  C   UNL A   1      50.139  26.343  24.583  1.00  0.00     0.006 A 
ENDBRANCH  67  84
ENDBRANCH  41  42
ENDBRANCH  34  36
ENDBRANCH  33  34
ENDBRANCH  32  33
ENDBRANCH  31  32
ENDBRANCH  30  31
ENDBRANCH  29  30
ENDBRANCH   1  29
TORSDOF 20
ENDMDL
MODEL 2
REMARK VINA RESULT:     -10.7      4.411      9.796
REMARK SMILES O=C(OCCOCCOCCOC(=O)c1ccc(-c2c3nc(c(-c4c(F)cccc4F)c4ccc([nH]4)c(-c4c(F)cccc4F)c4nc(c(-c5c(F)cccc5F)c5ccc2[nH]5)C=C4)C=C3)cc1)c1ccc(NS(=O)(=O)C2=Cc3ccccc3CC2)cc1
REMARK SMILES IDX 7 1 6 2 5 3 4 4 3 5 2 6 1 7 69 8 70 9 88 10 71 11 87 12
REMARK SMILES IDX 72 13 73 14 74 16 75 17 76 18 77 19 78 20 86 21 79 22 85 23
REMARK SMILES IDX 80 24 84 25 81 26 83 27 82 28 8 29 9 30 10 31 11 32 12 33
REMARK SMILES IDX 13 34 14 35 15 36 16 37 68 38 17 39 67 40 18 41 19 42 20 43
REMARK SMILES IDX 61 44 21 45 66 46 60 47 62 48 22 49 65 50 59 51 58 52 23 54
REMARK SMILES IDX 49 55 32 56 48 57 33 58 36 59 47 60 63 61 34 62 35 63 46 65
REMARK SMILES IDX 64 66 37 67 24 68 25 69 30 70 26 71 27 72 29 73 31 74 28 75
REMARK SMILES IDX 50 76 51 77 56 78 52 79 53 80 55 81 57 82 54 83 38 84 39 85
REMARK SMILES IDX 44 86 40 87 41 88 43 89 45 90 42 91
REMARK H PARENT 73 15 62 53 36 64
REMARK Flexibility Score: inf
ROOT
ATOM      1  C   UNL A   1      33.466  21.694  25.851  1.00  0.00     0.188 C 
ENDROOT
BRANCH   1   2
ATOM      2  O   UNL A   1      32.492  20.848  25.227  1.00  0.00    -0.376 OA
BRANCH   2   3
ATOM      3  C   UNL A   1      32.759  20.577  23.855  1.00  0.00     0.202 C 
BRANCH   3   4
ATOM      4  C   UNL A   1      32.127  21.523  22.831  1.00  0.00     0.261 C 
BRANCH   4   5
ATOM      5  O   UNL A   1      32.365  22.928  23.002  1.00  0.00    -0.460 OA
BRANCH   5   6
ATOM      6  C   UNL A   1      32.967  23.828  22.196  1.00  0.00     0.338 C 
ATOM      7  O   UNL A   1      33.249  23.492  21.047  1.00  0.00    -0.246 OA
BRANCH   6   8
ATOM      8  C   UNL A   1      33.412  25.173  22.654  1.00  0.00     0.060 A 
ATOM      9  C   UNL A   1      33.399  26.345  21.904  1.00  0.00     0.018 A 
ATOM     10  C   UNL A   1      33.928  25.244  23.952  1.00  0.00     0.018 A 
ATOM     11  C   UNL A   1      33.698  27.577  22.502  1.00  0.00     0.027 A 
ATOM     12  C   UNL A   1      34.249  26.474  24.527  1.00  0.00     0.027 A 
ATOM     13  C   UNL A   1      34.033  27.667  23.841  1.00  0.00     0.049 A 
BRANCH  13  14
ATOM     14  N   UNL A   1      33.977  28.871  24.601  1.00  0.00    -0.280 N 
ATOM     15  H   UNL A   1      33.966  29.715  24.095  1.00  0.00     0.180 HD
BRANCH  14  16
ATOM     16  S   UNL A   1      33.930  28.989  26.274  1.00  0.00     0.258 S 
ATOM     17  O   UNL A   1      34.062  27.613  26.713  1.00  0.00    -0.202 OA
ATOM     18  O   UNL A   1      34.950  29.954  26.634  1.00  0.00    -0.202 OA
BRANCH  16  19
ATOM     19  C   UNL A   1      32.311  29.608  26.738  1.00  0.00     0.066 C 
ATOM     20  C   UNL A   1      31.567  30.109  25.721  1.00  0.00     0.026 C 
ATOM     21  C   UNL A   1      31.498  28.680  27.624  1.00  0.00     0.055 C 
ATOM     22  C   UNL A   1      30.950  29.041  24.873  1.00  0.00    -0.021 A 
ATOM     23  C   UNL A   1      31.086  27.426  26.839  1.00  0.00     0.041 C 
ATOM     24  C   UNL A   1      30.565  29.322  23.561  1.00  0.00     0.008 A 
ATOM     25  C   UNL A   1      30.776  27.735  25.390  1.00  0.00    -0.040 A 
ATOM     26  C   UNL A   1      30.095  28.295  22.740  1.00  0.00     0.001 A 
ATOM     27  C   UNL A   1      30.351  26.707  24.544  1.00  0.00     0.004 A 
ATOM     28  C   UNL A   1      30.019  26.987  23.222  1.00  0.00     0.000 A 
ENDBRANCH  16  19
ENDBRANCH  14  16
ENDBRANCH  13  14
ENDBRANCH   6   8
ENDBRANCH   5   6
ENDBRANCH   4   5
ENDBRANCH   3   4
ENDBRANCH   2   3
ENDBRANCH   1   2
BRANCH   1  29
ATOM     29  C   UNL A   1      34.889  21.161  25.654  1.00  0.00     0.188 C 
BRANCH  29  30
ATOM     30  O   UNL A   1      35.738  21.989  24.859  1.00  0.00    -0.376 OA
BRANCH  30  31
ATOM     31  C   UNL A   1      36.802  22.662  25.529  1.00  0.00     0.202 C 
BRANCH  31  32
ATOM     32  C   UNL A   1      38.191  22.041  25.369  1.00  0.00     0.261 C 
BRANCH  32  33
ATOM     33  O   UNL A   1      38.999  22.180  26.554  1.00  0.00    -0.460 OA
BRANCH  33  34
ATOM     34  C   UNL A   1      40.193  22.788  26.359  1.00  0.00     0.338 C 
ATOM     35  O   UNL A   1      41.185  22.326  25.824  1.00  0.00    -0.246 OA
BRANCH  34  36
ATOM     36  C   UNL A   1      40.175  24.157  26.899  1.00  0.00     0.060 A 
ATOM     37  C   UNL A   1      41.134  25.083  26.474  1.00  0.00     0.016 A 
ATOM     38  C   UNL A   1      39.334  24.452  27.972  1.00  0.00     0.016 A 
ATOM     39  C   UNL A   1      41.279  26.299  27.154  1.00  0.00     0.010 A 
ATOM     40  C   UNL A   1      39.473  25.673  28.639  1.00  0.00     0.010 A 
ATOM     41  C   UNL A   1      40.468  26.593  28.260  1.00  0.00    -0.014 A 
BRANCH  41  42
ATOM     42  C   UNL A   1      40.662  27.824  29.077  1.00  0.00     0.031 A 
ATOM     43  C   UNL A   1      41.681  27.850  30.170  1.00  0.00     0.074 A 
ATOM     44  C   UNL A   1      39.893  28.910  28.893  1.00  0.00     0.049 A 
ATOM     45  N   UNL A   1      41.852  28.747  31.106  1.00  0.00    -0.248 NA
ATOM     46  C   UNL A   1      42.653  26.747  30.198  1.00  0.00     0.031 C 
ATOM     47  C   UNL A   1      38.952  29.072  27.802  1.00  0.00     0.029 A 
ATOM     48  N   UNL A   1      39.736  30.056  29.638  1.00  0.00    -0.354 N 
ATOM     49  C   UNL A   1      42.961  28.333  31.824  1.00  0.00     0.074 A 
ATOM     50  C   UNL A   1      43.402  27.083  31.240  1.00  0.00     0.031 C 
ATOM     51  C   UNL A   1      38.232  30.189  27.996  1.00  0.00     0.029 A 
ATOM     52  C   UNL A   1      38.640  30.793  29.254  1.00  0.00     0.049 A 
ATOM     53  H   UNL A   1      40.342  30.319  30.368  1.00  0.00     0.167 HD
ATOM     54  C   UNL A   1      43.567  28.960  32.858  1.00  0.00     0.037 A 
ATOM     55  C   UNL A   1      37.982  31.792  29.870  1.00  0.00     0.037 A 
ATOM     56  C   UNL A   1      43.131  30.208  33.431  1.00  0.00     0.049 A 
ATOM     57  C   UNL A   1      38.534  32.344  31.148  1.00  0.00     0.074 A 
ATOM     58  C   UNL A   1      43.736  30.955  34.426  1.00  0.00     0.029 A 
ATOM     59  N   UNL A   1      41.970  30.878  33.080  1.00  0.00    -0.354 N 
ATOM     60  N   UNL A   1      39.615  31.981  31.792  1.00  0.00    -0.248 NA
ATOM     61  C   UNL A   1      37.801  33.453  31.773  1.00  0.00     0.031 C 
ATOM     62  C   UNL A   1      42.914  32.050  34.716  1.00  0.00     0.029 A 
ATOM     63  C   UNL A   1      41.816  32.005  33.873  1.00  0.00     0.049 A 
ATOM     64  H   UNL A   1      41.348  30.597  32.371  1.00  0.00     0.167 HD
ATOM     65  C   UNL A   1      39.722  32.849  32.868  1.00  0.00     0.074 A 
ATOM     66  C   UNL A   1      38.588  33.747  32.798  1.00  0.00     0.031 C 
ATOM     67  C   UNL A   1      40.692  32.902  33.810  1.00  0.00     0.037 A 
BRANCH  54  68
ATOM     68  C   UNL A   1      44.774  28.307  33.447  1.00  0.00     0.057 A 
ATOM     69  C   UNL A   1      44.673  27.402  34.511  1.00  0.00     0.134 A 
ATOM     70  C   UNL A   1      46.041  28.527  32.895  1.00  0.00     0.134 A 
ATOM     71  F   UNL A   1      43.486  27.160  35.087  1.00  0.00    -0.206 F 
ATOM     72  C   UNL A   1      45.794  26.739  35.008  1.00  0.00     0.040 A 
ATOM     73  C   UNL A   1      47.167  27.858  33.374  1.00  0.00     0.040 A 
ATOM     74  F   UNL A   1      46.199  29.383  31.874  1.00  0.00    -0.206 F 
ATOM     75  C   UNL A   1      47.045  26.959  34.432  1.00  0.00     0.006 A 
ENDBRANCH  54  68
BRANCH  55  76
ATOM     76  C   UNL A   1      36.686  32.278  29.332  1.00  0.00     0.057 A 
ATOM     77  C   UNL A   1      36.593  33.449  28.577  1.00  0.00     0.134 A 
ATOM     78  C   UNL A   1      35.496  31.587  29.603  1.00  0.00     0.134 A 
ATOM     79  F   UNL A   1      37.693  34.162  28.298  1.00  0.00    -0.206 F 
ATOM     80  C   UNL A   1      35.360  33.932  28.130  1.00  0.00     0.040 A 
ATOM     81  C   UNL A   1      34.261  32.047  29.147  1.00  0.00     0.040 A 
ATOM     82  F   UNL A   1      35.523  30.449  30.308  1.00  0.00    -0.206 F 
ATOM     83  C   UNL A   1      34.190  33.230  28.416  1.00  0.00     0.006 A 
ENDBRANCH  55  76
BRANCH  67  84
ATOM     84  C   UNL A   1      40.598  34.003  34.819  1.00  0.00     0.057 A 
ATOM     85  C   UNL A   1      41.182  35.256  34.599  1.00  0.00     0.134 A 
ATOM     86  C   UNL A   1      39.906  33.811  36.021  1.00  0.00     0.134 A 
ATOM     87  F   UNL A   1      41.880  35.494  33.478  1.00  0.00    -0.206 F 
ATOM     88  C   UNL A   1      41.093  36.276  35.546  1.00  0.00     0.040 A 
ATOM     89  C   UNL A   1      39.789  34.830  36.965  1.00  0.00     0.040 A 
ATOM     90  F   UNL A   1      39.325  32.632  36.292  1.00  0.00    -0.206 F 
ATOM     91  C   UNL A   1      40.388  36.066  36.732  1.00  0.00     0.006 A 
ENDBRANCH  67  84
ENDBRANCH  41  42
ENDBRANCH  34  36
ENDBRANCH  33  34
ENDBRANCH  32  33
ENDBRANCH  31  32
ENDBRANCH  30  31
ENDBRANCH  29  30
ENDBRANCH   1  29
TORSDOF 20
ENDMDL
MODEL 3
REMARK VINA RESULT:     -10.7      4.987     10.513
REMARK SMILES O=C(OCCOCCOCCOC(=O)c1ccc(-c2c3nc(c(-c4c(F)cccc4F)c4ccc([nH]4)c(-c4c(F)cccc4F)c4nc(c(-c5c(F)cccc5F)c5ccc2[nH]5)C=C4)C=C3)cc1)c1ccc(NS(=O)(=O)C2=Cc3ccccc3CC2)cc1
REMARK SMILES IDX 7 1 6 2 5 3 4 4 3 5 2 6 1 7 69 8 70 9 88 10 71 11 87 12
REMARK SMILES IDX 72 13 73 14 74 16 75 17 76 18 77 19 78 20 86 21 79 22 85 23
REMARK SMILES IDX 80 24 84 25 81 26 83 27 82 28 8 29 9 30 10 31 11 32 12 33
REMARK SMILES IDX 13 34 14 35 15 36 16 37 68 38 17 39 67 40 18 41 19 42 20 43
REMARK SMILES IDX 61 44 21 45 66 46 60 47 62 48 22 49 65 50 59 51 58 52 23 54
REMARK SMILES IDX 49 55 32 56 48 57 33 58 36 59 47 60 63 61 34 62 35 63 46 65
REMARK SMILES IDX 64 66 37 67 24 68 25 69 30 70 26 71 27 72 29 73 31 74 28 75
REMARK SMILES IDX 50 76 51 77 56 78 52 79 53 80 55 81 57 82 54 83 38 84 39 85
REMARK SMILES IDX 44 86 40 87 41 88 43 89 45 90 42 91
REMARK H PARENT 73 15 62 53 36 64
REMARK Flexibility Score: inf
ROOT
ATOM      1  C   UNL A   1      44.105  19.761  25.083  1.00  0.00     0.188 C 
ENDROOT
BRANCH   1   2
ATOM      2  O   UNL A   1      42.686  19.584  24.997  1.00  0.00    -0.376 OA
BRANCH   2   3
ATOM      3  C   UNL A   1      42.094  19.084  26.191  1.00  0.00     0.202 C 
BRANCH   3   4
ATOM      4  C   UNL A   1      41.100  20.003  26.904  1.00  0.00     0.261 C 
BRANCH   4   5
ATOM      5  O   UNL A   1      40.288  20.854  26.082  1.00  0.00    -0.460 OA
BRANCH   5   6
ATOM      6  C   UNL A   1      39.632  21.998  26.369  1.00  0.00     0.338 C 
ATOM      7  O   UNL A   1      40.152  22.794  27.149  1.00  0.00    -0.246 OA
BRANCH   6   8
ATOM      8  C   UNL A   1      38.259  22.303  25.881  1.00  0.00     0.060 A 
ATOM      9  C   UNL A   1      37.610  23.531  25.957  1.00  0.00     0.018 A 
ATOM     10  C   UNL A   1      37.546  21.231  25.331  1.00  0.00     0.018 A 
ATOM     11  C   UNL A   1      36.377  23.727  25.321  1.00  0.00     0.027 A 
ATOM     12  C   UNL A   1      36.307  21.434  24.725  1.00  0.00     0.027 A 
ATOM     13  C   UNL A   1      35.758  22.709  24.618  1.00  0.00     0.049 A 
BRANCH  13  14
ATOM     14  N   UNL A   1      34.733  22.913  23.650  1.00  0.00    -0.280 N 
ATOM     15  H   UNL A   1      34.593  22.195  22.992  1.00  0.00     0.180 HD
BRANCH  14  16
ATOM     16  S   UNL A   1      33.742  24.261  23.521  1.00  0.00     0.258 S 
ATOM     17  O   UNL A   1      34.004  24.991  24.748  1.00  0.00    -0.202 OA
ATOM     18  O   UNL A   1      34.061  24.871  22.246  1.00  0.00    -0.202 OA
BRANCH  16  19
ATOM     19  C   UNL A   1      32.039  23.696  23.520  1.00  0.00     0.066 C 
ATOM     20  C   UNL A   1      31.825  22.498  22.922  1.00  0.00     0.026 C 
ATOM     21  C   UNL A   1      31.330  23.788  24.861  1.00  0.00     0.055 C 
ATOM     22  C   UNL A   1      32.241  21.340  23.774  1.00  0.00    -0.021 A 
ATOM     23  C   UNL A   1      31.940  22.786  25.851  1.00  0.00     0.041 C 
ATOM     24  C   UNL A   1      32.538  20.110  23.189  1.00  0.00     0.008 A 
ATOM     25  C   UNL A   1      32.356  21.496  25.176  1.00  0.00    -0.040 A 
ATOM     26  C   UNL A   1      33.034  19.068  23.976  1.00  0.00     0.001 A 
ATOM     27  C   UNL A   1      32.899  20.464  25.945  1.00  0.00     0.004 A 
ATOM     28  C   UNL A   1      33.243  19.256  25.344  1.00  0.00     0.000 A 
ENDBRANCH  16  19
ENDBRANCH  14  16
ENDBRANCH  13  14
ENDBRANCH   6   8
ENDBRANCH   5   6
ENDBRANCH   4   5
ENDBRANCH   3   4
ENDBRANCH   2   3
ENDBRANCH   1   2
BRANCH   1  29
ATOM     29  C   UNL A   1      44.481  21.234  25.279  1.00  0.00     0.188 C 
BRANCH  29  30
ATOM     30  O   UNL A   1      43.754  22.154  24.464  1.00  0.00    -0.376 OA
BRANCH  30  31
ATOM     31  C   UNL A   1      43.033  23.185  25.133  1.00  0.00     0.202 C 
BRANCH  31  32
ATOM     32  C   UNL A   1      43.844  24.048  26.102  1.00  0.00     0.261 C 
BRANCH  32  33
ATOM     33  O   UNL A   1      43.863  25.437  25.722  1.00  0.00    -0.460 OA
BRANCH  33  34
ATOM     34  C   UNL A   1      42.660  26.056  25.769  1.00  0.00     0.338 C 
ATOM     35  O   UNL A   1      41.859  26.199  24.862  1.00  0.00    -0.246 OA
BRANCH  34  36
ATOM     36  C   UNL A   1      42.396  26.580  27.120  1.00  0.00     0.060 A 
ATOM     37  C   UNL A   1      41.328  26.070  27.865  1.00  0.00     0.016 A 
ATOM     38  C   UNL A   1      43.083  27.714  27.553  1.00  0.00     0.016 A 
ATOM     39  C   UNL A   1      40.920  26.722  29.035  1.00  0.00     0.010 A 
ATOM     40  C   UNL A   1      42.681  28.354  28.729  1.00  0.00     0.010 A 
ATOM     41  C   UNL A   1      41.575  27.885  29.464  1.00  0.00    -0.014 A 
BRANCH  41  42
ATOM     42  C   UNL A   1      41.105  28.670  30.639  1.00  0.00     0.031 A 
ATOM     43  C   UNL A   1      40.041  29.707  30.477  1.00  0.00     0.074 A 
ATOM     44  C   UNL A   1      41.661  28.510  31.852  1.00  0.00     0.049 A 
ATOM     45  N   UNL A   1      39.651  30.617  31.331  1.00  0.00    -0.248 NA
ATOM     46  C   UNL A   1      39.298  29.702  29.209  1.00  0.00     0.031 C 
ATOM     47  C   UNL A   1      42.614  27.468  32.183  1.00  0.00     0.029 A 
ATOM     48  N   UNL A   1      41.556  29.243  33.011  1.00  0.00    -0.354 N 
ATOM     49  C   UNL A   1      38.603  31.283  30.717  1.00  0.00     0.074 A 
ATOM     50  C   UNL A   1      38.441  30.697  29.402  1.00  0.00     0.031 C 
ATOM     51  C   UNL A   1      43.096  27.681  33.419  1.00  0.00     0.029 A 
ATOM     52  C   UNL A   1      42.511  28.905  33.942  1.00  0.00     0.049 A 
ATOM     53  H   UNL A   1      40.872  29.934  33.158  1.00  0.00     0.167 HD
ATOM     54  C   UNL A   1      37.832  32.272  31.223  1.00  0.00     0.037 A 
ATOM     55  C   UNL A   1      42.931  29.539  35.052  1.00  0.00     0.037 A 
ATOM     56  C   UNL A   1      37.990  32.847  32.534  1.00  0.00     0.049 A 
ATOM     57  C   UNL A   1      42.214  30.776  35.496  1.00  0.00     0.074 A 
ATOM     58  C   UNL A   1      37.199  33.796  33.158  1.00  0.00     0.029 A 
ATOM     59  N   UNL A   1      39.019  32.547  33.412  1.00  0.00    -0.354 N 
ATOM     60  N   UNL A   1      41.188  31.367  34.938  1.00  0.00    -0.248 NA
ATOM     61  C   UNL A   1      42.687  31.421  36.729  1.00  0.00     0.031 C 
ATOM     62  C   UNL A   1      37.779  34.110  34.392  1.00  0.00     0.029 A 
ATOM     63  C   UNL A   1      38.911  33.328  34.553  1.00  0.00     0.049 A 
ATOM     64  H   UNL A   1      39.722  31.877  33.251  1.00  0.00     0.167 HD
ATOM     65  C   UNL A   1      40.859  32.421  35.775  1.00  0.00     0.074 A 
ATOM     66  C   UNL A   1      41.803  32.397  36.873  1.00  0.00     0.031 C 
ATOM     67  C   UNL A   1      39.845  33.310  35.647  1.00  0.00     0.037 A 
BRANCH  54  68
ATOM     68  C   UNL A   1      36.740  32.807  30.355  1.00  0.00     0.057 A 
ATOM     69  C   UNL A   1      36.996  33.755  29.356  1.00  0.00     0.134 A 
ATOM     70  C   UNL A   1      35.436  32.312  30.468  1.00  0.00     0.134 A 
ATOM     71  F   UNL A   1      38.224  34.273  29.208  1.00  0.00    -0.206 F 
ATOM     72  C   UNL A   1      35.987  34.196  28.500  1.00  0.00     0.040 A 
ATOM     73  C   UNL A   1      34.423  32.734  29.606  1.00  0.00     0.040 A 
ATOM     74  F   UNL A   1      35.133  31.402  31.405  1.00  0.00    -0.206 F 
ATOM     75  C   UNL A   1      34.698  33.677  28.617  1.00  0.00     0.006 A 
ENDBRANCH  54  68
BRANCH  55  76
ATOM     76  C   UNL A   1      44.138  29.062  35.774  1.00  0.00     0.057 A 
ATOM     77  C   UNL A   1      44.067  28.081  36.766  1.00  0.00     0.134 A 
ATOM     78  C   UNL A   1      45.397  29.618  35.504  1.00  0.00     0.134 A 
ATOM     79  F   UNL A   1      42.889  27.523  37.079  1.00  0.00    -0.206 F 
ATOM     80  C   UNL A   1      45.199  27.687  37.483  1.00  0.00     0.040 A 
ATOM     81  C   UNL A   1      46.540  29.220  36.199  1.00  0.00     0.040 A 
ATOM     82  F   UNL A   1      45.533  30.551  34.553  1.00  0.00    -0.206 F 
ATOM     83  C   UNL A   1      46.439  28.257  37.200  1.00  0.00     0.006 A 
ENDBRANCH  55  76
BRANCH  67  84
ATOM     84  C   UNL A   1      39.671  34.304  36.752  1.00  0.00     0.057 A 
ATOM     85  C   UNL A   1      38.978  33.987  37.926  1.00  0.00     0.134 A 
ATOM     86  C   UNL A   1      40.213  35.591  36.645  1.00  0.00     0.134 A 
ATOM     87  F   UNL A   1      38.415  32.778  38.079  1.00  0.00    -0.206 F 
ATOM     88  C   UNL A   1      38.818  34.920  38.950  1.00  0.00     0.040 A 
ATOM     89  C   UNL A   1      40.080  36.525  37.671  1.00  0.00     0.040 A 
ATOM     90  F   UNL A   1      40.888  35.956  35.544  1.00  0.00    -0.206 F 
ATOM     91  C   UNL A   1      39.376  36.193  38.827  1.00  0.00     0.006 A 
ENDBRANCH  67  84
ENDBRANCH  41  42
ENDBRANCH  34  36
ENDBRANCH  33  34
ENDBRANCH  32  33
ENDBRANCH  31  32
ENDBRANCH  30  31
ENDBRANCH  29  30
ENDBRANCH   1  29
TORSDOF 20
ENDMDL
