MODEL 1
REMARK VINA RESULT:     -10.0      0.000      0.000
REMARK SMILES Cc1cc(N)c(S(=O)(=O)NCC(=O)OCCOCCOCCOC(=O)c2ccc(-c3c4nc(c(-c5c(F)cccc5F)c5ccc([nH]5)c(-c5c(F)cccc5F)c5nc(c(-c6c(F)cccc6F)c6ccc3[nH]6)C=C5)C=C4)cc2)cc1Cl
REMARK SMILES IDX 18 1 17 2 16 3 15 4 14 5 12 6 13 7 11 8 10 9 7 11 8 12 9 13
REMARK SMILES IDX 6 14 1 15 2 16 3 17 81 18 4 19 80 20 82 21 5 22 19 25 20 26
REMARK SMILES IDX 21 27 22 28 23 29 24 30 25 31 26 32 27 33 79 34 28 35 78 36
REMARK SMILES IDX 29 37 30 38 31 39 72 40 32 41 77 42 71 43 73 44 33 45 76 46
REMARK SMILES IDX 70 47 69 48 34 50 60 51 43 52 59 53 44 54 47 55 58 56 74 57
REMARK SMILES IDX 45 58 46 59 57 61 75 62 48 63 35 64 36 65 41 66 37 67 38 68
REMARK SMILES IDX 40 69 42 70 39 71 61 72 62 73 67 74 63 75 64 76 66 77 68 78
REMARK SMILES IDX 65 79 49 80 50 81 55 82 51 83 52 84 54 85 56 86 53 87
REMARK H PARENT 10 10 5 23 5 24 73 49 47 60
REMARK Flexibility Score: inf
ROOT
ATOM      1  C   UNL A   1      41.391  21.413  27.481  1.00  0.00     0.188 C 
ENDROOT
BRANCH   1   2
ATOM      2  O   UNL A   1      39.988  21.385  27.252  1.00  0.00    -0.376 OA
BRANCH   2   3
ATOM      3  C   UNL A   1      39.464  22.135  26.153  1.00  0.00     0.202 C 
BRANCH   3   4
ATOM      4  C   UNL A   1      38.580  23.324  26.517  1.00  0.00     0.261 C 
BRANCH   4   5
ATOM      5  O   UNL A   1      37.646  23.529  25.451  1.00  0.00    -0.462 OA
BRANCH   5   6
ATOM      6  C   UNL A   1      36.438  22.944  25.594  1.00  0.00     0.321 C 
ATOM      7  O   UNL A   1      36.259  21.743  25.752  1.00  0.00    -0.251 OA
BRANCH   6   8
ATOM      8  C   UNL A   1      35.360  23.979  25.772  1.00  0.00     0.221 C 
BRANCH   8   9
ATOM      9  N   UNL A   1      34.192  23.791  26.632  1.00  0.00    -0.200 NA
ATOM     10  H   UNL A   1      34.435  23.020  27.254  1.00  0.00     0.142 HD
BRANCH   9  11
ATOM     11  S   UNL A   1      32.644  23.458  26.093  1.00  0.00     0.243 S 
ATOM     12  O   UNL A   1      32.265  24.488  25.148  1.00  0.00    -0.207 OA
ATOM     13  O   UNL A   1      31.877  23.194  27.284  1.00  0.00    -0.207 OA
BRANCH  11  14
ATOM     14  C   UNL A   1      32.777  21.937  25.199  1.00  0.00     0.106 A 
ATOM     15  C   UNL A   1      32.397  18.183  23.149  1.00  0.00     0.046 C 
ATOM     16  C   UNL A   1      32.556  19.524  23.807  1.00  0.00    -0.030 A 
ATOM     17  C   UNL A   1      33.027  19.558  25.133  1.00  0.00     0.031 A 
ATOM     18  C   UNL A   1      32.298  20.734  23.158  1.00  0.00     0.045 A 
ATOM     19  C   UNL A   1      33.109  20.750  25.864  1.00  0.00     0.052 A 
ATOM     20  C   UNL A   1      32.431  21.938  23.842  1.00  0.00     0.044 A 
ATOM     21  Cl  UNL A   1      31.775  20.813  21.514  1.00  0.00    -0.084 Cl
BRANCH  19  22
ATOM     22  N   UNL A   1      33.637  20.704  27.147  1.00  0.00    -0.398 N 
ATOM     23  H   UNL A   1      34.536  21.064  27.322  1.00  0.00     0.156 HD
ATOM     24  H   UNL A   1      33.112  20.312  27.882  1.00  0.00     0.156 HD
ENDBRANCH  19  22
ENDBRANCH  11  14
ENDBRANCH   9  11
ENDBRANCH   8   9
ENDBRANCH   6   8
ENDBRANCH   5   6
ENDBRANCH   4   5
ENDBRANCH   3   4
ENDBRANCH   2   3
ENDBRANCH   1   2
BRANCH   1  25
ATOM     25  C   UNL A   1      42.360  20.871  26.412  1.00  0.00     0.188 C 
BRANCH  25  26
ATOM     26  O   UNL A   1      43.584  21.529  26.154  1.00  0.00    -0.376 OA
BRANCH  26  27
ATOM     27  C   UNL A   1      44.197  21.348  24.884  1.00  0.00     0.202 C 
BRANCH  27  28
ATOM     28  C   UNL A   1      44.542  22.628  24.125  1.00  0.00     0.261 C 
BRANCH  28  29
ATOM     29  O   UNL A   1      43.825  23.744  24.675  1.00  0.00    -0.460 OA
BRANCH  29  30
ATOM     30  C   UNL A   1      44.594  24.773  25.104  1.00  0.00     0.338 C 
ATOM     31  O   UNL A   1      45.635  25.179  24.620  1.00  0.00    -0.246 OA
BRANCH  30  32
ATOM     32  C   UNL A   1      43.849  25.500  26.152  1.00  0.00     0.060 A 
ATOM     33  C   UNL A   1      42.809  24.897  26.863  1.00  0.00     0.016 A 
ATOM     34  C   UNL A   1      44.205  26.833  26.399  1.00  0.00     0.016 A 
ATOM     35  C   UNL A   1      42.155  25.622  27.860  1.00  0.00     0.010 A 
ATOM     36  C   UNL A   1      43.539  27.561  27.381  1.00  0.00     0.010 A 
ATOM     37  C   UNL A   1      42.530  26.948  28.138  1.00  0.00    -0.014 A 
BRANCH  37  38
ATOM     38  C   UNL A   1      42.004  27.620  29.345  1.00  0.00     0.031 A 
ATOM     39  C   UNL A   1      42.665  27.485  30.679  1.00  0.00     0.074 A 
ATOM     40  C   UNL A   1      40.898  28.373  29.201  1.00  0.00     0.049 A 
ATOM     41  N   UNL A   1      42.386  28.106  31.797  1.00  0.00    -0.248 NA
ATOM     42  C   UNL A   1      43.776  26.528  30.777  1.00  0.00     0.031 C 
ATOM     43  C   UNL A   1      40.156  28.544  27.950  1.00  0.00     0.029 A 
ATOM     44  N   UNL A   1      40.211  29.135  30.107  1.00  0.00    -0.354 N 
ATOM     45  C   UNL A   1      43.314  27.653  32.724  1.00  0.00     0.074 A 
ATOM     46  C   UNL A   1      44.126  26.657  32.052  1.00  0.00     0.031 C 
ATOM     47  C   UNL A   1      39.124  29.374  28.165  1.00  0.00     0.029 A 
ATOM     48  C   UNL A   1      39.132  29.786  29.563  1.00  0.00     0.049 A 
ATOM     49  H   UNL A   1      40.465  29.208  31.055  1.00  0.00     0.167 HD
ATOM     50  C   UNL A   1      43.481  28.054  34.007  1.00  0.00     0.037 A 
ATOM     51  C   UNL A   1      38.258  30.636  30.129  1.00  0.00     0.037 A 
ATOM     52  C   UNL A   1      42.644  29.017  34.677  1.00  0.00     0.049 A 
ATOM     53  C   UNL A   1      38.436  31.015  31.569  1.00  0.00     0.074 A 
ATOM     54  C   UNL A   1      42.744  29.502  35.969  1.00  0.00     0.029 A 
ATOM     55  N   UNL A   1      41.538  29.634  34.107  1.00  0.00    -0.354 N 
ATOM     56  N   UNL A   1      39.370  30.647  32.411  1.00  0.00    -0.248 NA
ATOM     57  C   UNL A   1      37.446  31.943  32.131  1.00  0.00     0.031 C 
ATOM     58  C   UNL A   1      41.680  30.385  36.193  1.00  0.00     0.029 A 
ATOM     59  C   UNL A   1      40.936  30.477  35.029  1.00  0.00     0.049 A 
ATOM     60  H   UNL A   1      41.227  29.494  33.184  1.00  0.00     0.167 HD
ATOM     61  C   UNL A   1      39.097  31.319  33.595  1.00  0.00     0.074 A 
ATOM     62  C   UNL A   1      37.919  32.128  33.355  1.00  0.00     0.031 C 
ATOM     63  C   UNL A   1      39.764  31.272  34.774  1.00  0.00     0.037 A 
BRANCH  50  64
ATOM     64  C   UNL A   1      44.632  27.467  34.769  1.00  0.00     0.057 A 
ATOM     65  C   UNL A   1      44.490  26.283  35.501  1.00  0.00     0.134 A 
ATOM     66  C   UNL A   1      45.872  28.119  34.825  1.00  0.00     0.134 A 
ATOM     67  F   UNL A   1      43.328  25.613  35.495  1.00  0.00    -0.206 F 
ATOM     68  C   UNL A   1      45.539  25.770  36.270  1.00  0.00     0.040 A 
ATOM     69  C   UNL A   1      46.933  27.607  35.575  1.00  0.00     0.040 A 
ATOM     70  F   UNL A   1      46.074  29.254  34.140  1.00  0.00    -0.206 F 
ATOM     71  C   UNL A   1      46.765  26.433  36.306  1.00  0.00     0.006 A 
ENDBRANCH  50  64
BRANCH  51  72
ATOM     72  C   UNL A   1      37.161  31.218  29.321  1.00  0.00     0.057 A 
ATOM     73  C   UNL A   1      37.236  32.524  28.825  1.00  0.00     0.134 A 
ATOM     74  C   UNL A   1      36.019  30.470  29.014  1.00  0.00     0.134 A 
ATOM     75  F   UNL A   1      38.303  33.291  29.094  1.00  0.00    -0.206 F 
ATOM     76  C   UNL A   1      36.214  33.066  28.047  1.00  0.00     0.040 A 
ATOM     77  C   UNL A   1      34.999  30.992  28.220  1.00  0.00     0.040 A 
ATOM     78  F   UNL A   1      35.902  29.209  29.453  1.00  0.00    -0.206 F 
ATOM     79  C   UNL A   1      35.094  32.295  27.735  1.00  0.00     0.006 A 
ENDBRANCH  51  72
BRANCH  63  80
ATOM     80  C   UNL A   1      39.236  32.141  35.876  1.00  0.00     0.057 A 
ATOM     81  C   UNL A   1      39.673  33.464  36.013  1.00  0.00     0.134 A 
ATOM     82  C   UNL A   1      38.289  31.670  36.794  1.00  0.00     0.134 A 
ATOM     83  F   UNL A   1      40.581  33.974  35.169  1.00  0.00    -0.206 F 
ATOM     84  C   UNL A   1      39.180  34.291  37.023  1.00  0.00     0.040 A 
ATOM     85  C   UNL A   1      37.772  32.495  37.793  1.00  0.00     0.040 A 
ATOM     86  F   UNL A   1      37.817  30.418  36.702  1.00  0.00    -0.206 F 
ATOM     87  C   UNL A   1      38.220  33.809  37.911  1.00  0.00     0.006 A 
ENDBRANCH  63  80
ENDBRANCH  37  38
ENDBRANCH  30  32
ENDBRANCH  29  30
ENDBRANCH  28  29
ENDBRANCH  27  28
ENDBRANCH  26  27
ENDBRANCH  25  26
ENDBRANCH   1  25
TORSDOF 21
ENDMDL
MODEL 2
REMARK VINA RESULT:      -9.9      1.997      6.864
REMARK SMILES Cc1cc(N)c(S(=O)(=O)NCC(=O)OCCOCCOCCOC(=O)c2ccc(-c3c4nc(c(-c5c(F)cccc5F)c5ccc([nH]5)c(-c5c(F)cccc5F)c5nc(c(-c6c(F)cccc6F)c6ccc3[nH]6)C=C5)C=C4)cc2)cc1Cl
REMARK SMILES IDX 18 1 17 2 16 3 15 4 14 5 12 6 13 7 11 8 10 9 7 11 8 12 9 13
REMARK SMILES IDX 6 14 1 15 2 16 3 17 81 18 4 19 80 20 82 21 5 22 19 25 20 26
REMARK SMILES IDX 21 27 22 28 23 29 24 30 25 31 26 32 27 33 79 34 28 35 78 36
REMARK SMILES IDX 29 37 30 38 31 39 72 40 32 41 77 42 71 43 73 44 33 45 76 46
REMARK SMILES IDX 70 47 69 48 34 50 60 51 43 52 59 53 44 54 47 55 58 56 74 57
REMARK SMILES IDX 45 58 46 59 57 61 75 62 48 63 35 64 36 65 41 66 37 67 38 68
REMARK SMILES IDX 40 69 42 70 39 71 61 72 62 73 67 74 63 75 64 76 66 77 68 78
REMARK SMILES IDX 65 79 49 80 50 81 55 82 51 83 52 84 54 85 56 86 53 87
REMARK H PARENT 10 10 5 23 5 24 73 49 47 60
REMARK Flexibility Score: inf
ROOT
ATOM      1  C   UNL A   1      39.907  21.918  26.721  1.00  0.00     0.188 C 
ENDROOT
BRANCH   1   2
ATOM      2  O   UNL A   1      39.024  21.520  25.680  1.00  0.00    -0.376 OA
BRANCH   2   3
ATOM      3  C   UNL A   1      37.660  21.942  25.749  1.00  0.00     0.202 C 
BRANCH   3   4
ATOM      4  C   UNL A   1      36.698  21.251  24.788  1.00  0.00     0.261 C 
BRANCH   4   5
ATOM      5  O   UNL A   1      35.477  20.988  25.489  1.00  0.00    -0.462 OA
BRANCH   5   6
ATOM      6  C   UNL A   1      34.411  21.735  25.135  1.00  0.00     0.321 C 
ATOM      7  O   UNL A   1      34.146  22.073  23.988  1.00  0.00    -0.251 OA
BRANCH   6   8
ATOM      8  C   UNL A   1      33.465  21.901  26.294  1.00  0.00     0.221 C 
BRANCH   8   9
ATOM      9  N   UNL A   1      32.841  23.173  26.652  1.00  0.00    -0.200 NA
ATOM     10  H   UNL A   1      32.790  23.173  27.671  1.00  0.00     0.142 HD
BRANCH   9  11
ATOM     11  S   UNL A   1      31.335  23.687  26.133  1.00  0.00     0.243 S 
ATOM     12  O   UNL A   1      30.426  23.624  27.258  1.00  0.00    -0.207 OA
ATOM     13  O   UNL A   1      31.089  22.963  24.912  1.00  0.00    -0.207 OA
BRANCH  11  14
ATOM     14  C   UNL A   1      31.543  25.391  25.709  1.00  0.00     0.106 A 
ATOM     15  C   UNL A   1      31.854  29.659  25.355  1.00  0.00     0.046 C 
ATOM     16  C   UNL A   1      31.812  28.162  25.458  1.00  0.00    -0.030 A 
ATOM     17  C   UNL A   1      30.658  27.498  25.000  1.00  0.00     0.031 A 
ATOM     18  C   UNL A   1      32.872  27.396  25.949  1.00  0.00     0.045 A 
ATOM     19  C   UNL A   1      30.483  26.117  25.150  1.00  0.00     0.052 A 
ATOM     20  C   UNL A   1      32.749  26.014  26.052  1.00  0.00     0.044 A 
ATOM     21  Cl  UNL A   1      34.357  28.098  26.482  1.00  0.00    -0.084 Cl
BRANCH  19  22
ATOM     22  N   UNL A   1      29.340  25.533  24.620  1.00  0.00    -0.398 N 
ATOM     23  H   UNL A   1      28.700  25.079  25.213  1.00  0.00     0.156 HD
ATOM     24  H   UNL A   1      29.170  25.574  23.652  1.00  0.00     0.156 HD
ENDBRANCH  19  22
ENDBRANCH  11  14
ENDBRANCH   9  11
ENDBRANCH   8   9
ENDBRANCH   6   8
ENDBRANCH   5   6
ENDBRANCH   4   5
ENDBRANCH   3   4
ENDBRANCH   2   3
ENDBRANCH   1   2
BRANCH   1  25
ATOM     25  C   UNL A   1      40.806  20.875  27.414  1.00  0.00     0.188 C 
BRANCH  25  26
ATOM     26  O   UNL A   1      42.212  20.938  27.279  1.00  0.00    -0.376 OA
BRANCH  26  27
ATOM     27  C   UNL A   1      42.780  20.721  25.995  1.00  0.00     0.202 C 
BRANCH  27  28
ATOM     28  C   UNL A   1      43.617  21.869  25.436  1.00  0.00     0.261 C 
BRANCH  28  29
ATOM     29  O   UNL A   1      42.839  23.076  25.388  1.00  0.00    -0.460 OA
BRANCH  29  30
ATOM     30  C   UNL A   1      43.553  24.227  25.387  1.00  0.00     0.338 C 
ATOM     31  O   UNL A   1      44.442  24.553  24.622  1.00  0.00    -0.246 OA
BRANCH  30  32
ATOM     32  C   UNL A   1      42.928  25.159  26.348  1.00  0.00     0.060 A 
ATOM     33  C   UNL A   1      41.938  24.738  27.239  1.00  0.00     0.016 A 
ATOM     34  C   UNL A   1      43.344  26.497  26.323  1.00  0.00     0.016 A 
ATOM     35  C   UNL A   1      41.398  25.654  28.142  1.00  0.00     0.010 A 
ATOM     36  C   UNL A   1      42.791  27.415  27.212  1.00  0.00     0.010 A 
ATOM     37  C   UNL A   1      41.837  26.990  28.147  1.00  0.00    -0.014 A 
BRANCH  37  38
ATOM     38  C   UNL A   1      41.442  27.886  29.255  1.00  0.00     0.031 A 
ATOM     39  C   UNL A   1      40.288  28.828  29.139  1.00  0.00     0.074 A 
ATOM     40  C   UNL A   1      42.163  27.822  30.389  1.00  0.00     0.049 A 
ATOM     41  N   UNL A   1      39.754  29.587  30.062  1.00  0.00    -0.248 NA
ATOM     42  C   UNL A   1      39.651  28.941  27.818  1.00  0.00     0.031 C 
ATOM     43  C   UNL A   1      43.330  26.961  30.595  1.00  0.00     0.029 A 
ATOM     44  N   UNL A   1      42.019  28.484  31.579  1.00  0.00    -0.354 N 
ATOM     45  C   UNL A   1      38.690  30.235  29.452  1.00  0.00     0.074 A 
ATOM     46  C   UNL A   1      38.692  29.827  28.061  1.00  0.00     0.031 C 
ATOM     47  C   UNL A   1      43.787  27.136  31.844  1.00  0.00     0.029 A 
ATOM     48  C   UNL A   1      42.950  28.121  32.520  1.00  0.00     0.049 A 
ATOM     49  H   UNL A   1      41.318  29.154  31.743  1.00  0.00     0.167 HD
ATOM     50  C   UNL A   1      37.786  31.073  30.014  1.00  0.00     0.037 A 
ATOM     51  C   UNL A   1      43.098  28.525  33.792  1.00  0.00     0.037 A 
ATOM     52  C   UNL A   1      37.816  31.503  31.390  1.00  0.00     0.049 A 
ATOM     53  C   UNL A   1      42.114  29.499  34.368  1.00  0.00     0.074 A 
ATOM     54  C   UNL A   1      36.935  32.336  32.057  1.00  0.00     0.029 A 
ATOM     55  N   UNL A   1      38.793  31.142  32.309  1.00  0.00    -0.354 N 
ATOM     56  N   UNL A   1      41.060  30.039  33.807  1.00  0.00    -0.248 NA
ATOM     57  C   UNL A   1      42.333  29.908  35.762  1.00  0.00     0.031 C 
ATOM     58  C   UNL A   1      37.396  32.507  33.368  1.00  0.00     0.029 A 
ATOM     59  C   UNL A   1      38.546  31.753  33.529  1.00  0.00     0.049 A 
ATOM     60  H   UNL A   1      39.549  30.541  32.121  1.00  0.00     0.167 HD
ATOM     61  C   UNL A   1      40.473  30.828  34.786  1.00  0.00     0.074 A 
ATOM     62  C   UNL A   1      41.282  30.685  35.980  1.00  0.00     0.031 C 
ATOM     63  C   UNL A   1      39.363  31.601  34.704  1.00  0.00     0.037 A 
BRANCH  50  64
ATOM     64  C   UNL A   1      36.667  31.565  29.144  1.00  0.00     0.057 A 
ATOM     65  C   UNL A   1      36.631  32.887  28.686  1.00  0.00     0.134 A 
ATOM     66  C   UNL A   1      35.587  30.735  28.814  1.00  0.00     0.134 A 
ATOM     67  F   UNL A   1      37.630  33.735  28.971  1.00  0.00    -0.206 F 
ATOM     68  C   UNL A   1      35.556  33.369  27.935  1.00  0.00     0.040 A 
ATOM     69  C   UNL A   1      34.516  31.200  28.049  1.00  0.00     0.040 A 
ATOM     70  F   UNL A   1      35.566  29.456  29.218  1.00  0.00    -0.206 F 
ATOM     71  C   UNL A   1      34.495  32.523  27.613  1.00  0.00     0.006 A 
ENDBRANCH  50  64
BRANCH  51  72
ATOM     72  C   UNL A   1      44.198  27.979  34.621  1.00  0.00     0.057 A 
ATOM     73  C   UNL A   1      44.042  26.794  35.348  1.00  0.00     0.134 A 
ATOM     74  C   UNL A   1      45.437  28.625  34.689  1.00  0.00     0.134 A 
ATOM     75  F   UNL A   1      42.873  26.135  35.328  1.00  0.00    -0.206 F 
ATOM     76  C   UNL A   1      45.082  26.266  36.112  1.00  0.00     0.040 A 
ATOM     77  C   UNL A   1      46.493  28.098  35.431  1.00  0.00     0.040 A 
ATOM     78  F   UNL A   1      45.645  29.757  34.001  1.00  0.00    -0.206 F 
ATOM     79  C   UNL A   1      46.316  26.916  36.148  1.00  0.00     0.006 A 
ENDBRANCH  51  72
BRANCH  63  80
ATOM     80  C   UNL A   1      38.958  32.325  35.953  1.00  0.00     0.057 A 
ATOM     81  C   UNL A   1      38.184  31.688  36.930  1.00  0.00     0.134 A 
ATOM     82  C   UNL A   1      39.344  33.650  36.193  1.00  0.00     0.134 A 
ATOM     83  F   UNL A   1      37.778  30.420  36.759  1.00  0.00    -0.206 F 
ATOM     84  C   UNL A   1      37.812  32.341  38.105  1.00  0.00     0.040 A 
ATOM     85  C   UNL A   1      38.998  34.306  37.375  1.00  0.00     0.040 A 
ATOM     86  F   UNL A   1      40.104  34.308  35.305  1.00  0.00    -0.206 F 
ATOM     87  C   UNL A   1      38.228  33.652  38.334  1.00  0.00     0.006 A 
ENDBRANCH  63  80
ENDBRANCH  37  38
ENDBRANCH  30  32
ENDBRANCH  29  30
ENDBRANCH  28  29
ENDBRANCH  27  28
ENDBRANCH  26  27
ENDBRANCH  25  26
ENDBRANCH   1  25
TORSDOF 21
ENDMDL
MODEL 3
REMARK VINA RESULT:      -9.8      5.139     10.182
REMARK SMILES Cc1cc(N)c(S(=O)(=O)NCC(=O)OCCOCCOCCOC(=O)c2ccc(-c3c4nc(c(-c5c(F)cccc5F)c5ccc([nH]5)c(-c5c(F)cccc5F)c5nc(c(-c6c(F)cccc6F)c6ccc3[nH]6)C=C5)C=C4)cc2)cc1Cl
REMARK SMILES IDX 18 1 17 2 16 3 15 4 14 5 12 6 13 7 11 8 10 9 7 11 8 12 9 13
REMARK SMILES IDX 6 14 1 15 2 16 3 17 81 18 4 19 80 20 82 21 5 22 19 25 20 26
REMARK SMILES IDX 21 27 22 28 23 29 24 30 25 31 26 32 27 33 79 34 28 35 78 36
REMARK SMILES IDX 29 37 30 38 31 39 72 40 32 41 77 42 71 43 73 44 33 45 76 46
REMARK SMILES IDX 70 47 69 48 34 50 60 51 43 52 59 53 44 54 47 55 58 56 74 57
REMARK SMILES IDX 45 58 46 59 57 61 75 62 48 63 35 64 36 65 41 66 37 67 38 68
REMARK SMILES IDX 40 69 42 70 39 71 61 72 62 73 67 74 63 75 64 76 66 77 68 78
REMARK SMILES IDX 65 79 49 80 50 81 55 82 51 83 52 84 54 85 56 86 53 87
REMARK H PARENT 10 10 5 23 5 24 73 49 47 60
REMARK Flexibility Score: inf
ROOT
ATOM      1  C   UNL A   1      35.270  33.307  28.045  1.00  0.00     0.188 C 
ENDROOT
BRANCH   1   2
ATOM      2  O   UNL A   1      35.584  31.942  27.802  1.00  0.00    -0.376 OA
BRANCH   2   3
ATOM      3  C   UNL A   1      34.518  31.048  27.471  1.00  0.00     0.202 C 
BRANCH   3   4
ATOM      4  C   UNL A   1      34.933  29.650  27.024  1.00  0.00     0.261 C 
BRANCH   4   5
ATOM      5  O   UNL A   1      33.950  28.720  27.493  1.00  0.00    -0.462 OA
BRANCH   5   6
ATOM      6  C   UNL A   1      33.009  28.346  26.601  1.00  0.00     0.321 C 
ATOM      7  O   UNL A   1      32.075  29.049  26.235  1.00  0.00    -0.251 OA
BRANCH   6   8
ATOM      8  C   UNL A   1      33.385  27.047  25.939  1.00  0.00     0.221 C 
BRANCH   8   9
ATOM      9  N   UNL A   1      33.878  26.952  24.566  1.00  0.00    -0.200 NA
ATOM     10  H   UNL A   1      34.155  27.900  24.311  1.00  0.00     0.142 HD
BRANCH   9  11
ATOM     11  S   UNL A   1      32.995  26.382  23.265  1.00  0.00     0.243 S 
ATOM     12  O   UNL A   1      32.626  25.008  23.539  1.00  0.00    -0.207 OA
ATOM     13  O   UNL A   1      33.760  26.748  22.099  1.00  0.00    -0.207 OA
BRANCH  11  14
ATOM     14  C   UNL A   1      31.510  27.341  23.249  1.00  0.00     0.106 A 
ATOM     15  C   UNL A   1      27.757  29.325  22.603  1.00  0.00     0.046 C 
ATOM     16  C   UNL A   1      29.046  28.611  22.891  1.00  0.00    -0.030 A 
ATOM     17  C   UNL A   1      30.249  29.244  22.530  1.00  0.00     0.031 A 
ATOM     18  C   UNL A   1      29.109  27.371  23.533  1.00  0.00     0.045 A 
ATOM     19  C   UNL A   1      31.493  28.613  22.663  1.00  0.00     0.052 A 
ATOM     20  C   UNL A   1      30.337  26.749  23.734  1.00  0.00     0.044 A 
ATOM     21  Cl  UNL A   1      27.701  26.532  24.073  1.00  0.00    -0.084 Cl
BRANCH  19  22
ATOM     22  N   UNL A   1      32.636  29.329  22.335  1.00  0.00    -0.398 N 
ATOM     23  H   UNL A   1      33.286  29.565  23.036  1.00  0.00     0.156 HD
ATOM     24  H   UNL A   1      32.797  29.600  21.403  1.00  0.00     0.156 HD
ENDBRANCH  19  22
ENDBRANCH  11  14
ENDBRANCH   9  11
ENDBRANCH   8   9
ENDBRANCH   6   8
ENDBRANCH   5   6
ENDBRANCH   4   5
ENDBRANCH   3   4
ENDBRANCH   2   3
ENDBRANCH   1   2
BRANCH   1  25
ATOM     25  C   UNL A   1      34.073  33.677  28.943  1.00  0.00     0.188 C 
BRANCH  25  26
ATOM     26  O   UNL A   1      34.032  33.256  30.292  1.00  0.00    -0.376 OA
BRANCH  26  27
ATOM     27  C   UNL A   1      34.679  34.055  31.272  1.00  0.00     0.202 C 
BRANCH  27  28
ATOM     28  C   UNL A   1      34.644  33.514  32.700  1.00  0.00     0.261 C 
BRANCH  28  29
ATOM     29  O   UNL A   1      35.289  32.233  32.765  1.00  0.00    -0.460 OA
BRANCH  29  30
ATOM     30  C   UNL A   1      36.478  32.214  33.412  1.00  0.00     0.338 C 
ATOM     31  O   UNL A   1      36.695  32.471  34.583  1.00  0.00    -0.246 OA
BRANCH  30  32
ATOM     32  C   UNL A   1      37.481  31.600  32.519  1.00  0.00     0.060 A 
ATOM     33  C   UNL A   1      37.297  31.551  31.135  1.00  0.00     0.016 A 
ATOM     34  C   UNL A   1      38.624  31.042  33.108  1.00  0.00     0.016 A 
ATOM     35  C   UNL A   1      38.288  30.982  30.335  1.00  0.00     0.010 A 
ATOM     36  C   UNL A   1      39.604  30.457  32.309  1.00  0.00     0.010 A 
ATOM     37  C   UNL A   1      39.454  30.452  30.915  1.00  0.00    -0.014 A 
BRANCH  37  38
ATOM     38  C   UNL A   1      40.594  30.076  30.053  1.00  0.00     0.031 A 
ATOM     39  C   UNL A   1      41.697  31.033  29.735  1.00  0.00     0.074 A 
ATOM     40  C   UNL A   1      40.610  28.823  29.561  1.00  0.00     0.049 A 
ATOM     41  N   UNL A   1      42.815  30.809  29.092  1.00  0.00    -0.248 NA
ATOM     42  C   UNL A   1      41.525  32.420  30.188  1.00  0.00     0.031 C 
ATOM     43  C   UNL A   1      39.566  27.820  29.783  1.00  0.00     0.029 A 
ATOM     44  N   UNL A   1      41.534  28.181  28.782  1.00  0.00    -0.354 N 
ATOM     45  C   UNL A   1      43.505  32.012  29.101  1.00  0.00     0.074 A 
ATOM     46  C   UNL A   1      42.651  32.981  29.760  1.00  0.00     0.031 C 
ATOM     47  C   UNL A   1      39.916  26.682  29.166  1.00  0.00     0.029 A 
ATOM     48  C   UNL A   1      41.202  26.877  28.506  1.00  0.00     0.049 A 
ATOM     49  H   UNL A   1      42.356  28.610  28.451  1.00  0.00     0.167 HD
ATOM     50  C   UNL A   1      44.746  32.271  28.622  1.00  0.00     0.037 A 
ATOM     51  C   UNL A   1      41.871  25.941  27.813  1.00  0.00     0.037 A 
ATOM     52  C   UNL A   1      45.572  31.310  27.935  1.00  0.00     0.049 A 
ATOM     53  C   UNL A   1      43.218  26.276  27.246  1.00  0.00     0.074 A 
ATOM     54  C   UNL A   1      46.850  31.471  27.428  1.00  0.00     0.029 A 
ATOM     55  N   UNL A   1      45.191  30.007  27.642  1.00  0.00    -0.354 N 
ATOM     56  N   UNL A   1      43.898  27.392  27.335  1.00  0.00    -0.248 NA
ATOM     57  C   UNL A   1      43.897  25.213  26.493  1.00  0.00     0.031 C 
ATOM     58  C   UNL A   1      47.230  30.278  26.800  1.00  0.00     0.029 A 
ATOM     59  C   UNL A   1      46.202  29.362  26.945  1.00  0.00     0.049 A 
ATOM     60  H   UNL A   1      44.331  29.601  27.893  1.00  0.00     0.167 HD
ATOM     61  C   UNL A   1      45.098  27.158  26.677  1.00  0.00     0.074 A 
ATOM     62  C   UNL A   1      45.055  25.788  26.205  1.00  0.00     0.031 C 
ATOM     63  C   UNL A   1      46.141  28.001  26.481  1.00  0.00     0.037 A 
BRANCH  50  64
ATOM     64  C   UNL A   1      45.300  33.646  28.849  1.00  0.00     0.057 A 
ATOM     65  C   UNL A   1      45.124  34.664  27.904  1.00  0.00     0.134 A 
ATOM     66  C   UNL A   1      46.069  33.941  29.983  1.00  0.00     0.134 A 
ATOM     67  F   UNL A   1      44.404  34.447  26.794  1.00  0.00    -0.206 F 
ATOM     68  C   UNL A   1      45.698  35.926  28.077  1.00  0.00     0.040 A 
ATOM     69  C   UNL A   1      46.633  35.203  30.175  1.00  0.00     0.040 A 
ATOM     70  F   UNL A   1      46.269  33.010  30.928  1.00  0.00    -0.206 F 
ATOM     71  C   UNL A   1      46.454  36.198  29.217  1.00  0.00     0.006 A 
ENDBRANCH  50  64
BRANCH  51  72
ATOM     72  C   UNL A   1      41.296  24.585  27.653  1.00  0.00     0.057 A 
ATOM     73  C   UNL A   1      40.288  24.327  26.717  1.00  0.00     0.134 A 
ATOM     74  C   UNL A   1      41.758  23.513  28.423  1.00  0.00     0.134 A 
ATOM     75  F   UNL A   1      39.800  25.318  25.956  1.00  0.00    -0.206 F 
ATOM     76  C   UNL A   1      39.760  23.048  26.550  1.00  0.00     0.040 A 
ATOM     77  C   UNL A   1      41.255  22.224  28.252  1.00  0.00     0.040 A 
ATOM     78  F   UNL A   1      42.732  23.701  29.325  1.00  0.00    -0.206 F 
ATOM     79  C   UNL A   1      40.251  21.989  27.315  1.00  0.00     0.006 A 
ENDBRANCH  51  72
BRANCH  63  80
ATOM     80  C   UNL A   1      47.321  27.444  25.745  1.00  0.00     0.057 A 
ATOM     81  C   UNL A   1      47.414  27.558  24.352  1.00  0.00     0.134 A 
ATOM     82  C   UNL A   1      48.371  26.802  26.415  1.00  0.00     0.134 A 
ATOM     83  F   UNL A   1      46.440  28.158  23.651  1.00  0.00    -0.206 F 
ATOM     84  C   UNL A   1      48.513  27.060  23.652  1.00  0.00     0.040 A 
ATOM     85  C   UNL A   1      49.486  26.321  25.728  1.00  0.00     0.040 A 
ATOM     86  F   UNL A   1      48.350  26.680  27.750  1.00  0.00    -0.206 F 
ATOM     87  C   UNL A   1      49.558  26.447  24.342  1.00  0.00     0.006 A 
ENDBRANCH  63  80
ENDBRANCH  37  38
ENDBRANCH  30  32
ENDBRANCH  29  30
ENDBRANCH  28  29
ENDBRANCH  27  28
ENDBRANCH  26  27
ENDBRANCH  25  26
ENDBRANCH   1  25
TORSDOF 21
ENDMDL
