MODEL 1
REMARK VINA RESULT:     -11.3      0.000      0.000
REMARK SMILES Cc1c(C(=O)OCCOCCOCCOC(=O)c2ccc(-c3c4nc(c(-c5c(F)cccc5F)c5ccc([nH]5)c(-c5c(F)cccc5F)c5nc(c(-c6c(F)cccc6F)c6ccc3[nH]6)C=C5)C=C4)cc2)oc2c1/C(=N/NC(=O)C(c1ccccc1)c1ccccc1)CCC2
REMARK SMILES IDX 10 1 9 2 8 3 7 4 6 5 4 6 5 7 3 8 1 9 2 10 74 11 72 12 73 13
REMARK SMILES IDX 75 14 95 15 76 16 93 17 94 18 77 19 78 20 79 22 80 23 81 24
REMARK SMILES IDX 82 25 86 26 83 27 85 28 84 29 87 30 88 31 92 32 89 33 91 34
REMARK SMILES IDX 90 35 11 36 12 37 13 38 14 39 15 40 16 41 17 42 18 43 19 44
REMARK SMILES IDX 71 45 20 46 70 47 21 48 22 49 23 50 64 51 24 52 69 53 63 54
REMARK SMILES IDX 65 55 25 56 68 57 62 58 61 59 26 61 52 62 35 63 51 64 36 65
REMARK SMILES IDX 39 66 50 67 66 68 37 69 38 70 49 72 67 73 40 74 27 75 28 76
REMARK SMILES IDX 33 77 29 78 30 79 32 80 34 81 31 82 53 83 54 84 59 85 55 86
REMARK SMILES IDX 56 87 58 88 60 89 57 90 41 91 42 92 47 93 43 94 44 95 46 96
REMARK SMILES IDX 48 97 45 98
REMARK H PARENT 77 21 65 60 39 71
REMARK Flexibility Score: inf
ROOT
ATOM      1  C   UNL A   1      44.589  22.573  23.866  1.00  0.00     0.188 C 
ENDROOT
BRANCH   1   2
ATOM      2  O   UNL A   1      44.514  21.191  23.534  1.00  0.00    -0.376 OA
BRANCH   2   3
ATOM      3  C   UNL A   1      44.677  20.168  24.506  1.00  0.00     0.202 C 
BRANCH   3   4
ATOM      4  C   UNL A   1      43.477  19.552  25.241  1.00  0.00     0.261 C 
BRANCH   4   5
ATOM      5  O   UNL A   1      43.163  20.165  26.479  1.00  0.00    -0.457 OA
BRANCH   5   6
ATOM      6  C   UNL A   1      42.033  19.730  27.114  1.00  0.00     0.374 C 
ATOM      7  O   UNL A   1      41.959  18.793  27.873  1.00  0.00    -0.242 OA
BRANCH   6   8
ATOM      8  C   UNL A   1      40.998  20.694  26.817  1.00  0.00     0.215 A 
ATOM      9  C   UNL A   1      39.219  19.452  25.401  1.00  0.00     0.049 C 
ATOM     10  C   UNL A   1      39.800  20.622  26.104  1.00  0.00     0.012 A 
ATOM     11  C   UNL A   1      39.229  21.923  26.212  1.00  0.00     0.043 A 
ATOM     12  O   UNL A   1      41.118  21.909  27.425  1.00  0.00    -0.453 OA
ATOM     13  C   UNL A   1      40.036  22.614  27.094  1.00  0.00     0.114 A 
ATOM     14  C   UNL A   1      38.104  22.615  25.587  1.00  0.00     0.072 C 
ATOM     15  C   UNL A   1      39.925  23.988  27.627  1.00  0.00     0.076 C 
ATOM     16  N   UNL A   1      37.256  21.874  24.940  1.00  0.00    -0.177 NA
ATOM     17  C   UNL A   1      38.280  24.103  25.764  1.00  0.00     0.059 C 
ATOM     18  C   UNL A   1      38.579  24.548  27.195  1.00  0.00     0.014 C 
BRANCH  16  19
ATOM     19  N   UNL A   1      36.157  22.082  24.150  1.00  0.00    -0.246 N 
ATOM     20  C   UNL A   1      34.797  21.847  24.115  1.00  0.00     0.252 C 
ATOM     21  H   UNL A   1      36.427  22.560  23.333  1.00  0.00     0.193 HD
ATOM     22  O   UNL A   1      34.182  22.306  23.138  1.00  0.00    -0.272 OA
BRANCH  20  23
ATOM     23  C   UNL A   1      34.016  21.065  25.189  1.00  0.00     0.140 C 
BRANCH  23  24
ATOM     24  C   UNL A   1      32.954  22.053  25.809  1.00  0.00    -0.031 A 
ATOM     25  C   UNL A   1      31.569  21.834  25.764  1.00  0.00     0.005 A 
ATOM     26  C   UNL A   1      33.365  23.294  26.370  1.00  0.00     0.005 A 
ATOM     27  C   UNL A   1      30.663  22.866  26.082  1.00  0.00     0.000 A 
ATOM     28  C   UNL A   1      32.469  24.322  26.674  1.00  0.00     0.000 A 
ATOM     29  C   UNL A   1      31.114  24.117  26.501  1.00  0.00     0.000 A 
ENDBRANCH  23  24
BRANCH  23  30
ATOM     30  C   UNL A   1      33.668  19.654  24.584  1.00  0.00    -0.031 A 
ATOM     31  C   UNL A   1      34.525  18.552  24.853  1.00  0.00     0.005 A 
ATOM     32  C   UNL A   1      32.605  19.394  23.705  1.00  0.00     0.005 A 
ATOM     33  C   UNL A   1      34.508  17.382  24.092  1.00  0.00     0.000 A 
ATOM     34  C   UNL A   1      32.566  18.199  22.955  1.00  0.00     0.000 A 
ATOM     35  C   UNL A   1      33.550  17.222  23.107  1.00  0.00     0.000 A 
ENDBRANCH  23  30
ENDBRANCH  20  23
ENDBRANCH  16  19
ENDBRANCH   6   8
ENDBRANCH   5   6
ENDBRANCH   4   5
ENDBRANCH   3   4
ENDBRANCH   2   3
ENDBRANCH   1   2
BRANCH   1  36
ATOM     36  C   UNL A   1      45.802  23.192  24.598  1.00  0.00     0.188 C 
BRANCH  36  37
ATOM     37  O   UNL A   1      45.491  23.854  25.799  1.00  0.00    -0.376 OA
BRANCH  37  38
ATOM     38  C   UNL A   1      44.607  23.268  26.736  1.00  0.00     0.202 C 
BRANCH  38  39
ATOM     39  C   UNL A   1      44.758  23.384  28.256  1.00  0.00     0.261 C 
BRANCH  39  40
ATOM     40  O   UNL A   1      43.624  23.793  28.997  1.00  0.00    -0.460 OA
BRANCH  40  41
ATOM     41  C   UNL A   1      43.900  24.609  30.036  1.00  0.00     0.338 C 
ATOM     42  O   UNL A   1      44.211  24.279  31.169  1.00  0.00    -0.246 OA
BRANCH  41  43
ATOM     43  C   UNL A   1      43.673  25.999  29.627  1.00  0.00     0.060 A 
ATOM     44  C   UNL A   1      44.120  27.003  30.488  1.00  0.00     0.016 A 
ATOM     45  C   UNL A   1      42.824  26.274  28.545  1.00  0.00     0.016 A 
ATOM     46  C   UNL A   1      43.569  28.261  30.369  1.00  0.00     0.010 A 
ATOM     47  C   UNL A   1      42.273  27.531  28.429  1.00  0.00     0.010 A 
ATOM     48  C   UNL A   1      42.587  28.483  29.395  1.00  0.00    -0.014 A 
BRANCH  48  49
ATOM     49  C   UNL A   1      41.889  29.752  29.427  1.00  0.00     0.031 A 
ATOM     50  C   UNL A   1      42.718  30.919  29.061  1.00  0.00     0.074 A 
ATOM     51  C   UNL A   1      40.580  29.850  29.723  1.00  0.00     0.049 A 
ATOM     52  N   UNL A   1      43.077  31.898  29.821  1.00  0.00    -0.248 NA
ATOM     53  C   UNL A   1      43.313  30.936  27.718  1.00  0.00     0.031 C 
ATOM     54  C   UNL A   1      39.604  28.763  29.857  1.00  0.00     0.029 A 
ATOM     55  N   UNL A   1      39.825  30.972  29.888  1.00  0.00    -0.354 N 
ATOM     56  C   UNL A   1      43.790  32.762  29.000  1.00  0.00     0.074 A 
ATOM     57  C   UNL A   1      44.027  32.061  27.765  1.00  0.00     0.031 C 
ATOM     58  C   UNL A   1      38.358  29.285  29.879  1.00  0.00     0.029 A 
ATOM     59  C   UNL A   1      38.460  30.735  29.905  1.00  0.00     0.049 A 
ATOM     60  H   UNL A   1      40.215  31.870  29.985  1.00  0.00     0.167 HD
ATOM     61  C   UNL A   1      43.913  34.079  29.310  1.00  0.00     0.037 A 
ATOM     62  C   UNL A   1      37.481  31.668  29.897  1.00  0.00     0.037 A 
ATOM     63  C   UNL A   1      43.616  34.332  30.694  1.00  0.00     0.049 A 
ATOM     64  C   UNL A   1      38.056  32.934  30.402  1.00  0.00     0.074 A 
ATOM     65  C   UNL A   1      44.194  34.017  31.905  1.00  0.00     0.029 A 
ATOM     66  N   UNL A   1      42.339  34.752  30.965  1.00  0.00    -0.354 N 
ATOM     67  N   UNL A   1      38.435  33.119  31.635  1.00  0.00    -0.248 NA
ATOM     68  C   UNL A   1      38.542  33.922  29.449  1.00  0.00     0.031 C 
ATOM     69  C   UNL A   1      43.117  33.934  32.837  1.00  0.00     0.029 A 
ATOM     70  C   UNL A   1      41.932  34.216  32.158  1.00  0.00     0.049 A 
ATOM     71  H   UNL A   1      41.801  35.344  30.392  1.00  0.00     0.167 HD
ATOM     72  C   UNL A   1      39.529  33.962  31.541  1.00  0.00     0.074 A 
ATOM     73  C   UNL A   1      39.437  34.554  30.213  1.00  0.00     0.031 C 
ATOM     74  C   UNL A   1      40.555  33.871  32.437  1.00  0.00     0.037 A 
BRANCH  61  75
ATOM     75  C   UNL A   1      43.871  35.177  28.277  1.00  0.00     0.057 A 
ATOM     76  C   UNL A   1      44.988  36.014  28.117  1.00  0.00     0.134 A 
ATOM     77  C   UNL A   1      42.681  35.634  27.672  1.00  0.00     0.134 A 
ATOM     78  F   UNL A   1      46.167  35.701  28.675  1.00  0.00    -0.206 F 
ATOM     79  C   UNL A   1      44.910  37.243  27.453  1.00  0.00     0.040 A 
ATOM     80  C   UNL A   1      42.606  36.834  26.963  1.00  0.00     0.040 A 
ATOM     81  F   UNL A   1      41.511  35.004  27.827  1.00  0.00    -0.206 F 
ATOM     82  C   UNL A   1      43.716  37.659  26.876  1.00  0.00     0.006 A 
ENDBRANCH  61  75
BRANCH  62  83
ATOM     83  C   UNL A   1      36.149  31.589  29.264  1.00  0.00     0.057 A 
ATOM     84  C   UNL A   1      35.057  32.311  29.762  1.00  0.00     0.134 A 
ATOM     85  C   UNL A   1      35.983  31.010  27.994  1.00  0.00     0.134 A 
ATOM     86  F   UNL A   1      35.135  32.933  30.948  1.00  0.00    -0.206 F 
ATOM     87  C   UNL A   1      33.874  32.468  29.028  1.00  0.00     0.040 A 
ATOM     88  C   UNL A   1      34.806  31.153  27.253  1.00  0.00     0.040 A 
ATOM     89  F   UNL A   1      36.991  30.362  27.391  1.00  0.00    -0.206 F 
ATOM     90  C   UNL A   1      33.751  31.898  27.765  1.00  0.00     0.006 A 
ENDBRANCH  62  83
BRANCH  74  91
ATOM     91  C   UNL A   1      40.272  33.141  33.717  1.00  0.00     0.057 A 
ATOM     92  C   UNL A   1      40.460  31.763  33.893  1.00  0.00     0.134 A 
ATOM     93  C   UNL A   1      39.880  33.878  34.840  1.00  0.00     0.134 A 
ATOM     94  F   UNL A   1      40.920  30.994  32.898  1.00  0.00    -0.206 F 
ATOM     95  C   UNL A   1      40.219  31.139  35.121  1.00  0.00     0.040 A 
ATOM     96  C   UNL A   1      39.668  33.271  36.080  1.00  0.00     0.040 A 
ATOM     97  F   UNL A   1      39.734  35.210  34.757  1.00  0.00    -0.206 F 
ATOM     98  C   UNL A   1      39.825  31.895  36.221  1.00  0.00     0.006 A 
ENDBRANCH  74  91
ENDBRANCH  48  49
ENDBRANCH  41  43
ENDBRANCH  40  41
ENDBRANCH  39  40
ENDBRANCH  38  39
ENDBRANCH  37  38
ENDBRANCH  36  37
ENDBRANCH   1  36
TORSDOF 21
ENDMDL
MODEL 2
REMARK VINA RESULT:     -10.7      3.178      9.136
REMARK SMILES Cc1c(C(=O)OCCOCCOCCOC(=O)c2ccc(-c3c4nc(c(-c5c(F)cccc5F)c5ccc([nH]5)c(-c5c(F)cccc5F)c5nc(c(-c6c(F)cccc6F)c6ccc3[nH]6)C=C5)C=C4)cc2)oc2c1/C(=N/NC(=O)C(c1ccccc1)c1ccccc1)CCC2
REMARK SMILES IDX 10 1 9 2 8 3 7 4 6 5 4 6 5 7 3 8 1 9 2 10 74 11 72 12 73 13
REMARK SMILES IDX 75 14 95 15 76 16 93 17 94 18 77 19 78 20 79 22 80 23 81 24
REMARK SMILES IDX 82 25 86 26 83 27 85 28 84 29 87 30 88 31 92 32 89 33 91 34
REMARK SMILES IDX 90 35 11 36 12 37 13 38 14 39 15 40 16 41 17 42 18 43 19 44
REMARK SMILES IDX 71 45 20 46 70 47 21 48 22 49 23 50 64 51 24 52 69 53 63 54
REMARK SMILES IDX 65 55 25 56 68 57 62 58 61 59 26 61 52 62 35 63 51 64 36 65
REMARK SMILES IDX 39 66 50 67 66 68 37 69 38 70 49 72 67 73 40 74 27 75 28 76
REMARK SMILES IDX 33 77 29 78 30 79 32 80 34 81 31 82 53 83 54 84 59 85 55 86
REMARK SMILES IDX 56 87 58 88 60 89 57 90 41 91 42 92 47 93 43 94 44 95 46 96
REMARK SMILES IDX 48 97 45 98
REMARK H PARENT 77 21 65 60 39 71
REMARK Flexibility Score: inf
ROOT
ATOM      1  C   UNL A   1      33.124  26.997  23.704  1.00  0.00     0.188 C 
ENDROOT
BRANCH   1   2
ATOM      2  O   UNL A   1      32.877  25.617  23.460  1.00  0.00    -0.376 OA
BRANCH   2   3
ATOM      3  C   UNL A   1      33.716  24.832  22.625  1.00  0.00     0.202 C 
BRANCH   3   4
ATOM      4  C   UNL A   1      33.553  23.309  22.517  1.00  0.00     0.261 C 
BRANCH   4   5
ATOM      5  O   UNL A   1      34.657  22.560  22.993  1.00  0.00    -0.457 OA
BRANCH   5   6
ATOM      6  C   UNL A   1      34.559  22.049  24.257  1.00  0.00     0.374 C 
ATOM      7  O   UNL A   1      33.612  21.453  24.712  1.00  0.00    -0.242 OA
BRANCH   6   8
ATOM      8  C   UNL A   1      35.852  22.233  24.876  1.00  0.00     0.215 A 
ATOM      9  C   UNL A   1      37.053  19.939  24.770  1.00  0.00     0.049 C 
ATOM     10  C   UNL A   1      36.930  21.378  25.112  1.00  0.00     0.012 A 
ATOM     11  C   UNL A   1      37.915  22.193  25.740  1.00  0.00     0.043 A 
ATOM     12  O   UNL A   1      36.175  23.513  25.221  1.00  0.00    -0.453 OA
ATOM     13  C   UNL A   1      37.422  23.482  25.692  1.00  0.00     0.114 A 
ATOM     14  C   UNL A   1      39.190  21.945  26.412  1.00  0.00     0.072 C 
ATOM     15  C   UNL A   1      38.013  24.757  26.146  1.00  0.00     0.076 C 
ATOM     16  N   UNL A   1      39.712  20.768  26.245  1.00  0.00    -0.177 NA
ATOM     17  C   UNL A   1      39.539  23.141  27.263  1.00  0.00     0.059 C 
ATOM     18  C   UNL A   1      39.455  24.486  26.544  1.00  0.00     0.014 C 
BRANCH  16  19
ATOM     19  N   UNL A   1      40.790  20.082  26.737  1.00  0.00    -0.246 N 
ATOM     20  C   UNL A   1      42.155  20.203  26.908  1.00  0.00     0.252 C 
ATOM     21  H   UNL A   1      40.493  19.211  27.085  1.00  0.00     0.193 HD
ATOM     22  O   UNL A   1      42.724  19.265  27.491  1.00  0.00    -0.272 OA
BRANCH  20  23
ATOM     23  C   UNL A   1      42.995  21.402  26.426  1.00  0.00     0.140 C 
BRANCH  23  24
ATOM     24  C   UNL A   1      43.309  22.292  27.689  1.00  0.00    -0.031 A 
ATOM     25  C   UNL A   1      42.334  22.713  28.606  1.00  0.00     0.005 A 
ATOM     26  C   UNL A   1      44.620  22.804  27.903  1.00  0.00     0.005 A 
ATOM     27  C   UNL A   1      42.616  23.722  29.549  1.00  0.00     0.000 A 
ATOM     28  C   UNL A   1      44.898  23.812  28.829  1.00  0.00     0.000 A 
ATOM     29  C   UNL A   1      43.885  24.294  29.636  1.00  0.00     0.000 A 
ENDBRANCH  23  24
BRANCH  23  30
ATOM     30  C   UNL A   1      44.087  20.845  25.438  1.00  0.00    -0.031 A 
ATOM     31  C   UNL A   1      43.816  19.663  24.697  1.00  0.00     0.005 A 
ATOM     32  C   UNL A   1      45.378  21.374  25.283  1.00  0.00     0.005 A 
ATOM     33  C   UNL A   1      44.820  18.908  24.090  1.00  0.00     0.000 A 
ATOM     34  C   UNL A   1      46.391  20.628  24.643  1.00  0.00     0.000 A 
ATOM     35  C   UNL A   1      46.124  19.372  24.100  1.00  0.00     0.000 A 
ENDBRANCH  23  30
ENDBRANCH  20  23
ENDBRANCH  16  19
ENDBRANCH   6   8
ENDBRANCH   5   6
ENDBRANCH   4   5
ENDBRANCH   3   4
ENDBRANCH   2   3
ENDBRANCH   1   2
BRANCH   1  36
ATOM     36  C   UNL A   1      32.365  27.803  24.784  1.00  0.00     0.188 C 
BRANCH  36  37
ATOM     37  O   UNL A   1      32.970  29.020  25.144  1.00  0.00    -0.376 OA
BRANCH  37  38
ATOM     38  C   UNL A   1      32.963  29.457  26.491  1.00  0.00     0.202 C 
BRANCH  38  39
ATOM     39  C   UNL A   1      33.105  30.918  26.926  1.00  0.00     0.261 C 
BRANCH  39  40
ATOM     40  O   UNL A   1      33.772  31.175  28.148  1.00  0.00    -0.460 OA
BRANCH  40  41
ATOM     41  C   UNL A   1      34.974  31.774  28.013  1.00  0.00     0.338 C 
ATOM     42  O   UNL A   1      35.223  32.793  27.391  1.00  0.00    -0.246 OA
BRANCH  41  43
ATOM     43  C   UNL A   1      35.997  30.948  28.663  1.00  0.00     0.060 A 
ATOM     44  C   UNL A   1      36.727  31.528  29.702  1.00  0.00     0.016 A 
ATOM     45  C   UNL A   1      36.373  29.726  28.085  1.00  0.00     0.016 A 
ATOM     46  C   UNL A   1      37.941  30.971  30.040  1.00  0.00     0.010 A 
ATOM     47  C   UNL A   1      37.588  29.173  28.422  1.00  0.00     0.010 A 
ATOM     48  C   UNL A   1      38.394  29.850  29.332  1.00  0.00    -0.014 A 
BRANCH  48  49
ATOM     49  C   UNL A   1      39.754  29.411  29.575  1.00  0.00     0.031 A 
ATOM     50  C   UNL A   1      40.053  29.086  30.984  1.00  0.00     0.074 A 
ATOM     51  C   UNL A   1      40.655  29.271  28.585  1.00  0.00     0.049 A 
ATOM     52  N   UNL A   1      40.858  29.704  31.780  1.00  0.00    -0.248 NA
ATOM     53  C   UNL A   1      39.274  28.012  31.615  1.00  0.00     0.031 C 
ATOM     54  C   UNL A   1      40.418  29.320  27.139  1.00  0.00     0.029 A 
ATOM     55  N   UNL A   1      41.980  28.968  28.676  1.00  0.00    -0.354 N 
ATOM     56  C   UNL A   1      40.835  28.981  32.966  1.00  0.00     0.074 A 
ATOM     57  C   UNL A   1      39.747  28.044  32.860  1.00  0.00     0.031 C 
ATOM     58  C   UNL A   1      41.511  28.857  26.493  1.00  0.00     0.029 A 
ATOM     59  C   UNL A   1      42.562  28.618  27.469  1.00  0.00     0.049 A 
ATOM     60  H   UNL A   1      42.479  28.996  29.524  1.00  0.00     0.167 HD
ATOM     61  C   UNL A   1      41.872  29.041  33.842  1.00  0.00     0.037 A 
ATOM     62  C   UNL A   1      43.809  28.126  27.288  1.00  0.00     0.037 A 
ATOM     63  C   UNL A   1      42.706  30.188  33.605  1.00  0.00     0.049 A 
ATOM     64  C   UNL A   1      44.624  28.514  28.460  1.00  0.00     0.074 A 
ATOM     65  C   UNL A   1      42.565  31.555  33.716  1.00  0.00     0.029 A 
ATOM     66  N   UNL A   1      43.825  29.968  32.844  1.00  0.00    -0.354 N 
ATOM     67  N   UNL A   1      44.979  29.740  28.724  1.00  0.00    -0.248 NA
ATOM     68  C   UNL A   1      44.775  27.574  29.562  1.00  0.00     0.031 C 
ATOM     69  C   UNL A   1      43.419  32.113  32.720  1.00  0.00     0.029 A 
ATOM     70  C   UNL A   1      44.055  31.064  32.055  1.00  0.00     0.049 A 
ATOM     71  H   UNL A   1      44.374  29.153  32.861  1.00  0.00     0.167 HD
ATOM     72  C   UNL A   1      44.981  29.813  30.106  1.00  0.00     0.074 A 
ATOM     73  C   UNL A   1      45.023  28.429  30.558  1.00  0.00     0.031 C 
ATOM     74  C   UNL A   1      44.653  30.977  30.740  1.00  0.00     0.037 A 
BRANCH  61  75
ATOM     75  C   UNL A   1      42.372  27.844  34.611  1.00  0.00     0.057 A 
ATOM     76  C   UNL A   1      42.413  27.897  36.015  1.00  0.00     0.134 A 
ATOM     77  C   UNL A   1      43.098  26.786  34.025  1.00  0.00     0.134 A 
ATOM     78  F   UNL A   1      41.788  28.878  36.684  1.00  0.00    -0.206 F 
ATOM     79  C   UNL A   1      43.170  26.997  36.774  1.00  0.00     0.040 A 
ATOM     80  C   UNL A   1      43.813  25.852  34.776  1.00  0.00     0.040 A 
ATOM     81  F   UNL A   1      43.243  26.665  32.700  1.00  0.00    -0.206 F 
ATOM     82  C   UNL A   1      43.877  25.973  36.155  1.00  0.00     0.006 A 
ENDBRANCH  61  75
BRANCH  62  83
ATOM     83  C   UNL A   1      44.269  27.149  26.281  1.00  0.00     0.057 A 
ATOM     84  C   UNL A   1      45.535  27.246  25.690  1.00  0.00     0.134 A 
ATOM     85  C   UNL A   1      43.578  25.942  26.073  1.00  0.00     0.134 A 
ATOM     86  F   UNL A   1      46.286  28.343  25.866  1.00  0.00    -0.206 F 
ATOM     87  C   UNL A   1      46.092  26.193  24.953  1.00  0.00     0.040 A 
ATOM     88  C   UNL A   1      44.119  24.887  25.334  1.00  0.00     0.040 A 
ATOM     89  F   UNL A   1      42.391  25.714  26.656  1.00  0.00    -0.206 F 
ATOM     90  C   UNL A   1      45.388  25.005  24.782  1.00  0.00     0.006 A 
ENDBRANCH  62  83
BRANCH  74  91
ATOM     91  C   UNL A   1      44.697  32.231  29.917  1.00  0.00     0.057 A 
ATOM     92  C   UNL A   1      45.868  32.957  29.655  1.00  0.00     0.134 A 
ATOM     93  C   UNL A   1      43.525  32.669  29.293  1.00  0.00     0.134 A 
ATOM     94  F   UNL A   1      47.052  32.559  30.137  1.00  0.00    -0.206 F 
ATOM     95  C   UNL A   1      45.860  34.099  28.848  1.00  0.00     0.040 A 
ATOM     96  C   UNL A   1      43.510  33.788  28.459  1.00  0.00     0.040 A 
ATOM     97  F   UNL A   1      42.378  31.990  29.457  1.00  0.00    -0.206 F 
ATOM     98  C   UNL A   1      44.678  34.516  28.243  1.00  0.00     0.006 A 
ENDBRANCH  74  91
ENDBRANCH  48  49
ENDBRANCH  41  43
ENDBRANCH  40  41
ENDBRANCH  39  40
ENDBRANCH  38  39
ENDBRANCH  37  38
ENDBRANCH  36  37
ENDBRANCH   1  36
TORSDOF 21
ENDMDL
MODEL 3
REMARK VINA RESULT:     -10.7      3.769      9.080
REMARK SMILES Cc1c(C(=O)OCCOCCOCCOC(=O)c2ccc(-c3c4nc(c(-c5c(F)cccc5F)c5ccc([nH]5)c(-c5c(F)cccc5F)c5nc(c(-c6c(F)cccc6F)c6ccc3[nH]6)C=C5)C=C4)cc2)oc2c1/C(=N/NC(=O)C(c1ccccc1)c1ccccc1)CCC2
REMARK SMILES IDX 10 1 9 2 8 3 7 4 6 5 4 6 5 7 3 8 1 9 2 10 74 11 72 12 73 13
REMARK SMILES IDX 75 14 95 15 76 16 93 17 94 18 77 19 78 20 79 22 80 23 81 24
REMARK SMILES IDX 82 25 86 26 83 27 85 28 84 29 87 30 88 31 92 32 89 33 91 34
REMARK SMILES IDX 90 35 11 36 12 37 13 38 14 39 15 40 16 41 17 42 18 43 19 44
REMARK SMILES IDX 71 45 20 46 70 47 21 48 22 49 23 50 64 51 24 52 69 53 63 54
REMARK SMILES IDX 65 55 25 56 68 57 62 58 61 59 26 61 52 62 35 63 51 64 36 65
REMARK SMILES IDX 39 66 50 67 66 68 37 69 38 70 49 72 67 73 40 74 27 75 28 76
REMARK SMILES IDX 33 77 29 78 30 79 32 80 34 81 31 82 53 83 54 84 59 85 55 86
REMARK SMILES IDX 56 87 58 88 60 89 57 90 41 91 42 92 47 93 43 94 44 95 46 96
REMARK SMILES IDX 48 97 45 98
REMARK H PARENT 77 21 65 60 39 71
REMARK Flexibility Score: inf
ROOT
ATOM      1  C   UNL A   1      32.908  27.527  23.173  1.00  0.00     0.188 C 
ENDROOT
BRANCH   1   2
ATOM      2  O   UNL A   1      32.178  26.429  22.637  1.00  0.00    -0.376 OA
BRANCH   2   3
ATOM      3  C   UNL A   1      32.387  25.094  23.073  1.00  0.00     0.202 C 
BRANCH   3   4
ATOM      4  C   UNL A   1      33.780  24.448  23.063  1.00  0.00     0.261 C 
BRANCH   4   5
ATOM      5  O   UNL A   1      34.670  24.941  24.050  1.00  0.00    -0.457 OA
BRANCH   5   6
ATOM      6  C   UNL A   1      34.592  24.373  25.291  1.00  0.00     0.374 C 
ATOM      7  O   UNL A   1      33.792  24.652  26.152  1.00  0.00    -0.242 OA
BRANCH   6   8
ATOM      8  C   UNL A   1      35.546  23.288  25.306  1.00  0.00     0.215 A 
ATOM      9  C   UNL A   1      37.720  24.232  26.353  1.00  0.00     0.049 C 
ATOM     10  C   UNL A   1      36.867  23.182  25.742  1.00  0.00     0.012 A 
ATOM     11  C   UNL A   1      37.229  21.826  25.497  1.00  0.00     0.043 A 
ATOM     12  O   UNL A   1      35.072  22.067  24.924  1.00  0.00    -0.453 OA
ATOM     13  C   UNL A   1      36.069  21.198  25.086  1.00  0.00     0.114 A 
ATOM     14  C   UNL A   1      38.475  21.063  25.535  1.00  0.00     0.072 C 
ATOM     15  C   UNL A   1      35.812  19.787  24.731  1.00  0.00     0.076 C 
ATOM     16  N   UNL A   1      39.482  21.629  26.127  1.00  0.00    -0.177 NA
ATOM     17  C   UNL A   1      38.300  19.793  24.739  1.00  0.00     0.059 C 
ATOM     18  C   UNL A   1      37.053  18.984  25.089  1.00  0.00     0.014 C 
BRANCH  16  19
ATOM     19  N   UNL A   1      40.810  21.350  26.311  1.00  0.00    -0.246 N 
ATOM     20  C   UNL A   1      42.062  21.896  26.107  1.00  0.00     0.252 C 
ATOM     21  H   UNL A   1      40.904  20.464  26.727  1.00  0.00     0.193 HD
ATOM     22  O   UNL A   1      43.029  21.230  26.517  1.00  0.00    -0.272 OA
BRANCH  20  23
ATOM     23  C   UNL A   1      42.327  23.248  25.416  1.00  0.00     0.140 C 
BRANCH  23  24
ATOM     24  C   UNL A   1      41.747  24.375  26.354  1.00  0.00    -0.031 A 
ATOM     25  C   UNL A   1      41.547  24.212  27.733  1.00  0.00     0.005 A 
ATOM     26  C   UNL A   1      41.297  25.609  25.807  1.00  0.00     0.005 A 
ATOM     27  C   UNL A   1      40.780  25.139  28.467  1.00  0.00     0.000 A 
ATOM     28  C   UNL A   1      40.526  26.522  26.529  1.00  0.00     0.000 A 
ATOM     29  C   UNL A   1      40.242  26.272  27.858  1.00  0.00     0.000 A 
ENDBRANCH  23  24
BRANCH  23  30
ATOM     30  C   UNL A   1      43.804  23.217  24.872  1.00  0.00    -0.031 A 
ATOM     31  C   UNL A   1      44.348  21.989  24.408  1.00  0.00     0.005 A 
ATOM     32  C   UNL A   1      44.690  24.306  24.885  1.00  0.00     0.005 A 
ATOM     33  C   UNL A   1      45.720  21.785  24.252  1.00  0.00     0.000 A 
ATOM     34  C   UNL A   1      46.075  24.110  24.697  1.00  0.00     0.000 A 
ATOM     35  C   UNL A   1      46.593  22.842  24.440  1.00  0.00     0.000 A 
ENDBRANCH  23  30
ENDBRANCH  20  23
ENDBRANCH  16  19
ENDBRANCH   6   8
ENDBRANCH   5   6
ENDBRANCH   4   5
ENDBRANCH   3   4
ENDBRANCH   2   3
ENDBRANCH   1   2
BRANCH   1  36
ATOM     36  C   UNL A   1      32.810  27.950  24.657  1.00  0.00     0.188 C 
BRANCH  36  37
ATOM     37  O   UNL A   1      34.028  28.344  25.238  1.00  0.00    -0.376 OA
BRANCH  37  38
ATOM     38  C   UNL A   1      34.211  28.282  26.641  1.00  0.00     0.202 C 
BRANCH  38  39
ATOM     39  C   UNL A   1      34.790  29.419  27.488  1.00  0.00     0.261 C 
BRANCH  39  40
ATOM     40  O   UNL A   1      36.193  29.449  27.671  1.00  0.00    -0.460 OA
BRANCH  40  41
ATOM     41  C   UNL A   1      36.586  29.658  28.946  1.00  0.00     0.338 C 
ATOM     42  O   UNL A   1      35.963  30.232  29.824  1.00  0.00    -0.246 OA
BRANCH  41  43
ATOM     43  C   UNL A   1      37.957  29.163  29.111  1.00  0.00     0.060 A 
ATOM     44  C   UNL A   1      38.211  28.327  30.199  1.00  0.00     0.016 A 
ATOM     45  C   UNL A   1      38.992  29.720  28.345  1.00  0.00     0.016 A 
ATOM     46  C   UNL A   1      39.513  28.193  30.632  1.00  0.00     0.010 A 
ATOM     47  C   UNL A   1      40.292  29.587  28.781  1.00  0.00     0.010 A 
ATOM     48  C   UNL A   1      40.525  28.898  29.967  1.00  0.00    -0.014 A 
BRANCH  48  49
ATOM     49  C   UNL A   1      41.845  28.893  30.565  1.00  0.00     0.031 A 
ATOM     50  C   UNL A   1      42.818  28.003  29.900  1.00  0.00     0.074 A 
ATOM     51  C   UNL A   1      42.166  29.673  31.614  1.00  0.00     0.049 A 
ATOM     52  N   UNL A   1      43.367  26.939  30.381  1.00  0.00    -0.248 NA
ATOM     53  C   UNL A   1      43.128  28.267  28.489  1.00  0.00     0.031 C 
ATOM     54  C   UNL A   1      41.378  30.764  32.198  1.00  0.00     0.029 A 
ATOM     55  N   UNL A   1      43.322  29.700  32.334  1.00  0.00    -0.354 N 
ATOM     56  C   UNL A   1      44.245  26.498  29.399  1.00  0.00     0.074 A 
ATOM     57  C   UNL A   1      43.956  27.260  28.212  1.00  0.00     0.031 C 
ATOM     58  C   UNL A   1      42.160  31.473  33.042  1.00  0.00     0.029 A 
ATOM     59  C   UNL A   1      43.444  30.803  33.162  1.00  0.00     0.049 A 
ATOM     60  H   UNL A   1      44.009  28.997  32.271  1.00  0.00     0.167 HD
ATOM     61  C   UNL A   1      45.309  25.715  29.713  1.00  0.00     0.037 A 
ATOM     62  C   UNL A   1      44.542  31.165  33.865  1.00  0.00     0.037 A 
ATOM     63  C   UNL A   1      45.158  25.098  31.003  1.00  0.00     0.049 A 
ATOM     64  C   UNL A   1      45.382  29.961  34.046  1.00  0.00     0.074 A 
ATOM     65  C   UNL A   1      44.325  24.148  31.555  1.00  0.00     0.029 A 
ATOM     66  N   UNL A   1      45.771  25.739  32.048  1.00  0.00    -0.354 N 
ATOM     67  N   UNL A   1      45.047  28.947  34.794  1.00  0.00    -0.248 NA
ATOM     68  C   UNL A   1      46.473  29.710  33.115  1.00  0.00     0.031 C 
ATOM     69  C   UNL A   1      44.213  24.488  32.935  1.00  0.00     0.029 A 
ATOM     70  C   UNL A   1      44.992  25.622  33.169  1.00  0.00     0.049 A 
ATOM     71  H   UNL A   1      46.635  26.208  32.001  1.00  0.00     0.167 HD
ATOM     72  C   UNL A   1      45.570  27.844  34.141  1.00  0.00     0.074 A 
ATOM     73  C   UNL A   1      46.571  28.383  33.230  1.00  0.00     0.031 C 
ATOM     74  C   UNL A   1      44.933  26.638  34.197  1.00  0.00     0.037 A 
BRANCH  61  75
ATOM     75  C   UNL A   1      46.660  25.857  29.058  1.00  0.00     0.057 A 
ATOM     76  C   UNL A   1      47.335  27.087  29.132  1.00  0.00     0.134 A 
ATOM     77  C   UNL A   1      47.166  24.947  28.106  1.00  0.00     0.134 A 
ATOM     78  F   UNL A   1      46.926  28.046  29.977  1.00  0.00    -0.206 F 
ATOM     79  C   UNL A   1      48.398  27.409  28.279  1.00  0.00     0.040 A 
ATOM     80  C   UNL A   1      48.259  25.238  27.287  1.00  0.00     0.040 A 
ATOM     81  F   UNL A   1      46.567  23.779  27.842  1.00  0.00    -0.206 F 
ATOM     82  C   UNL A   1      48.860  26.484  27.351  1.00  0.00     0.006 A 
ENDBRANCH  61  75
BRANCH  62  83
ATOM     83  C   UNL A   1      45.015  32.527  34.185  1.00  0.00     0.057 A 
ATOM     84  C   UNL A   1      45.576  33.356  33.205  1.00  0.00     0.134 A 
ATOM     85  C   UNL A   1      44.682  33.143  35.403  1.00  0.00     0.134 A 
ATOM     86  F   UNL A   1      45.889  32.867  31.996  1.00  0.00    -0.206 F 
ATOM     87  C   UNL A   1      45.772  34.727  33.417  1.00  0.00     0.040 A 
ATOM     88  C   UNL A   1      44.879  34.508  35.631  1.00  0.00     0.040 A 
ATOM     89  F   UNL A   1      44.071  32.458  36.382  1.00  0.00    -0.206 F 
ATOM     90  C   UNL A   1      45.414  35.308  34.629  1.00  0.00     0.006 A 
ENDBRANCH  62  83
BRANCH  74  91
ATOM     91  C   UNL A   1      43.917  26.459  35.286  1.00  0.00     0.057 A 
ATOM     92  C   UNL A   1      42.554  26.756  35.146  1.00  0.00     0.134 A 
ATOM     93  C   UNL A   1      44.319  25.880  36.494  1.00  0.00     0.134 A 
ATOM     94  F   UNL A   1      42.064  27.229  33.993  1.00  0.00    -0.206 F 
ATOM     95  C   UNL A   1      41.642  26.533  36.181  1.00  0.00     0.040 A 
ATOM     96  C   UNL A   1      43.413  25.621  37.524  1.00  0.00     0.040 A 
ATOM     97  F   UNL A   1      45.600  25.520  36.677  1.00  0.00    -0.206 F 
ATOM     98  C   UNL A   1      42.070  25.959  37.375  1.00  0.00     0.006 A 
ENDBRANCH  74  91
ENDBRANCH  48  49
ENDBRANCH  41  43
ENDBRANCH  40  41
ENDBRANCH  39  40
ENDBRANCH  38  39
ENDBRANCH  37  38
ENDBRANCH  36  37
ENDBRANCH   1  36
TORSDOF 21
ENDMDL
