MODEL 1
REMARK VINA RESULT:     -12.0      0.000      0.000
REMARK SMILES CS(=O)(=O)Nc1ccc(-c2cc(Cl)cc3c2O[C@H](C(F)(F)F)C(C(=O)OCCOCCOCCOC(=O)c2ccc(-c4c5nc(c(-c6c(F)cccc6F)c6ccc([nH]6)c(-c6c(F)cccc6F)c6nc(c(-c7c(F)cccc7F)c7ccc4[nH]7)C=C6)C=C5)cc2)=C3)cc1
REMARK SMILES IDX 30 1 29 2 28 3 27 4 26 5 24 6 25 7 23 8 10 9 11 10 16 11
REMARK SMILES IDX 12 12 15 13 17 14 13 15 14 16 92 17 18 18 9 19 6 20 7 21
REMARK SMILES IDX 94 22 8 23 93 24 5 25 2 27 1 28 3 29 4 30 19 31 20 32 21 33
REMARK SMILES IDX 22 34 31 35 32 36 33 37 34 38 35 39 36 40 37 41 38 42 39 43
REMARK SMILES IDX 91 44 40 45 90 46 41 47 42 48 43 49 84 50 44 51 89 52 83 53
REMARK SMILES IDX 85 54 45 55 88 56 82 57 81 58 46 60 72 61 55 62 71 63 56 64
REMARK SMILES IDX 59 65 70 66 86 67 57 68 58 69 69 71 87 72 60 73 47 74 48 75
REMARK SMILES IDX 53 76 49 77 50 78 52 79 54 80 51 81 73 82 74 83 79 84 75 85
REMARK SMILES IDX 76 86 78 87 80 88 77 89 61 90 62 91 67 92 63 93 64 94 66 95
REMARK SMILES IDX 68 96 65 97
REMARK H PARENT 5 26 85 59 59 70
REMARK Flexibility Score: inf
ROOT
ATOM      1  C   UNL A   1      33.260  36.449  29.573  1.00  0.00     0.188 C 
ENDROOT
BRANCH   1   2
ATOM      2  O   UNL A   1      32.551  35.543  28.750  1.00  0.00    -0.376 OA
BRANCH   2   3
ATOM      3  C   UNL A   1      33.307  34.480  28.176  1.00  0.00     0.202 C 
BRANCH   3   4
ATOM      4  C   UNL A   1      32.517  33.386  27.437  1.00  0.00     0.261 C 
BRANCH   4   5
ATOM      5  O   UNL A   1      32.907  32.042  27.829  1.00  0.00    -0.460 OA
BRANCH   5   6
ATOM      6  C   UNL A   1      32.456  31.052  27.029  1.00  0.00     0.338 C 
ATOM      7  O   UNL A   1      31.614  31.206  26.153  1.00  0.00    -0.246 OA
BRANCH   6   8
ATOM      8  C   UNL A   1      33.182  29.765  27.231  1.00  0.00     0.087 C 
ATOM      9  C   UNL A   1      33.554  26.864  24.302  1.00  0.00     0.026 A 
ATOM     10  C   UNL A   1      32.509  27.189  23.405  1.00  0.00     0.033 A 
ATOM     11  C   UNL A   1      33.540  27.591  25.501  1.00  0.00     0.135 A 
ATOM     12  C   UNL A   1      31.422  27.994  23.751  1.00  0.00     0.042 A 
ATOM     13  C   UNL A   1      32.332  28.183  25.930  1.00  0.00     0.019 A 
ATOM     14  O   UNL A   1      34.673  27.980  26.217  1.00  0.00    -0.475 OA
ATOM     15  Cl  UNL A   1      30.203  28.376  22.607  1.00  0.00    -0.084 Cl
ATOM     16  C   UNL A   1      31.287  28.423  25.051  1.00  0.00     0.032 A 
ATOM     17  C   UNL A   1      32.306  28.749  27.294  1.00  0.00     0.027 C 
ATOM     18  C   UNL A   1      34.559  29.433  26.656  1.00  0.00     0.316 C 
BRANCH   9  19
ATOM     19  C   UNL A   1      34.160  25.514  24.023  1.00  0.00    -0.014 A 
ATOM     20  C   UNL A   1      34.099  22.636  24.080  1.00  0.00     0.048 A 
ATOM     21  C   UNL A   1      33.696  23.339  22.948  1.00  0.00     0.027 A 
ATOM     22  C   UNL A   1      34.650  23.364  25.134  1.00  0.00     0.027 A 
ATOM     23  C   UNL A   1      33.757  24.748  22.912  1.00  0.00     0.011 A 
ATOM     24  C   UNL A   1      34.689  24.779  25.101  1.00  0.00     0.011 A 
BRANCH  20  25
ATOM     25  N   UNL A   1      33.671  21.276  24.205  1.00  0.00    -0.284 N 
ATOM     26  H   UNL A   1      33.941  20.645  23.499  1.00  0.00     0.180 HD
BRANCH  25  27
ATOM     27  S   UNL A   1      32.746  20.683  25.463  1.00  0.00     0.229 S 
ATOM     28  C   UNL A   1      31.428  21.878  25.640  1.00  0.00     0.183 C 
ATOM     29  O   UNL A   1      33.533  20.680  26.675  1.00  0.00    -0.207 OA
ATOM     30  O   UNL A   1      32.143  19.464  24.960  1.00  0.00    -0.207 OA
ENDBRANCH  25  27
ENDBRANCH  20  25
ENDBRANCH   9  19
BRANCH  18  31
ATOM     31  C   UNL A   1      35.620  29.826  27.692  1.00  0.00     0.430 C 
ATOM     32  F   UNL A   1      35.231  29.532  28.952  1.00  0.00    -0.167 F 
ATOM     33  F   UNL A   1      36.802  29.213  27.464  1.00  0.00    -0.167 F 
ATOM     34  F   UNL A   1      35.856  31.162  27.650  1.00  0.00    -0.167 F 
ENDBRANCH  18  31
ENDBRANCH   6   8
ENDBRANCH   5   6
ENDBRANCH   4   5
ENDBRANCH   3   4
ENDBRANCH   2   3
ENDBRANCH   1   2
BRANCH   1  35
ATOM     35  C   UNL A   1      32.854  36.416  31.064  1.00  0.00     0.188 C 
BRANCH  35  36
ATOM     36  O   UNL A   1      32.899  35.199  31.789  1.00  0.00    -0.376 OA
BRANCH  36  37
ATOM     37  C   UNL A   1      34.148  34.554  31.995  1.00  0.00     0.202 C 
BRANCH  37  38
ATOM     38  C   UNL A   1      34.277  33.459  33.065  1.00  0.00     0.261 C 
BRANCH  38  39
ATOM     39  O   UNL A   1      35.008  32.281  32.671  1.00  0.00    -0.460 OA
BRANCH  39  40
ATOM     40  C   UNL A   1      36.212  32.113  33.266  1.00  0.00     0.338 C 
ATOM     41  O   UNL A   1      36.500  32.350  34.434  1.00  0.00    -0.246 OA
BRANCH  40  42
ATOM     42  C   UNL A   1      37.149  31.424  32.360  1.00  0.00     0.060 A 
ATOM     43  C   UNL A   1      38.147  30.625  32.925  1.00  0.00     0.016 A 
ATOM     44  C   UNL A   1      37.125  31.640  30.981  1.00  0.00     0.016 A 
ATOM     45  C   UNL A   1      39.133  30.063  32.113  1.00  0.00     0.010 A 
ATOM     46  C   UNL A   1      38.124  31.077  30.169  1.00  0.00     0.010 A 
ATOM     47  C   UNL A   1      39.145  30.292  30.728  1.00  0.00    -0.014 A 
BRANCH  47  48
ATOM     48  C   UNL A   1      40.310  29.843  29.909  1.00  0.00     0.031 A 
ATOM     49  C   UNL A   1      41.477  30.768  29.750  1.00  0.00     0.074 A 
ATOM     50  C   UNL A   1      40.342  28.635  29.315  1.00  0.00     0.049 A 
ATOM     51  N   UNL A   1      42.617  30.562  29.147  1.00  0.00    -0.248 NA
ATOM     52  C   UNL A   1      41.319  32.115  30.315  1.00  0.00     0.031 C 
ATOM     53  C   UNL A   1      39.249  27.683  29.365  1.00  0.00     0.029 A 
ATOM     54  N   UNL A   1      41.320  27.975  28.605  1.00  0.00    -0.354 N 
ATOM     55  C   UNL A   1      43.283  31.780  29.187  1.00  0.00     0.074 A 
ATOM     56  C   UNL A   1      42.439  32.699  29.920  1.00  0.00     0.031 C 
ATOM     57  C   UNL A   1      39.658  26.512  28.851  1.00  0.00     0.029 A 
ATOM     58  C   UNL A   1      41.009  26.658  28.318  1.00  0.00     0.049 A 
ATOM     59  H   UNL A   1      42.163  28.400  28.327  1.00  0.00     0.167 HD
ATOM     60  C   UNL A   1      44.465  32.111  28.618  1.00  0.00     0.037 A 
ATOM     61  C   UNL A   1      41.733  25.690  27.707  1.00  0.00     0.037 A 
ATOM     62  C   UNL A   1      45.292  31.193  27.880  1.00  0.00     0.049 A 
ATOM     63  C   UNL A   1      43.101  26.072  27.178  1.00  0.00     0.074 A 
ATOM     64  C   UNL A   1      46.499  31.438  27.250  1.00  0.00     0.029 A 
ATOM     65  N   UNL A   1      44.993  29.855  27.664  1.00  0.00    -0.354 N 
ATOM     66  N   UNL A   1      43.783  27.178  27.366  1.00  0.00    -0.248 NA
ATOM     67  C   UNL A   1      43.798  25.078  26.348  1.00  0.00     0.031 C 
ATOM     68  C   UNL A   1      46.903  30.264  26.609  1.00  0.00     0.029 A 
ATOM     69  C   UNL A   1      45.978  29.270  26.887  1.00  0.00     0.049 A 
ATOM     70  H   UNL A   1      44.197  29.392  28.012  1.00  0.00     0.167 HD
ATOM     71  C   UNL A   1      44.990  27.003  26.691  1.00  0.00     0.074 A 
ATOM     72  C   UNL A   1      44.982  25.649  26.180  1.00  0.00     0.031 C 
ATOM     73  C   UNL A   1      45.990  27.891  26.464  1.00  0.00     0.037 A 
BRANCH  60  74
ATOM     74  C   UNL A   1      44.876  33.552  28.691  1.00  0.00     0.057 A 
ATOM     75  C   UNL A   1      44.469  34.499  27.744  1.00  0.00     0.134 A 
ATOM     76  C   UNL A   1      45.709  33.991  29.730  1.00  0.00     0.134 A 
ATOM     77  F   UNL A   1      43.693  34.136  26.711  1.00  0.00    -0.206 F 
ATOM     78  C   UNL A   1      44.901  35.825  27.809  1.00  0.00     0.040 A 
ATOM     79  C   UNL A   1      46.122  35.319  29.823  1.00  0.00     0.040 A 
ATOM     80  F   UNL A   1      46.137  33.134  30.668  1.00  0.00    -0.206 F 
ATOM     81  C   UNL A   1      45.725  36.239  28.855  1.00  0.00     0.006 A 
ENDBRANCH  60  74
BRANCH  61  82
ATOM     82  C   UNL A   1      41.246  24.269  27.625  1.00  0.00     0.057 A 
ATOM     83  C   UNL A   1      40.222  23.915  26.734  1.00  0.00     0.134 A 
ATOM     84  C   UNL A   1      41.763  23.218  28.394  1.00  0.00     0.134 A 
ATOM     85  F   UNL A   1      39.609  24.859  26.010  1.00  0.00    -0.206 F 
ATOM     86  C   UNL A   1      39.758  22.604  26.583  1.00  0.00     0.040 A 
ATOM     87  C   UNL A   1      41.348  21.890  28.220  1.00  0.00     0.040 A 
ATOM     88  F   UNL A   1      42.695  23.452  29.328  1.00  0.00    -0.206 F 
ATOM     89  C   UNL A   1      40.344  21.578  27.310  1.00  0.00     0.006 A 
ENDBRANCH  61  82
BRANCH  73  90
ATOM     90  C   UNL A   1      47.183  27.419  25.671  1.00  0.00     0.057 A 
ATOM     91  C   UNL A   1      47.253  27.561  24.278  1.00  0.00     0.134 A 
ATOM     92  C   UNL A   1      48.305  26.881  26.317  1.00  0.00     0.134 A 
ATOM     93  F   UNL A   1      46.220  28.075  23.594  1.00  0.00    -0.206 F 
ATOM     94  C   UNL A   1      48.376  27.153  23.554  1.00  0.00     0.040 A 
ATOM     95  C   UNL A   1      49.447  26.502  25.607  1.00  0.00     0.040 A 
ATOM     96  F   UNL A   1      48.324  26.743  27.650  1.00  0.00    -0.206 F 
ATOM     97  C   UNL A   1      49.480  26.629  24.220  1.00  0.00     0.006 A 
ENDBRANCH  73  90
ENDBRANCH  47  48
ENDBRANCH  40  42
ENDBRANCH  39  40
ENDBRANCH  38  39
ENDBRANCH  37  38
ENDBRANCH  36  37
ENDBRANCH  35  36
ENDBRANCH   1  35
TORSDOF 21
ENDMDL
MODEL 2
REMARK VINA RESULT:     -11.9      4.426      8.271
REMARK SMILES CS(=O)(=O)Nc1ccc(-c2cc(Cl)cc3c2O[C@H](C(F)(F)F)C(C(=O)OCCOCCOCCOC(=O)c2ccc(-c4c5nc(c(-c6c(F)cccc6F)c6ccc([nH]6)c(-c6c(F)cccc6F)c6nc(c(-c7c(F)cccc7F)c7ccc4[nH]7)C=C6)C=C5)cc2)=C3)cc1
REMARK SMILES IDX 30 1 29 2 28 3 27 4 26 5 24 6 25 7 23 8 10 9 11 10 16 11
REMARK SMILES IDX 12 12 15 13 17 14 13 15 14 16 92 17 18 18 9 19 6 20 7 21
REMARK SMILES IDX 94 22 8 23 93 24 5 25 2 27 1 28 3 29 4 30 19 31 20 32 21 33
REMARK SMILES IDX 22 34 31 35 32 36 33 37 34 38 35 39 36 40 37 41 38 42 39 43
REMARK SMILES IDX 91 44 40 45 90 46 41 47 42 48 43 49 84 50 44 51 89 52 83 53
REMARK SMILES IDX 85 54 45 55 88 56 82 57 81 58 46 60 72 61 55 62 71 63 56 64
REMARK SMILES IDX 59 65 70 66 86 67 57 68 58 69 69 71 87 72 60 73 47 74 48 75
REMARK SMILES IDX 53 76 49 77 50 78 52 79 54 80 51 81 73 82 74 83 79 84 75 85
REMARK SMILES IDX 76 86 78 87 80 88 77 89 61 90 62 91 67 92 63 93 64 94 66 95
REMARK SMILES IDX 68 96 65 97
REMARK H PARENT 5 26 85 59 59 70
REMARK Flexibility Score: inf
ROOT
ATOM      1  C   UNL A   1      31.416  25.323  25.365  1.00  0.00     0.188 C 
ENDROOT
BRANCH   1   2
ATOM      2  O   UNL A   1      31.756  25.047  26.710  1.00  0.00    -0.376 OA
BRANCH   2   3
ATOM      3  C   UNL A   1      31.877  23.672  27.066  1.00  0.00     0.202 C 
BRANCH   3   4
ATOM      4  C   UNL A   1      33.008  22.876  26.392  1.00  0.00     0.261 C 
BRANCH   4   5
ATOM      5  O   UNL A   1      34.332  23.333  26.781  1.00  0.00    -0.460 OA
BRANCH   5   6
ATOM      6  C   UNL A   1      35.066  23.887  25.792  1.00  0.00     0.338 C 
ATOM      7  O   UNL A   1      34.975  25.057  25.441  1.00  0.00    -0.246 OA
BRANCH   6   8
ATOM      8  C   UNL A   1      36.102  22.962  25.248  1.00  0.00     0.087 C 
ATOM      9  C   UNL A   1      39.767  22.309  27.057  1.00  0.00     0.026 A 
ATOM     10  C   UNL A   1      39.907  23.440  27.897  1.00  0.00     0.033 A 
ATOM     11  C   UNL A   1      38.677  22.370  26.177  1.00  0.00     0.135 A 
ATOM     12  C   UNL A   1      39.175  24.617  27.729  1.00  0.00     0.042 A 
ATOM     13  C   UNL A   1      38.130  23.628  25.847  1.00  0.00     0.019 A 
ATOM     14  O   UNL A   1      37.925  21.272  25.754  1.00  0.00    -0.475 OA
ATOM     15  Cl  UNL A   1      39.370  25.941  28.802  1.00  0.00    -0.084 Cl
ATOM     16  C   UNL A   1      38.342  24.745  26.642  1.00  0.00     0.032 A 
ATOM     17  C   UNL A   1      37.134  23.666  24.757  1.00  0.00     0.027 C 
ATOM     18  C   UNL A   1      36.437  21.584  25.819  1.00  0.00     0.316 C 
BRANCH   9  19
ATOM     19  C   UNL A   1      41.042  21.519  26.929  1.00  0.00    -0.014 A 
ATOM     20  C   UNL A   1      43.013  20.102  25.381  1.00  0.00     0.048 A 
ATOM     21  C   UNL A   1      43.190  21.443  25.710  1.00  0.00     0.027 A 
ATOM     22  C   UNL A   1      41.918  19.438  25.932  1.00  0.00     0.027 A 
ATOM     23  C   UNL A   1      42.237  22.126  26.495  1.00  0.00     0.011 A 
ATOM     24  C   UNL A   1      40.954  20.133  26.700  1.00  0.00     0.011 A 
BRANCH  20  25
ATOM     25  N   UNL A   1      43.788  19.576  24.300  1.00  0.00    -0.284 N 
ATOM     26  H   UNL A   1      43.385  19.582  23.402  1.00  0.00     0.180 HD
BRANCH  25  27
ATOM     27  S   UNL A   1      45.330  18.950  24.452  1.00  0.00     0.229 S 
ATOM     28  C   UNL A   1      46.314  20.338  25.001  1.00  0.00     0.183 C 
ATOM     29  O   UNL A   1      45.805  18.530  23.154  1.00  0.00    -0.207 OA
ATOM     30  O   UNL A   1      45.263  18.017  25.561  1.00  0.00    -0.207 OA
ENDBRANCH  25  27
ENDBRANCH  20  25
ENDBRANCH   9  19
BRANCH  18  31
ATOM     31  C   UNL A   1      35.579  20.540  25.091  1.00  0.00     0.430 C 
ATOM     32  F   UNL A   1      34.586  20.063  25.875  1.00  0.00    -0.167 F 
ATOM     33  F   UNL A   1      35.022  21.037  23.967  1.00  0.00    -0.167 F 
ATOM     34  F   UNL A   1      36.336  19.477  24.717  1.00  0.00    -0.167 F 
ENDBRANCH  18  31
ENDBRANCH   6   8
ENDBRANCH   5   6
ENDBRANCH   4   5
ENDBRANCH   3   4
ENDBRANCH   2   3
ENDBRANCH   1   2
BRANCH   1  35
ATOM     35  C   UNL A   1      30.421  26.491  25.181  1.00  0.00     0.188 C 
BRANCH  35  36
ATOM     36  O   UNL A   1      30.848  27.706  24.586  1.00  0.00    -0.376 OA
BRANCH  36  37
ATOM     37  C   UNL A   1      32.089  28.276  24.978  1.00  0.00     0.202 C 
BRANCH  37  38
ATOM     38  C   UNL A   1      32.128  29.700  25.554  1.00  0.00     0.261 C 
BRANCH  38  39
ATOM     39  O   UNL A   1      32.631  29.817  26.900  1.00  0.00    -0.460 OA
BRANCH  39  40
ATOM     40  C   UNL A   1      33.182  31.012  27.217  1.00  0.00     0.338 C 
ATOM     41  O   UNL A   1      32.610  32.093  27.299  1.00  0.00    -0.246 OA
BRANCH  40  42
ATOM     42  C   UNL A   1      34.586  30.843  27.636  1.00  0.00     0.060 A 
ATOM     43  C   UNL A   1      35.045  29.548  27.897  1.00  0.00     0.016 A 
ATOM     44  C   UNL A   1      35.415  31.940  27.877  1.00  0.00     0.016 A 
ATOM     45  C   UNL A   1      36.324  29.355  28.422  1.00  0.00     0.010 A 
ATOM     46  C   UNL A   1      36.699  31.740  28.410  1.00  0.00     0.010 A 
ATOM     47  C   UNL A   1      37.163  30.446  28.700  1.00  0.00    -0.014 A 
BRANCH  47  48
ATOM     48  C   UNL A   1      38.444  30.232  29.436  1.00  0.00     0.031 A 
ATOM     49  C   UNL A   1      38.509  30.590  30.888  1.00  0.00     0.074 A 
ATOM     50  C   UNL A   1      39.537  29.725  28.833  1.00  0.00     0.049 A 
ATOM     51  N   UNL A   1      39.489  30.424  31.736  1.00  0.00    -0.248 NA
ATOM     52  C   UNL A   1      37.324  31.257  31.445  1.00  0.00     0.031 C 
ATOM     53  C   UNL A   1      39.597  29.388  27.424  1.00  0.00     0.029 A 
ATOM     54  N   UNL A   1      40.774  29.356  29.312  1.00  0.00    -0.354 N 
ATOM     55  C   UNL A   1      39.071  31.040  32.908  1.00  0.00     0.074 A 
ATOM     56  C   UNL A   1      37.731  31.533  32.674  1.00  0.00     0.031 C 
ATOM     57  C   UNL A   1      40.741  28.730  27.174  1.00  0.00     0.029 A 
ATOM     58  C   UNL A   1      41.560  28.701  28.382  1.00  0.00     0.049 A 
ATOM     59  H   UNL A   1      41.073  29.543  30.232  1.00  0.00     0.167 HD
ATOM     60  C   UNL A   1      39.766  31.222  34.055  1.00  0.00     0.037 A 
ATOM     61  C   UNL A   1      42.787  28.139  28.498  1.00  0.00     0.037 A 
ATOM     62  C   UNL A   1      41.104  30.739  34.276  1.00  0.00     0.049 A 
ATOM     63  C   UNL A   1      43.490  28.270  29.834  1.00  0.00     0.074 A 
ATOM     64  C   UNL A   1      41.899  30.889  35.398  1.00  0.00     0.029 A 
ATOM     65  N   UNL A   1      41.849  30.021  33.351  1.00  0.00    -0.354 N 
ATOM     66  N   UNL A   1      43.019  28.709  30.979  1.00  0.00    -0.248 NA
ATOM     67  C   UNL A   1      44.893  27.833  29.898  1.00  0.00     0.031 C 
ATOM     68  C   UNL A   1      43.142  30.308  35.133  1.00  0.00     0.029 A 
ATOM     69  C   UNL A   1      43.103  29.744  33.867  1.00  0.00     0.049 A 
ATOM     70  H   UNL A   1      41.531  29.748  32.460  1.00  0.00     0.167 HD
ATOM     71  C   UNL A   1      44.063  28.586  31.894  1.00  0.00     0.074 A 
ATOM     72  C   UNL A   1      45.151  27.938  31.193  1.00  0.00     0.031 C 
ATOM     73  C   UNL A   1      44.142  29.018  33.178  1.00  0.00     0.037 A 
BRANCH  60  74
ATOM     74  C   UNL A   1      39.120  32.064  35.116  1.00  0.00     0.057 A 
ATOM     75  C   UNL A   1      38.393  31.510  36.177  1.00  0.00     0.134 A 
ATOM     76  C   UNL A   1      39.222  33.461  35.061  1.00  0.00     0.134 A 
ATOM     77  F   UNL A   1      38.237  30.181  36.272  1.00  0.00    -0.206 F 
ATOM     78  C   UNL A   1      37.765  32.317  37.127  1.00  0.00     0.040 A 
ATOM     79  C   UNL A   1      38.625  34.276  36.021  1.00  0.00     0.040 A 
ATOM     80  F   UNL A   1      39.902  34.055  34.069  1.00  0.00    -0.206 F 
ATOM     81  C   UNL A   1      37.885  33.704  37.054  1.00  0.00     0.006 A 
ENDBRANCH  60  74
BRANCH  61  82
ATOM     82  C   UNL A   1      43.403  27.343  27.379  1.00  0.00     0.057 A 
ATOM     83  C   UNL A   1      43.194  25.959  27.287  1.00  0.00     0.134 A 
ATOM     84  C   UNL A   1      44.198  27.899  26.369  1.00  0.00     0.134 A 
ATOM     85  F   UNL A   1      42.514  25.320  28.247  1.00  0.00    -0.206 F 
ATOM     86  C   UNL A   1      43.706  25.175  26.248  1.00  0.00     0.040 A 
ATOM     87  C   UNL A   1      44.676  27.140  25.291  1.00  0.00     0.040 A 
ATOM     88  F   UNL A   1      44.522  29.199  26.394  1.00  0.00    -0.206 F 
ATOM     89  C   UNL A   1      44.428  25.773  25.227  1.00  0.00     0.006 A 
ENDBRANCH  61  82
BRANCH  73  90
ATOM     90  C   UNL A   1      45.424  28.762  33.928  1.00  0.00     0.057 A 
ATOM     91  C   UNL A   1      45.623  27.600  34.687  1.00  0.00     0.134 A 
ATOM     92  C   UNL A   1      46.501  29.655  33.832  1.00  0.00     0.134 A 
ATOM     93  F   UNL A   1      44.639  26.696  34.818  1.00  0.00    -0.206 F 
ATOM     94  C   UNL A   1      46.826  27.354  35.352  1.00  0.00     0.040 A 
ATOM     95  C   UNL A   1      47.721  29.402  34.463  1.00  0.00     0.040 A 
ATOM     96  F   UNL A   1      46.397  30.773  33.099  1.00  0.00    -0.206 F 
ATOM     97  C   UNL A   1      47.883  28.253  35.234  1.00  0.00     0.006 A 
ENDBRANCH  73  90
ENDBRANCH  47  48
ENDBRANCH  40  42
ENDBRANCH  39  40
ENDBRANCH  38  39
ENDBRANCH  37  38
ENDBRANCH  36  37
ENDBRANCH  35  36
ENDBRANCH   1  35
TORSDOF 21
ENDMDL
MODEL 3
REMARK VINA RESULT:     -11.4      4.434      9.057
REMARK SMILES CS(=O)(=O)Nc1ccc(-c2cc(Cl)cc3c2O[C@H](C(F)(F)F)C(C(=O)OCCOCCOCCOC(=O)c2ccc(-c4c5nc(c(-c6c(F)cccc6F)c6ccc([nH]6)c(-c6c(F)cccc6F)c6nc(c(-c7c(F)cccc7F)c7ccc4[nH]7)C=C6)C=C5)cc2)=C3)cc1
REMARK SMILES IDX 30 1 29 2 28 3 27 4 26 5 24 6 25 7 23 8 10 9 11 10 16 11
REMARK SMILES IDX 12 12 15 13 17 14 13 15 14 16 92 17 18 18 9 19 6 20 7 21
REMARK SMILES IDX 94 22 8 23 93 24 5 25 2 27 1 28 3 29 4 30 19 31 20 32 21 33
REMARK SMILES IDX 22 34 31 35 32 36 33 37 34 38 35 39 36 40 37 41 38 42 39 43
REMARK SMILES IDX 91 44 40 45 90 46 41 47 42 48 43 49 84 50 44 51 89 52 83 53
REMARK SMILES IDX 85 54 45 55 88 56 82 57 81 58 46 60 72 61 55 62 71 63 56 64
REMARK SMILES IDX 59 65 70 66 86 67 57 68 58 69 69 71 87 72 60 73 47 74 48 75
REMARK SMILES IDX 53 76 49 77 50 78 52 79 54 80 51 81 73 82 74 83 79 84 75 85
REMARK SMILES IDX 76 86 78 87 80 88 77 89 61 90 62 91 67 92 63 93 64 94 66 95
REMARK SMILES IDX 68 96 65 97
REMARK H PARENT 5 26 85 59 59 70
REMARK Flexibility Score: inf
ROOT
ATOM      1  C   UNL A   1      31.393  25.178  25.373  1.00  0.00     0.188 C 
ENDROOT
BRANCH   1   2
ATOM      2  O   UNL A   1      31.527  24.911  26.756  1.00  0.00    -0.376 OA
BRANCH   2   3
ATOM      3  C   UNL A   1      31.937  23.594  27.113  1.00  0.00     0.202 C 
BRANCH   3   4
ATOM      4  C   UNL A   1      33.037  22.951  26.250  1.00  0.00     0.261 C 
BRANCH   4   5
ATOM      5  O   UNL A   1      34.378  23.321  26.672  1.00  0.00    -0.460 OA
BRANCH   5   6
ATOM      6  C   UNL A   1      35.156  23.866  25.714  1.00  0.00     0.338 C 
ATOM      7  O   UNL A   1      35.090  25.036  25.357  1.00  0.00    -0.246 OA
BRANCH   6   8
ATOM      8  C   UNL A   1      36.205  22.931  25.213  1.00  0.00     0.087 C 
ATOM      9  C   UNL A   1      39.805  22.280  27.147  1.00  0.00     0.026 A 
ATOM     10  C   UNL A   1      39.923  23.419  27.980  1.00  0.00     0.033 A 
ATOM     11  C   UNL A   1      38.745  22.336  26.232  1.00  0.00     0.135 A 
ATOM     12  C   UNL A   1      39.203  24.597  27.776  1.00  0.00     0.042 A 
ATOM     13  C   UNL A   1      38.215  23.594  25.871  1.00  0.00     0.019 A 
ATOM     14  O   UNL A   1      38.002  21.237  25.796  1.00  0.00    -0.475 OA
ATOM     15  Cl  UNL A   1      39.370  25.932  28.840  1.00  0.00    -0.084 Cl
ATOM     16  C   UNL A   1      38.407  24.718  26.660  1.00  0.00     0.032 A 
ATOM     17  C   UNL A   1      37.256  23.624  24.748  1.00  0.00     0.027 C 
ATOM     18  C   UNL A   1      36.514  21.557  25.809  1.00  0.00     0.316 C 
BRANCH   9  19
ATOM     19  C   UNL A   1      41.080  21.483  27.069  1.00  0.00    -0.014 A 
ATOM     20  C   UNL A   1      42.951  19.806  25.663  1.00  0.00     0.048 A 
ATOM     21  C   UNL A   1      43.130  21.186  25.722  1.00  0.00     0.027 A 
ATOM     22  C   UNL A   1      41.913  19.254  26.411  1.00  0.00     0.027 A 
ATOM     23  C   UNL A   1      42.228  22.001  26.438  1.00  0.00     0.011 A 
ATOM     24  C   UNL A   1      40.998  20.078  27.110  1.00  0.00     0.011 A 
BRANCH  20  25
ATOM     25  N   UNL A   1      43.650  19.089  24.641  1.00  0.00    -0.284 N 
ATOM     26  H   UNL A   1      43.273  18.230  24.345  1.00  0.00     0.180 HD
BRANCH  25  27
ATOM     27  S   UNL A   1      45.063  19.607  23.915  1.00  0.00     0.229 S 
ATOM     28  C   UNL A   1      46.274  19.561  25.230  1.00  0.00     0.183 C 
ATOM     29  O   UNL A   1      44.903  20.976  23.481  1.00  0.00    -0.207 OA
ATOM     30  O   UNL A   1      45.423  18.563  22.975  1.00  0.00    -0.207 OA
ENDBRANCH  25  27
ENDBRANCH  20  25
ENDBRANCH   9  19
BRANCH  18  31
ATOM     31  C   UNL A   1      35.675  20.510  25.064  1.00  0.00     0.430 C 
ATOM     32  F   UNL A   1      34.644  20.060  25.813  1.00  0.00    -0.167 F 
ATOM     33  F   UNL A   1      35.174  20.991  23.907  1.00  0.00    -0.167 F 
ATOM     34  F   UNL A   1      36.434  19.431  24.744  1.00  0.00    -0.167 F 
ENDBRANCH  18  31
ENDBRANCH   6   8
ENDBRANCH   5   6
ENDBRANCH   4   5
ENDBRANCH   3   4
ENDBRANCH   2   3
ENDBRANCH   1   2
BRANCH   1  35
ATOM     35  C   UNL A   1      30.330  26.244  25.025  1.00  0.00     0.188 C 
BRANCH  35  36
ATOM     36  O   UNL A   1      30.729  27.538  24.601  1.00  0.00    -0.376 OA
BRANCH  36  37
ATOM     37  C   UNL A   1      31.945  28.088  25.088  1.00  0.00     0.202 C 
BRANCH  37  38
ATOM     38  C   UNL A   1      31.988  29.548  25.564  1.00  0.00     0.261 C 
BRANCH  38  39
ATOM     39  O   UNL A   1      32.533  29.762  26.881  1.00  0.00    -0.460 OA
BRANCH  39  40
ATOM     40  C   UNL A   1      33.101  30.973  27.090  1.00  0.00     0.338 C 
ATOM     41  O   UNL A   1      32.559  32.069  27.005  1.00  0.00    -0.246 OA
BRANCH  40  42
ATOM     42  C   UNL A   1      34.469  30.822  27.619  1.00  0.00     0.060 A 
ATOM     43  C   UNL A   1      34.926  29.534  27.910  1.00  0.00     0.016 A 
ATOM     44  C   UNL A   1      35.259  31.930  27.931  1.00  0.00     0.016 A 
ATOM     45  C   UNL A   1      36.162  29.357  28.534  1.00  0.00     0.010 A 
ATOM     46  C   UNL A   1      36.499  31.747  28.564  1.00  0.00     0.010 A 
ATOM     47  C   UNL A   1      36.959  30.459  28.884  1.00  0.00    -0.014 A 
BRANCH  47  48
ATOM     48  C   UNL A   1      38.180  30.259  29.718  1.00  0.00     0.031 A 
ATOM     49  C   UNL A   1      39.408  29.696  29.074  1.00  0.00     0.074 A 
ATOM     50  C   UNL A   1      38.209  30.573  31.028  1.00  0.00     0.049 A 
ATOM     51  N   UNL A   1      40.596  29.506  29.585  1.00  0.00    -0.248 NA
ATOM     52  C   UNL A   1      39.266  29.257  27.679  1.00  0.00     0.031 C 
ATOM     53  C   UNL A   1      37.065  31.079  31.761  1.00  0.00     0.029 A 
ATOM     54  N   UNL A   1      39.221  30.568  31.962  1.00  0.00    -0.354 N 
ATOM     55  C   UNL A   1      41.321  28.848  28.600  1.00  0.00     0.074 A 
ATOM     56  C   UNL A   1      40.455  28.724  27.447  1.00  0.00     0.031 C 
ATOM     57  C   UNL A   1      37.461  31.477  32.981  1.00  0.00     0.029 A 
ATOM     58  C   UNL A   1      38.869  31.143  33.169  1.00  0.00     0.049 A 
ATOM     59  H   UNL A   1      40.113  30.189  31.787  1.00  0.00     0.167 HD
ATOM     60  C   UNL A   1      42.577  28.349  28.674  1.00  0.00     0.037 A 
ATOM     61  C   UNL A   1      39.600  31.377  34.285  1.00  0.00     0.037 A 
ATOM     62  C   UNL A   1      43.428  28.467  29.828  1.00  0.00     0.049 A 
ATOM     63  C   UNL A   1      41.038  30.899  34.289  1.00  0.00     0.074 A 
ATOM     64  C   UNL A   1      44.710  27.979  30.006  1.00  0.00     0.029 A 
ATOM     65  N   UNL A   1      43.078  29.111  31.007  1.00  0.00    -0.354 N 
ATOM     66  N   UNL A   1      41.758  30.427  33.297  1.00  0.00    -0.248 NA
ATOM     67  C   UNL A   1      41.766  30.979  35.565  1.00  0.00     0.031 C 
ATOM     68  C   UNL A   1      45.114  28.280  31.309  1.00  0.00     0.029 A 
ATOM     69  C   UNL A   1      44.109  29.008  31.925  1.00  0.00     0.049 A 
ATOM     70  H   UNL A   1      42.223  29.572  31.166  1.00  0.00     0.167 HD
ATOM     71  C   UNL A   1      43.021  30.171  33.828  1.00  0.00     0.074 A 
ATOM     72  C   UNL A   1      42.993  30.635  35.198  1.00  0.00     0.031 C 
ATOM     73  C   UNL A   1      44.089  29.558  33.259  1.00  0.00     0.037 A 
BRANCH  60  74
ATOM     74  C   UNL A   1      43.059  27.544  27.503  1.00  0.00     0.057 A 
ATOM     75  C   UNL A   1      42.967  26.148  27.462  1.00  0.00     0.134 A 
ATOM     76  C   UNL A   1      43.639  28.188  26.401  1.00  0.00     0.134 A 
ATOM     77  F   UNL A   1      42.447  25.470  28.496  1.00  0.00    -0.206 F 
ATOM     78  C   UNL A   1      43.464  25.418  26.379  1.00  0.00     0.040 A 
ATOM     79  C   UNL A   1      44.110  27.472  25.301  1.00  0.00     0.040 A 
ATOM     80  F   UNL A   1      43.759  29.524  26.378  1.00  0.00    -0.206 F 
ATOM     81  C   UNL A   1      44.031  26.082  25.293  1.00  0.00     0.006 A 
ENDBRANCH  60  74
BRANCH  61  82
ATOM     82  C   UNL A   1      39.045  32.153  35.449  1.00  0.00     0.057 A 
ATOM     83  C   UNL A   1      39.259  33.536  35.553  1.00  0.00     0.134 A 
ATOM     84  C   UNL A   1      38.287  31.583  36.480  1.00  0.00     0.134 A 
ATOM     85  F   UNL A   1      40.036  34.161  34.660  1.00  0.00    -0.206 F 
ATOM     86  C   UNL A   1      38.732  34.316  36.588  1.00  0.00     0.040 A 
ATOM     87  C   UNL A   1      37.707  32.355  37.496  1.00  0.00     0.040 A 
ATOM     88  F   UNL A   1      38.079  30.260  36.520  1.00  0.00    -0.206 F 
ATOM     89  C   UNL A   1      37.927  33.727  37.551  1.00  0.00     0.006 A 
ENDBRANCH  61  82
BRANCH  73  90
ATOM     90  C   UNL A   1      45.334  29.397  34.094  1.00  0.00     0.057 A 
ATOM     91  C   UNL A   1      45.555  28.262  34.888  1.00  0.00     0.134 A 
ATOM     92  C   UNL A   1      46.357  30.355  34.048  1.00  0.00     0.134 A 
ATOM     93  F   UNL A   1      44.624  27.300  34.974  1.00  0.00    -0.206 F 
ATOM     94  C   UNL A   1      46.727  28.104  35.632  1.00  0.00     0.040 A 
ATOM     95  C   UNL A   1      47.547  30.191  34.760  1.00  0.00     0.040 A 
ATOM     96  F   UNL A   1      46.231  31.452  33.287  1.00  0.00    -0.206 F 
ATOM     97  C   UNL A   1      47.730  29.066  35.563  1.00  0.00     0.006 A 
ENDBRANCH  73  90
ENDBRANCH  47  48
ENDBRANCH  40  42
ENDBRANCH  39  40
ENDBRANCH  38  39
ENDBRANCH  37  38
ENDBRANCH  36  37
ENDBRANCH  35  36
ENDBRANCH   1  35
TORSDOF 21
ENDMDL
