MODEL 1
REMARK VINA RESULT:      -9.3      0.000      0.000
REMARK SMILES CCN1C(=O)/C(=C/c2cc([N+](=O)[O-])ccc2O)S/C1=[NH+]\c1ccc(C(=O)OCCOCCOCCOC(=O)c2ccc(-c3c4nc(c(-c5c(F)cccc5F)c5ccc([nH]5)c(-c5c(F)cccc5F)c5nc(c(-c6c(F)cccc6F)c6ccc3[nH]6)C=C5)C=C4)cc2)cc1
REMARK SMILES IDX 31 1 30 2 29 3 28 4 27 5 25 6 26 7 24 8 21 9 22 10 94 11
REMARK SMILES IDX 23 12 93 13 20 14 3 15 4 16 19 17 5 18 6 19 18 20 7 21 2 23
REMARK SMILES IDX 1 24 8 25 9 26 16 27 10 28 15 29 14 30 17 31 11 33 12 34
REMARK SMILES IDX 13 35 32 36 33 37 34 38 35 39 36 40 37 41 38 42 39 43 40 44
REMARK SMILES IDX 92 45 41 46 91 47 42 48 43 49 44 50 85 51 45 52 90 53 84 54
REMARK SMILES IDX 86 55 46 56 89 57 83 58 82 59 47 61 73 62 56 63 72 64 57 65
REMARK SMILES IDX 60 66 71 67 87 68 58 69 59 70 70 72 88 73 61 74 48 75 49 76
REMARK SMILES IDX 54 77 50 78 51 79 53 80 55 81 52 82 74 83 75 84 80 85 76 86
REMARK SMILES IDX 77 87 79 88 81 89 78 90 62 91 63 92 68 93 64 94 65 95 67 96
REMARK SMILES IDX 69 97 66 98
REMARK H PARENT 20 22 17 32 86 60 60 71
REMARK Flexibility Score: inf
ROOT
ATOM      1  C   UNL A   1      34.297  32.448  28.460  1.00  0.00     0.188 C 
ENDROOT
BRANCH   1   2
ATOM      2  O   UNL A   1      35.420  32.785  27.669  1.00  0.00    -0.376 OA
BRANCH   2   3
ATOM      3  C   UNL A   1      36.613  32.021  27.751  1.00  0.00     0.202 C 
BRANCH   3   4
ATOM      4  C   UNL A   1      36.606  30.529  28.114  1.00  0.00     0.261 C 
BRANCH   4   5
ATOM      5  O   UNL A   1      37.686  29.762  27.567  1.00  0.00    -0.460 OA
BRANCH   5   6
ATOM      6  C   UNL A   1      38.788  29.676  28.350  1.00  0.00     0.338 C 
ATOM      7  O   UNL A   1      39.181  30.505  29.156  1.00  0.00    -0.246 OA
BRANCH   6   8
ATOM      8  C   UNL A   1      39.398  28.330  28.235  1.00  0.00     0.060 A 
ATOM      9  C   UNL A   1      40.509  25.788  27.830  1.00  0.00     0.125 A 
ATOM     10  C   UNL A   1      40.850  26.844  26.984  1.00  0.00     0.052 A 
ATOM     11  C   UNL A   1      39.702  26.044  28.950  1.00  0.00     0.052 A 
ATOM     12  C   UNL A   1      40.293  28.110  27.180  1.00  0.00     0.020 A 
ATOM     13  C   UNL A   1      39.124  27.303  29.142  1.00  0.00     0.020 A 
BRANCH   9  14
ATOM     14  N   UNL A   1      40.944  24.490  27.506  1.00  0.00    -0.234 N 
ATOM     15  N   UNL A   1      40.460  22.410  26.506  1.00  0.00    -0.186 N 
ATOM     16  C   UNL A   1      39.414  21.624  26.055  1.00  0.00     0.348 C 
ATOM     17  C   UNL A   1      40.137  23.695  26.874  1.00  0.00     0.324 C 
ATOM     18  O   UNL A   1      39.448  20.419  25.844  1.00  0.00    -0.240 OA
ATOM     19  C   UNL A   1      38.181  22.440  25.908  1.00  0.00     0.110 C 
ATOM     20  S   UNL A   1      38.494  24.056  26.381  1.00  0.00     0.007 SA
ATOM     21  C   UNL A   1      37.010  21.932  25.501  1.00  0.00     0.036 C 
ATOM     22  H   UNL A   1      41.847  24.188  27.756  1.00  0.00     0.313 HD
BRANCH  15  23
ATOM     23  C   UNL A   1      41.789  21.840  26.694  1.00  0.00     0.244 C 
ATOM     24  C   UNL A   1      42.786  22.299  25.633  1.00  0.00     0.055 C 
ENDBRANCH  15  23
BRANCH  21  25
ATOM     25  C   UNL A   1      35.760  22.701  25.388  1.00  0.00     0.024 A 
ATOM     26  C   UNL A   1      34.804  22.573  26.404  1.00  0.00     0.097 A 
ATOM     27  C   UNL A   1      35.508  23.580  24.321  1.00  0.00     0.123 A 
ATOM     28  C   UNL A   1      33.629  23.336  26.354  1.00  0.00     0.270 A 
ATOM     29  C   UNL A   1      34.343  24.348  24.277  1.00  0.00     0.054 A 
ATOM     30  C   UNL A   1      33.399  24.229  25.298  1.00  0.00     0.089 A 
BRANCH  27  31
ATOM     31  O   UNL A   1      36.423  23.684  23.308  1.00  0.00    -0.507 OA
ATOM     32  H   UNL A   1      36.234  24.214  22.558  1.00  0.00     0.293 HD
ENDBRANCH  27  31
BRANCH  28  33
ATOM     33  N   UNL A   1      32.630  23.203  27.421  1.00  0.00     0.062 N 
ATOM     34  O   UNL A   1      31.632  23.936  27.372  1.00  0.00    -0.258 OA
ATOM     35  O   UNL A   1      32.844  22.367  28.310  1.00  0.00    -0.258 OA
ENDBRANCH  28  33
ENDBRANCH  21  25
ENDBRANCH   9  14
ENDBRANCH   6   8
ENDBRANCH   5   6
ENDBRANCH   4   5
ENDBRANCH   3   4
ENDBRANCH   2   3
ENDBRANCH   1   2
BRANCH   1  36
ATOM     36  C   UNL A   1      34.422  32.294  29.990  1.00  0.00     0.188 C 
BRANCH  36  37
ATOM     37  O   UNL A   1      34.292  33.436  30.800  1.00  0.00    -0.376 OA
BRANCH  37  38
ATOM     38  C   UNL A   1      35.061  33.581  31.981  1.00  0.00     0.202 C 
BRANCH  38  39
ATOM     39  C   UNL A   1      35.641  32.436  32.833  1.00  0.00     0.261 C 
BRANCH  39  40
ATOM     40  O   UNL A   1      36.906  31.889  32.458  1.00  0.00    -0.460 OA
BRANCH  40  41
ATOM     41  C   UNL A   1      36.919  30.552  32.222  1.00  0.00     0.338 C 
ATOM     42  O   UNL A   1      36.031  29.871  31.748  1.00  0.00    -0.246 OA
BRANCH  41  43
ATOM     43  C   UNL A   1      38.278  30.049  32.493  1.00  0.00     0.060 A 
ATOM     44  C   UNL A   1      39.314  30.969  32.702  1.00  0.00     0.016 A 
ATOM     45  C   UNL A   1      38.524  28.677  32.525  1.00  0.00     0.016 A 
ATOM     46  C   UNL A   1      40.608  30.512  32.955  1.00  0.00     0.010 A 
ATOM     47  C   UNL A   1      39.825  28.224  32.753  1.00  0.00     0.010 A 
ATOM     48  C   UNL A   1      40.875  29.138  32.959  1.00  0.00    -0.014 A 
BRANCH  48  49
ATOM     49  C   UNL A   1      42.268  28.642  33.054  1.00  0.00     0.031 A 
ATOM     50  C   UNL A   1      42.993  28.269  31.793  1.00  0.00     0.074 A 
ATOM     51  C   UNL A   1      42.868  28.495  34.248  1.00  0.00     0.049 A 
ATOM     52  N   UNL A   1      44.164  27.705  31.645  1.00  0.00    -0.248 NA
ATOM     53  C   UNL A   1      42.303  28.571  30.529  1.00  0.00     0.031 C 
ATOM     54  C   UNL A   1      42.283  28.855  35.539  1.00  0.00     0.029 A 
ATOM     55  N   UNL A   1      44.099  27.978  34.567  1.00  0.00    -0.354 N 
ATOM     56  C   UNL A   1      44.345  27.570  30.275  1.00  0.00     0.074 A 
ATOM     57  C   UNL A   1      43.157  28.096  29.636  1.00  0.00     0.031 C 
ATOM     58  C   UNL A   1      43.146  28.521  36.514  1.00  0.00     0.029 A 
ATOM     59  C   UNL A   1      44.322  27.888  35.919  1.00  0.00     0.049 A 
ATOM     60  H   UNL A   1      44.759  27.697  33.892  1.00  0.00     0.167 HD
ATOM     61  C   UNL A   1      45.407  27.057  29.611  1.00  0.00     0.037 A 
ATOM     62  C   UNL A   1      45.341  27.324  36.598  1.00  0.00     0.037 A 
ATOM     63  C   UNL A   1      46.585  26.533  30.250  1.00  0.00     0.049 A 
ATOM     64  C   UNL A   1      46.473  26.681  35.838  1.00  0.00     0.074 A 
ATOM     65  C   UNL A   1      47.729  26.022  29.662  1.00  0.00     0.029 A 
ATOM     66  N   UNL A   1      46.765  26.439  31.621  1.00  0.00    -0.354 N 
ATOM     67  N   UNL A   1      46.655  26.592  34.542  1.00  0.00    -0.248 NA
ATOM     68  C   UNL A   1      47.539  26.055  36.635  1.00  0.00     0.031 C 
ATOM     69  C   UNL A   1      48.574  25.562  30.675  1.00  0.00     0.029 A 
ATOM     70  C   UNL A   1      47.984  25.842  31.898  1.00  0.00     0.049 A 
ATOM     71  H   UNL A   1      46.122  26.749  32.299  1.00  0.00     0.167 HD
ATOM     72  C   UNL A   1      47.864  25.925  34.371  1.00  0.00     0.074 A 
ATOM     73  C   UNL A   1      48.378  25.646  35.694  1.00  0.00     0.031 C 
ATOM     74  C   UNL A   1      48.489  25.574  33.220  1.00  0.00     0.037 A 
BRANCH  61  75
ATOM     75  C   UNL A   1      45.331  27.005  28.113  1.00  0.00     0.057 A 
ATOM     76  C   UNL A   1      45.915  27.989  27.306  1.00  0.00     0.134 A 
ATOM     77  C   UNL A   1      44.703  25.929  27.472  1.00  0.00     0.134 A 
ATOM     78  F   UNL A   1      46.519  29.052  27.858  1.00  0.00    -0.206 F 
ATOM     79  C   UNL A   1      45.859  27.916  25.912  1.00  0.00     0.040 A 
ATOM     80  C   UNL A   1      44.665  25.831  26.081  1.00  0.00     0.040 A 
ATOM     81  F   UNL A   1      44.129  24.951  28.186  1.00  0.00    -0.206 F 
ATOM     82  C   UNL A   1      45.241  26.829  25.297  1.00  0.00     0.006 A 
ENDBRANCH  61  75
BRANCH  62  83
ATOM     83  C   UNL A   1      45.327  27.303  38.083  1.00  0.00     0.057 A 
ATOM     84  C   UNL A   1      44.702  26.269  38.790  1.00  0.00     0.134 A 
ATOM     85  C   UNL A   1      45.909  28.335  38.832  1.00  0.00     0.134 A 
ATOM     86  F   UNL A   1      44.102  25.267  38.131  1.00  0.00    -0.206 F 
ATOM     87  C   UNL A   1      44.637  26.272  40.185  1.00  0.00     0.040 A 
ATOM     88  C   UNL A   1      45.877  28.334  40.227  1.00  0.00     0.040 A 
ATOM     89  F   UNL A   1      46.521  29.357  38.216  1.00  0.00    -0.206 F 
ATOM     90  C   UNL A   1      45.231  27.304  40.908  1.00  0.00     0.006 A 
ENDBRANCH  62  83
BRANCH  74  91
ATOM     91  C   UNL A   1      49.816  24.879  33.333  1.00  0.00     0.057 A 
ATOM     92  C   UNL A   1      51.027  25.568  33.193  1.00  0.00     0.134 A 
ATOM     93  C   UNL A   1      49.882  23.515  33.646  1.00  0.00     0.134 A 
ATOM     94  F   UNL A   1      51.035  26.873  32.882  1.00  0.00    -0.206 F 
ATOM     95  C   UNL A   1      52.256  24.921  33.342  1.00  0.00     0.040 A 
ATOM     96  C   UNL A   1      51.103  22.864  33.827  1.00  0.00     0.040 A 
ATOM     97  F   UNL A   1      48.759  22.797  33.804  1.00  0.00    -0.206 F 
ATOM     98  C   UNL A   1      52.295  23.567  33.670  1.00  0.00     0.006 A 
ENDBRANCH  74  91
ENDBRANCH  48  49
ENDBRANCH  41  43
ENDBRANCH  40  41
ENDBRANCH  39  40
ENDBRANCH  38  39
ENDBRANCH  37  38
ENDBRANCH  36  37
ENDBRANCH   1  36
TORSDOF 22
ENDMDL
MODEL 2
REMARK VINA RESULT:      -9.2      3.679      8.459
REMARK SMILES CCN1C(=O)/C(=C/c2cc([N+](=O)[O-])ccc2O)S/C1=[NH+]\c1ccc(C(=O)OCCOCCOCCOC(=O)c2ccc(-c3c4nc(c(-c5c(F)cccc5F)c5ccc([nH]5)c(-c5c(F)cccc5F)c5nc(c(-c6c(F)cccc6F)c6ccc3[nH]6)C=C5)C=C4)cc2)cc1
REMARK SMILES IDX 31 1 30 2 29 3 28 4 27 5 25 6 26 7 24 8 21 9 22 10 94 11
REMARK SMILES IDX 23 12 93 13 20 14 3 15 4 16 19 17 5 18 6 19 18 20 7 21 2 23
REMARK SMILES IDX 1 24 8 25 9 26 16 27 10 28 15 29 14 30 17 31 11 33 12 34
REMARK SMILES IDX 13 35 32 36 33 37 34 38 35 39 36 40 37 41 38 42 39 43 40 44
REMARK SMILES IDX 92 45 41 46 91 47 42 48 43 49 44 50 85 51 45 52 90 53 84 54
REMARK SMILES IDX 86 55 46 56 89 57 83 58 82 59 47 61 73 62 56 63 72 64 57 65
REMARK SMILES IDX 60 66 71 67 87 68 58 69 59 70 70 72 88 73 61 74 48 75 49 76
REMARK SMILES IDX 54 77 50 78 51 79 53 80 55 81 52 82 74 83 75 84 80 85 76 86
REMARK SMILES IDX 77 87 79 88 81 89 78 90 62 91 63 92 68 93 64 94 65 95 67 96
REMARK SMILES IDX 69 97 66 98
REMARK H PARENT 20 22 17 32 86 60 60 71
REMARK Flexibility Score: inf
ROOT
ATOM      1  C   UNL A   1      34.595  35.165  28.263  1.00  0.00     0.188 C 
ENDROOT
BRANCH   1   2
ATOM      2  O   UNL A   1      33.881  34.087  28.835  1.00  0.00    -0.376 OA
BRANCH   2   3
ATOM      3  C   UNL A   1      34.441  33.336  29.901  1.00  0.00     0.202 C 
BRANCH   3   4
ATOM      4  C   UNL A   1      35.704  32.481  29.723  1.00  0.00     0.261 C 
BRANCH   4   5
ATOM      5  O   UNL A   1      35.809  31.801  28.466  1.00  0.00    -0.460 OA
BRANCH   5   6
ATOM      6  C   UNL A   1      35.540  30.473  28.504  1.00  0.00     0.338 C 
ATOM      7  O   UNL A   1      35.928  29.670  29.337  1.00  0.00    -0.246 OA
BRANCH   6   8
ATOM      8  C   UNL A   1      34.540  30.121  27.469  1.00  0.00     0.060 A 
ATOM      9  C   UNL A   1      32.515  29.453  25.648  1.00  0.00     0.125 A 
ATOM     10  C   UNL A   1      32.322  30.491  26.560  1.00  0.00     0.052 A 
ATOM     11  C   UNL A   1      33.772  28.834  25.575  1.00  0.00     0.052 A 
ATOM     12  C   UNL A   1      33.326  30.821  27.472  1.00  0.00     0.020 A 
ATOM     13  C   UNL A   1      34.777  29.145  26.498  1.00  0.00     0.020 A 
BRANCH   9  14
ATOM     14  N   UNL A   1      31.427  29.026  24.863  1.00  0.00    -0.234 N 
ATOM     15  N   UNL A   1      30.087  27.240  24.107  1.00  0.00    -0.186 N 
ATOM     16  C   UNL A   1      30.050  25.861  24.001  1.00  0.00     0.348 C 
ATOM     17  C   UNL A   1      31.128  27.764  24.836  1.00  0.00     0.324 C 
ATOM     18  O   UNL A   1      29.321  25.206  23.267  1.00  0.00    -0.240 OA
ATOM     19  C   UNL A   1      31.085  25.248  24.875  1.00  0.00     0.110 C 
ATOM     20  S   UNL A   1      31.970  26.476  25.676  1.00  0.00     0.007 SA
ATOM     21  C   UNL A   1      31.285  23.926  24.958  1.00  0.00     0.036 C 
ATOM     22  H   UNL A   1      30.903  29.675  24.341  1.00  0.00     0.313 HD
BRANCH  15  23
ATOM     23  C   UNL A   1      29.138  28.066  23.370  1.00  0.00     0.244 C 
ATOM     24  C   UNL A   1      29.798  28.877  22.258  1.00  0.00     0.055 C 
ENDBRANCH  15  23
BRANCH  21  25
ATOM     25  C   UNL A   1      32.328  23.289  25.777  1.00  0.00     0.024 A 
ATOM     26  C   UNL A   1      33.608  23.138  25.228  1.00  0.00     0.097 A 
ATOM     27  C   UNL A   1      32.097  22.861  27.096  1.00  0.00     0.123 A 
ATOM     28  C   UNL A   1      34.638  22.588  26.003  1.00  0.00     0.270 A 
ATOM     29  C   UNL A   1      33.125  22.323  27.872  1.00  0.00     0.054 A 
ATOM     30  C   UNL A   1      34.403  22.187  27.327  1.00  0.00     0.089 A 
BRANCH  27  31
ATOM     31  O   UNL A   1      30.841  22.975  27.627  1.00  0.00    -0.507 OA
ATOM     32  H   UNL A   1      30.527  22.331  28.232  1.00  0.00     0.293 HD
ENDBRANCH  27  31
BRANCH  28  33
ATOM     33  N   UNL A   1      35.979  22.433  25.427  1.00  0.00     0.062 N 
ATOM     34  O   UNL A   1      36.078  21.832  24.349  1.00  0.00    -0.258 OA
ATOM     35  O   UNL A   1      36.935  22.913  26.055  1.00  0.00    -0.258 OA
ENDBRANCH  28  33
ENDBRANCH  21  25
ENDBRANCH   9  14
ENDBRANCH   6   8
ENDBRANCH   5   6
ENDBRANCH   4   5
ENDBRANCH   3   4
ENDBRANCH   2   3
ENDBRANCH   1   2
BRANCH   1  36
ATOM     36  C   UNL A   1      34.026  36.599  28.297  1.00  0.00     0.188 C 
BRANCH  36  37
ATOM     37  O   UNL A   1      32.908  36.867  29.107  1.00  0.00    -0.376 OA
BRANCH  37  38
ATOM     38  C   UNL A   1      33.028  36.919  30.517  1.00  0.00     0.202 C 
BRANCH  38  39
ATOM     39  C   UNL A   1      32.225  36.077  31.529  1.00  0.00     0.261 C 
BRANCH  39  40
ATOM     40  O   UNL A   1      32.942  35.401  32.563  1.00  0.00    -0.460 OA
BRANCH  40  41
ATOM     41  C   UNL A   1      33.818  36.166  33.262  1.00  0.00     0.338 C 
ATOM     42  O   UNL A   1      33.649  37.291  33.691  1.00  0.00    -0.246 OA
BRANCH  41  43
ATOM     43  C   UNL A   1      35.001  35.343  33.575  1.00  0.00     0.060 A 
ATOM     44  C   UNL A   1      36.074  35.325  32.673  1.00  0.00     0.016 A 
ATOM     45  C   UNL A   1      35.039  34.586  34.744  1.00  0.00     0.016 A 
ATOM     46  C   UNL A   1      37.200  34.549  32.949  1.00  0.00     0.010 A 
ATOM     47  C   UNL A   1      36.157  33.790  35.004  1.00  0.00     0.010 A 
ATOM     48  C   UNL A   1      37.238  33.760  34.104  1.00  0.00    -0.014 A 
BRANCH  48  49
ATOM     49  C   UNL A   1      38.347  32.802  34.325  1.00  0.00     0.031 A 
ATOM     50  C   UNL A   1      39.261  33.009  35.499  1.00  0.00     0.074 A 
ATOM     51  C   UNL A   1      38.556  31.780  33.477  1.00  0.00     0.049 A 
ATOM     52  N   UNL A   1      40.358  32.374  35.818  1.00  0.00    -0.248 NA
ATOM     53  C   UNL A   1      38.887  34.081  36.436  1.00  0.00     0.031 C 
ATOM     54  C   UNL A   1      37.719  31.453  32.324  1.00  0.00     0.029 A 
ATOM     55  N   UNL A   1      39.560  30.844  33.443  1.00  0.00    -0.354 N 
ATOM     56  C   UNL A   1      40.816  32.975  36.983  1.00  0.00     0.074 A 
ATOM     57  C   UNL A   1      39.886  34.038  37.305  1.00  0.00     0.031 C 
ATOM     58  C   UNL A   1      38.260  30.405  31.679  1.00  0.00     0.029 A 
ATOM     59  C   UNL A   1      39.501  30.016  32.349  1.00  0.00     0.049 A 
ATOM     60  H   UNL A   1      40.256  30.772  34.137  1.00  0.00     0.167 HD
ATOM     61  C   UNL A   1      41.910  32.668  37.717  1.00  0.00     0.037 A 
ATOM     62  C   UNL A   1      40.369  29.081  31.917  1.00  0.00     0.037 A 
ATOM     63  C   UNL A   1      42.834  31.613  37.393  1.00  0.00     0.049 A 
ATOM     64  C   UNL A   1      41.626  28.815  32.706  1.00  0.00     0.074 A 
ATOM     65  C   UNL A   1      43.954  31.203  38.094  1.00  0.00     0.029 A 
ATOM     66  N   UNL A   1      42.752  30.812  36.265  1.00  0.00    -0.354 N 
ATOM     67  N   UNL A   1      42.032  29.361  33.827  1.00  0.00    -0.248 NA
ATOM     68  C   UNL A   1      42.549  27.804  32.167  1.00  0.00     0.031 C 
ATOM     69  C   UNL A   1      44.585  30.195  37.360  1.00  0.00     0.029 A 
ATOM     70  C   UNL A   1      43.824  29.935  36.231  1.00  0.00     0.049 A 
ATOM     71  H   UNL A   1      42.039  30.859  35.588  1.00  0.00     0.167 HD
ATOM     72  C   UNL A   1      43.239  28.745  34.138  1.00  0.00     0.074 A 
ATOM     73  C   UNL A   1      43.492  27.773  33.097  1.00  0.00     0.031 C 
ATOM     74  C   UNL A   1      44.064  28.967  35.191  1.00  0.00     0.037 A 
BRANCH  61  75
ATOM     75  C   UNL A   1      42.191  33.506  38.931  1.00  0.00     0.057 A 
ATOM     76  C   UNL A   1      42.885  34.719  38.850  1.00  0.00     0.134 A 
ATOM     77  C   UNL A   1      41.719  33.112  40.189  1.00  0.00     0.134 A 
ATOM     78  F   UNL A   1      43.376  35.147  37.677  1.00  0.00    -0.206 F 
ATOM     79  C   UNL A   1      43.118  35.502  39.983  1.00  0.00     0.040 A 
ATOM     80  C   UNL A   1      41.921  33.899  41.324  1.00  0.00     0.040 A 
ATOM     81  F   UNL A   1      41.042  31.963  40.335  1.00  0.00    -0.206 F 
ATOM     82  C   UNL A   1      42.627  35.096  41.223  1.00  0.00     0.006 A 
ENDBRANCH  61  75
BRANCH  62  83
ATOM     83  C   UNL A   1      40.107  28.346  30.653  1.00  0.00     0.057 A 
ATOM     84  C   UNL A   1      40.750  28.698  29.460  1.00  0.00     0.134 A 
ATOM     85  C   UNL A   1      39.181  27.296  30.599  1.00  0.00     0.134 A 
ATOM     86  F   UNL A   1      41.627  29.713  29.440  1.00  0.00    -0.206 F 
ATOM     87  C   UNL A   1      40.468  28.048  28.257  1.00  0.00     0.040 A 
ATOM     88  C   UNL A   1      38.911  26.619  29.409  1.00  0.00     0.040 A 
ATOM     89  F   UNL A   1      38.527  26.911  31.705  1.00  0.00    -0.206 F 
ATOM     90  C   UNL A   1      39.549  27.000  28.231  1.00  0.00     0.006 A 
ENDBRANCH  62  83
BRANCH  74  91
ATOM     91  C   UNL A   1      45.304  28.124  35.294  1.00  0.00     0.057 A 
ATOM     92  C   UNL A   1      46.524  28.535  34.744  1.00  0.00     0.134 A 
ATOM     93  C   UNL A   1      45.289  26.916  36.002  1.00  0.00     0.134 A 
ATOM     94  F   UNL A   1      46.605  29.676  34.044  1.00  0.00    -0.206 F 
ATOM     95  C   UNL A   1      47.682  27.765  34.881  1.00  0.00     0.040 A 
ATOM     96  C   UNL A   1      46.445  26.152  36.169  1.00  0.00     0.040 A 
ATOM     97  F   UNL A   1      44.154  26.468  36.562  1.00  0.00    -0.206 F 
ATOM     98  C   UNL A   1      47.645  26.574  35.604  1.00  0.00     0.006 A 
ENDBRANCH  74  91
ENDBRANCH  48  49
ENDBRANCH  41  43
ENDBRANCH  40  41
ENDBRANCH  39  40
ENDBRANCH  38  39
ENDBRANCH  37  38
ENDBRANCH  36  37
ENDBRANCH   1  36
TORSDOF 22
ENDMDL
MODEL 3
REMARK VINA RESULT:      -8.9      2.745      5.921
REMARK SMILES CCN1C(=O)/C(=C/c2cc([N+](=O)[O-])ccc2O)S/C1=[NH+]\c1ccc(C(=O)OCCOCCOCCOC(=O)c2ccc(-c3c4nc(c(-c5c(F)cccc5F)c5ccc([nH]5)c(-c5c(F)cccc5F)c5nc(c(-c6c(F)cccc6F)c6ccc3[nH]6)C=C5)C=C4)cc2)cc1
REMARK SMILES IDX 31 1 30 2 29 3 28 4 27 5 25 6 26 7 24 8 21 9 22 10 94 11
REMARK SMILES IDX 23 12 93 13 20 14 3 15 4 16 19 17 5 18 6 19 18 20 7 21 2 23
REMARK SMILES IDX 1 24 8 25 9 26 16 27 10 28 15 29 14 30 17 31 11 33 12 34
REMARK SMILES IDX 13 35 32 36 33 37 34 38 35 39 36 40 37 41 38 42 39 43 40 44
REMARK SMILES IDX 92 45 41 46 91 47 42 48 43 49 44 50 85 51 45 52 90 53 84 54
REMARK SMILES IDX 86 55 46 56 89 57 83 58 82 59 47 61 73 62 56 63 72 64 57 65
REMARK SMILES IDX 60 66 71 67 87 68 58 69 59 70 70 72 88 73 61 74 48 75 49 76
REMARK SMILES IDX 54 77 50 78 51 79 53 80 55 81 52 82 74 83 75 84 80 85 76 86
REMARK SMILES IDX 77 87 79 88 81 89 78 90 62 91 63 92 68 93 64 94 65 95 67 96
REMARK SMILES IDX 69 97 66 98
REMARK H PARENT 20 22 17 32 86 60 60 71
REMARK Flexibility Score: inf
ROOT
ATOM      1  C   UNL A   1      34.380  33.464  28.814  1.00  0.00     0.188 C 
ENDROOT
BRANCH   1   2
ATOM      2  O   UNL A   1      34.703  32.304  28.072  1.00  0.00    -0.376 OA
BRANCH   2   3
ATOM      3  C   UNL A   1      35.957  31.664  28.246  1.00  0.00     0.202 C 
BRANCH   3   4
ATOM      4  C   UNL A   1      36.264  30.289  27.636  1.00  0.00     0.261 C 
BRANCH   4   5
ATOM      5  O   UNL A   1      37.000  29.396  28.482  1.00  0.00    -0.460 OA
BRANCH   5   6
ATOM      6  C   UNL A   1      38.336  29.620  28.536  1.00  0.00     0.338 C 
ATOM      7  O   UNL A   1      38.891  30.689  28.732  1.00  0.00    -0.246 OA
BRANCH   6   8
ATOM      8  C   UNL A   1      39.075  28.337  28.495  1.00  0.00     0.060 A 
ATOM      9  C   UNL A   1      40.432  25.897  28.231  1.00  0.00     0.125 A 
ATOM     10  C   UNL A   1      40.663  26.929  27.320  1.00  0.00     0.052 A 
ATOM     11  C   UNL A   1      39.608  26.139  29.341  1.00  0.00     0.052 A 
ATOM     12  C   UNL A   1      39.984  28.143  27.446  1.00  0.00     0.020 A 
ATOM     13  C   UNL A   1      38.909  27.344  29.464  1.00  0.00     0.020 A 
BRANCH   9  14
ATOM     14  N   UNL A   1      40.993  24.631  27.980  1.00  0.00    -0.234 N 
ATOM     15  N   UNL A   1      40.796  22.531  26.927  1.00  0.00    -0.186 N 
ATOM     16  C   UNL A   1      39.882  21.682  26.328  1.00  0.00     0.348 C 
ATOM     17  C   UNL A   1      40.341  23.790  27.238  1.00  0.00     0.324 C 
ATOM     18  O   UNL A   1      40.024  20.483  26.129  1.00  0.00    -0.240 OA
ATOM     19  C   UNL A   1      38.635  22.419  25.995  1.00  0.00     0.110 C 
ATOM     20  S   UNL A   1      38.770  24.049  26.504  1.00  0.00     0.007 SA
ATOM     21  C   UNL A   1      37.573  21.840  25.420  1.00  0.00     0.036 C 
ATOM     22  H   UNL A   1      41.865  24.386  28.364  1.00  0.00     0.313 HD
BRANCH  15  23
ATOM     23  C   UNL A   1      42.116  22.046  27.314  1.00  0.00     0.244 C 
ATOM     24  C   UNL A   1      43.205  22.430  26.315  1.00  0.00     0.055 C 
ENDBRANCH  15  23
BRANCH  21  25
ATOM     25  C   UNL A   1      36.308  22.528  25.118  1.00  0.00     0.024 A 
ATOM     26  C   UNL A   1      35.315  22.562  26.106  1.00  0.00     0.097 A 
ATOM     27  C   UNL A   1      36.074  23.180  23.895  1.00  0.00     0.123 A 
ATOM     28  C   UNL A   1      34.122  23.258  25.870  1.00  0.00     0.270 A 
ATOM     29  C   UNL A   1      34.891  23.883  23.664  1.00  0.00     0.054 A 
ATOM     30  C   UNL A   1      33.910  23.927  24.656  1.00  0.00     0.089 A 
BRANCH  27  31
ATOM     31  O   UNL A   1      37.027  23.122  22.913  1.00  0.00    -0.507 OA
ATOM     32  H   UNL A   1      37.313  23.909  22.491  1.00  0.00     0.293 HD
ENDBRANCH  27  31
BRANCH  28  33
ATOM     33  N   UNL A   1      33.084  23.295  26.907  1.00  0.00     0.062 N 
ATOM     34  O   UNL A   1      33.208  22.532  27.876  1.00  0.00    -0.258 OA
ATOM     35  O   UNL A   1      32.142  24.086  26.753  1.00  0.00    -0.258 OA
ENDBRANCH  28  33
ENDBRANCH  21  25
ENDBRANCH   9  14
ENDBRANCH   6   8
ENDBRANCH   5   6
ENDBRANCH   4   5
ENDBRANCH   3   4
ENDBRANCH   2   3
ENDBRANCH   1   2
BRANCH   1  36
ATOM     36  C   UNL A   1      34.398  33.450  30.356  1.00  0.00     0.188 C 
BRANCH  36  37
ATOM     37  O   UNL A   1      34.419  34.675  31.047  1.00  0.00    -0.376 OA
BRANCH  37  38
ATOM     38  C   UNL A   1      34.751  34.728  32.423  1.00  0.00     0.202 C 
BRANCH  38  39
ATOM     39  C   UNL A   1      36.074  34.253  33.056  1.00  0.00     0.261 C 
BRANCH  39  40
ATOM     40  O   UNL A   1      36.229  32.860  33.330  1.00  0.00    -0.460 OA
BRANCH  40  41
ATOM     41  C   UNL A   1      37.091  32.554  34.333  1.00  0.00     0.338 C 
ATOM     42  O   UNL A   1      36.906  32.652  35.530  1.00  0.00    -0.246 OA
BRANCH  41  43
ATOM     43  C   UNL A   1      38.279  31.913  33.740  1.00  0.00     0.060 A 
ATOM     44  C   UNL A   1      39.551  32.291  34.190  1.00  0.00     0.016 A 
ATOM     45  C   UNL A   1      38.132  30.956  32.737  1.00  0.00     0.016 A 
ATOM     46  C   UNL A   1      40.688  31.699  33.639  1.00  0.00     0.010 A 
ATOM     47  C   UNL A   1      39.273  30.384  32.169  1.00  0.00     0.010 A 
ATOM     48  C   UNL A   1      40.555  30.759  32.609  1.00  0.00    -0.014 A 
BRANCH  48  49
ATOM     49  C   UNL A   1      41.750  30.250  31.896  1.00  0.00     0.031 A 
ATOM     50  C   UNL A   1      42.386  28.974  32.366  1.00  0.00     0.074 A 
ATOM     51  C   UNL A   1      42.281  30.930  30.865  1.00  0.00     0.049 A 
ATOM     52  N   UNL A   1      43.498  28.407  31.975  1.00  0.00    -0.248 NA
ATOM     53  C   UNL A   1      41.673  28.239  33.424  1.00  0.00     0.031 C 
ATOM     54  C   UNL A   1      41.736  32.160  30.293  1.00  0.00     0.029 A 
ATOM     55  N   UNL A   1      43.417  30.691  30.132  1.00  0.00    -0.354 N 
ATOM     56  C   UNL A   1      43.627  27.259  32.746  1.00  0.00     0.074 A 
ATOM     57  C   UNL A   1      42.489  27.219  33.640  1.00  0.00     0.031 C 
ATOM     58  C   UNL A   1      42.555  32.583  29.314  1.00  0.00     0.029 A 
ATOM     59  C   UNL A   1      43.699  31.678  29.220  1.00  0.00     0.049 A 
ATOM     60  H   UNL A   1      43.976  29.888  30.249  1.00  0.00     0.167 HD
ATOM     61  C   UNL A   1      44.605  26.324  32.710  1.00  0.00     0.037 A 
ATOM     62  C   UNL A   1      44.777  31.850  28.430  1.00  0.00     0.037 A 
ATOM     63  C   UNL A   1      45.736  26.370  31.822  1.00  0.00     0.049 A 
ATOM     64  C   UNL A   1      45.895  30.840  28.468  1.00  0.00     0.074 A 
ATOM     65  C   UNL A   1      46.762  25.450  31.687  1.00  0.00     0.029 A 
ATOM     66  N   UNL A   1      45.999  27.396  30.928  1.00  0.00    -0.354 N 
ATOM     67  N   UNL A   1      45.991  29.737  29.172  1.00  0.00    -0.248 NA
ATOM     68  C   UNL A   1      47.058  31.100  27.606  1.00  0.00     0.031 C 
ATOM     69  C   UNL A   1      47.677  25.950  30.756  1.00  0.00     0.029 A 
ATOM     70  C   UNL A   1      47.191  27.152  30.266  1.00  0.00     0.049 A 
ATOM     71  H   UNL A   1      45.424  28.182  30.785  1.00  0.00     0.167 HD
ATOM     72  C   UNL A   1      47.207  29.163  28.819  1.00  0.00     0.074 A 
ATOM     73  C   UNL A   1      47.807  30.030  27.828  1.00  0.00     0.031 C 
ATOM     74  C   UNL A   1      47.776  28.020  29.277  1.00  0.00     0.037 A 
BRANCH  61  75
ATOM     75  C   UNL A   1      44.513  25.185  33.682  1.00  0.00     0.057 A 
ATOM     76  C   UNL A   1      44.794  25.348  35.044  1.00  0.00     0.134 A 
ATOM     77  C   UNL A   1      44.094  23.919  33.255  1.00  0.00     0.134 A 
ATOM     78  F   UNL A   1      45.214  26.532  35.516  1.00  0.00    -0.206 F 
ATOM     79  C   UNL A   1      44.681  24.286  35.944  1.00  0.00     0.040 A 
ATOM     80  C   UNL A   1      43.951  22.857  34.149  1.00  0.00     0.040 A 
ATOM     81  F   UNL A   1      43.805  23.696  31.964  1.00  0.00    -0.206 F 
ATOM     82  C   UNL A   1      44.250  23.039  35.498  1.00  0.00     0.006 A 
ENDBRANCH  61  75
BRANCH  62  83
ATOM     83  C   UNL A   1      44.879  33.048  27.556  1.00  0.00     0.057 A 
ATOM     84  C   UNL A   1      44.373  33.042  26.251  1.00  0.00     0.134 A 
ATOM     85  C   UNL A   1      45.516  34.217  27.994  1.00  0.00     0.134 A 
ATOM     86  F   UNL A   1      43.777  31.944  25.764  1.00  0.00    -0.206 F 
ATOM     87  C   UNL A   1      44.514  34.144  25.406  1.00  0.00     0.040 A 
ATOM     88  C   UNL A   1      45.638  35.336  27.170  1.00  0.00     0.040 A 
ATOM     89  F   UNL A   1      46.026  34.287  29.232  1.00  0.00    -0.206 F 
ATOM     90  C   UNL A   1      45.144  35.299  25.868  1.00  0.00     0.006 A 
ENDBRANCH  62  83
BRANCH  74  91
ATOM     91  C   UNL A   1      49.101  27.620  28.692  1.00  0.00     0.057 A 
ATOM     92  C   UNL A   1      49.191  26.806  27.556  1.00  0.00     0.134 A 
ATOM     93  C   UNL A   1      50.297  28.103  29.237  1.00  0.00     0.134 A 
ATOM     94  F   UNL A   1      48.084  26.300  26.991  1.00  0.00    -0.206 F 
ATOM     95  C   UNL A   1      50.426  26.474  26.993  1.00  0.00     0.040 A 
ATOM     96  C   UNL A   1      51.535  27.801  28.666  1.00  0.00     0.040 A 
ATOM     97  F   UNL A   1      50.281  28.895  30.320  1.00  0.00    -0.206 F 
ATOM     98  C   UNL A   1      51.601  26.980  27.544  1.00  0.00     0.006 A 
ENDBRANCH  74  91
ENDBRANCH  48  49
ENDBRANCH  41  43
ENDBRANCH  40  41
ENDBRANCH  39  40
ENDBRANCH  38  39
ENDBRANCH  37  38
ENDBRANCH  36  37
ENDBRANCH   1  36
TORSDOF 22
ENDMDL
