MODEL 1
REMARK VINA RESULT:     -11.3      0.000      0.000
REMARK SMILES COc1ccc(-n2ccnc2C[N@@H+]2CCn3nc(C(=O)OCCOCCOCCOC(=O)c4ccc(-c5c6nc(c(-c7c(F)cccc7F)c7ccc([nH]7)c(-c7c(F)cccc7F)c7nc(c(-c8c(F)cccc8F)c8ccc5[nH]8)C=C7)C=C6)cc4)cc3C2)cc1
REMARK SMILES IDX 25 1 24 2 23 3 22 4 21 5 19 6 20 7 18 8 13 9 14 10 89 11
REMARK SMILES IDX 15 13 88 14 16 15 87 16 17 17 12 18 11 19 7 20 8 21 9 22
REMARK SMILES IDX 10 23 6 24 3 25 4 26 91 27 5 28 90 29 2 30 1 31 26 32 27 33
REMARK SMILES IDX 28 34 29 35 30 36 31 37 32 38 33 39 34 40 86 41 35 42 85 43
REMARK SMILES IDX 36 44 37 45 38 46 79 47 39 48 84 49 78 50 80 51 40 52 83 53
REMARK SMILES IDX 77 54 76 55 41 57 67 58 50 59 66 60 51 61 54 62 65 63 81 64
REMARK SMILES IDX 52 65 53 66 64 68 82 69 55 70 42 71 43 72 48 73 44 74 45 75
REMARK SMILES IDX 47 76 49 77 46 78 68 79 69 80 74 81 70 82 71 83 73 84 75 85
REMARK SMILES IDX 72 86 56 87 57 88 62 89 58 90 59 91 61 92 63 93 60 94
REMARK H PARENT 13 12 80 56 54 67
REMARK Flexibility Score: inf
ROOT
ATOM      1  C   UNL A   1      38.112  22.575  25.751  1.00  0.00     0.188 C 
ENDROOT
BRANCH   1   2
ATOM      2  O   UNL A   1      37.472  21.787  24.764  1.00  0.00    -0.376 OA
BRANCH   2   3
ATOM      3  C   UNL A   1      36.903  22.545  23.675  1.00  0.00     0.202 C 
BRANCH   3   4
ATOM      4  C   UNL A   1      35.370  22.681  23.674  1.00  0.00     0.261 C 
BRANCH   4   5
ATOM      5  O   UNL A   1      34.774  24.012  23.538  1.00  0.00    -0.458 OA
BRANCH   5   6
ATOM      6  C   UNL A   1      34.492  24.836  24.581  1.00  0.00     0.358 C 
ATOM      7  O   UNL A   1      34.956  24.653  25.709  1.00  0.00    -0.244 OA
BRANCH   6   8
ATOM      8  C   UNL A   1      33.673  26.057  24.229  1.00  0.00     0.170 A 
ATOM      9  N   UNL A   1      30.571  25.459  25.637  1.00  0.00    -0.322 N 
ATOM     10  C   UNL A   1      29.673  25.886  24.579  1.00  0.00     0.286 C 
ATOM     11  C   UNL A   1      31.325  26.631  26.169  1.00  0.00     0.319 C 
ATOM     12  H   UNL A   1      29.999  25.091  26.397  1.00  0.00     0.348 HD
ATOM     13  C   UNL A   1      30.350  26.760  23.512  1.00  0.00     0.206 C 
ATOM     14  C   UNL A   1      32.180  27.242  25.104  1.00  0.00     0.094 A 
ATOM     15  N   UNL A   1      31.775  26.972  23.804  1.00  0.00    -0.257 N 
ATOM     16  C   UNL A   1      33.572  27.272  24.974  1.00  0.00     0.067 A 
ATOM     17  N   UNL A   1      32.734  26.161  23.256  1.00  0.00    -0.165 NA
BRANCH   9  18
ATOM     18  C   UNL A   1      31.425  24.294  25.277  1.00  0.00     0.339 C 
BRANCH  18  19
ATOM     19  C   UNL A   1      31.856  23.085  26.202  1.00  0.00     0.168 A 
ATOM     20  N   UNL A   1      32.622  21.865  25.997  1.00  0.00    -0.299 N 
ATOM     21  C   UNL A   1      33.395  21.733  27.142  1.00  0.00     0.113 A 
ATOM     22  C   UNL A   1      32.994  22.697  28.018  1.00  0.00     0.132 A 
ATOM     23  N   UNL A   1      31.990  23.435  27.485  1.00  0.00    -0.236 NA
BRANCH  20  24
ATOM     24  C   UNL A   1      32.640  20.751  25.065  1.00  0.00     0.047 A 
ATOM     25  C   UNL A   1      32.784  18.510  23.309  1.00  0.00     0.119 A 
ATOM     26  C   UNL A   1      33.071  18.358  24.652  1.00  0.00     0.048 A 
ATOM     27  C   UNL A   1      32.266  19.733  22.874  1.00  0.00     0.048 A 
ATOM     28  C   UNL A   1      32.905  19.443  25.523  1.00  0.00     0.030 A 
ATOM     29  C   UNL A   1      32.203  20.857  23.745  1.00  0.00     0.030 A 
BRANCH  25  30
ATOM     30  O   UNL A   1      32.935  17.387  22.543  1.00  0.00    -0.497 OA
ATOM     31  C   UNL A   1      34.039  16.563  22.900  1.00  0.00     0.278 C 
ENDBRANCH  25  30
ENDBRANCH  20  24
ENDBRANCH  18  19
ENDBRANCH   9  18
ENDBRANCH   6   8
ENDBRANCH   5   6
ENDBRANCH   4   5
ENDBRANCH   3   4
ENDBRANCH   2   3
ENDBRANCH   1   2
BRANCH   1  32
ATOM     32  C   UNL A   1      39.408  22.189  26.452  1.00  0.00     0.188 C 
BRANCH  32  33
ATOM     33  O   UNL A   1      39.921  20.895  26.242  1.00  0.00    -0.376 OA
BRANCH  33  34
ATOM     34  C   UNL A   1      40.834  20.396  27.212  1.00  0.00     0.202 C 
BRANCH  34  35
ATOM     35  C   UNL A   1      42.147  19.810  26.691  1.00  0.00     0.261 C 
BRANCH  35  36
ATOM     36  O   UNL A   1      43.046  20.815  26.221  1.00  0.00    -0.460 OA
BRANCH  36  37
ATOM     37  C   UNL A   1      43.805  20.458  25.165  1.00  0.00     0.338 C 
ATOM     38  O   UNL A   1      43.820  19.376  24.600  1.00  0.00    -0.246 OA
BRANCH  37  39
ATOM     39  C   UNL A   1      44.659  21.590  24.749  1.00  0.00     0.060 A 
ATOM     40  C   UNL A   1      45.754  21.811  25.590  1.00  0.00     0.016 A 
ATOM     41  C   UNL A   1      44.008  22.627  24.078  1.00  0.00     0.016 A 
ATOM     42  C   UNL A   1      45.857  23.058  26.149  1.00  0.00     0.010 A 
ATOM     43  C   UNL A   1      44.098  23.868  24.645  1.00  0.00     0.010 A 
ATOM     44  C   UNL A   1      44.906  24.006  25.774  1.00  0.00    -0.014 A 
BRANCH  44  45
ATOM     45  C   UNL A   1      44.709  25.145  26.640  1.00  0.00     0.031 A 
ATOM     46  C   UNL A   1      45.820  26.101  26.548  1.00  0.00     0.074 A 
ATOM     47  C   UNL A   1      43.563  25.297  27.333  1.00  0.00     0.049 A 
ATOM     48  N   UNL A   1      46.739  26.337  27.423  1.00  0.00    -0.248 NA
ATOM     49  C   UNL A   1      46.069  26.701  25.228  1.00  0.00     0.031 C 
ATOM     50  C   UNL A   1      42.336  24.492  27.232  1.00  0.00     0.029 A 
ATOM     51  N   UNL A   1      43.210  26.278  28.209  1.00  0.00    -0.354 N 
ATOM     52  C   UNL A   1      47.529  27.319  26.838  1.00  0.00     0.074 A 
ATOM     53  C   UNL A   1      47.247  27.289  25.431  1.00  0.00     0.031 C 
ATOM     54  C   UNL A   1      41.318  25.147  27.835  1.00  0.00     0.029 A 
ATOM     55  C   UNL A   1      41.845  26.337  28.475  1.00  0.00     0.049 A 
ATOM     56  H   UNL A   1      43.863  26.890  28.618  1.00  0.00     0.167 HD
ATOM     57  C   UNL A   1      48.028  28.332  27.594  1.00  0.00     0.037 A 
ATOM     58  C   UNL A   1      41.212  27.354  29.110  1.00  0.00     0.037 A 
ATOM     59  C   UNL A   1      48.010  27.984  28.994  1.00  0.00     0.049 A 
ATOM     60  C   UNL A   1      42.242  28.095  29.879  1.00  0.00     0.074 A 
ATOM     61  C   UNL A   1      48.660  27.083  29.808  1.00  0.00     0.029 A 
ATOM     62  N   UNL A   1      46.885  28.393  29.661  1.00  0.00    -0.354 N 
ATOM     63  N   UNL A   1      42.889  27.586  30.893  1.00  0.00    -0.248 NA
ATOM     64  C   UNL A   1      42.851  29.277  29.285  1.00  0.00     0.031 C 
ATOM     65  C   UNL A   1      47.751  26.783  30.867  1.00  0.00     0.029 A 
ATOM     66  C   UNL A   1      46.589  27.534  30.684  1.00  0.00     0.049 A 
ATOM     67  H   UNL A   1      46.360  29.195  29.435  1.00  0.00     0.167 HD
ATOM     68  C   UNL A   1      44.164  28.117  30.798  1.00  0.00     0.074 A 
ATOM     69  C   UNL A   1      44.035  29.261  29.904  1.00  0.00     0.031 C 
ATOM     70  C   UNL A   1      45.247  27.392  31.206  1.00  0.00     0.037 A 
BRANCH  57  71
ATOM     71  C   UNL A   1      48.003  29.781  27.146  1.00  0.00     0.057 A 
ATOM     72  C   UNL A   1      49.178  30.539  27.281  1.00  0.00     0.134 A 
ATOM     73  C   UNL A   1      46.836  30.539  26.899  1.00  0.00     0.134 A 
ATOM     74  F   UNL A   1      50.353  29.944  27.534  1.00  0.00    -0.206 F 
ATOM     75  C   UNL A   1      49.177  31.940  27.248  1.00  0.00     0.040 A 
ATOM     76  C   UNL A   1      46.832  31.933  26.812  1.00  0.00     0.040 A 
ATOM     77  F   UNL A   1      45.614  30.001  26.827  1.00  0.00    -0.206 F 
ATOM     78  C   UNL A   1      47.999  32.642  27.021  1.00  0.00     0.006 A 
ENDBRANCH  57  71
BRANCH  58  79
ATOM     79  C   UNL A   1      39.879  27.930  28.815  1.00  0.00     0.057 A 
ATOM     80  C   UNL A   1      38.868  27.970  29.786  1.00  0.00     0.134 A 
ATOM     81  C   UNL A   1      39.659  28.710  27.666  1.00  0.00     0.134 A 
ATOM     82  F   UNL A   1      39.004  27.295  30.937  1.00  0.00    -0.206 F 
ATOM     83  C   UNL A   1      37.720  28.762  29.635  1.00  0.00     0.040 A 
ATOM     84  C   UNL A   1      38.517  29.501  27.501  1.00  0.00     0.040 A 
ATOM     85  F   UNL A   1      40.591  28.806  26.706  1.00  0.00    -0.206 F 
ATOM     86  C   UNL A   1      37.548  29.540  28.495  1.00  0.00     0.006 A 
ENDBRANCH  58  79
BRANCH  70  87
ATOM     87  C   UNL A   1      44.987  26.228  32.118  1.00  0.00     0.057 A 
ATOM     88  C   UNL A   1      44.757  24.917  31.677  1.00  0.00     0.134 A 
ATOM     89  C   UNL A   1      45.087  26.427  33.498  1.00  0.00     0.134 A 
ATOM     90  F   UNL A   1      44.724  24.624  30.371  1.00  0.00    -0.206 F 
ATOM     91  C   UNL A   1      44.603  23.856  32.575  1.00  0.00     0.040 A 
ATOM     92  C   UNL A   1      44.967  25.372  34.404  1.00  0.00     0.040 A 
ATOM     93  F   UNL A   1      45.353  27.649  33.986  1.00  0.00    -0.206 F 
ATOM     94  C   UNL A   1      44.716  24.082  33.944  1.00  0.00     0.006 A 
ENDBRANCH  70  87
ENDBRANCH  44  45
ENDBRANCH  37  39
ENDBRANCH  36  37
ENDBRANCH  35  36
ENDBRANCH  34  35
ENDBRANCH  33  34
ENDBRANCH  32  33
ENDBRANCH   1  32
TORSDOF 21
ENDMDL
MODEL 2
REMARK VINA RESULT:     -11.1      4.841      9.443
REMARK SMILES COc1ccc(-n2ccnc2C[N@@H+]2CCn3nc(C(=O)OCCOCCOCCOC(=O)c4ccc(-c5c6nc(c(-c7c(F)cccc7F)c7ccc([nH]7)c(-c7c(F)cccc7F)c7nc(c(-c8c(F)cccc8F)c8ccc5[nH]8)C=C7)C=C6)cc4)cc3C2)cc1
REMARK SMILES IDX 25 1 24 2 23 3 22 4 21 5 19 6 20 7 18 8 13 9 14 10 89 11
REMARK SMILES IDX 15 13 88 14 16 15 87 16 17 17 12 18 11 19 7 20 8 21 9 22
REMARK SMILES IDX 10 23 6 24 3 25 4 26 91 27 5 28 90 29 2 30 1 31 26 32 27 33
REMARK SMILES IDX 28 34 29 35 30 36 31 37 32 38 33 39 34 40 86 41 35 42 85 43
REMARK SMILES IDX 36 44 37 45 38 46 79 47 39 48 84 49 78 50 80 51 40 52 83 53
REMARK SMILES IDX 77 54 76 55 41 57 67 58 50 59 66 60 51 61 54 62 65 63 81 64
REMARK SMILES IDX 52 65 53 66 64 68 82 69 55 70 42 71 43 72 48 73 44 74 45 75
REMARK SMILES IDX 47 76 49 77 46 78 68 79 69 80 74 81 70 82 71 83 73 84 75 85
REMARK SMILES IDX 72 86 56 87 57 88 62 89 58 90 59 91 61 92 63 93 60 94
REMARK H PARENT 13 12 80 56 54 67
REMARK Flexibility Score: inf
ROOT
ATOM      1  C   UNL A   1      32.957  30.586  26.771  1.00  0.00     0.188 C 
ENDROOT
BRANCH   1   2
ATOM      2  O   UNL A   1      32.886  29.218  26.411  1.00  0.00    -0.376 OA
BRANCH   2   3
ATOM      3  C   UNL A   1      32.101  28.408  27.311  1.00  0.00     0.202 C 
BRANCH   3   4
ATOM      4  C   UNL A   1      31.339  27.233  26.671  1.00  0.00     0.261 C 
BRANCH   4   5
ATOM      5  O   UNL A   1      32.075  26.016  26.318  1.00  0.00    -0.458 OA
BRANCH   5   6
ATOM      6  C   UNL A   1      33.156  25.987  25.497  1.00  0.00     0.358 C 
ATOM      7  O   UNL A   1      34.312  26.046  25.924  1.00  0.00    -0.244 OA
BRANCH   6   8
ATOM      8  C   UNL A   1      32.844  25.752  24.036  1.00  0.00     0.170 A 
ATOM      9  N   UNL A   1      31.811  22.455  23.883  1.00  0.00    -0.322 N 
ATOM     10  C   UNL A   1      32.499  21.979  22.697  1.00  0.00     0.286 C 
ATOM     11  C   UNL A   1      30.799  23.485  23.506  1.00  0.00     0.319 C 
ATOM     12  H   UNL A   1      31.309  21.665  24.287  1.00  0.00     0.348 HD
ATOM     13  C   UNL A   1      33.026  23.106  21.797  1.00  0.00     0.206 C 
ATOM     14  C   UNL A   1      31.458  24.677  22.887  1.00  0.00     0.094 A 
ATOM     15  N   UNL A   1      32.712  24.435  22.343  1.00  0.00    -0.257 N 
ATOM     16  C   UNL A   1      31.599  25.981  23.372  1.00  0.00     0.067 A 
ATOM     17  N   UNL A   1      33.614  25.104  23.127  1.00  0.00    -0.165 NA
BRANCH   9  18
ATOM     18  C   UNL A   1      32.718  22.866  24.990  1.00  0.00     0.339 C 
BRANCH  18  19
ATOM     19  C   UNL A   1      34.000  22.109  25.524  1.00  0.00     0.168 A 
ATOM     20  N   UNL A   1      34.667  20.863  25.178  1.00  0.00    -0.299 N 
ATOM     21  C   UNL A   1      36.023  21.154  25.245  1.00  0.00     0.113 A 
ATOM     22  C   UNL A   1      36.145  22.413  25.751  1.00  0.00     0.132 A 
ATOM     23  N   UNL A   1      34.924  22.937  26.020  1.00  0.00    -0.236 NA
BRANCH  20  24
ATOM     24  C   UNL A   1      34.308  19.468  24.985  1.00  0.00     0.047 A 
ATOM     25  C   UNL A   1      33.508  16.746  24.708  1.00  0.00     0.119 A 
ATOM     26  C   UNL A   1      32.577  17.713  25.037  1.00  0.00     0.048 A 
ATOM     27  C   UNL A   1      34.796  17.157  24.355  1.00  0.00     0.048 A 
ATOM     28  C   UNL A   1      32.961  19.060  25.076  1.00  0.00     0.030 A 
ATOM     29  C   UNL A   1      35.202  18.513  24.502  1.00  0.00     0.030 A 
BRANCH  25  30
ATOM     30  O   UNL A   1      33.033  15.465  24.653  1.00  0.00    -0.497 OA
ATOM     31  C   UNL A   1      32.259  15.065  25.779  1.00  0.00     0.278 C 
ENDBRANCH  25  30
ENDBRANCH  20  24
ENDBRANCH  18  19
ENDBRANCH   9  18
ENDBRANCH   6   8
ENDBRANCH   5   6
ENDBRANCH   4   5
ENDBRANCH   3   4
ENDBRANCH   2   3
ENDBRANCH   1   2
BRANCH   1  32
ATOM     32  C   UNL A   1      34.117  31.215  27.532  1.00  0.00     0.188 C 
BRANCH  32  33
ATOM     33  O   UNL A   1      33.827  32.189  28.506  1.00  0.00    -0.376 OA
BRANCH  33  34
ATOM     34  C   UNL A   1      33.613  33.519  28.048  1.00  0.00     0.202 C 
BRANCH  34  35
ATOM     35  C   UNL A   1      33.444  34.602  29.115  1.00  0.00     0.261 C 
BRANCH  35  36
ATOM     36  O   UNL A   1      33.818  34.149  30.417  1.00  0.00    -0.460 OA
BRANCH  36  37
ATOM     37  C   UNL A   1      33.506  34.986  31.427  1.00  0.00     0.338 C 
ATOM     38  O   UNL A   1      32.760  35.951  31.382  1.00  0.00    -0.246 OA
BRANCH  37  39
ATOM     39  C   UNL A   1      34.208  34.575  32.661  1.00  0.00     0.060 A 
ATOM     40  C   UNL A   1      35.283  35.401  33.001  1.00  0.00     0.016 A 
ATOM     41  C   UNL A   1      34.198  33.207  32.939  1.00  0.00     0.016 A 
ATOM     42  C   UNL A   1      36.506  34.797  33.130  1.00  0.00     0.010 A 
ATOM     43  C   UNL A   1      35.419  32.601  33.051  1.00  0.00     0.010 A 
ATOM     44  C   UNL A   1      36.552  33.411  32.982  1.00  0.00    -0.014 A 
BRANCH  44  45
ATOM     45  C   UNL A   1      37.826  32.806  32.671  1.00  0.00     0.031 A 
ATOM     46  C   UNL A   1      38.732  32.816  33.827  1.00  0.00     0.074 A 
ATOM     47  C   UNL A   1      38.042  32.223  31.475  1.00  0.00     0.049 A 
ATOM     48  N   UNL A   1      39.784  33.542  34.006  1.00  0.00    -0.248 NA
ATOM     49  C   UNL A   1      38.281  32.092  35.026  1.00  0.00     0.031 C 
ATOM     50  C   UNL A   1      37.063  31.968  30.407  1.00  0.00     0.029 A 
ATOM     51  N   UNL A   1      39.172  31.632  30.997  1.00  0.00    -0.354 N 
ATOM     52  C   UNL A   1      40.262  33.155  35.252  1.00  0.00     0.074 A 
ATOM     53  C   UNL A   1      39.176  32.501  35.925  1.00  0.00     0.031 C 
ATOM     54  C   UNL A   1      37.581  31.086  29.523  1.00  0.00     0.029 A 
ATOM     55  C   UNL A   1      38.961  30.823  29.884  1.00  0.00     0.049 A 
ATOM     56  H   UNL A   1      40.058  31.766  31.403  1.00  0.00     0.167 HD
ATOM     57  C   UNL A   1      41.599  33.038  35.462  1.00  0.00     0.037 A 
ATOM     58  C   UNL A   1      39.858  29.946  29.370  1.00  0.00     0.037 A 
ATOM     59  C   UNL A   1      42.342  33.762  34.459  1.00  0.00     0.049 A 
ATOM     60  C   UNL A   1      41.197  30.357  29.859  1.00  0.00     0.074 A 
ATOM     61  C   UNL A   1      42.531  35.082  34.115  1.00  0.00     0.029 A 
ATOM     62  N   UNL A   1      42.712  33.004  33.378  1.00  0.00    -0.354 N 
ATOM     63  N   UNL A   1      41.779  31.474  29.515  1.00  0.00    -0.248 NA
ATOM     64  C   UNL A   1      41.741  29.714  31.048  1.00  0.00     0.031 C 
ATOM     65  C   UNL A   1      42.786  35.089  32.710  1.00  0.00     0.029 A 
ATOM     66  C   UNL A   1      42.774  33.772  32.248  1.00  0.00     0.049 A 
ATOM     67  H   UNL A   1      42.907  32.040  33.410  1.00  0.00     0.167 HD
ATOM     68  C   UNL A   1      42.460  31.879  30.650  1.00  0.00     0.074 A 
ATOM     69  C   UNL A   1      42.537  30.692  31.493  1.00  0.00     0.031 C 
ATOM     70  C   UNL A   1      42.619  33.207  30.924  1.00  0.00     0.037 A 
BRANCH  57  71
ATOM     71  C   UNL A   1      42.216  31.864  36.199  1.00  0.00     0.057 A 
ATOM     72  C   UNL A   1      43.157  32.131  37.207  1.00  0.00     0.134 A 
ATOM     73  C   UNL A   1      42.179  30.519  35.765  1.00  0.00     0.134 A 
ATOM     74  F   UNL A   1      43.305  33.371  37.696  1.00  0.00    -0.206 F 
ATOM     75  C   UNL A   1      44.039  31.155  37.689  1.00  0.00     0.040 A 
ATOM     76  C   UNL A   1      43.019  29.527  36.276  1.00  0.00     0.040 A 
ATOM     77  F   UNL A   1      41.411  30.094  34.757  1.00  0.00    -0.206 F 
ATOM     78  C   UNL A   1      43.977  29.849  37.217  1.00  0.00     0.006 A 
ENDBRANCH  57  71
BRANCH  58  79
ATOM     79  C   UNL A   1      39.602  28.603  28.799  1.00  0.00     0.057 A 
ATOM     80  C   UNL A   1      40.069  28.247  27.526  1.00  0.00     0.134 A 
ATOM     81  C   UNL A   1      39.141  27.544  29.603  1.00  0.00     0.134 A 
ATOM     82  F   UNL A   1      40.570  29.179  26.701  1.00  0.00    -0.206 F 
ATOM     83  C   UNL A   1      40.102  26.915  27.088  1.00  0.00     0.040 A 
ATOM     84  C   UNL A   1      39.164  26.212  29.177  1.00  0.00     0.040 A 
ATOM     85  F   UNL A   1      38.741  27.758  30.865  1.00  0.00    -0.206 F 
ATOM     86  C   UNL A   1      39.660  25.891  27.920  1.00  0.00     0.006 A 
ENDBRANCH  58  79
BRANCH  70  87
ATOM     87  C   UNL A   1      42.419  34.169  29.789  1.00  0.00     0.057 A 
ATOM     88  C   UNL A   1      41.199  34.792  29.489  1.00  0.00     0.134 A 
ATOM     89  C   UNL A   1      43.534  34.562  29.043  1.00  0.00     0.134 A 
ATOM     90  F   UNL A   1      40.097  34.533  30.205  1.00  0.00    -0.206 F 
ATOM     91  C   UNL A   1      41.091  35.744  28.471  1.00  0.00     0.040 A 
ATOM     92  C   UNL A   1      43.446  35.533  28.045  1.00  0.00     0.040 A 
ATOM     93  F   UNL A   1      44.742  34.039  29.309  1.00  0.00    -0.206 F 
ATOM     94  C   UNL A   1      42.219  36.122  27.749  1.00  0.00     0.006 A 
ENDBRANCH  70  87
ENDBRANCH  44  45
ENDBRANCH  37  39
ENDBRANCH  36  37
ENDBRANCH  35  36
ENDBRANCH  34  35
ENDBRANCH  33  34
ENDBRANCH  32  33
ENDBRANCH   1  32
TORSDOF 21
ENDMDL
MODEL 3
REMARK VINA RESULT:     -10.7      3.566      7.454
REMARK SMILES COc1ccc(-n2ccnc2C[N@@H+]2CCn3nc(C(=O)OCCOCCOCCOC(=O)c4ccc(-c5c6nc(c(-c7c(F)cccc7F)c7ccc([nH]7)c(-c7c(F)cccc7F)c7nc(c(-c8c(F)cccc8F)c8ccc5[nH]8)C=C7)C=C6)cc4)cc3C2)cc1
REMARK SMILES IDX 25 1 24 2 23 3 22 4 21 5 19 6 20 7 18 8 13 9 14 10 89 11
REMARK SMILES IDX 15 13 88 14 16 15 87 16 17 17 12 18 11 19 7 20 8 21 9 22
REMARK SMILES IDX 10 23 6 24 3 25 4 26 91 27 5 28 90 29 2 30 1 31 26 32 27 33
REMARK SMILES IDX 28 34 29 35 30 36 31 37 32 38 33 39 34 40 86 41 35 42 85 43
REMARK SMILES IDX 36 44 37 45 38 46 79 47 39 48 84 49 78 50 80 51 40 52 83 53
REMARK SMILES IDX 77 54 76 55 41 57 67 58 50 59 66 60 51 61 54 62 65 63 81 64
REMARK SMILES IDX 52 65 53 66 64 68 82 69 55 70 42 71 43 72 48 73 44 74 45 75
REMARK SMILES IDX 47 76 49 77 46 78 68 79 69 80 74 81 70 82 71 83 73 84 75 85
REMARK SMILES IDX 72 86 56 87 57 88 62 89 58 90 59 91 61 92 63 93 60 94
REMARK H PARENT 13 12 80 56 54 67
REMARK Flexibility Score: inf
ROOT
ATOM      1  C   UNL A   1      38.160  21.782  25.483  1.00  0.00     0.188 C 
ENDROOT
BRANCH   1   2
ATOM      2  O   UNL A   1      36.812  22.216  25.500  1.00  0.00    -0.376 OA
BRANCH   2   3
ATOM      3  C   UNL A   1      36.081  21.928  24.289  1.00  0.00     0.202 C 
BRANCH   3   4
ATOM      4  C   UNL A   1      35.728  23.140  23.408  1.00  0.00     0.261 C 
BRANCH   4   5
ATOM      5  O   UNL A   1      34.515  23.906  23.706  1.00  0.00    -0.458 OA
BRANCH   5   6
ATOM      6  C   UNL A   1      34.437  24.880  24.650  1.00  0.00     0.358 C 
ATOM      7  O   UNL A   1      35.016  24.794  25.736  1.00  0.00    -0.244 OA
BRANCH   6   8
ATOM      8  C   UNL A   1      33.694  26.126  24.225  1.00  0.00     0.170 A 
ATOM      9  N   UNL A   1      30.436  25.591  25.256  1.00  0.00    -0.322 N 
ATOM     10  C   UNL A   1      29.677  26.054  24.109  1.00  0.00     0.286 C 
ATOM     11  C   UNL A   1      31.152  26.737  25.890  1.00  0.00     0.319 C 
ATOM     12  H   UNL A   1      29.772  25.228  25.940  1.00  0.00     0.348 HD
ATOM     13  C   UNL A   1      30.494  26.923  23.140  1.00  0.00     0.206 C 
ATOM     14  C   UNL A   1      32.139  27.338  24.940  1.00  0.00     0.094 A 
ATOM     15  N   UNL A   1      31.881  27.095  23.598  1.00  0.00    -0.257 N 
ATOM     16  C   UNL A   1      33.537  27.334  24.971  1.00  0.00     0.067 A 
ATOM     17  N   UNL A   1      32.876  26.266  23.151  1.00  0.00    -0.165 NA
BRANCH   9  18
ATOM     18  C   UNL A   1      31.298  24.409  24.980  1.00  0.00     0.339 C 
BRANCH  18  19
ATOM     19  C   UNL A   1      31.690  23.242  25.973  1.00  0.00     0.168 A 
ATOM     20  N   UNL A   1      32.475  22.022  25.855  1.00  0.00    -0.299 N 
ATOM     21  C   UNL A   1      33.190  21.942  27.042  1.00  0.00     0.113 A 
ATOM     22  C   UNL A   1      32.740  22.936  27.857  1.00  0.00     0.132 A 
ATOM     23  N   UNL A   1      31.758  23.644  27.245  1.00  0.00    -0.236 NA
BRANCH  20  24
ATOM     24  C   UNL A   1      32.548  20.871  24.971  1.00  0.00     0.047 A 
ATOM     25  C   UNL A   1      32.795  18.564  23.315  1.00  0.00     0.119 A 
ATOM     26  C   UNL A   1      33.017  18.468  24.676  1.00  0.00     0.048 A 
ATOM     27  C   UNL A   1      32.289  19.764  22.807  1.00  0.00     0.048 A 
ATOM     28  C   UNL A   1      32.800  19.586  25.494  1.00  0.00     0.030 A 
ATOM     29  C   UNL A   1      32.174  20.920  23.628  1.00  0.00     0.030 A 
BRANCH  25  30
ATOM     30  O   UNL A   1      32.992  17.413  22.604  1.00  0.00    -0.497 OA
ATOM     31  C   UNL A   1      34.037  16.579  23.092  1.00  0.00     0.278 C 
ENDBRANCH  25  30
ENDBRANCH  20  24
ENDBRANCH  18  19
ENDBRANCH   9  18
ENDBRANCH   6   8
ENDBRANCH   5   6
ENDBRANCH   4   5
ENDBRANCH   3   4
ENDBRANCH   2   3
ENDBRANCH   1   2
BRANCH   1  32
ATOM     32  C   UNL A   1      39.230  22.264  26.455  1.00  0.00     0.188 C 
BRANCH  32  33
ATOM     33  O   UNL A   1      40.495  21.649  26.413  1.00  0.00    -0.376 OA
BRANCH  33  34
ATOM     34  C   UNL A   1      41.422  22.007  27.432  1.00  0.00     0.202 C 
BRANCH  34  35
ATOM     35  C   UNL A   1      42.297  23.235  27.174  1.00  0.00     0.261 C 
BRANCH  35  36
ATOM     36  O   UNL A   1      41.712  24.437  27.676  1.00  0.00    -0.460 OA
BRANCH  36  37
ATOM     37  C   UNL A   1      41.773  25.496  26.843  1.00  0.00     0.338 C 
ATOM     38  O   UNL A   1      42.688  25.792  26.091  1.00  0.00    -0.246 OA
BRANCH  37  39
ATOM     39  C   UNL A   1      40.537  26.298  26.952  1.00  0.00     0.060 A 
ATOM     40  C   UNL A   1      40.670  27.610  26.487  1.00  0.00     0.016 A 
ATOM     41  C   UNL A   1      39.684  25.961  28.005  1.00  0.00     0.016 A 
ATOM     42  C   UNL A   1      40.374  28.611  27.374  1.00  0.00     0.010 A 
ATOM     43  C   UNL A   1      39.402  26.956  28.901  1.00  0.00     0.010 A 
ATOM     44  C   UNL A   1      39.899  28.230  28.630  1.00  0.00    -0.014 A 
BRANCH  44  45
ATOM     45  C   UNL A   1      40.000  29.186  29.708  1.00  0.00     0.031 A 
ATOM     46  C   UNL A   1      38.800  30.028  29.806  1.00  0.00     0.074 A 
ATOM     47  C   UNL A   1      41.050  29.169  30.552  1.00  0.00     0.049 A 
ATOM     48  N   UNL A   1      38.678  31.275  29.497  1.00  0.00    -0.248 NA
ATOM     49  C   UNL A   1      37.527  29.337  30.063  1.00  0.00     0.031 C 
ATOM     50  C   UNL A   1      42.124  28.167  30.633  1.00  0.00     0.029 A 
ATOM     51  N   UNL A   1      41.328  29.996  31.597  1.00  0.00    -0.354 N 
ATOM     52  C   UNL A   1      37.350  31.572  29.779  1.00  0.00     0.074 A 
ATOM     53  C   UNL A   1      36.653  30.318  29.844  1.00  0.00     0.031 C 
ATOM     54  C   UNL A   1      42.793  28.318  31.799  1.00  0.00     0.029 A 
ATOM     55  C   UNL A   1      42.289  29.499  32.474  1.00  0.00     0.049 A 
ATOM     56  H   UNL A   1      40.889  30.868  31.721  1.00  0.00     0.167 HD
ATOM     57  C   UNL A   1      37.024  32.768  30.336  1.00  0.00     0.037 A 
ATOM     58  C   UNL A   1      42.567  30.003  33.701  1.00  0.00     0.037 A 
ATOM     59  C   UNL A   1      38.084  33.728  30.147  1.00  0.00     0.049 A 
ATOM     60  C   UNL A   1      42.063  31.398  33.723  1.00  0.00     0.074 A 
ATOM     61  C   UNL A   1      38.646  34.399  29.083  1.00  0.00     0.029 A 
ATOM     62  N   UNL A   1      38.979  33.789  31.183  1.00  0.00    -0.354 N 
ATOM     63  N   UNL A   1      42.559  32.356  32.988  1.00  0.00    -0.248 NA
ATOM     64  C   UNL A   1      40.740  31.660  34.275  1.00  0.00     0.031 C 
ATOM     65  C   UNL A   1      40.005  34.639  29.445  1.00  0.00     0.029 A 
ATOM     66  C   UNL A   1      40.221  34.136  30.729  1.00  0.00     0.049 A 
ATOM     67  H   UNL A   1      38.758  33.608  32.125  1.00  0.00     0.167 HD
ATOM     68  C   UNL A   1      41.469  33.138  32.647  1.00  0.00     0.074 A 
ATOM     69  C   UNL A   1      40.422  32.763  33.590  1.00  0.00     0.031 C 
ATOM     70  C   UNL A   1      41.429  33.782  31.444  1.00  0.00     0.037 A 
BRANCH  57  71
ATOM     71  C   UNL A   1      36.043  32.899  31.486  1.00  0.00     0.057 A 
ATOM     72  C   UNL A   1      34.946  33.763  31.330  1.00  0.00     0.134 A 
ATOM     73  C   UNL A   1      36.285  32.484  32.815  1.00  0.00     0.134 A 
ATOM     74  F   UNL A   1      34.618  34.244  30.122  1.00  0.00    -0.206 F 
ATOM     75  C   UNL A   1      34.201  34.234  32.418  1.00  0.00     0.040 A 
ATOM     76  C   UNL A   1      35.515  32.907  33.901  1.00  0.00     0.040 A 
ATOM     77  F   UNL A   1      37.332  31.732  33.170  1.00  0.00    -0.206 F 
ATOM     78  C   UNL A   1      34.489  33.812  33.711  1.00  0.00     0.006 A 
ENDBRANCH  57  71
BRANCH  58  79
ATOM     79  C   UNL A   1      42.903  29.263  34.940  1.00  0.00     0.057 A 
ATOM     80  C   UNL A   1      42.186  28.122  35.329  1.00  0.00     0.134 A 
ATOM     81  C   UNL A   1      44.115  29.489  35.619  1.00  0.00     0.134 A 
ATOM     82  F   UNL A   1      41.041  27.796  34.712  1.00  0.00    -0.206 F 
ATOM     83  C   UNL A   1      42.659  27.244  36.315  1.00  0.00     0.040 A 
ATOM     84  C   UNL A   1      44.596  28.623  36.607  1.00  0.00     0.040 A 
ATOM     85  F   UNL A   1      44.919  30.506  35.279  1.00  0.00    -0.206 F 
ATOM     86  C   UNL A   1      43.874  27.487  36.949  1.00  0.00     0.006 A 
ENDBRANCH  58  79
BRANCH  70  87
ATOM     87  C   UNL A   1      42.731  33.958  30.719  1.00  0.00     0.057 A 
ATOM     88  C   UNL A   1      43.213  33.077  29.740  1.00  0.00     0.134 A 
ATOM     89  C   UNL A   1      43.466  35.126  30.942  1.00  0.00     0.134 A 
ATOM     90  F   UNL A   1      42.531  31.974  29.408  1.00  0.00    -0.206 F 
ATOM     91  C   UNL A   1      44.394  33.336  29.037  1.00  0.00     0.040 A 
ATOM     92  C   UNL A   1      44.629  35.411  30.225  1.00  0.00     0.040 A 
ATOM     93  F   UNL A   1      43.036  36.034  31.831  1.00  0.00    -0.206 F 
ATOM     94  C   UNL A   1      45.102  34.510  29.274  1.00  0.00     0.006 A 
ENDBRANCH  70  87
ENDBRANCH  44  45
ENDBRANCH  37  39
ENDBRANCH  36  37
ENDBRANCH  35  36
ENDBRANCH  34  35
ENDBRANCH  33  34
ENDBRANCH  32  33
ENDBRANCH   1  32
TORSDOF 21
ENDMDL
