MODEL 1
REMARK VINA RESULT:     -10.6      0.000      0.000
REMARK SMILES C[C@@H](C(=O)OCCOCCOCCOC(=O)c1ccc(-c2c3nc(c(-c4c(F)cccc4F)c4ccc([nH]4)c(-c4c(F)cccc4F)c4nc(c(-c5c(F)cccc5F)c5ccc2[nH]5)C=C4)C=C3)cc1)c1ccc(O[C@H]2CCCC2=O)cc1F
REMARK SMILES IDX 9 1 8 2 7 3 6 4 5 5 3 6 4 7 2 8 1 9 71 10 72 11 83 12 73 13
REMARK SMILES IDX 82 14 84 15 74 16 75 17 76 18 77 19 80 20 78 21 79 22 81 23
REMARK SMILES IDX 10 24 11 25 12 26 13 27 14 28 15 29 16 30 17 31 18 32 70 33
REMARK SMILES IDX 19 34 69 35 20 36 21 37 22 38 63 39 23 40 68 41 62 42 64 43
REMARK SMILES IDX 24 44 67 45 61 46 60 47 25 49 51 50 34 51 50 52 35 53 38 54
REMARK SMILES IDX 49 55 65 56 36 57 37 58 48 60 66 61 39 62 26 63 27 64 32 65
REMARK SMILES IDX 28 66 29 67 31 68 33 69 30 70 52 71 53 72 58 73 54 74 55 75
REMARK SMILES IDX 57 76 59 77 56 78 40 79 41 80 46 81 42 82 43 83 45 84 47 85
REMARK SMILES IDX 44 86
REMARK H PARENT 64 48 38 59
REMARK Flexibility Score: inf
ROOT
ATOM      1  C   UNL A   1      39.676  21.432  26.132  1.00  0.00     0.188 C 
ENDROOT
BRANCH   1   2
ATOM      2  O   UNL A   1      38.484  21.177  25.407  1.00  0.00    -0.376 OA
BRANCH   2   3
ATOM      3  C   UNL A   1      37.315  21.918  25.751  1.00  0.00     0.202 C 
BRANCH   3   4
ATOM      4  C   UNL A   1      36.089  21.884  24.819  1.00  0.00     0.261 C 
BRANCH   4   5
ATOM      5  O   UNL A   1      35.079  20.896  25.142  1.00  0.00    -0.463 OA
BRANCH   5   6
ATOM      6  C   UNL A   1      34.035  21.324  25.904  1.00  0.00     0.313 C 
ATOM      7  O   UNL A   1      34.098  21.449  27.125  1.00  0.00    -0.252 OA
BRANCH   6   8
ATOM      8  C   UNL A   1      32.745  21.656  25.121  1.00  0.00     0.129 C 
ATOM      9  C   UNL A   1      32.654  21.276  23.640  1.00  0.00     0.025 C 
BRANCH   8  10
ATOM     10  C   UNL A   1      32.357  23.116  25.330  1.00  0.00     0.002 A 
ATOM     11  C   UNL A   1      33.254  24.157  25.074  1.00  0.00     0.011 A 
ATOM     12  C   UNL A   1      31.111  23.461  25.853  1.00  0.00     0.130 A 
ATOM     13  C   UNL A   1      32.941  25.469  25.417  1.00  0.00     0.047 A 
ATOM     14  C   UNL A   1      30.784  24.783  26.181  1.00  0.00     0.086 A 
ATOM     15  F   UNL A   1      30.194  22.506  26.064  1.00  0.00    -0.207 F 
ATOM     16  C   UNL A   1      31.712  25.796  25.984  1.00  0.00     0.123 A 
BRANCH  16  17
ATOM     17  O   UNL A   1      31.609  27.111  26.305  1.00  0.00    -0.483 OA
BRANCH  17  18
ATOM     18  C   UNL A   1      31.360  28.113  25.353  1.00  0.00     0.239 C 
ATOM     19  C   UNL A   1      32.610  28.914  24.969  1.00  0.00     0.054 C 
ATOM     20  C   UNL A   1      30.681  27.826  24.022  1.00  0.00     0.173 C 
ATOM     21  C   UNL A   1      32.774  28.776  23.460  1.00  0.00     0.012 C 
ATOM     22  C   UNL A   1      31.394  28.495  22.881  1.00  0.00     0.080 C 
ATOM     23  O   UNL A   1      29.660  27.161  23.884  1.00  0.00    -0.296 OA
ENDBRANCH  17  18
ENDBRANCH  16  17
ENDBRANCH   8  10
ENDBRANCH   6   8
ENDBRANCH   5   6
ENDBRANCH   4   5
ENDBRANCH   3   4
ENDBRANCH   2   3
ENDBRANCH   1   2
BRANCH   1  24
ATOM     24  C   UNL A   1      40.543  20.232  26.542  1.00  0.00     0.188 C 
BRANCH  24  25
ATOM     25  O   UNL A   1      41.594  19.920  25.667  1.00  0.00    -0.376 OA
BRANCH  25  26
ATOM     26  C   UNL A   1      42.920  20.289  25.981  1.00  0.00     0.202 C 
BRANCH  26  27
ATOM     27  C   UNL A   1      43.672  21.452  25.307  1.00  0.00     0.261 C 
BRANCH  27  28
ATOM     28  O   UNL A   1      42.964  22.674  25.068  1.00  0.00    -0.460 OA
BRANCH  28  29
ATOM     29  C   UNL A   1      43.682  23.820  25.034  1.00  0.00     0.338 C 
ATOM     30  O   UNL A   1      44.571  24.108  24.249  1.00  0.00    -0.246 OA
BRANCH  29  31
ATOM     31  C   UNL A   1      43.052  24.765  25.985  1.00  0.00     0.060 A 
ATOM     32  C   UNL A   1      43.504  26.091  26.027  1.00  0.00     0.016 A 
ATOM     33  C   UNL A   1      42.009  24.352  26.818  1.00  0.00     0.016 A 
ATOM     34  C   UNL A   1      42.928  26.998  26.921  1.00  0.00     0.010 A 
ATOM     35  C   UNL A   1      41.447  25.256  27.727  1.00  0.00     0.010 A 
ATOM     36  C   UNL A   1      41.919  26.578  27.801  1.00  0.00    -0.014 A 
BRANCH  36  37
ATOM     37  C   UNL A   1      41.490  27.460  28.915  1.00  0.00     0.031 A 
ATOM     38  C   UNL A   1      42.256  27.402  30.208  1.00  0.00     0.074 A 
ATOM     39  C   UNL A   1      40.452  28.306  28.792  1.00  0.00     0.049 A 
ATOM     40  N   UNL A   1      42.040  28.037  31.332  1.00  0.00    -0.248 NA
ATOM     41  C   UNL A   1      43.412  26.493  30.238  1.00  0.00     0.031 C 
ATOM     42  C   UNL A   1      39.633  28.466  27.597  1.00  0.00     0.029 A 
ATOM     43  N   UNL A   1      39.913  29.195  29.691  1.00  0.00    -0.354 N 
ATOM     44  C   UNL A   1      43.023  27.594  32.207  1.00  0.00     0.074 A 
ATOM     45  C   UNL A   1      43.824  26.625  31.490  1.00  0.00     0.031 C 
ATOM     46  C   UNL A   1      38.714  29.421  27.821  1.00  0.00     0.029 A 
ATOM     47  C   UNL A   1      38.834  29.889  29.200  1.00  0.00     0.049 A 
ATOM     48  H   UNL A   1      40.267  29.322  30.601  1.00  0.00     0.167 HD
ATOM     49  C   UNL A   1      43.237  27.957  33.494  1.00  0.00     0.037 A 
ATOM     50  C   UNL A   1      38.015  30.773  29.806  1.00  0.00     0.037 A 
ATOM     51  C   UNL A   1      42.428  28.904  34.216  1.00  0.00     0.049 A 
ATOM     52  C   UNL A   1      38.234  31.113  31.259  1.00  0.00     0.074 A 
ATOM     53  C   UNL A   1      42.565  29.331  35.525  1.00  0.00     0.029 A 
ATOM     54  N   UNL A   1      41.322  29.559  33.695  1.00  0.00    -0.354 N 
ATOM     55  N   UNL A   1      39.176  30.702  32.074  1.00  0.00    -0.248 NA
ATOM     56  C   UNL A   1      37.266  32.029  31.881  1.00  0.00     0.031 C 
ATOM     57  C   UNL A   1      41.512  30.204  35.813  1.00  0.00     0.029 A 
ATOM     58  C   UNL A   1      40.756  30.372  34.665  1.00  0.00     0.049 A 
ATOM     59  H   UNL A   1      40.990  29.462  32.774  1.00  0.00     0.167 HD
ATOM     60  C   UNL A   1      38.924  31.322  33.293  1.00  0.00     0.074 A 
ATOM     61  C   UNL A   1      37.757  32.155  33.106  1.00  0.00     0.031 C 
ATOM     62  C   UNL A   1      39.599  31.207  34.465  1.00  0.00     0.037 A 
BRANCH  49  63
ATOM     63  C   UNL A   1      44.373  27.292  34.213  1.00  0.00     0.057 A 
ATOM     64  C   UNL A   1      45.651  27.862  34.269  1.00  0.00     0.134 A 
ATOM     65  C   UNL A   1      44.180  26.073  34.876  1.00  0.00     0.134 A 
ATOM     66  F   UNL A   1      45.908  29.020  33.641  1.00  0.00    -0.206 F 
ATOM     67  C   UNL A   1      46.704  27.231  34.935  1.00  0.00     0.040 A 
ATOM     68  C   UNL A   1      45.216  25.447  35.570  1.00  0.00     0.040 A 
ATOM     69  F   UNL A   1      42.979  25.473  34.864  1.00  0.00    -0.206 F 
ATOM     70  C   UNL A   1      46.485  26.023  35.594  1.00  0.00     0.006 A 
ENDBRANCH  49  63
BRANCH  50  71
ATOM     71  C   UNL A   1      36.877  31.375  29.062  1.00  0.00     0.057 A 
ATOM     72  C   UNL A   1      36.910  32.709  28.636  1.00  0.00     0.134 A 
ATOM     73  C   UNL A   1      35.711  30.644  28.797  1.00  0.00     0.134 A 
ATOM     74  F   UNL A   1      37.987  33.470  28.884  1.00  0.00    -0.206 F 
ATOM     75  C   UNL A   1      35.818  33.300  27.996  1.00  0.00     0.040 A 
ATOM     76  C   UNL A   1      34.626  31.212  28.129  1.00  0.00     0.040 A 
ATOM     77  F   UNL A   1      35.612  29.364  29.184  1.00  0.00    -0.206 F 
ATOM     78  C   UNL A   1      34.673  32.548  27.736  1.00  0.00     0.006 A 
ENDBRANCH  50  71
BRANCH  62  79
ATOM     79  C   UNL A   1      39.123  32.034  35.626  1.00  0.00     0.057 A 
ATOM     80  C   UNL A   1      38.261  31.520  36.605  1.00  0.00     0.134 A 
ATOM     81  C   UNL A   1      39.572  33.351  35.793  1.00  0.00     0.134 A 
ATOM     82  F   UNL A   1      37.784  30.271  36.503  1.00  0.00    -0.206 F 
ATOM     83  C   UNL A   1      37.847  32.294  37.691  1.00  0.00     0.040 A 
ATOM     84  C   UNL A   1      39.190  34.123  36.891  1.00  0.00     0.040 A 
ATOM     85  F   UNL A   1      40.409  33.903  34.899  1.00  0.00    -0.206 F 
ATOM     86  C   UNL A   1      38.318  33.596  37.841  1.00  0.00     0.006 A 
ENDBRANCH  62  79
ENDBRANCH  36  37
ENDBRANCH  29  31
ENDBRANCH  28  29
ENDBRANCH  27  28
ENDBRANCH  26  27
ENDBRANCH  25  26
ENDBRANCH  24  25
ENDBRANCH   1  24
TORSDOF 20
ENDMDL
MODEL 2
REMARK VINA RESULT:     -10.5      1.855      7.197
REMARK SMILES C[C@@H](C(=O)OCCOCCOCCOC(=O)c1ccc(-c2c3nc(c(-c4c(F)cccc4F)c4ccc([nH]4)c(-c4c(F)cccc4F)c4nc(c(-c5c(F)cccc5F)c5ccc2[nH]5)C=C4)C=C3)cc1)c1ccc(O[C@H]2CCCC2=O)cc1F
REMARK SMILES IDX 9 1 8 2 7 3 6 4 5 5 3 6 4 7 2 8 1 9 71 10 72 11 83 12 73 13
REMARK SMILES IDX 82 14 84 15 74 16 75 17 76 18 77 19 80 20 78 21 79 22 81 23
REMARK SMILES IDX 10 24 11 25 12 26 13 27 14 28 15 29 16 30 17 31 18 32 70 33
REMARK SMILES IDX 19 34 69 35 20 36 21 37 22 38 63 39 23 40 68 41 62 42 64 43
REMARK SMILES IDX 24 44 67 45 61 46 60 47 25 49 51 50 34 51 50 52 35 53 38 54
REMARK SMILES IDX 49 55 65 56 36 57 37 58 48 60 66 61 39 62 26 63 27 64 32 65
REMARK SMILES IDX 28 66 29 67 31 68 33 69 30 70 52 71 53 72 58 73 54 74 55 75
REMARK SMILES IDX 57 76 59 77 56 78 40 79 41 80 46 81 42 82 43 83 45 84 47 85
REMARK SMILES IDX 44 86
REMARK H PARENT 64 48 38 59
REMARK Flexibility Score: inf
ROOT
ATOM      1  C   UNL A   1      39.668  22.116  26.457  1.00  0.00     0.188 C 
ENDROOT
BRANCH   1   2
ATOM      2  O   UNL A   1      38.691  21.362  25.759  1.00  0.00    -0.376 OA
BRANCH   2   3
ATOM      3  C   UNL A   1      37.571  22.056  25.212  1.00  0.00     0.202 C 
BRANCH   3   4
ATOM      4  C   UNL A   1      37.092  23.367  25.864  1.00  0.00     0.261 C 
BRANCH   4   5
ATOM      5  O   UNL A   1      35.697  23.405  26.251  1.00  0.00    -0.463 OA
BRANCH   5   6
ATOM      6  C   UNL A   1      34.820  23.858  25.312  1.00  0.00     0.313 C 
ATOM      7  O   UNL A   1      35.156  24.553  24.356  1.00  0.00    -0.252 OA
BRANCH   6   8
ATOM      8  C   UNL A   1      33.352  23.428  25.525  1.00  0.00     0.129 C 
ATOM      9  C   UNL A   1      32.684  23.700  26.876  1.00  0.00     0.025 C 
BRANCH   8  10
ATOM     10  C   UNL A   1      33.158  21.974  25.109  1.00  0.00     0.002 A 
ATOM     11  C   UNL A   1      32.715  21.629  23.829  1.00  0.00     0.011 A 
ATOM     12  C   UNL A   1      33.349  20.935  26.019  1.00  0.00     0.130 A 
ATOM     13  C   UNL A   1      32.393  20.312  23.516  1.00  0.00     0.047 A 
ATOM     14  C   UNL A   1      33.046  19.605  25.702  1.00  0.00     0.086 A 
ATOM     15  F   UNL A   1      33.826  21.205  27.243  1.00  0.00    -0.207 F 
ATOM     16  C   UNL A   1      32.542  19.289  24.448  1.00  0.00     0.123 A 
BRANCH  16  17
ATOM     17  O   UNL A   1      32.123  18.084  23.984  1.00  0.00    -0.483 OA
BRANCH  17  18
ATOM     18  C   UNL A   1      32.953  16.951  23.941  1.00  0.00     0.239 C 
ATOM     19  C   UNL A   1      34.401  17.271  23.549  1.00  0.00     0.054 C 
ATOM     20  C   UNL A   1      33.091  15.992  25.114  1.00  0.00     0.173 C 
ATOM     21  C   UNL A   1      35.285  16.764  24.683  1.00  0.00     0.012 C 
ATOM     22  C   UNL A   1      34.527  15.641  25.377  1.00  0.00     0.080 C 
ATOM     23  O   UNL A   1      32.154  15.528  25.754  1.00  0.00    -0.296 OA
ENDBRANCH  17  18
ENDBRANCH  16  17
ENDBRANCH   8  10
ENDBRANCH   6   8
ENDBRANCH   5   6
ENDBRANCH   4   5
ENDBRANCH   3   4
ENDBRANCH   2   3
ENDBRANCH   1   2
BRANCH   1  24
ATOM     24  C   UNL A   1      40.940  21.392  26.925  1.00  0.00     0.188 C 
BRANCH  24  25
ATOM     25  O   UNL A   1      41.733  20.845  25.905  1.00  0.00    -0.376 OA
BRANCH  25  26
ATOM     26  C   UNL A   1      43.120  21.103  25.861  1.00  0.00     0.202 C 
BRANCH  26  27
ATOM     27  C   UNL A   1      43.761  22.219  25.015  1.00  0.00     0.261 C 
BRANCH  27  28
ATOM     28  O   UNL A   1      43.162  23.520  25.035  1.00  0.00    -0.460 OA
BRANCH  28  29
ATOM     29  C   UNL A   1      43.968  24.580  25.270  1.00  0.00     0.338 C 
ATOM     30  O   UNL A   1      44.946  24.917  24.624  1.00  0.00    -0.246 OA
BRANCH  29  31
ATOM     31  C   UNL A   1      43.328  25.396  26.328  1.00  0.00     0.060 A 
ATOM     32  C   UNL A   1      43.740  26.724  26.505  1.00  0.00     0.016 A 
ATOM     33  C   UNL A   1      42.315  24.862  27.128  1.00  0.00     0.016 A 
ATOM     34  C   UNL A   1      43.154  27.511  27.502  1.00  0.00     0.010 A 
ATOM     35  C   UNL A   1      41.744  25.644  28.139  1.00  0.00     0.010 A 
ATOM     36  C   UNL A   1      42.176  26.966  28.347  1.00  0.00    -0.014 A 
BRANCH  36  37
ATOM     37  C   UNL A   1      41.743  27.708  29.557  1.00  0.00     0.031 A 
ATOM     38  C   UNL A   1      40.523  28.582  29.463  1.00  0.00     0.074 A 
ATOM     39  C   UNL A   1      42.404  27.609  30.725  1.00  0.00     0.049 A 
ATOM     40  N   UNL A   1      39.985  29.360  30.367  1.00  0.00    -0.248 NA
ATOM     41  C   UNL A   1      39.827  28.587  28.168  1.00  0.00     0.031 C 
ATOM     42  C   UNL A   1      43.592  26.797  30.954  1.00  0.00     0.029 A 
ATOM     43  N   UNL A   1      42.161  28.201  31.942  1.00  0.00    -0.354 N 
ATOM     44  C   UNL A   1      38.897  29.958  29.746  1.00  0.00     0.074 A 
ATOM     45  C   UNL A   1      38.862  29.467  28.385  1.00  0.00     0.031 C 
ATOM     46  C   UNL A   1      43.959  26.911  32.242  1.00  0.00     0.029 A 
ATOM     47  C   UNL A   1      43.074  27.862  32.911  1.00  0.00     0.049 A 
ATOM     48  H   UNL A   1      41.405  28.810  32.102  1.00  0.00     0.167 HD
ATOM     49  C   UNL A   1      38.009  30.842  30.261  1.00  0.00     0.037 A 
ATOM     50  C   UNL A   1      43.201  28.299  34.180  1.00  0.00     0.037 A 
ATOM     51  C   UNL A   1      38.055  31.349  31.607  1.00  0.00     0.049 A 
ATOM     52  C   UNL A   1      42.239  29.332  34.710  1.00  0.00     0.074 A 
ATOM     53  C   UNL A   1      37.201  32.251  32.216  1.00  0.00     0.029 A 
ATOM     54  N   UNL A   1      39.015  31.009  32.548  1.00  0.00    -0.354 N 
ATOM     55  N   UNL A   1      41.203  29.880  34.122  1.00  0.00    -0.248 NA
ATOM     56  C   UNL A   1      42.473  29.818  36.079  1.00  0.00     0.031 C 
ATOM     57  C   UNL A   1      37.675  32.499  33.508  1.00  0.00     0.029 A 
ATOM     58  C   UNL A   1      38.786  31.701  33.727  1.00  0.00     0.049 A 
ATOM     59  H   UNL A   1      39.750  30.371  32.401  1.00  0.00     0.167 HD
ATOM     60  C   UNL A   1      40.655  30.758  35.051  1.00  0.00     0.074 A 
ATOM     61  C   UNL A   1      41.457  30.652  36.251  1.00  0.00     0.031 C 
ATOM     62  C   UNL A   1      39.585  31.581  34.920  1.00  0.00     0.037 A 
BRANCH  49  63
ATOM     63  C   UNL A   1      36.934  31.345  29.344  1.00  0.00     0.057 A 
ATOM     64  C   UNL A   1      35.810  30.572  29.023  1.00  0.00     0.134 A 
ATOM     65  C   UNL A   1      37.015  32.629  28.789  1.00  0.00     0.134 A 
ATOM     66  F   UNL A   1      35.680  29.328  29.506  1.00  0.00    -0.206 F 
ATOM     67  C   UNL A   1      34.819  31.048  28.162  1.00  0.00     0.040 A 
ATOM     68  C   UNL A   1      36.016  33.127  27.951  1.00  0.00     0.040 A 
ATOM     69  F   UNL A   1      38.063  33.423  29.057  1.00  0.00    -0.206 F 
ATOM     70  C   UNL A   1      34.917  32.332  27.629  1.00  0.00     0.006 A 
ENDBRANCH  49  63
BRANCH  50  71
ATOM     71  C   UNL A   1      44.310  27.800  35.039  1.00  0.00     0.057 A 
ATOM     72  C   UNL A   1      45.554  28.441  35.066  1.00  0.00     0.134 A 
ATOM     73  C   UNL A   1      44.163  26.645  35.819  1.00  0.00     0.134 A 
ATOM     74  F   UNL A   1      45.766  29.535  34.318  1.00  0.00    -0.206 F 
ATOM     75  C   UNL A   1      46.619  27.939  35.817  1.00  0.00     0.040 A 
ATOM     76  C   UNL A   1      45.209  26.153  36.601  1.00  0.00     0.040 A 
ATOM     77  F   UNL A   1      42.999  25.981  35.833  1.00  0.00    -0.206 F 
ATOM     78  C   UNL A   1      46.446  26.795  36.593  1.00  0.00     0.006 A 
ENDBRANCH  50  71
BRANCH  62  79
ATOM     79  C   UNL A   1      39.186  32.401  36.115  1.00  0.00     0.057 A 
ATOM     80  C   UNL A   1      39.661  33.704  36.319  1.00  0.00     0.134 A 
ATOM     81  C   UNL A   1      38.276  31.895  37.053  1.00  0.00     0.134 A 
ATOM     82  F   UNL A   1      40.543  34.247  35.467  1.00  0.00    -0.206 F 
ATOM     83  C   UNL A   1      39.263  34.462  37.422  1.00  0.00     0.040 A 
ATOM     84  C   UNL A   1      37.847  32.655  38.143  1.00  0.00     0.040 A 
ATOM     85  F   UNL A   1      37.771  30.659  36.914  1.00  0.00    -0.206 F 
ATOM     86  C   UNL A   1      38.347  33.941  38.333  1.00  0.00     0.006 A 
ENDBRANCH  62  79
ENDBRANCH  36  37
ENDBRANCH  29  31
ENDBRANCH  28  29
ENDBRANCH  27  28
ENDBRANCH  26  27
ENDBRANCH  25  26
ENDBRANCH  24  25
ENDBRANCH   1  24
TORSDOF 20
ENDMDL
MODEL 3
REMARK VINA RESULT:     -10.4      3.297      8.094
REMARK SMILES C[C@@H](C(=O)OCCOCCOCCOC(=O)c1ccc(-c2c3nc(c(-c4c(F)cccc4F)c4ccc([nH]4)c(-c4c(F)cccc4F)c4nc(c(-c5c(F)cccc5F)c5ccc2[nH]5)C=C4)C=C3)cc1)c1ccc(O[C@H]2CCCC2=O)cc1F
REMARK SMILES IDX 9 1 8 2 7 3 6 4 5 5 3 6 4 7 2 8 1 9 71 10 72 11 83 12 73 13
REMARK SMILES IDX 82 14 84 15 74 16 75 17 76 18 77 19 80 20 78 21 79 22 81 23
REMARK SMILES IDX 10 24 11 25 12 26 13 27 14 28 15 29 16 30 17 31 18 32 70 33
REMARK SMILES IDX 19 34 69 35 20 36 21 37 22 38 63 39 23 40 68 41 62 42 64 43
REMARK SMILES IDX 24 44 67 45 61 46 60 47 25 49 51 50 34 51 50 52 35 53 38 54
REMARK SMILES IDX 49 55 65 56 36 57 37 58 48 60 66 61 39 62 26 63 27 64 32 65
REMARK SMILES IDX 28 66 29 67 31 68 33 69 30 70 52 71 53 72 58 73 54 74 55 75
REMARK SMILES IDX 57 76 59 77 56 78 40 79 41 80 46 81 42 82 43 83 45 84 47 85
REMARK SMILES IDX 44 86
REMARK H PARENT 64 48 38 59
REMARK Flexibility Score: inf
ROOT
ATOM      1  C   UNL A   1      33.713  29.608  27.003  1.00  0.00     0.188 C 
ENDROOT
BRANCH   1   2
ATOM      2  O   UNL A   1      34.398  28.451  26.554  1.00  0.00    -0.376 OA
BRANCH   2   3
ATOM      3  C   UNL A   1      33.693  27.532  25.721  1.00  0.00     0.202 C 
BRANCH   3   4
ATOM      4  C   UNL A   1      32.610  26.623  26.334  1.00  0.00     0.261 C 
BRANCH   4   5
ATOM      5  O   UNL A   1      32.709  25.215  26.005  1.00  0.00    -0.463 OA
BRANCH   5   6
ATOM      6  C   UNL A   1      31.553  24.498  26.062  1.00  0.00     0.313 C 
ATOM      7  O   UNL A   1      31.020  24.161  27.116  1.00  0.00    -0.252 OA
BRANCH   6   8
ATOM      8  C   UNL A   1      30.939  24.134  24.692  1.00  0.00     0.129 C 
ATOM      9  C   UNL A   1      31.696  23.177  23.766  1.00  0.00     0.025 C 
BRANCH   8  10
ATOM     10  C   UNL A   1      30.525  25.397  23.943  1.00  0.00     0.002 A 
ATOM     11  C   UNL A   1      31.248  25.867  22.843  1.00  0.00     0.011 A 
ATOM     12  C   UNL A   1      29.447  26.168  24.375  1.00  0.00     0.130 A 
ATOM     13  C   UNL A   1      30.953  27.100  22.269  1.00  0.00     0.047 A 
ATOM     14  C   UNL A   1      29.134  27.400  23.788  1.00  0.00     0.086 A 
ATOM     15  F   UNL A   1      28.687  25.734  25.390  1.00  0.00    -0.207 F 
ATOM     16  C   UNL A   1      29.904  27.886  22.741  1.00  0.00     0.123 A 
BRANCH  16  17
ATOM     17  O   UNL A   1      29.805  29.078  22.099  1.00  0.00    -0.483 OA
BRANCH  17  18
ATOM     18  C   UNL A   1      28.789  30.009  22.370  1.00  0.00     0.239 C 
ATOM     19  C   UNL A   1      29.113  30.940  23.545  1.00  0.00     0.054 C 
ATOM     20  C   UNL A   1      28.227  30.940  21.306  1.00  0.00     0.173 C 
ATOM     21  C   UNL A   1      29.039  32.366  23.009  1.00  0.00     0.012 C 
ATOM     22  C   UNL A   1      28.099  32.348  21.812  1.00  0.00     0.080 C 
ATOM     23  O   UNL A   1      27.883  30.592  20.181  1.00  0.00    -0.296 OA
ENDBRANCH  17  18
ENDBRANCH  16  17
ENDBRANCH   8  10
ENDBRANCH   6   8
ENDBRANCH   5   6
ENDBRANCH   4   5
ENDBRANCH   3   4
ENDBRANCH   2   3
ENDBRANCH   1   2
BRANCH   1  24
ATOM     24  C   UNL A   1      32.752  30.303  26.027  1.00  0.00     0.188 C 
BRANCH  24  25
ATOM     25  O   UNL A   1      31.628  30.905  26.612  1.00  0.00    -0.376 OA
BRANCH  25  26
ATOM     26  C   UNL A   1      31.593  32.300  26.825  1.00  0.00     0.202 C 
BRANCH  26  27
ATOM     27  C   UNL A   1      32.539  33.049  27.782  1.00  0.00     0.261 C 
BRANCH  27  28
ATOM     28  O   UNL A   1      32.750  34.450  27.576  1.00  0.00    -0.460 OA
BRANCH  28  29
ATOM     29  C   UNL A   1      32.984  35.218  28.664  1.00  0.00     0.338 C 
ATOM     30  O   UNL A   1      32.269  36.101  29.109  1.00  0.00    -0.246 OA
BRANCH  29  31
ATOM     31  C   UNL A   1      34.164  34.652  29.359  1.00  0.00     0.060 A 
ATOM     32  C   UNL A   1      35.389  34.593  28.682  1.00  0.00     0.016 A 
ATOM     33  C   UNL A   1      34.067  34.199  30.677  1.00  0.00     0.016 A 
ATOM     34  C   UNL A   1      36.514  34.057  29.317  1.00  0.00     0.010 A 
ATOM     35  C   UNL A   1      35.188  33.644  31.304  1.00  0.00     0.010 A 
ATOM     36  C   UNL A   1      36.413  33.548  30.621  1.00  0.00    -0.014 A 
BRANCH  36  37
ATOM     37  C   UNL A   1      37.526  32.753  31.196  1.00  0.00     0.031 A 
ATOM     38  C   UNL A   1      38.088  33.166  32.528  1.00  0.00     0.074 A 
ATOM     39  C   UNL A   1      38.031  31.678  30.564  1.00  0.00     0.049 A 
ATOM     40  N   UNL A   1      39.088  32.659  33.203  1.00  0.00    -0.248 NA
ATOM     41  C   UNL A   1      37.440  34.316  33.177  1.00  0.00     0.031 C 
ATOM     42  C   UNL A   1      37.577  31.167  29.276  1.00  0.00     0.029 A 
ATOM     43  N   UNL A   1      39.041  30.819  30.928  1.00  0.00    -0.354 N 
ATOM     44  C   UNL A   1      39.199  33.437  34.348  1.00  0.00     0.074 A 
ATOM     45  C   UNL A   1      38.177  34.458  34.268  1.00  0.00     0.031 C 
ATOM     46  C   UNL A   1      38.280  30.063  28.970  1.00  0.00     0.029 A 
ATOM     47  C   UNL A   1      39.284  29.831  30.006  1.00  0.00     0.049 A 
ATOM     48  H   UNL A   1      39.542  30.906  31.772  1.00  0.00     0.167 HD
ATOM     49  C   UNL A   1      40.076  33.314  35.372  1.00  0.00     0.037 A 
ATOM     50  C   UNL A   1      40.231  28.872  29.984  1.00  0.00     0.037 A 
ATOM     51  C   UNL A   1      41.108  32.313  35.443  1.00  0.00     0.049 A 
ATOM     52  C   UNL A   1      41.238  28.796  31.104  1.00  0.00     0.074 A 
ATOM     53  C   UNL A   1      42.047  32.115  36.439  1.00  0.00     0.029 A 
ATOM     54  N   UNL A   1      41.345  31.351  34.472  1.00  0.00    -0.354 N 
ATOM     55  N   UNL A   1      41.326  29.525  32.191  1.00  0.00    -0.248 NA
ATOM     56  C   UNL A   1      42.288  27.773  30.987  1.00  0.00     0.031 C 
ATOM     57  C   UNL A   1      42.886  31.067  36.047  1.00  0.00     0.029 A 
ATOM     58  C   UNL A   1      42.430  30.570  34.838  1.00  0.00     0.049 A 
ATOM     59  H   UNL A   1      40.820  31.240  33.647  1.00  0.00     0.167 HD
ATOM     60  C   UNL A   1      42.424  29.037  32.892  1.00  0.00     0.074 A 
ATOM     61  C   UNL A   1      42.956  27.935  32.120  1.00  0.00     0.031 C 
ATOM     62  C   UNL A   1      42.946  29.467  34.067  1.00  0.00     0.037 A 
BRANCH  49  63
ATOM     63  C   UNL A   1      39.979  34.320  36.481  1.00  0.00     0.057 A 
ATOM     64  C   UNL A   1      40.603  35.572  36.405  1.00  0.00     0.134 A 
ATOM     65  C   UNL A   1      39.235  34.038  37.633  1.00  0.00     0.134 A 
ATOM     66  F   UNL A   1      41.345  35.898  35.336  1.00  0.00    -0.206 F 
ATOM     67  C   UNL A   1      40.512  36.497  37.446  1.00  0.00     0.040 A 
ATOM     68  C   UNL A   1      39.112  34.965  38.669  1.00  0.00     0.040 A 
ATOM     69  F   UNL A   1      38.610  32.858  37.771  1.00  0.00    -0.206 F 
ATOM     70  C   UNL A   1      39.759  36.197  38.580  1.00  0.00     0.006 A 
ENDBRANCH  49  63
BRANCH  50  71
ATOM     71  C   UNL A   1      40.313  27.922  28.841  1.00  0.00     0.057 A 
ATOM     72  C   UNL A   1      41.045  28.232  27.688  1.00  0.00     0.134 A 
ATOM     73  C   UNL A   1      39.625  26.701  28.858  1.00  0.00     0.134 A 
ATOM     74  F   UNL A   1      41.702  29.399  27.600  1.00  0.00    -0.206 F 
ATOM     75  C   UNL A   1      41.070  27.376  26.586  1.00  0.00     0.040 A 
ATOM     76  C   UNL A   1      39.670  25.821  27.777  1.00  0.00     0.040 A 
ATOM     77  F   UNL A   1      38.901  26.347  29.929  1.00  0.00    -0.206 F 
ATOM     78  C   UNL A   1      40.386  26.162  26.631  1.00  0.00     0.006 A 
ENDBRANCH  50  71
BRANCH  62  79
ATOM     79  C   UNL A   1      44.128  28.720  34.619  1.00  0.00     0.057 A 
ATOM     80  C   UNL A   1      43.981  27.592  35.439  1.00  0.00     0.134 A 
ATOM     81  C   UNL A   1      45.433  29.107  34.286  1.00  0.00     0.134 A 
ATOM     82  F   UNL A   1      42.762  27.172  35.806  1.00  0.00    -0.206 F 
ATOM     83  C   UNL A   1      45.089  26.894  35.924  1.00  0.00     0.040 A 
ATOM     84  C   UNL A   1      46.547  28.398  34.740  1.00  0.00     0.040 A 
ATOM     85  F   UNL A   1      45.647  30.171  33.495  1.00  0.00    -0.206 F 
ATOM     86  C   UNL A   1      46.375  27.291  35.568  1.00  0.00     0.006 A 
ENDBRANCH  62  79
ENDBRANCH  36  37
ENDBRANCH  29  31
ENDBRANCH  28  29
ENDBRANCH  27  28
ENDBRANCH  26  27
ENDBRANCH  25  26
ENDBRANCH  24  25
ENDBRANCH   1  24
TORSDOF 20
ENDMDL
