MODEL 1
REMARK VINA RESULT:     -11.5      0.000      0.000
REMARK SMILES Cc1cc(C)cc(N(C)S(=O)(=O)c2ccc(F)c(C(=O)OCCOCCOCCOC(=O)c3ccc(-c4c5nc(c(-c6c(F)cccc6F)c6ccc([nH]6)c(-c6c(F)cccc6F)c6nc(c(-c7c(F)cccc7F)c7ccc4[nH]7)C=C6)C=C5)cc3)c2)c1
REMARK SMILES IDX 25 1 24 2 23 3 22 4 21 5 19 6 20 7 18 8 13 9 14 10 87 11
REMARK SMILES IDX 15 12 16 13 17 14 10 15 11 16 12 17 8 18 9 19 7 20 1 21 2 22
REMARK SMILES IDX 3 23 88 24 4 25 5 26 6 27 26 28 27 29 28 30 29 31 30 32
REMARK SMILES IDX 31 33 32 34 33 35 34 36 86 37 35 38 85 39 36 40 37 41 38 42
REMARK SMILES IDX 79 43 39 44 84 45 78 46 80 47 40 48 83 49 77 50 76 51 41 53
REMARK SMILES IDX 67 54 50 55 66 56 51 57 54 58 65 59 81 60 52 61 53 62 64 64
REMARK SMILES IDX 82 65 55 66 42 67 43 68 48 69 44 70 45 71 47 72 49 73 46 74
REMARK SMILES IDX 68 75 69 76 74 77 70 78 71 79 73 80 75 81 72 82 56 83 57 84
REMARK SMILES IDX 62 85 58 86 59 87 61 88 63 89 60 90
REMARK H PARENT 80 52 54 63
REMARK Flexibility Score: inf
ROOT
ATOM      1  C   UNL A   1      34.863  33.655  28.456  1.00  0.00     0.188 C 
ENDROOT
BRANCH   1   2
ATOM      2  O   UNL A   1      34.665  32.264  28.619  1.00  0.00    -0.376 OA
BRANCH   2   3
ATOM      3  C   UNL A   1      34.184  31.483  27.533  1.00  0.00     0.202 C 
BRANCH   3   4
ATOM      4  C   UNL A   1      34.365  29.957  27.485  1.00  0.00     0.261 C 
BRANCH   4   5
ATOM      5  O   UNL A   1      33.863  29.321  26.301  1.00  0.00    -0.460 OA
BRANCH   5   6
ATOM      6  C   UNL A   1      32.615  28.794  26.390  1.00  0.00     0.341 C 
ATOM      7  O   UNL A   1      31.943  28.673  27.401  1.00  0.00    -0.246 OA
BRANCH   6   8
ATOM      8  C   UNL A   1      32.037  28.649  25.042  1.00  0.00     0.097 A 
ATOM      9  C   UNL A   1      31.796  27.249  23.069  1.00  0.00     0.089 A 
ATOM     10  C   UNL A   1      30.826  28.141  22.582  1.00  0.00     0.025 A 
ATOM     11  C   UNL A   1      32.441  27.541  24.275  1.00  0.00     0.041 A 
ATOM     12  C   UNL A   1      30.491  29.290  23.309  1.00  0.00     0.041 A 
ATOM     13  C   UNL A   1      31.085  29.531  24.545  1.00  0.00     0.137 A 
ATOM     14  F   UNL A   1      30.741  30.633  25.224  1.00  0.00    -0.206 F 
BRANCH   9  15
ATOM     15  S   UNL A   1      32.366  25.930  21.988  1.00  0.00     0.264 S 
ATOM     16  O   UNL A   1      33.802  26.098  21.921  1.00  0.00    -0.201 OA
ATOM     17  O   UNL A   1      31.543  26.054  20.797  1.00  0.00    -0.201 OA
BRANCH  15  18
ATOM     18  N   UNL A   1      32.030  24.358  22.677  1.00  0.00    -0.269 N 
ATOM     19  C   UNL A   1      30.675  24.214  23.263  1.00  0.00     0.164 C 
BRANCH  18  20
ATOM     20  C   UNL A   1      33.148  23.852  23.537  1.00  0.00     0.052 A 
ATOM     21  C   UNL A   1      33.962  23.130  27.231  1.00  0.00     0.044 C 
ATOM     22  C   UNL A   1      34.101  23.297  25.749  1.00  0.00    -0.049 A 
ATOM     23  C   UNL A   1      35.324  22.998  25.167  1.00  0.00     0.007 A 
ATOM     24  C   UNL A   1      33.041  23.748  24.937  1.00  0.00     0.030 A 
ATOM     25  C   UNL A   1      35.477  23.119  23.796  1.00  0.00    -0.049 A 
ATOM     26  C   UNL A   1      36.796  22.781  23.198  1.00  0.00     0.044 C 
ATOM     27  C   UNL A   1      34.413  23.572  22.998  1.00  0.00     0.030 A 
ENDBRANCH  18  20
ENDBRANCH  15  18
ENDBRANCH   9  15
ENDBRANCH   6   8
ENDBRANCH   5   6
ENDBRANCH   4   5
ENDBRANCH   3   4
ENDBRANCH   2   3
ENDBRANCH   1   2
BRANCH   1  28
ATOM     28  C   UNL A   1      33.733  34.653  28.779  1.00  0.00     0.188 C 
BRANCH  28  29
ATOM     29  O   UNL A   1      33.121  34.574  30.041  1.00  0.00    -0.376 OA
BRANCH  29  30
ATOM     30  C   UNL A   1      33.826  34.922  31.219  1.00  0.00     0.202 C 
BRANCH  30  31
ATOM     31  C   UNL A   1      34.506  33.946  32.200  1.00  0.00     0.261 C 
BRANCH  31  32
ATOM     32  O   UNL A   1      35.874  33.598  31.980  1.00  0.00    -0.460 OA
BRANCH  32  33
ATOM     33  C   UNL A   1      36.375  32.651  32.806  1.00  0.00     0.338 C 
ATOM     34  O   UNL A   1      36.010  32.389  33.947  1.00  0.00    -0.246 OA
BRANCH  33  35
ATOM     35  C   UNL A   1      37.356  31.846  32.066  1.00  0.00     0.060 A 
ATOM     36  C   UNL A   1      38.343  31.142  32.771  1.00  0.00     0.016 A 
ATOM     37  C   UNL A   1      37.327  31.828  30.671  1.00  0.00     0.016 A 
ATOM     38  C   UNL A   1      39.318  30.423  32.075  1.00  0.00     0.010 A 
ATOM     39  C   UNL A   1      38.315  31.128  29.978  1.00  0.00     0.010 A 
ATOM     40  C   UNL A   1      39.327  30.442  30.673  1.00  0.00    -0.014 A 
BRANCH  40  41
ATOM     41  C   UNL A   1      40.483  29.899  29.914  1.00  0.00     0.031 A 
ATOM     42  C   UNL A   1      41.654  30.807  29.667  1.00  0.00     0.074 A 
ATOM     43  C   UNL A   1      40.450  28.656  29.401  1.00  0.00     0.049 A 
ATOM     44  N   UNL A   1      42.762  30.571  29.017  1.00  0.00    -0.248 NA
ATOM     45  C   UNL A   1      41.553  32.174  30.208  1.00  0.00     0.031 C 
ATOM     46  C   UNL A   1      39.357  27.708  29.595  1.00  0.00     0.029 A 
ATOM     47  N   UNL A   1      41.351  27.970  28.619  1.00  0.00    -0.354 N 
ATOM     48  C   UNL A   1      43.472  31.766  29.038  1.00  0.00     0.074 A 
ATOM     49  C   UNL A   1      42.673  32.727  29.764  1.00  0.00     0.031 C 
ATOM     50  C   UNL A   1      39.666  26.553  28.980  1.00  0.00     0.029 A 
ATOM     51  C   UNL A   1      40.965  26.681  28.314  1.00  0.00     0.049 A 
ATOM     52  H   UNL A   1      42.196  28.364  28.304  1.00  0.00     0.167 HD
ATOM     53  C   UNL A   1      44.678  32.032  28.487  1.00  0.00     0.037 A 
ATOM     54  C   UNL A   1      41.614  25.711  27.625  1.00  0.00     0.037 A 
ATOM     55  C   UNL A   1      45.465  31.055  27.781  1.00  0.00     0.049 A 
ATOM     56  C   UNL A   1      42.995  26.033  27.090  1.00  0.00     0.074 A 
ATOM     57  C   UNL A   1      46.706  31.215  27.193  1.00  0.00     0.029 A 
ATOM     58  N   UNL A   1      45.082  29.739  27.569  1.00  0.00    -0.354 N 
ATOM     59  N   UNL A   1      43.711  27.125  27.240  1.00  0.00    -0.248 NA
ATOM     60  C   UNL A   1      43.676  24.981  26.320  1.00  0.00     0.031 C 
ATOM     61  C   UNL A   1      47.048  30.011  26.574  1.00  0.00     0.029 A 
ATOM     62  C   UNL A   1      46.048  29.084  26.827  1.00  0.00     0.049 A 
ATOM     63  H   UNL A   1      44.247  29.333  27.897  1.00  0.00     0.167 HD
ATOM     64  C   UNL A   1      44.929  26.875  26.616  1.00  0.00     0.074 A 
ATOM     65  C   UNL A   1      44.879  25.507  26.146  1.00  0.00     0.031 C 
ATOM     66  C   UNL A   1      45.985  27.705  26.415  1.00  0.00     0.037 A 
BRANCH  53  67
ATOM     67  C   UNL A   1      45.208  33.433  28.584  1.00  0.00     0.057 A 
ATOM     68  C   UNL A   1      44.896  34.376  27.595  1.00  0.00     0.134 A 
ATOM     69  C   UNL A   1      46.075  33.834  29.606  1.00  0.00     0.134 A 
ATOM     70  F   UNL A   1      44.070  34.058  26.586  1.00  0.00    -0.206 F 
ATOM     71  C   UNL A   1      45.443  35.660  27.609  1.00  0.00     0.040 A 
ATOM     72  C   UNL A   1      46.608  35.125  29.646  1.00  0.00     0.040 A 
ATOM     73  F   UNL A   1      46.402  32.986  30.593  1.00  0.00    -0.206 F 
ATOM     74  C   UNL A   1      46.301  36.037  28.638  1.00  0.00     0.006 A 
ENDBRANCH  53  67
BRANCH  54  75
ATOM     75  C   UNL A   1      41.067  24.310  27.573  1.00  0.00     0.057 A 
ATOM     76  C   UNL A   1      41.626  23.249  28.295  1.00  0.00     0.134 A 
ATOM     77  C   UNL A   1      40.012  23.972  26.707  1.00  0.00     0.134 A 
ATOM     78  F   UNL A   1      42.606  23.474  29.182  1.00  0.00    -0.206 F 
ATOM     79  C   UNL A   1      41.232  21.921  28.088  1.00  0.00     0.040 A 
ATOM     80  C   UNL A   1      39.595  22.656  26.499  1.00  0.00     0.040 A 
ATOM     81  F   UNL A   1      39.360  24.924  26.025  1.00  0.00    -0.206 F 
ATOM     82  C   UNL A   1      40.224  21.620  27.175  1.00  0.00     0.006 A 
ENDBRANCH  54  75
BRANCH  66  83
ATOM     83  C   UNL A   1      47.167  27.165  25.657  1.00  0.00     0.057 A 
ATOM     84  C   UNL A   1      48.180  26.450  26.310  1.00  0.00     0.134 A 
ATOM     85  C   UNL A   1      47.351  27.446  24.296  1.00  0.00     0.134 A 
ATOM     86  F   UNL A   1      48.081  26.165  27.617  1.00  0.00    -0.206 F 
ATOM     87  C   UNL A   1      49.337  26.047  25.640  1.00  0.00     0.040 A 
ATOM     88  C   UNL A   1      48.486  27.016  23.608  1.00  0.00     0.040 A 
ATOM     89  F   UNL A   1      46.420  28.127  23.610  1.00  0.00    -0.206 F 
ATOM     90  C   UNL A   1      49.489  26.326  24.284  1.00  0.00     0.006 A 
ENDBRANCH  66  83
ENDBRANCH  40  41
ENDBRANCH  33  35
ENDBRANCH  32  33
ENDBRANCH  31  32
ENDBRANCH  30  31
ENDBRANCH  29  30
ENDBRANCH  28  29
ENDBRANCH   1  28
TORSDOF 20
ENDMDL
MODEL 2
REMARK VINA RESULT:     -11.2      4.486     10.011
REMARK SMILES Cc1cc(C)cc(N(C)S(=O)(=O)c2ccc(F)c(C(=O)OCCOCCOCCOC(=O)c3ccc(-c4c5nc(c(-c6c(F)cccc6F)c6ccc([nH]6)c(-c6c(F)cccc6F)c6nc(c(-c7c(F)cccc7F)c7ccc4[nH]7)C=C6)C=C5)cc3)c2)c1
REMARK SMILES IDX 25 1 24 2 23 3 22 4 21 5 19 6 20 7 18 8 13 9 14 10 87 11
REMARK SMILES IDX 15 12 16 13 17 14 10 15 11 16 12 17 8 18 9 19 7 20 1 21 2 22
REMARK SMILES IDX 3 23 88 24 4 25 5 26 6 27 26 28 27 29 28 30 29 31 30 32
REMARK SMILES IDX 31 33 32 34 33 35 34 36 86 37 35 38 85 39 36 40 37 41 38 42
REMARK SMILES IDX 79 43 39 44 84 45 78 46 80 47 40 48 83 49 77 50 76 51 41 53
REMARK SMILES IDX 67 54 50 55 66 56 51 57 54 58 65 59 81 60 52 61 53 62 64 64
REMARK SMILES IDX 82 65 55 66 42 67 43 68 48 69 44 70 45 71 47 72 49 73 46 74
REMARK SMILES IDX 68 75 69 76 74 77 70 78 71 79 73 80 75 81 72 82 56 83 57 84
REMARK SMILES IDX 62 85 58 86 59 87 61 88 63 89 60 90
REMARK H PARENT 80 52 54 63
REMARK Flexibility Score: inf
ROOT
ATOM      1  C   UNL A   1      40.178  21.829  26.535  1.00  0.00     0.188 C 
ENDROOT
BRANCH   1   2
ATOM      2  O   UNL A   1      38.856  21.401  26.272  1.00  0.00    -0.376 OA
BRANCH   2   3
ATOM      3  C   UNL A   1      38.049  22.117  25.346  1.00  0.00     0.202 C 
BRANCH   3   4
ATOM      4  C   UNL A   1      36.544  21.838  25.193  1.00  0.00     0.261 C 
BRANCH   4   5
ATOM      5  O   UNL A   1      35.707  22.453  26.182  1.00  0.00    -0.460 OA
BRANCH   5   6
ATOM      6  C   UNL A   1      34.565  21.789  26.493  1.00  0.00     0.341 C 
ATOM      7  O   UNL A   1      34.238  21.368  27.591  1.00  0.00    -0.246 OA
BRANCH   6   8
ATOM      8  C   UNL A   1      33.607  21.894  25.377  1.00  0.00     0.097 A 
ATOM      9  C   UNL A   1      32.093  23.321  24.120  1.00  0.00     0.089 A 
ATOM     10  C   UNL A   1      31.953  22.297  23.168  1.00  0.00     0.025 A 
ATOM     11  C   UNL A   1      32.878  23.090  25.254  1.00  0.00     0.041 A 
ATOM     12  C   UNL A   1      32.613  21.073  23.341  1.00  0.00     0.041 A 
ATOM     13  C   UNL A   1      33.452  20.882  24.436  1.00  0.00     0.137 A 
ATOM     14  F   UNL A   1      34.078  19.707  24.574  1.00  0.00    -0.206 F 
BRANCH   9  15
ATOM     15  S   UNL A   1      31.036  24.769  23.981  1.00  0.00     0.264 S 
ATOM     16  O   UNL A   1      30.757  25.159  25.346  1.00  0.00    -0.201 OA
ATOM     17  O   UNL A   1      29.966  24.354  23.090  1.00  0.00    -0.201 OA
BRANCH  15  18
ATOM     18  N   UNL A   1      31.871  26.088  23.194  1.00  0.00    -0.269 N 
ATOM     19  C   UNL A   1      33.347  26.062  23.337  1.00  0.00     0.164 C 
BRANCH  18  20
ATOM     20  C   UNL A   1      31.234  27.418  23.461  1.00  0.00     0.052 A 
ATOM     21  C   UNL A   1      28.481  29.728  22.076  1.00  0.00     0.044 C 
ATOM     22  C   UNL A   1      29.622  29.204  22.894  1.00  0.00    -0.049 A 
ATOM     23  C   UNL A   1      30.118  30.001  23.914  1.00  0.00     0.007 A 
ATOM     24  C   UNL A   1      30.201  27.940  22.659  1.00  0.00     0.030 A 
ATOM     25  C   UNL A   1      31.156  29.535  24.704  1.00  0.00    -0.049 A 
ATOM     26  C   UNL A   1      31.661  30.407  25.797  1.00  0.00     0.044 C 
ATOM     27  C   UNL A   1      31.726  28.275  24.457  1.00  0.00     0.030 A 
ENDBRANCH  18  20
ENDBRANCH  15  18
ENDBRANCH   9  15
ENDBRANCH   6   8
ENDBRANCH   5   6
ENDBRANCH   4   5
ENDBRANCH   3   4
ENDBRANCH   2   3
ENDBRANCH   1   2
BRANCH   1  28
ATOM     28  C   UNL A   1      41.377  20.905  26.241  1.00  0.00     0.188 C 
BRANCH  28  29
ATOM     29  O   UNL A   1      42.658  21.343  26.616  1.00  0.00    -0.376 OA
BRANCH  29  30
ATOM     30  C   UNL A   1      43.750  21.266  25.717  1.00  0.00     0.202 C 
BRANCH  30  31
ATOM     31  C   UNL A   1      44.117  22.300  24.633  1.00  0.00     0.261 C 
BRANCH  31  32
ATOM     32  O   UNL A   1      43.483  23.579  24.667  1.00  0.00    -0.460 OA
BRANCH  32  33
ATOM     33  C   UNL A   1      44.271  24.610  25.048  1.00  0.00     0.338 C 
ATOM     34  O   UNL A   1      45.385  24.894  24.622  1.00  0.00    -0.246 OA
BRANCH  33  35
ATOM     35  C   UNL A   1      43.517  25.469  25.972  1.00  0.00     0.060 A 
ATOM     36  C   UNL A   1      43.786  26.845  26.011  1.00  0.00     0.016 A 
ATOM     37  C   UNL A   1      42.577  24.902  26.834  1.00  0.00     0.016 A 
ATOM     38  C   UNL A   1      43.119  27.660  26.929  1.00  0.00     0.010 A 
ATOM     39  C   UNL A   1      41.929  25.714  27.765  1.00  0.00     0.010 A 
ATOM     40  C   UNL A   1      42.212  27.090  27.834  1.00  0.00    -0.014 A 
BRANCH  40  41
ATOM     41  C   UNL A   1      41.678  27.879  28.973  1.00  0.00     0.031 A 
ATOM     42  C   UNL A   1      42.411  27.812  30.283  1.00  0.00     0.074 A 
ATOM     43  C   UNL A   1      40.534  28.577  28.855  1.00  0.00     0.049 A 
ATOM     44  N   UNL A   1      42.130  28.390  31.419  1.00  0.00    -0.248 NA
ATOM     45  C   UNL A   1      43.611  26.958  30.323  1.00  0.00     0.031 C 
ATOM     46  C   UNL A   1      39.762  28.700  27.622  1.00  0.00     0.029 A 
ATOM     47  N   UNL A   1      39.819  29.314  29.771  1.00  0.00    -0.354 N 
ATOM     48  C   UNL A   1      43.093  27.944  32.317  1.00  0.00     0.074 A 
ATOM     49  C   UNL A   1      43.966  27.045  31.597  1.00  0.00     0.031 C 
ATOM     50  C   UNL A   1      38.702  29.495  27.849  1.00  0.00     0.029 A 
ATOM     51  C   UNL A   1      38.690  29.915  29.252  1.00  0.00     0.049 A 
ATOM     52  H   UNL A   1      40.087  29.405  30.714  1.00  0.00     0.167 HD
ATOM     53  C   UNL A   1      43.222  28.251  33.628  1.00  0.00     0.037 A 
ATOM     54  C   UNL A   1      37.792  30.746  29.835  1.00  0.00     0.037 A 
ATOM     55  C   UNL A   1      42.350  29.160  34.322  1.00  0.00     0.049 A 
ATOM     56  C   UNL A   1      38.020  31.120  31.287  1.00  0.00     0.074 A 
ATOM     57  C   UNL A   1      42.397  29.552  35.647  1.00  0.00     0.029 A 
ATOM     58  N   UNL A   1      41.273  29.816  33.744  1.00  0.00    -0.354 N 
ATOM     59  N   UNL A   1      39.016  30.798  32.081  1.00  0.00    -0.248 NA
ATOM     60  C   UNL A   1      37.023  32.000  31.914  1.00  0.00     0.031 C 
ATOM     61  C   UNL A   1      41.313  30.400  35.886  1.00  0.00     0.029 A 
ATOM     62  C   UNL A   1      40.626  30.585  34.695  1.00  0.00     0.049 A 
ATOM     63  H   UNL A   1      41.009  29.746  32.798  1.00  0.00     0.167 HD
ATOM     64  C   UNL A   1      38.780  31.461  33.282  1.00  0.00     0.074 A 
ATOM     65  C   UNL A   1      37.585  32.254  33.087  1.00  0.00     0.031 C 
ATOM     66  C   UNL A   1      39.462  31.399  34.454  1.00  0.00     0.037 A 
BRANCH  53  67
ATOM     67  C   UNL A   1      44.311  27.577  34.409  1.00  0.00     0.057 A 
ATOM     68  C   UNL A   1      45.571  28.180  34.530  1.00  0.00     0.134 A 
ATOM     69  C   UNL A   1      44.146  26.311  34.982  1.00  0.00     0.134 A 
ATOM     70  F   UNL A   1      45.798  29.393  34.004  1.00  0.00    -0.206 F 
ATOM     71  C   UNL A   1      46.631  27.540  35.174  1.00  0.00     0.040 A 
ATOM     72  C   UNL A   1      45.191  25.671  35.654  1.00  0.00     0.040 A 
ATOM     73  F   UNL A   1      42.961  25.684  34.918  1.00  0.00    -0.206 F 
ATOM     74  C   UNL A   1      46.441  26.282  35.740  1.00  0.00     0.006 A 
ENDBRANCH  53  67
BRANCH  54  75
ATOM     75  C   UNL A   1      36.731  31.426  29.014  1.00  0.00     0.057 A 
ATOM     76  C   UNL A   1      36.796  32.779  28.657  1.00  0.00     0.134 A 
ATOM     77  C   UNL A   1      35.554  30.752  28.642  1.00  0.00     0.134 A 
ATOM     78  F   UNL A   1      37.896  33.498  28.926  1.00  0.00    -0.206 F 
ATOM     79  C   UNL A   1      35.715  33.443  28.065  1.00  0.00     0.040 A 
ATOM     80  C   UNL A   1      34.472  31.394  28.036  1.00  0.00     0.040 A 
ATOM     81  F   UNL A   1      35.421  29.438  28.871  1.00  0.00    -0.206 F 
ATOM     82  C   UNL A   1      34.542  32.755  27.768  1.00  0.00     0.006 A 
ENDBRANCH  54  75
BRANCH  66  83
ATOM     83  C   UNL A   1      38.940  32.202  35.613  1.00  0.00     0.057 A 
ATOM     84  C   UNL A   1      39.274  33.555  35.765  1.00  0.00     0.134 A 
ATOM     85  C   UNL A   1      38.191  31.605  36.636  1.00  0.00     0.134 A 
ATOM     86  F   UNL A   1      40.008  34.186  34.836  1.00  0.00    -0.206 F 
ATOM     87  C   UNL A   1      38.892  34.279  36.896  1.00  0.00     0.040 A 
ATOM     88  C   UNL A   1      37.773  32.328  37.754  1.00  0.00     0.040 A 
ATOM     89  F   UNL A   1      37.837  30.313  36.555  1.00  0.00    -0.206 F 
ATOM     90  C   UNL A   1      38.135  33.665  37.893  1.00  0.00     0.006 A 
ENDBRANCH  66  83
ENDBRANCH  40  41
ENDBRANCH  33  35
ENDBRANCH  32  33
ENDBRANCH  31  32
ENDBRANCH  30  31
ENDBRANCH  29  30
ENDBRANCH  28  29
ENDBRANCH   1  28
TORSDOF 20
ENDMDL
MODEL 3
REMARK VINA RESULT:     -11.1      1.550      2.108
REMARK SMILES Cc1cc(C)cc(N(C)S(=O)(=O)c2ccc(F)c(C(=O)OCCOCCOCCOC(=O)c3ccc(-c4c5nc(c(-c6c(F)cccc6F)c6ccc([nH]6)c(-c6c(F)cccc6F)c6nc(c(-c7c(F)cccc7F)c7ccc4[nH]7)C=C6)C=C5)cc3)c2)c1
REMARK SMILES IDX 25 1 24 2 23 3 22 4 21 5 19 6 20 7 18 8 13 9 14 10 87 11
REMARK SMILES IDX 15 12 16 13 17 14 10 15 11 16 12 17 8 18 9 19 7 20 1 21 2 22
REMARK SMILES IDX 3 23 88 24 4 25 5 26 6 27 26 28 27 29 28 30 29 31 30 32
REMARK SMILES IDX 31 33 32 34 33 35 34 36 86 37 35 38 85 39 36 40 37 41 38 42
REMARK SMILES IDX 79 43 39 44 84 45 78 46 80 47 40 48 83 49 77 50 76 51 41 53
REMARK SMILES IDX 67 54 50 55 66 56 51 57 54 58 65 59 81 60 52 61 53 62 64 64
REMARK SMILES IDX 82 65 55 66 42 67 43 68 48 69 44 70 45 71 47 72 49 73 46 74
REMARK SMILES IDX 68 75 69 76 74 77 70 78 71 79 73 80 75 81 72 82 56 83 57 84
REMARK SMILES IDX 62 85 58 86 59 87 61 88 63 89 60 90
REMARK H PARENT 80 52 54 63
REMARK Flexibility Score: inf
ROOT
ATOM      1  C   UNL A   1      34.847  32.041  27.854  1.00  0.00     0.188 C 
ENDROOT
BRANCH   1   2
ATOM      2  O   UNL A   1      33.634  31.422  27.474  1.00  0.00    -0.376 OA
BRANCH   2   3
ATOM      3  C   UNL A   1      33.530  30.004  27.473  1.00  0.00     0.202 C 
BRANCH   3   4
ATOM      4  C   UNL A   1      33.612  29.184  26.174  1.00  0.00     0.261 C 
BRANCH   4   5
ATOM      5  O   UNL A   1      32.952  29.768  25.042  1.00  0.00    -0.460 OA
BRANCH   5   6
ATOM      6  C   UNL A   1      31.928  29.051  24.514  1.00  0.00     0.341 C 
ATOM      7  O   UNL A   1      30.772  29.417  24.376  1.00  0.00    -0.246 OA
BRANCH   6   8
ATOM      8  C   UNL A   1      32.455  27.850  23.839  1.00  0.00     0.097 A 
ATOM      9  C   UNL A   1      32.312  25.439  23.569  1.00  0.00     0.089 A 
ATOM     10  C   UNL A   1      33.193  25.531  22.478  1.00  0.00     0.025 A 
ATOM     11  C   UNL A   1      31.993  26.598  24.282  1.00  0.00     0.041 A 
ATOM     12  C   UNL A   1      33.720  26.771  22.095  1.00  0.00     0.041 A 
ATOM     13  C   UNL A   1      33.335  27.929  22.766  1.00  0.00     0.137 A 
ATOM     14  F   UNL A   1      33.846  29.104  22.375  1.00  0.00    -0.206 F 
BRANCH   9  15
ATOM     15  S   UNL A   1      31.863  23.804  24.171  1.00  0.00     0.264 S 
ATOM     16  O   UNL A   1      32.110  22.916  23.055  1.00  0.00    -0.201 OA
ATOM     17  O   UNL A   1      30.525  23.971  24.711  1.00  0.00    -0.201 OA
BRANCH  15  18
ATOM     18  N   UNL A   1      32.891  23.317  25.498  1.00  0.00    -0.269 N 
ATOM     19  C   UNL A   1      33.817  24.368  25.986  1.00  0.00     0.164 C 
BRANCH  18  20
ATOM     20  C   UNL A   1      33.519  21.974  25.282  1.00  0.00     0.052 A 
ATOM     21  C   UNL A   1      36.984  20.347  24.857  1.00  0.00     0.044 C 
ATOM     22  C   UNL A   1      35.499  20.538  24.927  1.00  0.00    -0.049 A 
ATOM     23  C   UNL A   1      34.686  19.428  24.752  1.00  0.00     0.007 A 
ATOM     24  C   UNL A   1      34.911  21.797  25.158  1.00  0.00     0.030 A 
ATOM     25  C   UNL A   1      33.311  19.568  24.835  1.00  0.00    -0.049 A 
ATOM     26  C   UNL A   1      32.464  18.359  24.655  1.00  0.00     0.044 C 
ATOM     27  C   UNL A   1      32.737  20.830  25.064  1.00  0.00     0.030 A 
ENDBRANCH  18  20
ENDBRANCH  15  18
ENDBRANCH   9  15
ENDBRANCH   6   8
ENDBRANCH   5   6
ENDBRANCH   4   5
ENDBRANCH   3   4
ENDBRANCH   2   3
ENDBRANCH   1   2
BRANCH   1  28
ATOM     28  C   UNL A   1      34.918  33.568  28.064  1.00  0.00     0.188 C 
BRANCH  28  29
ATOM     29  O   UNL A   1      35.328  34.044  29.320  1.00  0.00    -0.376 OA
BRANCH  29  30
ATOM     30  C   UNL A   1      34.395  34.248  30.367  1.00  0.00     0.202 C 
BRANCH  30  31
ATOM     31  C   UNL A   1      34.519  33.736  31.816  1.00  0.00     0.261 C 
BRANCH  31  32
ATOM     32  O   UNL A   1      34.921  32.383  32.030  1.00  0.00    -0.460 OA
BRANCH  32  33
ATOM     33  C   UNL A   1      35.993  32.215  32.837  1.00  0.00     0.338 C 
ATOM     34  O   UNL A   1      36.089  32.517  34.022  1.00  0.00    -0.246 OA
BRANCH  33  35
ATOM     35  C   UNL A   1      37.020  31.451  32.113  1.00  0.00     0.060 A 
ATOM     36  C   UNL A   1      38.050  30.828  32.831  1.00  0.00     0.016 A 
ATOM     37  C   UNL A   1      36.986  31.395  30.719  1.00  0.00     0.016 A 
ATOM     38  C   UNL A   1      39.066  30.153  32.148  1.00  0.00     0.010 A 
ATOM     39  C   UNL A   1      38.012  30.738  30.039  1.00  0.00     0.010 A 
ATOM     40  C   UNL A   1      39.068  30.135  30.746  1.00  0.00    -0.014 A 
BRANCH  40  41
ATOM     41  C   UNL A   1      40.251  29.644  29.994  1.00  0.00     0.031 A 
ATOM     42  C   UNL A   1      41.391  30.597  29.772  1.00  0.00     0.074 A 
ATOM     43  C   UNL A   1      40.270  28.406  29.466  1.00  0.00     0.049 A 
ATOM     44  N   UNL A   1      42.514  30.410  29.133  1.00  0.00    -0.248 NA
ATOM     45  C   UNL A   1      41.234  31.953  30.329  1.00  0.00     0.031 C 
ATOM     46  C   UNL A   1      39.210  27.417  29.635  1.00  0.00     0.029 A 
ATOM     47  N   UNL A   1      41.204  27.764  28.687  1.00  0.00    -0.354 N 
ATOM     48  C   UNL A   1      43.179  31.629  29.177  1.00  0.00     0.074 A 
ATOM     49  C   UNL A   1      42.337  32.551  29.904  1.00  0.00     0.031 C 
ATOM     50  C   UNL A   1      39.569  26.282  29.011  1.00  0.00     0.029 A 
ATOM     51  C   UNL A   1      40.870  26.465  28.363  1.00  0.00     0.049 A 
ATOM     52  H   UNL A   1      42.039  28.192  28.387  1.00  0.00     0.167 HD
ATOM     53  C   UNL A   1      44.381  31.946  28.644  1.00  0.00     0.037 A 
ATOM     54  C   UNL A   1      41.562  25.528  27.670  1.00  0.00     0.037 A 
ATOM     55  C   UNL A   1      45.212  31.008  27.936  1.00  0.00     0.049 A 
ATOM     56  C   UNL A   1      42.937  25.907  27.156  1.00  0.00     0.074 A 
ATOM     57  C   UNL A   1      46.453  31.220  27.365  1.00  0.00     0.029 A 
ATOM     58  N   UNL A   1      44.880  29.681  27.703  1.00  0.00    -0.354 N 
ATOM     59  N   UNL A   1      43.610  27.023  27.327  1.00  0.00    -0.248 NA
ATOM     60  C   UNL A   1      43.665  24.890  26.382  1.00  0.00     0.031 C 
ATOM     61  C   UNL A   1      46.846  30.037  26.736  1.00  0.00     0.029 A 
ATOM     62  C   UNL A   1      45.878  29.071  26.966  1.00  0.00     0.049 A 
ATOM     63  H   UNL A   1      44.057  29.240  28.017  1.00  0.00     0.167 HD
ATOM     64  C   UNL A   1      44.844  26.826  26.715  1.00  0.00     0.074 A 
ATOM     65  C   UNL A   1      44.850  25.462  26.229  1.00  0.00     0.031 C 
ATOM     66  C   UNL A   1      45.871  27.695  26.537  1.00  0.00     0.037 A 
BRANCH  53  67
ATOM     67  C   UNL A   1      44.858  33.364  28.764  1.00  0.00     0.057 A 
ATOM     68  C   UNL A   1      45.620  33.762  29.872  1.00  0.00     0.134 A 
ATOM     69  C   UNL A   1      44.512  34.350  27.834  1.00  0.00     0.134 A 
ATOM     70  F   UNL A   1      45.986  32.867  30.803  1.00  0.00    -0.206 F 
ATOM     71  C   UNL A   1      46.003  35.090  30.059  1.00  0.00     0.040 A 
ATOM     72  C   UNL A   1      44.913  35.679  27.995  1.00  0.00     0.040 A 
ATOM     73  F   UNL A   1      43.799  34.035  26.742  1.00  0.00    -0.206 F 
ATOM     74  C   UNL A   1      45.651  36.053  29.117  1.00  0.00     0.006 A 
ENDBRANCH  53  67
BRANCH  54  75
ATOM     75  C   UNL A   1      41.067  24.109  27.595  1.00  0.00     0.057 A 
ATOM     76  C   UNL A   1      41.662  23.058  28.304  1.00  0.00     0.134 A 
ATOM     77  C   UNL A   1      40.029  23.745  26.718  1.00  0.00     0.134 A 
ATOM     78  F   UNL A   1      42.630  23.307  29.199  1.00  0.00    -0.206 F 
ATOM     79  C   UNL A   1      41.318  21.720  28.075  1.00  0.00     0.040 A 
ATOM     80  C   UNL A   1      39.662  22.418  26.489  1.00  0.00     0.040 A 
ATOM     81  F   UNL A   1      39.345  24.683  26.047  1.00  0.00    -0.206 F 
ATOM     82  C   UNL A   1      40.327  21.395  27.153  1.00  0.00     0.006 A 
ENDBRANCH  54  75
BRANCH  66  83
ATOM     83  C   UNL A   1      47.081  27.208  25.787  1.00  0.00     0.057 A 
ATOM     84  C   UNL A   1      48.148  26.595  26.456  1.00  0.00     0.134 A 
ATOM     85  C   UNL A   1      47.232  27.445  24.414  1.00  0.00     0.134 A 
ATOM     86  F   UNL A   1      48.082  26.358  27.775  1.00  0.00    -0.206 F 
ATOM     87  C   UNL A   1      49.324  26.246  25.790  1.00  0.00     0.040 A 
ATOM     88  C   UNL A   1      48.388  27.067  23.730  1.00  0.00     0.040 A 
ATOM     89  F   UNL A   1      46.248  28.029  23.712  1.00  0.00    -0.206 F 
ATOM     90  C   UNL A   1      49.443  26.477  24.421  1.00  0.00     0.006 A 
ENDBRANCH  66  83
ENDBRANCH  40  41
ENDBRANCH  33  35
ENDBRANCH  32  33
ENDBRANCH  31  32
ENDBRANCH  30  31
ENDBRANCH  29  30
ENDBRANCH  28  29
ENDBRANCH   1  28
TORSDOF 20
ENDMDL
