MODEL 1
REMARK VINA RESULT:     -11.3      0.000      0.000
REMARK SMILES Cc1cc2c(c(C)c1Cl)C=C(C(=O)OCCOCCOCCOC(=O)c1ccc(-c3c4nc(c(-c5c(F)cccc5F)c5ccc([nH]5)c(-c5c(F)cccc5F)c5nc(c(-c6c(F)cccc6F)c6ccc3[nH]6)C=C5)C=C4)cc1)[C@@H](C(F)(F)F)O2
REMARK SMILES IDX 19 1 18 2 17 3 16 4 15 5 14 6 12 7 13 8 11 9 1 10 2 11 3 12
REMARK SMILES IDX 8 13 4 14 6 15 9 16 5 17 85 18 7 19 10 20 80 21 81 22 82 23
REMARK SMILES IDX 83 24 84 25 20 26 21 27 22 28 23 29 24 30 25 31 26 32 27 33
REMARK SMILES IDX 79 34 28 35 78 36 29 37 30 38 31 39 72 40 32 41 77 42 71 43
REMARK SMILES IDX 73 44 33 45 76 46 70 47 69 48 34 50 60 51 43 52 59 53 44 54
REMARK SMILES IDX 47 55 58 56 74 57 45 58 46 59 57 61 75 62 48 63 35 64 36 65
REMARK SMILES IDX 41 66 37 67 38 68 40 69 42 70 39 71 61 72 62 73 67 74 63 75
REMARK SMILES IDX 64 76 66 77 68 78 65 79 49 80 50 81 55 82 51 83 52 84 54 85
REMARK SMILES IDX 56 86 53 87
REMARK H PARENT 73 49 47 60
REMARK Flexibility Score: inf
ROOT
ATOM      1  C   UNL A   1      41.649  20.105  26.809  1.00  0.00     0.188 C 
ENDROOT
BRANCH   1   2
ATOM      2  C   UNL A   1      40.480  21.098  26.974  1.00  0.00     0.188 C 
BRANCH   2   3
ATOM      3  O   UNL A   1      39.424  21.096  26.041  1.00  0.00    -0.376 OA
BRANCH   3   4
ATOM      4  C   UNL A   1      38.671  22.267  25.778  1.00  0.00     0.202 C 
BRANCH   4   5
ATOM      5  C   UNL A   1      37.138  22.311  25.658  1.00  0.00     0.261 C 
BRANCH   5   6
ATOM      6  O   UNL A   1      36.513  23.578  25.880  1.00  0.00    -0.460 OA
BRANCH   6   7
ATOM      7  C   UNL A   1      35.162  23.546  25.987  1.00  0.00     0.338 C 
ATOM      8  O   UNL A   1      34.507  22.877  26.769  1.00  0.00    -0.246 OA
BRANCH   7   9
ATOM      9  C   UNL A   1      34.573  24.578  25.111  1.00  0.00     0.087 C 
ATOM     10  C   UNL A   1      30.960  29.224  22.450  1.00  0.00     0.046 C 
ATOM     11  C   UNL A   1      31.908  28.435  23.315  1.00  0.00    -0.028 A 
ATOM     12  C   UNL A   1      32.529  27.311  22.760  1.00  0.00     0.052 A 
ATOM     13  C   UNL A   1      32.125  28.730  24.675  1.00  0.00     0.047 A 
ATOM     14  C   UNL A   1      33.303  26.459  23.545  1.00  0.00     0.128 A 
ATOM     15  C   UNL A   1      32.944  27.902  25.479  1.00  0.00    -0.021 A 
ATOM     16  Cl  UNL A   1      31.329  30.114  25.363  1.00  0.00    -0.084 Cl
ATOM     17  C   UNL A   1      33.486  26.722  24.907  1.00  0.00     0.022 A 
ATOM     18  O   UNL A   1      33.832  25.388  22.883  1.00  0.00    -0.475 OA
ATOM     19  C   UNL A   1      33.235  28.236  26.926  1.00  0.00     0.047 C 
ATOM     20  C   UNL A   1      34.170  25.709  25.707  1.00  0.00     0.027 C 
ATOM     21  C   UNL A   1      34.456  24.319  23.638  1.00  0.00     0.316 C 
BRANCH  21  22
ATOM     22  C   UNL A   1      33.716  23.009  23.333  1.00  0.00     0.430 C 
ATOM     23  F   UNL A   1      32.646  22.846  24.148  1.00  0.00    -0.167 F 
ATOM     24  F   UNL A   1      33.244  22.984  22.064  1.00  0.00    -0.167 F 
ATOM     25  F   UNL A   1      34.514  21.929  23.489  1.00  0.00    -0.167 F 
ENDBRANCH  21  22
ENDBRANCH   7   9
ENDBRANCH   6   7
ENDBRANCH   5   6
ENDBRANCH   4   5
ENDBRANCH   3   4
ENDBRANCH   2   3
ENDBRANCH   1   2
BRANCH   1  26
ATOM     26  O   UNL A   1      42.276  19.959  25.556  1.00  0.00    -0.376 OA
BRANCH  26  27
ATOM     27  C   UNL A   1      43.665  20.221  25.431  1.00  0.00     0.202 C 
BRANCH  27  28
ATOM     28  C   UNL A   1      44.274  21.625  25.237  1.00  0.00     0.261 C 
BRANCH  28  29
ATOM     29  O   UNL A   1      43.376  22.741  25.276  1.00  0.00    -0.460 OA
BRANCH  29  30
ATOM     30  C   UNL A   1      43.963  23.965  25.203  1.00  0.00     0.338 C 
ATOM     31  O   UNL A   1      44.802  24.339  24.409  1.00  0.00    -0.246 OA
BRANCH  30  32
ATOM     32  C   UNL A   1      43.264  24.881  26.128  1.00  0.00     0.060 A 
ATOM     33  C   UNL A   1      43.753  26.187  26.273  1.00  0.00     0.016 A 
ATOM     34  C   UNL A   1      42.154  24.455  26.856  1.00  0.00     0.016 A 
ATOM     35  C   UNL A   1      43.128  27.075  27.147  1.00  0.00     0.010 A 
ATOM     36  C   UNL A   1      41.549  25.336  27.759  1.00  0.00     0.010 A 
ATOM     37  C   UNL A   1      42.046  26.643  27.922  1.00  0.00    -0.014 A 
BRANCH  37  38
ATOM     38  C   UNL A   1      41.586  27.491  29.048  1.00  0.00     0.031 A 
ATOM     39  C   UNL A   1      42.353  27.430  30.339  1.00  0.00     0.074 A 
ATOM     40  C   UNL A   1      40.556  28.346  28.915  1.00  0.00     0.049 A 
ATOM     41  N   UNL A   1      42.151  28.079  31.457  1.00  0.00    -0.248 NA
ATOM     42  C   UNL A   1      43.509  26.518  30.371  1.00  0.00     0.031 C 
ATOM     43  C   UNL A   1      39.771  28.544  27.699  1.00  0.00     0.029 A 
ATOM     44  N   UNL A   1      39.998  29.214  29.822  1.00  0.00    -0.354 N 
ATOM     45  C   UNL A   1      43.158  27.661  32.318  1.00  0.00     0.074 A 
ATOM     46  C   UNL A   1      43.944  26.675  31.612  1.00  0.00     0.031 C 
ATOM     47  C   UNL A   1      38.831  29.477  27.936  1.00  0.00     0.029 A 
ATOM     48  C   UNL A   1      38.928  29.919  29.328  1.00  0.00     0.049 A 
ATOM     49  H   UNL A   1      40.334  29.320  30.741  1.00  0.00     0.167 HD
ATOM     50  C   UNL A   1      43.418  28.078  33.578  1.00  0.00     0.037 A 
ATOM     51  C   UNL A   1      38.112  30.805  29.935  1.00  0.00     0.037 A 
ATOM     52  C   UNL A   1      42.636  29.055  34.284  1.00  0.00     0.049 A 
ATOM     53  C   UNL A   1      38.349  31.162  31.382  1.00  0.00     0.074 A 
ATOM     54  C   UNL A   1      42.823  29.541  35.566  1.00  0.00     0.029 A 
ATOM     55  N   UNL A   1      41.513  29.688  33.774  1.00  0.00    -0.354 N 
ATOM     56  N   UNL A   1      39.316  30.782  32.181  1.00  0.00    -0.248 NA
ATOM     57  C   UNL A   1      37.376  32.069  32.014  1.00  0.00     0.031 C 
ATOM     58  C   UNL A   1      41.781  30.424  35.853  1.00  0.00     0.029 A 
ATOM     59  C   UNL A   1      40.975  30.532  34.730  1.00  0.00     0.049 A 
ATOM     60  H   UNL A   1      41.153  29.556  32.867  1.00  0.00     0.167 HD
ATOM     61  C   UNL A   1      39.083  31.415  33.397  1.00  0.00     0.074 A 
ATOM     62  C   UNL A   1      37.891  32.220  33.229  1.00  0.00     0.031 C 
ATOM     63  C   UNL A   1      39.792  31.334  34.550  1.00  0.00     0.037 A 
BRANCH  50  64
ATOM     64  C   UNL A   1      44.592  27.469  34.282  1.00  0.00     0.057 A 
ATOM     65  C   UNL A   1      45.863  28.055  34.238  1.00  0.00     0.134 A 
ATOM     66  C   UNL A   1      44.439  26.312  35.058  1.00  0.00     0.134 A 
ATOM     67  F   UNL A   1      46.079  29.154  33.500  1.00  0.00    -0.206 F 
ATOM     68  C   UNL A   1      46.944  27.506  34.928  1.00  0.00     0.040 A 
ATOM     69  C   UNL A   1      45.506  25.769  35.775  1.00  0.00     0.040 A 
ATOM     70  F   UNL A   1      43.248  25.703  35.145  1.00  0.00    -0.206 F 
ATOM     71  C   UNL A   1      46.764  26.365  35.708  1.00  0.00     0.006 A 
ENDBRANCH  50  64
BRANCH  51  72
ATOM     72  C   UNL A   1      36.987  31.418  29.183  1.00  0.00     0.057 A 
ATOM     73  C   UNL A   1      35.828  30.690  28.892  1.00  0.00     0.134 A 
ATOM     74  C   UNL A   1      37.047  32.740  28.721  1.00  0.00     0.134 A 
ATOM     75  F   UNL A   1      35.720  29.411  29.279  1.00  0.00    -0.206 F 
ATOM     76  C   UNL A   1      34.774  31.249  28.166  1.00  0.00     0.040 A 
ATOM     77  C   UNL A   1      35.990  33.320  28.018  1.00  0.00     0.040 A 
ATOM     78  F   UNL A   1      38.133  33.492  28.959  1.00  0.00    -0.206 F 
ATOM     79  C   UNL A   1      34.851  32.572  27.733  1.00  0.00     0.006 A 
ENDBRANCH  51  72
BRANCH  63  80
ATOM     80  C   UNL A   1      39.318  32.130  35.732  1.00  0.00     0.057 A 
ATOM     81  C   UNL A   1      39.709  33.460  35.925  1.00  0.00     0.134 A 
ATOM     82  C   UNL A   1      38.367  31.601  36.616  1.00  0.00     0.134 A 
ATOM     83  F   UNL A   1      40.621  34.023  35.119  1.00  0.00    -0.206 F 
ATOM     84  C   UNL A   1      39.171  34.237  36.952  1.00  0.00     0.040 A 
ATOM     85  C   UNL A   1      37.802  32.376  37.631  1.00  0.00     0.040 A 
ATOM     86  F   UNL A   1      37.938  30.337  36.480  1.00  0.00    -0.206 F 
ATOM     87  C   UNL A   1      38.204  33.699  37.800  1.00  0.00     0.006 A 
ENDBRANCH  63  80
ENDBRANCH  37  38
ENDBRANCH  30  32
ENDBRANCH  29  30
ENDBRANCH  28  29
ENDBRANCH  27  28
ENDBRANCH  26  27
ENDBRANCH   1  26
TORSDOF 18
ENDMDL
MODEL 2
REMARK VINA RESULT:     -10.9      0.834      6.148
REMARK SMILES Cc1cc2c(c(C)c1Cl)C=C(C(=O)OCCOCCOCCOC(=O)c1ccc(-c3c4nc(c(-c5c(F)cccc5F)c5ccc([nH]5)c(-c5c(F)cccc5F)c5nc(c(-c6c(F)cccc6F)c6ccc3[nH]6)C=C5)C=C4)cc1)[C@@H](C(F)(F)F)O2
REMARK SMILES IDX 19 1 18 2 17 3 16 4 15 5 14 6 12 7 13 8 11 9 1 10 2 11 3 12
REMARK SMILES IDX 8 13 4 14 6 15 9 16 5 17 85 18 7 19 10 20 80 21 81 22 82 23
REMARK SMILES IDX 83 24 84 25 20 26 21 27 22 28 23 29 24 30 25 31 26 32 27 33
REMARK SMILES IDX 79 34 28 35 78 36 29 37 30 38 31 39 72 40 32 41 77 42 71 43
REMARK SMILES IDX 73 44 33 45 76 46 70 47 69 48 34 50 60 51 43 52 59 53 44 54
REMARK SMILES IDX 47 55 58 56 74 57 45 58 46 59 57 61 75 62 48 63 35 64 36 65
REMARK SMILES IDX 41 66 37 67 38 68 40 69 42 70 39 71 61 72 62 73 67 74 63 75
REMARK SMILES IDX 64 76 66 77 68 78 65 79 49 80 50 81 55 82 51 83 52 84 54 85
REMARK SMILES IDX 56 86 53 87
REMARK H PARENT 73 49 47 60
REMARK Flexibility Score: inf
ROOT
ATOM      1  C   UNL A   1      40.789  21.588  27.500  1.00  0.00     0.188 C 
ENDROOT
BRANCH   1   2
ATOM      2  C   UNL A   1      39.784  22.160  26.479  1.00  0.00     0.188 C 
BRANCH   2   3
ATOM      3  O   UNL A   1      38.893  21.294  25.815  1.00  0.00    -0.376 OA
BRANCH   3   4
ATOM      4  C   UNL A   1      37.752  21.790  25.137  1.00  0.00     0.202 C 
BRANCH   4   5
ATOM      5  C   UNL A   1      36.347  21.897  25.755  1.00  0.00     0.261 C 
BRANCH   5   6
ATOM      6  O   UNL A   1      35.423  22.771  25.100  1.00  0.00    -0.460 OA
BRANCH   6   7
ATOM      7  C   UNL A   1      34.429  23.254  25.885  1.00  0.00     0.338 C 
ATOM      8  O   UNL A   1      34.209  22.961  27.049  1.00  0.00    -0.246 OA
BRANCH   7   9
ATOM      9  C   UNL A   1      33.718  24.334  25.172  1.00  0.00     0.087 C 
ATOM     10  C   UNL A   1      30.153  29.455  23.502  1.00  0.00     0.046 C 
ATOM     11  C   UNL A   1      31.223  28.541  24.039  1.00  0.00    -0.028 A 
ATOM     12  C   UNL A   1      31.386  27.288  23.437  1.00  0.00     0.052 A 
ATOM     13  C   UNL A   1      32.002  28.859  25.168  1.00  0.00     0.047 A 
ATOM     14  C   UNL A   1      32.257  26.343  23.975  1.00  0.00     0.128 A 
ATOM     15  C   UNL A   1      32.926  27.930  25.703  1.00  0.00    -0.021 A 
ATOM     16  Cl  UNL A   1      31.776  30.408  25.925  1.00  0.00    -0.084 Cl
ATOM     17  C   UNL A   1      33.000  26.636  25.123  1.00  0.00     0.022 A 
ATOM     18  O   UNL A   1      32.302  25.154  23.304  1.00  0.00    -0.475 OA
ATOM     19  C   UNL A   1      33.812  28.275  26.879  1.00  0.00     0.047 C 
ATOM     20  C   UNL A   1      33.771  25.552  25.728  1.00  0.00     0.027 C 
ATOM     21  C   UNL A   1      32.991  24.024  23.896  1.00  0.00     0.316 C 
BRANCH  21  22
ATOM     22  C   UNL A   1      31.989  22.873  24.060  1.00  0.00     0.430 C 
ATOM     23  F   UNL A   1      32.605  21.669  23.980  1.00  0.00    -0.167 F 
ATOM     24  F   UNL A   1      31.372  22.913  25.264  1.00  0.00    -0.167 F 
ATOM     25  F   UNL A   1      31.027  22.901  23.111  1.00  0.00    -0.167 F 
ENDBRANCH  21  22
ENDBRANCH   7   9
ENDBRANCH   6   7
ENDBRANCH   5   6
ENDBRANCH   4   5
ENDBRANCH   3   4
ENDBRANCH   2   3
ENDBRANCH   1   2
BRANCH   1  26
ATOM     26  O   UNL A   1      41.835  20.752  27.063  1.00  0.00    -0.376 OA
BRANCH  26  27
ATOM     27  C   UNL A   1      42.481  21.022  25.829  1.00  0.00     0.202 C 
BRANCH  27  28
ATOM     28  C   UNL A   1      43.504  22.155  25.609  1.00  0.00     0.261 C 
BRANCH  28  29
ATOM     29  O   UNL A   1      43.010  23.391  25.079  1.00  0.00    -0.460 OA
BRANCH  29  30
ATOM     30  C   UNL A   1      43.812  24.472  25.273  1.00  0.00     0.338 C 
ATOM     31  O   UNL A   1      44.787  24.797  24.626  1.00  0.00    -0.246 OA
BRANCH  30  32
ATOM     32  C   UNL A   1      43.193  25.345  26.292  1.00  0.00     0.060 A 
ATOM     33  C   UNL A   1      43.778  26.593  26.548  1.00  0.00     0.016 A 
ATOM     34  C   UNL A   1      42.064  24.932  26.999  1.00  0.00     0.016 A 
ATOM     35  C   UNL A   1      43.230  27.437  27.512  1.00  0.00     0.010 A 
ATOM     36  C   UNL A   1      41.536  25.766  27.991  1.00  0.00     0.010 A 
ATOM     37  C   UNL A   1      42.128  27.012  28.265  1.00  0.00    -0.014 A 
BRANCH  37  38
ATOM     38  C   UNL A   1      41.746  27.782  29.472  1.00  0.00     0.031 A 
ATOM     39  C   UNL A   1      40.573  28.718  29.373  1.00  0.00     0.074 A 
ATOM     40  C   UNL A   1      42.376  27.612  30.649  1.00  0.00     0.049 A 
ATOM     41  N   UNL A   1      40.046  29.489  30.289  1.00  0.00    -0.248 NA
ATOM     42  C   UNL A   1      39.901  28.788  28.065  1.00  0.00     0.031 C 
ATOM     43  C   UNL A   1      43.485  26.693  30.891  1.00  0.00     0.029 A 
ATOM     44  N   UNL A   1      42.162  28.212  31.867  1.00  0.00    -0.354 N 
ATOM     45  C   UNL A   1      38.977  30.124  29.671  1.00  0.00     0.074 A 
ATOM     46  C   UNL A   1      38.955  29.684  28.295  1.00  0.00     0.031 C 
ATOM     47  C   UNL A   1      43.855  26.788  32.181  1.00  0.00     0.029 A 
ATOM     48  C   UNL A   1      43.031  27.798  32.847  1.00  0.00     0.049 A 
ATOM     49  H   UNL A   1      41.452  28.876  32.022  1.00  0.00     0.167 HD
ATOM     50  C   UNL A   1      38.081  30.983  30.208  1.00  0.00     0.037 A 
ATOM     51  C   UNL A   1      43.154  28.200  34.129  1.00  0.00     0.037 A 
ATOM     52  C   UNL A   1      38.103  31.426  31.575  1.00  0.00     0.049 A 
ATOM     53  C   UNL A   1      42.218  29.252  34.671  1.00  0.00     0.074 A 
ATOM     54  C   UNL A   1      37.235  32.296  32.210  1.00  0.00     0.029 A 
ATOM     55  N   UNL A   1      39.047  31.042  32.515  1.00  0.00    -0.354 N 
ATOM     56  N   UNL A   1      41.196  29.831  34.088  1.00  0.00    -0.248 NA
ATOM     57  C   UNL A   1      42.456  29.712  36.049  1.00  0.00     0.031 C 
ATOM     58  C   UNL A   1      37.686  32.484  33.517  1.00  0.00     0.029 A 
ATOM     59  C   UNL A   1      38.803  31.688  33.715  1.00  0.00     0.049 A 
ATOM     60  H   UNL A   1      39.780  30.405  32.352  1.00  0.00     0.167 HD
ATOM     61  C   UNL A   1      40.659  30.702  35.029  1.00  0.00     0.074 A 
ATOM     62  C   UNL A   1      41.456  30.566  36.229  1.00  0.00     0.031 C 
ATOM     63  C   UNL A   1      39.600  31.541  34.906  1.00  0.00     0.037 A 
BRANCH  50  64
ATOM     64  C   UNL A   1      37.003  31.512  29.311  1.00  0.00     0.057 A 
ATOM     65  C   UNL A   1      35.857  30.763  29.015  1.00  0.00     0.134 A 
ATOM     66  C   UNL A   1      37.087  32.806  28.780  1.00  0.00     0.134 A 
ATOM     67  F   UNL A   1      35.724  29.512  29.480  1.00  0.00    -0.206 F 
ATOM     68  C   UNL A   1      34.838  31.276  28.212  1.00  0.00     0.040 A 
ATOM     69  C   UNL A   1      36.062  33.341  27.998  1.00  0.00     0.040 A 
ATOM     70  F   UNL A   1      38.156  33.576  29.027  1.00  0.00    -0.206 F 
ATOM     71  C   UNL A   1      34.935  32.573  27.709  1.00  0.00     0.006 A 
ENDBRANCH  50  64
BRANCH  51  72
ATOM     72  C   UNL A   1      44.210  27.614  34.995  1.00  0.00     0.057 A 
ATOM     73  C   UNL A   1      45.510  28.130  35.002  1.00  0.00     0.134 A 
ATOM     74  C   UNL A   1      43.952  26.514  35.823  1.00  0.00     0.134 A 
ATOM     75  F   UNL A   1      45.831  29.163  34.209  1.00  0.00    -0.206 F 
ATOM     76  C   UNL A   1      46.516  27.573  35.794  1.00  0.00     0.040 A 
ATOM     77  C   UNL A   1      44.940  25.963  36.640  1.00  0.00     0.040 A 
ATOM     78  F   UNL A   1      42.728  25.965  35.858  1.00  0.00    -0.206 F 
ATOM     79  C   UNL A   1      46.229  26.489  36.623  1.00  0.00     0.006 A 
ENDBRANCH  51  72
BRANCH  63  80
ATOM     80  C   UNL A   1      39.223  32.385  36.090  1.00  0.00     0.057 A 
ATOM     81  C   UNL A   1      39.696  33.694  36.237  1.00  0.00     0.134 A 
ATOM     82  C   UNL A   1      38.283  31.929  37.025  1.00  0.00     0.134 A 
ATOM     83  F   UNL A   1      40.602  34.189  35.380  1.00  0.00    -0.206 F 
ATOM     84  C   UNL A   1      39.247  34.521  37.268  1.00  0.00     0.040 A 
ATOM     85  C   UNL A   1      37.807  32.754  38.045  1.00  0.00     0.040 A 
ATOM     86  F   UNL A   1      37.778  30.689  36.935  1.00  0.00    -0.206 F 
ATOM     87  C   UNL A   1      38.289  34.056  38.167  1.00  0.00     0.006 A 
ENDBRANCH  63  80
ENDBRANCH  37  38
ENDBRANCH  30  32
ENDBRANCH  29  30
ENDBRANCH  28  29
ENDBRANCH  27  28
ENDBRANCH  26  27
ENDBRANCH   1  26
TORSDOF 18
ENDMDL
MODEL 3
REMARK VINA RESULT:     -10.9      4.586      9.794
REMARK SMILES Cc1cc2c(c(C)c1Cl)C=C(C(=O)OCCOCCOCCOC(=O)c1ccc(-c3c4nc(c(-c5c(F)cccc5F)c5ccc([nH]5)c(-c5c(F)cccc5F)c5nc(c(-c6c(F)cccc6F)c6ccc3[nH]6)C=C5)C=C4)cc1)[C@@H](C(F)(F)F)O2
REMARK SMILES IDX 19 1 18 2 17 3 16 4 15 5 14 6 12 7 13 8 11 9 1 10 2 11 3 12
REMARK SMILES IDX 8 13 4 14 6 15 9 16 5 17 85 18 7 19 10 20 80 21 81 22 82 23
REMARK SMILES IDX 83 24 84 25 20 26 21 27 22 28 23 29 24 30 25 31 26 32 27 33
REMARK SMILES IDX 79 34 28 35 78 36 29 37 30 38 31 39 72 40 32 41 77 42 71 43
REMARK SMILES IDX 73 44 33 45 76 46 70 47 69 48 34 50 60 51 43 52 59 53 44 54
REMARK SMILES IDX 47 55 58 56 74 57 45 58 46 59 57 61 75 62 48 63 35 64 36 65
REMARK SMILES IDX 41 66 37 67 38 68 40 69 42 70 39 71 61 72 62 73 67 74 63 75
REMARK SMILES IDX 64 76 66 77 68 78 65 79 49 80 50 81 55 82 51 83 52 84 54 85
REMARK SMILES IDX 56 86 53 87
REMARK H PARENT 73 49 47 60
REMARK Flexibility Score: inf
ROOT
ATOM      1  C   UNL A   1      34.463  33.729  28.524  1.00  0.00     0.188 C 
ENDROOT
BRANCH   1   2
ATOM      2  C   UNL A   1      34.280  32.206  28.359  1.00  0.00     0.188 C 
BRANCH   2   3
ATOM      3  O   UNL A   1      33.432  31.709  27.350  1.00  0.00    -0.376 OA
BRANCH   3   4
ATOM      4  C   UNL A   1      33.282  30.317  27.134  1.00  0.00     0.202 C 
BRANCH   4   5
ATOM      5  C   UNL A   1      32.640  29.691  25.884  1.00  0.00     0.261 C 
BRANCH   5   6
ATOM      6  O   UNL A   1      32.514  28.267  25.872  1.00  0.00    -0.460 OA
BRANCH   6   7
ATOM      7  C   UNL A   1      33.236  27.630  24.918  1.00  0.00     0.338 C 
ATOM      8  O   UNL A   1      34.024  28.138  24.138  1.00  0.00    -0.246 OA
BRANCH   7   9
ATOM      9  C   UNL A   1      33.058  26.170  25.057  1.00  0.00     0.087 C 
ATOM     10  C   UNL A   1      33.498  19.738  24.674  1.00  0.00     0.046 C 
ATOM     11  C   UNL A   1      33.734  21.197  24.965  1.00  0.00    -0.028 A 
ATOM     12  C   UNL A   1      32.626  22.049  25.014  1.00  0.00     0.052 A 
ATOM     13  C   UNL A   1      35.023  21.748  25.103  1.00  0.00     0.047 A 
ATOM     14  C   UNL A   1      32.788  23.428  25.137  1.00  0.00     0.128 A 
ATOM     15  C   UNL A   1      35.206  23.141  25.273  1.00  0.00    -0.021 A 
ATOM     16  Cl  UNL A   1      36.396  20.685  25.015  1.00  0.00    -0.084 Cl
ATOM     17  C   UNL A   1      34.066  23.986  25.229  1.00  0.00     0.022 A 
ATOM     18  O   UNL A   1      31.625  24.145  25.148  1.00  0.00    -0.475 OA
ATOM     19  C   UNL A   1      36.578  23.744  25.481  1.00  0.00     0.047 C 
ATOM     20  C   UNL A   1      34.175  25.443  25.192  1.00  0.00     0.027 C 
ATOM     21  C   UNL A   1      31.675  25.590  25.039  1.00  0.00     0.316 C 
BRANCH  21  22
ATOM     22  C   UNL A   1      30.880  26.013  23.796  1.00  0.00     0.430 C 
ATOM     23  F   UNL A   1      30.303  27.227  23.970  1.00  0.00    -0.167 F 
ATOM     24  F   UNL A   1      31.673  26.114  22.704  1.00  0.00    -0.167 F 
ATOM     25  F   UNL A   1      29.896  25.134  23.501  1.00  0.00    -0.167 F 
ENDBRANCH  21  22
ENDBRANCH   7   9
ENDBRANCH   6   7
ENDBRANCH   5   6
ENDBRANCH   4   5
ENDBRANCH   3   4
ENDBRANCH   2   3
ENDBRANCH   1   2
BRANCH   1  26
ATOM     26  O   UNL A   1      35.139  34.238  29.651  1.00  0.00    -0.376 OA
BRANCH  26  27
ATOM     27  C   UNL A   1      34.403  34.586  30.814  1.00  0.00     0.202 C 
BRANCH  27  28
ATOM     28  C   UNL A   1      34.309  33.711  32.081  1.00  0.00     0.261 C 
BRANCH  28  29
ATOM     29  O   UNL A   1      34.851  32.387  32.006  1.00  0.00    -0.460 OA
BRANCH  29  30
ATOM     30  C   UNL A   1      35.926  32.150  32.804  1.00  0.00     0.338 C 
ATOM     31  O   UNL A   1      36.012  32.325  34.003  1.00  0.00    -0.246 OA
BRANCH  30  32
ATOM     32  C   UNL A   1      36.949  31.427  32.020  1.00  0.00     0.060 A 
ATOM     33  C   UNL A   1      37.957  30.738  32.709  1.00  0.00     0.016 A 
ATOM     34  C   UNL A   1      36.926  31.444  30.626  1.00  0.00     0.016 A 
ATOM     35  C   UNL A   1      38.946  30.057  32.002  1.00  0.00     0.010 A 
ATOM     36  C   UNL A   1      37.940  30.789  29.918  1.00  0.00     0.010 A 
ATOM     37  C   UNL A   1      38.965  30.110  30.603  1.00  0.00    -0.014 A 
BRANCH  37  38
ATOM     38  C   UNL A   1      40.173  29.640  29.884  1.00  0.00     0.031 A 
ATOM     39  C   UNL A   1      41.305  30.610  29.692  1.00  0.00     0.074 A 
ATOM     40  C   UNL A   1      40.297  28.367  29.466  1.00  0.00     0.049 A 
ATOM     41  N   UNL A   1      42.461  30.433  29.105  1.00  0.00    -0.248 NA
ATOM     42  C   UNL A   1      41.109  31.962  30.243  1.00  0.00     0.031 C 
ATOM     43  C   UNL A   1      39.299  27.316  29.646  1.00  0.00     0.029 A 
ATOM     44  N   UNL A   1      41.329  27.745  28.806  1.00  0.00    -0.354 N 
ATOM     45  C   UNL A   1      43.130  31.644  29.227  1.00  0.00     0.074 A 
ATOM     46  C   UNL A   1      42.239  32.560  29.903  1.00  0.00     0.031 C 
ATOM     47  C   UNL A   1      39.768  26.175  29.108  1.00  0.00     0.029 A 
ATOM     48  C   UNL A   1      41.085  26.424  28.519  1.00  0.00     0.049 A 
ATOM     49  H   UNL A   1      42.165  28.203  28.561  1.00  0.00     0.167 HD
ATOM     50  C   UNL A   1      44.383  31.959  28.827  1.00  0.00     0.037 A 
ATOM     51  C   UNL A   1      41.833  25.526  27.845  1.00  0.00     0.037 A 
ATOM     52  C   UNL A   1      45.269  31.052  28.151  1.00  0.00     0.049 A 
ATOM     53  C   UNL A   1      43.179  25.938  27.302  1.00  0.00     0.074 A 
ATOM     54  C   UNL A   1      46.559  31.282  27.708  1.00  0.00     0.029 A 
ATOM     55  N   UNL A   1      44.953  29.746  27.810  1.00  0.00    -0.354 N 
ATOM     56  N   UNL A   1      43.814  27.077  27.440  1.00  0.00    -0.248 NA
ATOM     57  C   UNL A   1      43.911  24.942  26.502  1.00  0.00     0.031 C 
ATOM     58  C   UNL A   1      47.003  30.136  27.048  1.00  0.00     0.029 A 
ATOM     59  C   UNL A   1      46.012  29.171  27.129  1.00  0.00     0.049 A 
ATOM     60  H   UNL A   1      44.104  29.296  28.022  1.00  0.00     0.167 HD
ATOM     61  C   UNL A   1      45.022  26.928  26.769  1.00  0.00     0.074 A 
ATOM     62  C   UNL A   1      45.042  25.583  26.235  1.00  0.00     0.031 C 
ATOM     63  C   UNL A   1      46.024  27.828  26.607  1.00  0.00     0.037 A 
BRANCH  50  64
ATOM     64  C   UNL A   1      44.870  33.350  29.103  1.00  0.00     0.057 A 
ATOM     65  C   UNL A   1      44.631  34.404  28.211  1.00  0.00     0.134 A 
ATOM     66  C   UNL A   1      45.537  33.649  30.298  1.00  0.00     0.134 A 
ATOM     67  F   UNL A   1      44.012  34.179  27.043  1.00  0.00    -0.206 F 
ATOM     68  C   UNL A   1      45.051  35.704  28.492  1.00  0.00     0.040 A 
ATOM     69  C   UNL A   1      45.937  34.951  30.602  1.00  0.00     0.040 A 
ATOM     70  F   UNL A   1      45.794  32.687  31.194  1.00  0.00    -0.206 F 
ATOM     71  C   UNL A   1      45.697  35.983  29.695  1.00  0.00     0.006 A 
ENDBRANCH  50  64
BRANCH  51  72
ATOM     72  C   UNL A   1      41.328  24.144  27.636  1.00  0.00     0.057 A 
ATOM     73  C   UNL A   1      40.325  23.873  26.699  1.00  0.00     0.134 A 
ATOM     74  C   UNL A   1      41.821  23.063  28.378  1.00  0.00     0.134 A 
ATOM     75  F   UNL A   1      39.789  24.868  25.977  1.00  0.00    -0.206 F 
ATOM     76  C   UNL A   1      39.827  22.582  26.510  1.00  0.00     0.040 A 
ATOM     77  C   UNL A   1      41.352  21.763  28.182  1.00  0.00     0.040 A 
ATOM     78  F   UNL A   1      42.777  23.254  29.300  1.00  0.00    -0.206 F 
ATOM     79  C   UNL A   1      40.347  21.520  27.249  1.00  0.00     0.006 A 
ENDBRANCH  51  72
BRANCH  63  80
ATOM     80  C   UNL A   1      47.237  27.407  25.827  1.00  0.00     0.057 A 
ATOM     81  C   UNL A   1      48.302  26.734  26.435  1.00  0.00     0.134 A 
ATOM     82  C   UNL A   1      47.284  27.568  24.435  1.00  0.00     0.134 A 
ATOM     83  F   UNL A   1      48.322  26.553  27.764  1.00  0.00    -0.206 F 
ATOM     84  C   UNL A   1      49.370  26.233  25.689  1.00  0.00     0.040 A 
ATOM     85  C   UNL A   1      48.333  27.049  23.675  1.00  0.00     0.040 A 
ATOM     86  F   UNL A   1      46.289  28.193  23.787  1.00  0.00    -0.206 F 
ATOM     87  C   UNL A   1      49.380  26.378  24.303  1.00  0.00     0.006 A 
ENDBRANCH  63  80
ENDBRANCH  37  38
ENDBRANCH  30  32
ENDBRANCH  29  30
ENDBRANCH  28  29
ENDBRANCH  27  28
ENDBRANCH  26  27
ENDBRANCH   1  26
TORSDOF 18
ENDMDL
