MODEL 1
REMARK VINA RESULT:     -11.4      0.000      0.000
REMARK SMILES CCSc1ccc(-c2cc(Cl)cc3c2O[C@H](C(F)(F)F)C(C(=O)OCCOCCOCCOC(=O)c2ccc(-c4c5nc(c(-c6c(F)cccc6F)c6ccc([nH]6)c(-c6c(F)cccc6F)c6nc(c(-c7c(F)cccc7F)c7ccc4[nH]7)C=C6)C=C5)cc2)=C3)cc1
REMARK SMILES IDX 28 1 27 2 26 3 25 4 24 5 22 6 23 7 21 8 8 9 9 10 14 11 10 12
REMARK SMILES IDX 13 13 15 14 11 15 12 16 90 17 16 18 7 19 4 20 5 21 92 22
REMARK SMILES IDX 6 23 91 24 3 25 2 26 1 27 17 28 18 29 19 30 20 31 29 32
REMARK SMILES IDX 30 33 31 34 32 35 33 36 34 37 35 38 36 39 37 40 89 41 38 42
REMARK SMILES IDX 88 43 39 44 40 45 41 46 82 47 42 48 87 49 81 50 83 51 43 52
REMARK SMILES IDX 86 53 80 54 79 55 44 57 70 58 53 59 69 60 54 61 57 62 68 63
REMARK SMILES IDX 84 64 55 65 56 66 67 68 85 69 58 70 45 71 46 72 51 73 47 74
REMARK SMILES IDX 48 75 50 76 52 77 49 78 71 79 72 80 77 81 73 82 74 83 76 84
REMARK SMILES IDX 78 85 75 86 59 87 60 88 65 89 61 90 62 91 64 92 66 93 63 94
REMARK H PARENT 83 56 57 67
REMARK Flexibility Score: inf
ROOT
ATOM      1  C   UNL A   1      35.674  31.684  28.166  1.00  0.00     0.188 C 
ENDROOT
BRANCH   1   2
ATOM      2  O   UNL A   1      34.442  31.087  27.803  1.00  0.00    -0.376 OA
BRANCH   2   3
ATOM      3  C   UNL A   1      34.541  29.905  27.012  1.00  0.00     0.202 C 
BRANCH   3   4
ATOM      4  C   UNL A   1      33.231  29.449  26.349  1.00  0.00     0.261 C 
BRANCH   4   5
ATOM      5  O   UNL A   1      33.402  28.259  25.526  1.00  0.00    -0.460 OA
BRANCH   5   6
ATOM      6  C   UNL A   1      33.301  28.458  24.193  1.00  0.00     0.338 C 
ATOM      7  O   UNL A   1      33.892  29.347  23.592  1.00  0.00    -0.246 OA
BRANCH   6   8
ATOM      8  C   UNL A   1      32.486  27.418  23.495  1.00  0.00     0.087 C 
ATOM      9  C   UNL A   1      32.538  23.394  24.527  1.00  0.00     0.026 A 
ATOM     10  C   UNL A   1      33.722  23.384  25.300  1.00  0.00     0.033 A 
ATOM     11  C   UNL A   1      32.351  24.606  23.814  1.00  0.00     0.135 A 
ATOM     12  C   UNL A   1      34.743  24.332  25.180  1.00  0.00     0.042 A 
ATOM     13  C   UNL A   1      33.464  25.434  23.523  1.00  0.00     0.019 A 
ATOM     14  O   UNL A   1      31.112  25.275  23.694  1.00  0.00    -0.475 OA
ATOM     15  Cl  UNL A   1      36.148  24.269  26.162  1.00  0.00    -0.084 Cl
ATOM     16  C   UNL A   1      34.656  25.311  24.218  1.00  0.00     0.032 A 
ATOM     17  C   UNL A   1      33.242  26.644  22.700  1.00  0.00     0.027 C 
ATOM     18  C   UNL A   1      31.223  26.763  24.048  1.00  0.00     0.316 C 
BRANCH   9  19
ATOM     19  C   UNL A   1      32.092  21.964  24.194  1.00  0.00    -0.015 A 
ATOM     20  C   UNL A   1      32.435  19.142  23.373  1.00  0.00     0.007 A 
ATOM     21  C   UNL A   1      32.355  19.499  24.711  1.00  0.00     0.015 A 
ATOM     22  C   UNL A   1      32.215  20.198  22.461  1.00  0.00     0.015 A 
ATOM     23  C   UNL A   1      32.186  20.875  25.103  1.00  0.00     0.010 A 
ATOM     24  C   UNL A   1      32.053  21.562  22.851  1.00  0.00     0.010 A 
BRANCH  20  25
ATOM     25  S   UNL A   1      32.608  17.486  22.662  1.00  0.00    -0.126 SA
BRANCH  25  26
ATOM     26  C   UNL A   1      34.299  16.313  23.317  1.00  0.00     0.071 C 
ATOM     27  C   UNL A   1      35.299  15.907  25.307  1.00  0.00     0.016 C 
ENDBRANCH  25  26
ENDBRANCH  20  25
ENDBRANCH   9  19
BRANCH  18  28
ATOM     28  C   UNL A   1      30.031  27.604  23.559  1.00  0.00     0.430 C 
ATOM     29  F   UNL A   1      30.055  28.860  24.063  1.00  0.00    -0.167 F 
ATOM     30  F   UNL A   1      29.982  27.695  22.214  1.00  0.00    -0.167 F 
ATOM     31  F   UNL A   1      28.856  27.045  23.956  1.00  0.00    -0.167 F 
ENDBRANCH  18  28
ENDBRANCH   6   8
ENDBRANCH   5   6
ENDBRANCH   4   5
ENDBRANCH   3   4
ENDBRANCH   2   3
ENDBRANCH   1   2
BRANCH   1  32
ATOM     32  C   UNL A   1      35.639  33.227  28.245  1.00  0.00     0.188 C 
BRANCH  32  33
ATOM     33  O   UNL A   1      34.769  33.895  29.140  1.00  0.00    -0.376 OA
BRANCH  33  34
ATOM     34  C   UNL A   1      34.258  35.174  28.807  1.00  0.00     0.202 C 
BRANCH  34  35
ATOM     35  C   UNL A   1      33.076  35.776  29.586  1.00  0.00     0.261 C 
BRANCH  35  36
ATOM     36  O   UNL A   1      33.377  36.385  30.853  1.00  0.00    -0.460 OA
BRANCH  36  37
ATOM     37  C   UNL A   1      32.849  35.770  31.940  1.00  0.00     0.338 C 
ATOM     38  O   UNL A   1      31.674  35.695  32.251  1.00  0.00    -0.246 OA
BRANCH  37  39
ATOM     39  C   UNL A   1      33.909  35.025  32.649  1.00  0.00     0.060 A 
ATOM     40  C   UNL A   1      35.162  35.625  32.782  1.00  0.00     0.016 A 
ATOM     41  C   UNL A   1      33.699  33.725  33.117  1.00  0.00     0.016 A 
ATOM     42  C   UNL A   1      36.204  34.918  33.379  1.00  0.00     0.010 A 
ATOM     43  C   UNL A   1      34.758  33.011  33.698  1.00  0.00     0.010 A 
ATOM     44  C   UNL A   1      36.024  33.598  33.826  1.00  0.00    -0.014 A 
BRANCH  44  45
ATOM     45  C   UNL A   1      37.215  32.818  34.281  1.00  0.00     0.031 A 
ATOM     46  C   UNL A   1      37.970  32.008  33.257  1.00  0.00     0.074 A 
ATOM     47  C   UNL A   1      37.623  32.899  35.562  1.00  0.00     0.049 A 
ATOM     48  N   UNL A   1      39.041  31.264  33.378  1.00  0.00    -0.248 NA
ATOM     49  C   UNL A   1      37.367  31.979  31.915  1.00  0.00     0.031 C 
ATOM     50  C   UNL A   1      36.858  33.513  36.640  1.00  0.00     0.029 A 
ATOM     51  N   UNL A   1      38.797  32.543  36.171  1.00  0.00    -0.354 N 
ATOM     52  C   UNL A   1      39.183  30.607  32.156  1.00  0.00     0.074 A 
ATOM     53  C   UNL A   1      38.118  31.081  31.299  1.00  0.00     0.031 C 
ATOM     54  C   UNL A   1      37.639  33.642  37.728  1.00  0.00     0.029 A 
ATOM     55  C   UNL A   1      38.945  33.080  37.441  1.00  0.00     0.049 A 
ATOM     56  H   UNL A   1      39.470  31.963  35.748  1.00  0.00     0.167 HD
ATOM     57  C   UNL A   1      40.074  29.652  31.785  1.00  0.00     0.037 A 
ATOM     58  C   UNL A   1      40.034  33.134  38.237  1.00  0.00     0.037 A 
ATOM     59  C   UNL A   1      41.139  29.160  32.618  1.00  0.00     0.049 A 
ATOM     60  C   UNL A   1      41.210  32.431  37.631  1.00  0.00     0.074 A 
ATOM     61  C   UNL A   1      42.087  28.190  32.332  1.00  0.00     0.029 A 
ATOM     62  N   UNL A   1      41.399  29.609  33.900  1.00  0.00    -0.354 N 
ATOM     63  N   UNL A   1      41.192  31.347  36.344  1.00  0.00    -0.248 NA
ATOM     64  C   UNL A   1      42.941  32.175  38.639  1.00  0.00     0.031 C 
ATOM     65  C   UNL A   1      42.900  28.020  33.458  1.00  0.00     0.029 A 
ATOM     66  C   UNL A   1      42.507  28.947  34.406  1.00  0.00     0.049 A 
ATOM     67  H   UNL A   1      40.878  30.293  34.379  1.00  0.00     0.167 HD
ATOM     68  C   UNL A   1      42.733  30.320  36.408  1.00  0.00     0.074 A 
ATOM     69  C   UNL A   1      43.727  30.950  37.946  1.00  0.00     0.031 C 
ATOM     70  C   UNL A   1      43.126  29.273  35.650  1.00  0.00     0.037 A 
BRANCH  57  71
ATOM     71  C   UNL A   1      39.877  29.006  30.443  1.00  0.00     0.057 A 
ATOM     72  C   UNL A   1      39.173  27.808  30.278  1.00  0.00     0.134 A 
ATOM     73  C   UNL A   1      40.410  29.606  29.292  1.00  0.00     0.134 A 
ATOM     74  F   UNL A   1      38.650  27.174  31.338  1.00  0.00    -0.206 F 
ATOM     75  C   UNL A   1      39.040  27.209  29.023  1.00  0.00     0.040 A 
ATOM     76  C   UNL A   1      40.252  29.036  28.030  1.00  0.00     0.040 A 
ATOM     77  F   UNL A   1      41.088  30.761  29.376  1.00  0.00    -0.206 F 
ATOM     78  C   UNL A   1      39.576  27.826  27.894  1.00  0.00     0.006 A 
ENDBRANCH  57  71
BRANCH  58  79
ATOM     79  C   UNL A   1      40.109  33.717  39.615  1.00  0.00     0.057 A 
ATOM     80  C   UNL A   1      39.497  33.133  40.736  1.00  0.00     0.134 A 
ATOM     81  C   UNL A   1      40.748  34.938  39.871  1.00  0.00     0.134 A 
ATOM     82  F   UNL A   1      38.815  31.993  40.641  1.00  0.00    -0.206 F 
ATOM     83  C   UNL A   1      39.518  33.701  42.014  1.00  0.00     0.040 A 
ATOM     84  C   UNL A   1      40.818  35.503  41.154  1.00  0.00     0.040 A 
ATOM     85  F   UNL A   1      41.310  35.636  38.874  1.00  0.00    -0.206 F 
ATOM     86  C   UNL A   1      40.196  34.885  42.233  1.00  0.00     0.006 A 
ENDBRANCH  58  79
BRANCH  70  87
ATOM     87  C   UNL A   1      44.300  28.495  36.150  1.00  0.00     0.057 A 
ATOM     88  C   UNL A   1      44.130  27.352  36.948  1.00  0.00     0.134 A 
ATOM     89  C   UNL A   1      45.610  28.834  35.798  1.00  0.00     0.134 A 
ATOM     90  F   UNL A   1      42.902  26.946  37.304  1.00  0.00    -0.206 F 
ATOM     91  C   UNL A   1      45.218  26.601  37.403  1.00  0.00     0.040 A 
ATOM     92  C   UNL A   1      46.705  28.082  36.231  1.00  0.00     0.040 A 
ATOM     93  F   UNL A   1      45.846  29.899  35.018  1.00  0.00    -0.206 F 
ATOM     94  C   UNL A   1      46.512  26.966  37.043  1.00  0.00     0.006 A 
ENDBRANCH  70  87
ENDBRANCH  44  45
ENDBRANCH  37  39
ENDBRANCH  36  37
ENDBRANCH  35  36
ENDBRANCH  34  35
ENDBRANCH  33  34
ENDBRANCH  32  33
ENDBRANCH   1  32
TORSDOF 21
ENDMDL
MODEL 2
REMARK VINA RESULT:     -11.0      0.662      6.067
REMARK SMILES CCSc1ccc(-c2cc(Cl)cc3c2O[C@H](C(F)(F)F)C(C(=O)OCCOCCOCCOC(=O)c2ccc(-c4c5nc(c(-c6c(F)cccc6F)c6ccc([nH]6)c(-c6c(F)cccc6F)c6nc(c(-c7c(F)cccc7F)c7ccc4[nH]7)C=C6)C=C5)cc2)=C3)cc1
REMARK SMILES IDX 28 1 27 2 26 3 25 4 24 5 22 6 23 7 21 8 8 9 9 10 14 11 10 12
REMARK SMILES IDX 13 13 15 14 11 15 12 16 90 17 16 18 7 19 4 20 5 21 92 22
REMARK SMILES IDX 6 23 91 24 3 25 2 26 1 27 17 28 18 29 19 30 20 31 29 32
REMARK SMILES IDX 30 33 31 34 32 35 33 36 34 37 35 38 36 39 37 40 89 41 38 42
REMARK SMILES IDX 88 43 39 44 40 45 41 46 82 47 42 48 87 49 81 50 83 51 43 52
REMARK SMILES IDX 86 53 80 54 79 55 44 57 70 58 53 59 69 60 54 61 57 62 68 63
REMARK SMILES IDX 84 64 55 65 56 66 67 68 85 69 58 70 45 71 46 72 51 73 47 74
REMARK SMILES IDX 48 75 50 76 52 77 49 78 71 79 72 80 77 81 73 82 74 83 76 84
REMARK SMILES IDX 78 85 75 86 59 87 60 88 65 89 61 90 62 91 64 92 66 93 63 94
REMARK H PARENT 83 56 57 67
REMARK Flexibility Score: inf
ROOT
ATOM      1  C   UNL A   1      35.154  31.279  27.952  1.00  0.00     0.188 C 
ENDROOT
BRANCH   1   2
ATOM      2  O   UNL A   1      33.847  30.750  27.829  1.00  0.00    -0.376 OA
BRANCH   2   3
ATOM      3  C   UNL A   1      33.229  30.926  26.556  1.00  0.00     0.202 C 
BRANCH   3   4
ATOM      4  C   UNL A   1      32.176  29.869  26.187  1.00  0.00     0.261 C 
BRANCH   4   5
ATOM      5  O   UNL A   1      32.761  28.675  25.592  1.00  0.00    -0.460 OA
BRANCH   5   6
ATOM      6  C   UNL A   1      32.904  28.709  24.248  1.00  0.00     0.338 C 
ATOM      7  O   UNL A   1      33.645  29.490  23.662  1.00  0.00    -0.246 OA
BRANCH   6   8
ATOM      8  C   UNL A   1      32.156  27.625  23.542  1.00  0.00     0.087 C 
ATOM      9  C   UNL A   1      32.340  23.624  24.644  1.00  0.00     0.026 A 
ATOM     10  C   UNL A   1      33.496  23.675  25.455  1.00  0.00     0.033 A 
ATOM     11  C   UNL A   1      32.127  24.815  23.904  1.00  0.00     0.135 A 
ATOM     12  C   UNL A   1      34.481  24.662  25.352  1.00  0.00     0.042 A 
ATOM     13  C   UNL A   1      33.214  25.685  23.636  1.00  0.00     0.019 A 
ATOM     14  O   UNL A   1      30.866  25.429  23.732  1.00  0.00    -0.475 OA
ATOM     15  Cl  UNL A   1      35.854  24.674  26.380  1.00  0.00    -0.084 Cl
ATOM     16  C   UNL A   1      34.386  25.622  24.371  1.00  0.00     0.032 A 
ATOM     17  C   UNL A   1      32.970  26.871  22.786  1.00  0.00     0.027 C 
ATOM     18  C   UNL A   1      30.903  26.926  24.064  1.00  0.00     0.316 C 
BRANCH   9  19
ATOM     19  C   UNL A   1      31.964  22.170  24.320  1.00  0.00    -0.015 A 
ATOM     20  C   UNL A   1      32.443  19.369  23.500  1.00  0.00     0.007 A 
ATOM     21  C   UNL A   1      32.365  19.725  24.839  1.00  0.00     0.015 A 
ATOM     22  C   UNL A   1      32.153  20.409  22.590  1.00  0.00     0.015 A 
ATOM     23  C   UNL A   1      32.130  21.091  25.230  1.00  0.00     0.010 A 
ATOM     24  C   UNL A   1      31.926  21.763  22.979  1.00  0.00     0.010 A 
BRANCH  20  25
ATOM     25  S   UNL A   1      32.691  17.722  22.789  1.00  0.00    -0.126 SA
BRANCH  25  26
ATOM     26  C   UNL A   1      33.468  16.197  24.108  1.00  0.00     0.071 C 
ATOM     27  C   UNL A   1      35.403  15.886  25.241  1.00  0.00     0.016 C 
ENDBRANCH  25  26
ENDBRANCH  20  25
ENDBRANCH   9  19
BRANCH  18  28
ATOM     28  C   UNL A   1      29.695  27.709  23.522  1.00  0.00     0.430 C 
ATOM     29  F   UNL A   1      29.730  27.828  22.175  1.00  0.00    -0.167 F 
ATOM     30  F   UNL A   1      28.519  27.143  23.862  1.00  0.00    -0.167 F 
ATOM     31  F   UNL A   1      29.679  28.973  24.026  1.00  0.00    -0.167 F 
ENDBRANCH  18  28
ENDBRANCH   6   8
ENDBRANCH   5   6
ENDBRANCH   4   5
ENDBRANCH   3   4
ENDBRANCH   2   3
ENDBRANCH   1   2
BRANCH   1  32
ATOM     32  C   UNL A   1      35.207  32.805  28.190  1.00  0.00     0.188 C 
BRANCH  32  33
ATOM     33  O   UNL A   1      34.434  33.415  29.208  1.00  0.00    -0.376 OA
BRANCH  33  34
ATOM     34  C   UNL A   1      34.161  34.805  29.152  1.00  0.00     0.202 C 
BRANCH  34  35
ATOM     35  C   UNL A   1      32.879  35.380  29.778  1.00  0.00     0.261 C 
BRANCH  35  36
ATOM     36  O   UNL A   1      33.033  36.134  30.992  1.00  0.00    -0.460 OA
BRANCH  36  37
ATOM     37  C   UNL A   1      32.726  35.475  32.136  1.00  0.00     0.338 C 
ATOM     38  O   UNL A   1      31.621  35.297  32.616  1.00  0.00    -0.246 OA
BRANCH  37  39
ATOM     39  C   UNL A   1      33.940  34.825  32.671  1.00  0.00     0.060 A 
ATOM     40  C   UNL A   1      35.117  35.571  32.731  1.00  0.00     0.016 A 
ATOM     41  C   UNL A   1      33.941  33.478  33.045  1.00  0.00     0.016 A 
ATOM     42  C   UNL A   1      36.296  34.964  33.159  1.00  0.00     0.010 A 
ATOM     43  C   UNL A   1      35.136  32.867  33.456  1.00  0.00     0.010 A 
ATOM     44  C   UNL A   1      36.328  33.603  33.508  1.00  0.00    -0.014 A 
BRANCH  44  45
ATOM     45  C   UNL A   1      37.647  32.953  33.775  1.00  0.00     0.031 A 
ATOM     46  C   UNL A   1      38.225  33.059  35.164  1.00  0.00     0.074 A 
ATOM     47  C   UNL A   1      38.257  32.246  32.805  1.00  0.00     0.049 A 
ATOM     48  N   UNL A   1      39.333  32.575  35.667  1.00  0.00    -0.248 NA
ATOM     49  C   UNL A   1      37.466  33.911  36.094  1.00  0.00     0.031 C 
ATOM     50  C   UNL A   1      37.856  32.240  31.404  1.00  0.00     0.029 A 
ATOM     51  N   UNL A   1      39.284  31.340  32.843  1.00  0.00    -0.354 N 
ATOM     52  C   UNL A   1      39.449  33.140  36.936  1.00  0.00     0.074 A 
ATOM     53  C   UNL A   1      38.274  33.959  37.140  1.00  0.00     0.031 C 
ATOM     54  C   UNL A   1      38.509  31.259  30.754  1.00  0.00     0.029 A 
ATOM     55  C   UNL A   1      39.408  30.597  31.680  1.00  0.00     0.049 A 
ATOM     56  H   UNL A   1      39.876  31.229  33.622  1.00  0.00     0.167 HD
ATOM     57  C   UNL A   1      40.459  33.043  37.838  1.00  0.00     0.037 A 
ATOM     58  C   UNL A   1      40.138  29.488  31.435  1.00  0.00     0.037 A 
ATOM     59  C   UNL A   1      41.640  32.239  37.660  1.00  0.00     0.049 A 
ATOM     60  C   UNL A   1      40.971  29.089  32.614  1.00  0.00     0.074 A 
ATOM     61  C   UNL A   1      42.720  32.083  38.514  1.00  0.00     0.029 A 
ATOM     62  N   UNL A   1      41.887  31.450  36.552  1.00  0.00    -0.354 N 
ATOM     63  N   UNL A   1      41.342  30.029  33.959  1.00  0.00    -0.248 NA
ATOM     64  C   UNL A   1      42.308  27.579  32.519  1.00  0.00     0.031 C 
ATOM     65  C   UNL A   1      43.645  31.228  37.905  1.00  0.00     0.029 A 
ATOM     66  C   UNL A   1      43.095  30.790  36.715  1.00  0.00     0.049 A 
ATOM     67  H   UNL A   1      41.297  31.369  35.769  1.00  0.00     0.167 HD
ATOM     68  C   UNL A   1      42.857  29.338  34.770  1.00  0.00     0.074 A 
ATOM     69  C   UNL A   1      43.368  27.798  33.714  1.00  0.00     0.031 C 
ATOM     70  C   UNL A   1      43.580  29.790  35.818  1.00  0.00     0.037 A 
BRANCH  57  71
ATOM     71  C   UNL A   1      40.376  33.904  39.067  1.00  0.00     0.057 A 
ATOM     72  C   UNL A   1      39.682  33.511  40.217  1.00  0.00     0.134 A 
ATOM     73  C   UNL A   1      41.009  35.155  39.090  1.00  0.00     0.134 A 
ATOM     74  F   UNL A   1      39.042  32.333  40.258  1.00  0.00    -0.206 F 
ATOM     75  C   UNL A   1      39.586  34.349  41.332  1.00  0.00     0.040 A 
ATOM     76  C   UNL A   1      40.952  35.984  40.209  1.00  0.00     0.040 A 
ATOM     77  F   UNL A   1      41.701  35.589  38.025  1.00  0.00    -0.206 F 
ATOM     78  C   UNL A   1      40.227  35.587  41.330  1.00  0.00     0.006 A 
ENDBRANCH  57  71
BRANCH  58  79
ATOM     79  C   UNL A   1      40.235  28.749  30.135  1.00  0.00     0.057 A 
ATOM     80  C   UNL A   1      41.020  29.184  29.055  1.00  0.00     0.134 A 
ATOM     81  C   UNL A   1      39.487  27.590  29.881  1.00  0.00     0.134 A 
ATOM     82  F   UNL A   1      41.753  30.293  29.131  1.00  0.00    -0.206 F 
ATOM     83  C   UNL A   1      41.073  28.527  27.820  1.00  0.00     0.040 A 
ATOM     84  C   UNL A   1      39.559  26.892  28.665  1.00  0.00     0.040 A 
ATOM     85  F   UNL A   1      38.641  27.110  30.803  1.00  0.00    -0.206 F 
ATOM     86  C   UNL A   1      40.352  27.364  27.625  1.00  0.00     0.006 A 
ENDBRANCH  58  79
BRANCH  70  87
ATOM     87  C   UNL A   1      44.909  29.143  36.037  1.00  0.00     0.057 A 
ATOM     88  C   UNL A   1      46.072  29.640  35.429  1.00  0.00     0.134 A 
ATOM     89  C   UNL A   1      45.061  28.054  36.902  1.00  0.00     0.134 A 
ATOM     90  F   UNL A   1      46.011  30.701  34.609  1.00  0.00    -0.206 F 
ATOM     91  C   UNL A   1      47.325  29.059  35.643  1.00  0.00     0.040 A 
ATOM     92  C   UNL A   1      46.310  27.474  37.140  1.00  0.00     0.040 A 
ATOM     93  F   UNL A   1      43.997  27.542  37.538  1.00  0.00    -0.206 F 
ATOM     94  C   UNL A   1      47.446  27.970  36.504  1.00  0.00     0.006 A 
ENDBRANCH  70  87
ENDBRANCH  44  45
ENDBRANCH  37  39
ENDBRANCH  36  37
ENDBRANCH  35  36
ENDBRANCH  34  35
ENDBRANCH  33  34
ENDBRANCH  32  33
ENDBRANCH   1  32
TORSDOF 21
ENDMDL
MODEL 3
REMARK VINA RESULT:     -10.3      5.750     10.892
REMARK SMILES CCSc1ccc(-c2cc(Cl)cc3c2O[C@H](C(F)(F)F)C(C(=O)OCCOCCOCCOC(=O)c2ccc(-c4c5nc(c(-c6c(F)cccc6F)c6ccc([nH]6)c(-c6c(F)cccc6F)c6nc(c(-c7c(F)cccc7F)c7ccc4[nH]7)C=C6)C=C5)cc2)=C3)cc1
REMARK SMILES IDX 28 1 27 2 26 3 25 4 24 5 22 6 23 7 21 8 8 9 9 10 14 11 10 12
REMARK SMILES IDX 13 13 15 14 11 15 12 16 90 17 16 18 7 19 4 20 5 21 92 22
REMARK SMILES IDX 6 23 91 24 3 25 2 26 1 27 17 28 18 29 19 30 20 31 29 32
REMARK SMILES IDX 30 33 31 34 32 35 33 36 34 37 35 38 36 39 37 40 89 41 38 42
REMARK SMILES IDX 88 43 39 44 40 45 41 46 82 47 42 48 87 49 81 50 83 51 43 52
REMARK SMILES IDX 86 53 80 54 79 55 44 57 70 58 53 59 69 60 54 61 57 62 68 63
REMARK SMILES IDX 84 64 55 65 56 66 67 68 85 69 58 70 45 71 46 72 51 73 47 74
REMARK SMILES IDX 48 75 50 76 52 77 49 78 71 79 72 80 77 81 73 82 74 83 76 84
REMARK SMILES IDX 78 85 75 86 59 87 60 88 65 89 61 90 62 91 64 92 66 93 63 94
REMARK H PARENT 83 56 57 67
REMARK Flexibility Score: inf
ROOT
ATOM      1  C   UNL A   1      34.304  36.642  32.689  1.00  0.00     0.188 C 
ENDROOT
BRANCH   1   2
ATOM      2  O   UNL A   1      34.581  35.813  33.803  1.00  0.00    -0.376 OA
BRANCH   2   3
ATOM      3  C   UNL A   1      35.786  35.055  33.720  1.00  0.00     0.202 C 
BRANCH   3   4
ATOM      4  C   UNL A   1      36.114  34.496  32.326  1.00  0.00     0.261 C 
BRANCH   4   5
ATOM      5  O   UNL A   1      37.169  33.492  32.356  1.00  0.00    -0.460 OA
BRANCH   5   6
ATOM      6  C   UNL A   1      36.900  32.393  33.096  1.00  0.00     0.338 C 
ATOM      7  O   UNL A   1      35.990  31.611  32.847  1.00  0.00    -0.246 OA
BRANCH   6   8
ATOM      8  C   UNL A   1      37.892  32.153  34.189  1.00  0.00     0.087 C 
ATOM      9  C   UNL A   1      40.961  29.366  33.924  1.00  0.00     0.026 A 
ATOM     10  C   UNL A   1      40.475  28.611  32.832  1.00  0.00     0.033 A 
ATOM     11  C   UNL A   1      40.007  30.284  34.433  1.00  0.00     0.135 A 
ATOM     12  C   UNL A   1      39.130  28.559  32.453  1.00  0.00     0.042 A 
ATOM     13  C   UNL A   1      38.625  30.066  34.205  1.00  0.00     0.019 A 
ATOM     14  O   UNL A   1      40.306  31.610  34.817  1.00  0.00    -0.475 OA
ATOM     15  Cl  UNL A   1      38.610  27.635  31.105  1.00  0.00    -0.084 Cl
ATOM     16  C   UNL A   1      38.184  29.218  33.203  1.00  0.00     0.032 A 
ATOM     17  C   UNL A   1      37.656  30.996  34.827  1.00  0.00     0.027 C 
ATOM     18  C   UNL A   1      39.343  32.625  34.188  1.00  0.00     0.316 C 
BRANCH   9  19
ATOM     19  C   UNL A   1      42.108  28.629  34.630  1.00  0.00    -0.015 A 
ATOM     20  C   UNL A   1      43.492  26.321  35.858  1.00  0.00     0.007 A 
ATOM     21  C   UNL A   1      43.737  26.692  34.544  1.00  0.00     0.015 A 
ATOM     22  C   UNL A   1      42.646  27.194  36.576  1.00  0.00     0.015 A 
ATOM     23  C   UNL A   1      43.060  27.819  33.954  1.00  0.00     0.010 A 
ATOM     24  C   UNL A   1      41.972  28.306  35.988  1.00  0.00     0.010 A 
BRANCH  20  25
ATOM     25  S   UNL A   1      44.252  24.976  36.803  1.00  0.00    -0.126 SA
BRANCH  25  26
ATOM     26  C   UNL A   1      45.224  23.414  35.671  1.00  0.00     0.071 C 
ATOM     27  C   UNL A   1      45.099  22.658  33.541  1.00  0.00     0.016 C 
ENDBRANCH  25  26
ENDBRANCH  20  25
ENDBRANCH   9  19
BRANCH  18  28
ATOM     28  C   UNL A   1      39.366  34.003  34.871  1.00  0.00     0.430 C 
ATOM     29  F   UNL A   1      39.001  34.995  34.026  1.00  0.00    -0.167 F 
ATOM     30  F   UNL A   1      38.558  34.056  35.951  1.00  0.00    -0.167 F 
ATOM     31  F   UNL A   1      40.620  34.300  35.307  1.00  0.00    -0.167 F 
ENDBRANCH  18  28
ENDBRANCH   6   8
ENDBRANCH   5   6
ENDBRANCH   4   5
ENDBRANCH   3   4
ENDBRANCH   2   3
ENDBRANCH   1   2
BRANCH   1  32
ATOM     32  C   UNL A   1      32.866  36.514  32.138  1.00  0.00     0.188 C 
BRANCH  32  33
ATOM     33  O   UNL A   1      32.522  35.496  31.216  1.00  0.00    -0.376 OA
BRANCH  33  34
ATOM     34  C   UNL A   1      33.078  35.504  29.912  1.00  0.00     0.202 C 
BRANCH  34  35
ATOM     35  C   UNL A   1      33.120  34.220  29.067  1.00  0.00     0.261 C 
BRANCH  35  36
ATOM     36  O   UNL A   1      34.271  33.375  29.230  1.00  0.00    -0.460 OA
BRANCH  36  37
ATOM     37  C   UNL A   1      35.286  33.590  28.357  1.00  0.00     0.338 C 
ATOM     38  O   UNL A   1      35.285  34.326  27.386  1.00  0.00    -0.246 OA
BRANCH  37  39
ATOM     39  C   UNL A   1      36.507  32.915  28.843  1.00  0.00     0.060 A 
ATOM     40  C   UNL A   1      37.722  33.594  28.745  1.00  0.00     0.016 A 
ATOM     41  C   UNL A   1      36.472  31.603  29.323  1.00  0.00     0.016 A 
ATOM     42  C   UNL A   1      38.901  32.956  29.124  1.00  0.00     0.010 A 
ATOM     43  C   UNL A   1      37.666  30.958  29.683  1.00  0.00     0.010 A 
ATOM     44  C   UNL A   1      38.893  31.626  29.578  1.00  0.00    -0.014 A 
BRANCH  44  45
ATOM     45  C   UNL A   1      40.196  30.924  29.788  1.00  0.00     0.031 A 
ATOM     46  C   UNL A   1      41.152  31.488  30.810  1.00  0.00     0.074 A 
ATOM     47  C   UNL A   1      40.462  29.787  29.119  1.00  0.00     0.049 A 
ATOM     48  N   UNL A   1      42.328  31.068  31.200  1.00  0.00    -0.248 NA
ATOM     49  C   UNL A   1      40.738  32.763  31.415  1.00  0.00     0.031 C 
ATOM     50  C   UNL A   1      39.678  29.277  28.002  1.00  0.00     0.029 A 
ATOM     51  N   UNL A   1      41.407  28.813  29.313  1.00  0.00    -0.354 N 
ATOM     52  C   UNL A   1      42.834  32.074  32.023  1.00  0.00     0.074 A 
ATOM     53  C   UNL A   1      41.814  33.096  32.111  1.00  0.00     0.031 C 
ATOM     54  C   UNL A   1      40.063  28.018  27.720  1.00  0.00     0.029 A 
ATOM     55  C   UNL A   1      41.151  27.648  28.605  1.00  0.00     0.049 A 
ATOM     56  H   UNL A   1      42.189  28.929  29.898  1.00  0.00     0.167 HD
ATOM     57  C   UNL A   1      44.053  32.180  32.610  1.00  0.00     0.037 A 
ATOM     58  C   UNL A   1      41.718  26.428  28.712  1.00  0.00     0.037 A 
ATOM     59  C   UNL A   1      45.087  31.182  32.536  1.00  0.00     0.049 A 
ATOM     60  C   UNL A   1      42.831  26.409  29.716  1.00  0.00     0.074 A 
ATOM     61  C   UNL A   1      46.356  31.205  33.093  1.00  0.00     0.029 A 
ATOM     62  N   UNL A   1      44.963  29.978  31.868  1.00  0.00    -0.354 N 
ATOM     63  N   UNL A   1      43.622  27.738  30.378  1.00  0.00    -0.248 NA
ATOM     64  C   UNL A   1      44.000  24.786  29.988  1.00  0.00     0.031 C 
ATOM     65  C   UNL A   1      47.020  30.029  32.727  1.00  0.00     0.029 A 
ATOM     66  C   UNL A   1      46.129  29.244  32.018  1.00  0.00     0.049 A 
ATOM     67  H   UNL A   1      44.170  29.688  31.363  1.00  0.00     0.167 HD
ATOM     68  C   UNL A   1      45.266  27.188  31.032  1.00  0.00     0.074 A 
ATOM     69  C   UNL A   1      45.367  25.287  30.679  1.00  0.00     0.031 C 
ATOM     70  C   UNL A   1      46.282  27.897  31.571  1.00  0.00     0.037 A 
BRANCH  57  71
ATOM     71  C   UNL A   1      44.372  33.470  33.314  1.00  0.00     0.057 A 
ATOM     72  C   UNL A   1      44.133  33.664  34.679  1.00  0.00     0.134 A 
ATOM     73  C   UNL A   1      44.933  34.538  32.598  1.00  0.00     0.134 A 
ATOM     74  F   UNL A   1      43.584  32.689  35.420  1.00  0.00    -0.206 F 
ATOM     75  C   UNL A   1      44.401  34.887  35.299  1.00  0.00     0.040 A 
ATOM     76  C   UNL A   1      45.240  35.750  33.214  1.00  0.00     0.040 A 
ATOM     77  F   UNL A   1      45.199  34.416  31.288  1.00  0.00    -0.206 F 
ATOM     78  C   UNL A   1      44.962  35.933  34.565  1.00  0.00     0.006 A 
ENDBRANCH  57  71
BRANCH  58  79
ATOM     79  C   UNL A   1      41.399  25.216  27.891  1.00  0.00     0.057 A 
ATOM     80  C   UNL A   1      40.196  24.500  28.003  1.00  0.00     0.134 A 
ATOM     81  C   UNL A   1      42.321  24.667  26.988  1.00  0.00     0.134 A 
ATOM     82  F   UNL A   1      39.241  24.875  28.851  1.00  0.00    -0.206 F 
ATOM     83  C   UNL A   1      39.916  23.337  27.278  1.00  0.00     0.040 A 
ATOM     84  C   UNL A   1      42.042  23.526  26.219  1.00  0.00     0.040 A 
ATOM     85  F   UNL A   1      43.537  25.211  26.840  1.00  0.00    -0.206 F 
ATOM     86  C   UNL A   1      40.835  22.852  26.367  1.00  0.00     0.006 A 
ENDBRANCH  58  79
BRANCH  70  87
ATOM     87  C   UNL A   1      47.580  27.176  31.737  1.00  0.00     0.057 A 
ATOM     88  C   UNL A   1      48.574  27.225  30.746  1.00  0.00     0.134 A 
ATOM     89  C   UNL A   1      47.885  26.473  32.907  1.00  0.00     0.134 A 
ATOM     90  F   UNL A   1      48.366  27.903  29.607  1.00  0.00    -0.206 F 
ATOM     91  C   UNL A   1      49.801  26.574  30.898  1.00  0.00     0.040 A 
ATOM     92  C   UNL A   1      49.115  25.833  33.080  1.00  0.00     0.040 A 
ATOM     93  F   UNL A   1      46.994  26.405  33.906  1.00  0.00    -0.206 F 
ATOM     94  C   UNL A   1      50.075  25.875  32.071  1.00  0.00     0.006 A 
ENDBRANCH  70  87
ENDBRANCH  44  45
ENDBRANCH  37  39
ENDBRANCH  36  37
ENDBRANCH  35  36
ENDBRANCH  34  35
ENDBRANCH  33  34
ENDBRANCH  32  33
ENDBRANCH   1  32
TORSDOF 21
ENDMDL
