MODEL 1
REMARK VINA RESULT:     -10.1      0.000      0.000
REMARK SMILES CC1(C)CC[N@H+](CCOc2ccc(C(=O)OCCOCCOCCOC(=O)c3ccc(-c4c5nc(c(-c6c(F)cccc6F)c6ccc([nH]6)c(-c6c(F)cccc6F)c6nc(c(-c7c(F)cccc7F)c7ccc4[nH]7)C=C6)C=C5)cc3)cc2)C1
REMARK SMILES IDX 20 1 19 2 18 3 17 4 16 5 14 6 15 7 13 8 10 9 11 10 83 11
REMARK SMILES IDX 12 12 82 13 9 14 8 15 7 16 6 17 1 18 2 19 3 20 4 21 84 22
REMARK SMILES IDX 5 23 21 25 22 26 23 27 24 28 25 29 26 30 27 31 28 32 29 33
REMARK SMILES IDX 81 34 30 35 80 36 31 37 32 38 33 39 74 40 34 41 79 42 73 43
REMARK SMILES IDX 75 44 35 45 78 46 72 47 71 48 36 50 62 51 45 52 61 53 46 54
REMARK SMILES IDX 49 55 60 56 76 57 47 58 48 59 59 61 77 62 50 63 37 64 38 65
REMARK SMILES IDX 43 66 39 67 40 68 42 69 44 70 41 71 63 72 64 73 69 74 65 75
REMARK SMILES IDX 66 76 68 77 70 78 67 79 51 80 52 81 57 82 53 83 54 84 56 85
REMARK SMILES IDX 58 86 55 87
REMARK H PARENT 6 24 75 49 49 60
REMARK Flexibility Score: inf
ROOT
ATOM      1  C   UNL A   1      39.115  22.839  26.549  1.00  0.00     0.188 C 
ENDROOT
BRANCH   1   2
ATOM      2  O   UNL A   1      38.026  22.886  25.647  1.00  0.00    -0.376 OA
BRANCH   2   3
ATOM      3  C   UNL A   1      37.025  21.886  25.692  1.00  0.00     0.202 C 
BRANCH   3   4
ATOM      4  C   UNL A   1      35.534  22.258  25.644  1.00  0.00     0.261 C 
BRANCH   4   5
ATOM      5  O   UNL A   1      34.987  22.487  24.335  1.00  0.00    -0.460 OA
BRANCH   5   6
ATOM      6  C   UNL A   1      33.791  21.903  24.063  1.00  0.00     0.338 C 
ATOM      7  O   UNL A   1      33.517  20.731  24.268  1.00  0.00    -0.246 OA
BRANCH   6   8
ATOM      8  C   UNL A   1      32.819  22.859  23.430  1.00  0.00     0.060 A 
ATOM      9  C   UNL A   1      31.352  25.155  22.926  1.00  0.00     0.119 A 
ATOM     10  C   UNL A   1      32.634  25.035  22.389  1.00  0.00     0.047 A 
ATOM     11  C   UNL A   1      30.690  24.049  23.430  1.00  0.00     0.047 A 
ATOM     12  C   UNL A   1      33.365  23.869  22.627  1.00  0.00     0.019 A 
ATOM     13  C   UNL A   1      31.450  22.927  23.758  1.00  0.00     0.019 A 
BRANCH   9  14
ATOM     14  O   UNL A   1      30.785  26.378  23.174  1.00  0.00    -0.488 OA
BRANCH  14  15
ATOM     15  C   UNL A   1      31.259  27.378  22.230  1.00  0.00     0.290 C 
BRANCH  15  16
ATOM     16  C   UNL A   1      31.350  28.820  22.816  1.00  0.00     0.304 C 
BRANCH  16  17
ATOM     17  N   UNL A   1      32.290  29.209  23.898  1.00  0.00    -0.332 N 
ATOM     18  C   UNL A   1      34.247  28.496  26.622  1.00  0.00     0.017 C 
ATOM     19  C   UNL A   1      33.348  27.792  25.595  1.00  0.00     0.019 C 
ATOM     20  C   UNL A   1      33.575  26.277  25.685  1.00  0.00     0.017 C 
ATOM     21  C   UNL A   1      31.917  28.144  25.932  1.00  0.00     0.073 C 
ATOM     22  C   UNL A   1      33.450  28.321  24.142  1.00  0.00     0.268 C 
ATOM     23  C   UNL A   1      31.651  29.432  25.186  1.00  0.00     0.263 C 
ATOM     24  H   UNL A   1      32.645  30.079  23.503  1.00  0.00     0.348 HD
ENDBRANCH  16  17
ENDBRANCH  15  16
ENDBRANCH  14  15
ENDBRANCH   9  14
ENDBRANCH   6   8
ENDBRANCH   5   6
ENDBRANCH   4   5
ENDBRANCH   3   4
ENDBRANCH   2   3
ENDBRANCH   1   2
BRANCH   1  25
ATOM     25  C   UNL A   1      40.098  21.657  26.525  1.00  0.00     0.188 C 
BRANCH  25  26
ATOM     26  O   UNL A   1      41.214  21.640  25.677  1.00  0.00    -0.376 OA
BRANCH  26  27
ATOM     27  C   UNL A   1      42.374  20.949  26.090  1.00  0.00     0.202 C 
BRANCH  27  28
ATOM     28  C   UNL A   1      43.808  21.470  25.852  1.00  0.00     0.261 C 
BRANCH  28  29
ATOM     29  O   UNL A   1      44.189  22.707  26.479  1.00  0.00    -0.460 OA
BRANCH  29  30
ATOM     30  C   UNL A   1      43.987  23.838  25.752  1.00  0.00     0.338 C 
ATOM     31  O   UNL A   1      44.149  23.973  24.546  1.00  0.00    -0.246 OA
BRANCH  30  32
ATOM     32  C   UNL A   1      43.295  24.850  26.586  1.00  0.00     0.060 A 
ATOM     33  C   UNL A   1      43.663  26.204  26.475  1.00  0.00     0.016 A 
ATOM     34  C   UNL A   1      42.303  24.470  27.489  1.00  0.00     0.016 A 
ATOM     35  C   UNL A   1      43.060  27.173  27.283  1.00  0.00     0.010 A 
ATOM     36  C   UNL A   1      41.723  25.437  28.319  1.00  0.00     0.010 A 
ATOM     37  C   UNL A   1      42.120  26.787  28.246  1.00  0.00    -0.014 A 
BRANCH  37  38
ATOM     38  C   UNL A   1      41.711  27.733  29.319  1.00  0.00     0.031 A 
ATOM     39  C   UNL A   1      42.450  27.684  30.630  1.00  0.00     0.074 A 
ATOM     40  C   UNL A   1      40.706  28.611  29.153  1.00  0.00     0.049 A 
ATOM     41  N   UNL A   1      42.212  28.320  31.748  1.00  0.00    -0.248 NA
ATOM     42  C   UNL A   1      43.615  26.784  30.685  1.00  0.00     0.031 C 
ATOM     43  C   UNL A   1      39.939  28.805  27.926  1.00  0.00     0.029 A 
ATOM     44  N   UNL A   1      40.146  29.497  30.045  1.00  0.00    -0.354 N 
ATOM     45  C   UNL A   1      43.185  27.888  32.642  1.00  0.00     0.074 A 
ATOM     46  C   UNL A   1      43.997  26.914  31.946  1.00  0.00     0.031 C 
ATOM     47  C   UNL A   1      38.993  29.735  28.147  1.00  0.00     0.029 A 
ATOM     48  C   UNL A   1      39.064  30.175  29.540  1.00  0.00     0.049 A 
ATOM     49  H   UNL A   1      40.490  29.632  30.957  1.00  0.00     0.167 HD
ATOM     50  C   UNL A   1      43.390  28.272  33.924  1.00  0.00     0.037 A 
ATOM     51  C   UNL A   1      38.210  31.029  30.143  1.00  0.00     0.037 A 
ATOM     52  C   UNL A   1      42.582  29.236  34.623  1.00  0.00     0.049 A 
ATOM     53  C   UNL A   1      38.405  31.376  31.600  1.00  0.00     0.074 A 
ATOM     54  C   UNL A   1      42.718  29.697  35.920  1.00  0.00     0.029 A 
ATOM     55  N   UNL A   1      41.480  29.882  34.083  1.00  0.00    -0.354 N 
ATOM     56  N   UNL A   1      39.336  30.976  32.431  1.00  0.00    -0.248 NA
ATOM     57  C   UNL A   1      37.426  32.295  32.200  1.00  0.00     0.031 C 
ATOM     58  C   UNL A   1      41.664  30.576  36.186  1.00  0.00     0.029 A 
ATOM     59  C   UNL A   1      40.911  30.716  35.031  1.00  0.00     0.049 A 
ATOM     60  H   UNL A   1      41.150  29.763  33.163  1.00  0.00     0.167 HD
ATOM     61  C   UNL A   1      39.081  31.626  33.635  1.00  0.00     0.074 A 
ATOM     62  C   UNL A   1      37.911  32.451  33.423  1.00  0.00     0.031 C 
ATOM     63  C   UNL A   1      39.757  31.549  34.808  1.00  0.00     0.037 A 
BRANCH  50  64
ATOM     64  C   UNL A   1      44.519  27.618  34.668  1.00  0.00     0.057 A 
ATOM     65  C   UNL A   1      44.349  26.422  35.379  1.00  0.00     0.134 A 
ATOM     66  C   UNL A   1      45.804  28.177  34.649  1.00  0.00     0.134 A 
ATOM     67  F   UNL A   1      43.141  25.840  35.450  1.00  0.00    -0.206 F 
ATOM     68  C   UNL A   1      45.406  25.821  36.063  1.00  0.00     0.040 A 
ATOM     69  C   UNL A   1      46.877  27.570  35.303  1.00  0.00     0.040 A 
ATOM     70  F   UNL A   1      46.041  29.318  33.984  1.00  0.00    -0.206 F 
ATOM     71  C   UNL A   1      46.677  26.392  36.019  1.00  0.00     0.006 A 
ENDBRANCH  50  64
BRANCH  51  72
ATOM     72  C   UNL A   1      37.075  31.616  29.383  1.00  0.00     0.057 A 
ATOM     73  C   UNL A   1      35.895  30.893  29.167  1.00  0.00     0.134 A 
ATOM     74  C   UNL A   1      37.157  32.894  28.816  1.00  0.00     0.134 A 
ATOM     75  F   UNL A   1      35.765  29.651  29.657  1.00  0.00    -0.206 F 
ATOM     76  C   UNL A   1      34.849  31.408  28.399  1.00  0.00     0.040 A 
ATOM     77  C   UNL A   1      36.107  33.435  28.072  1.00  0.00     0.040 A 
ATOM     78  F   UNL A   1      38.261  33.638  28.979  1.00  0.00    -0.206 F 
ATOM     79  C   UNL A   1      34.952  32.687  27.854  1.00  0.00     0.006 A 
ENDBRANCH  51  72
BRANCH  63  80
ATOM     80  C   UNL A   1      39.294  32.424  35.940  1.00  0.00     0.057 A 
ATOM     81  C   UNL A   1      38.406  31.970  36.924  1.00  0.00     0.134 A 
ATOM     82  C   UNL A   1      39.784  33.731  36.071  1.00  0.00     0.134 A 
ATOM     83  F   UNL A   1      37.891  30.733  36.856  1.00  0.00    -0.206 F 
ATOM     84  C   UNL A   1      38.002  32.791  37.979  1.00  0.00     0.040 A 
ATOM     85  C   UNL A   1      39.413  34.551  37.139  1.00  0.00     0.040 A 
ATOM     86  F   UNL A   1      40.647  34.229  35.172  1.00  0.00    -0.206 F 
ATOM     87  C   UNL A   1      38.512  34.084  38.092  1.00  0.00     0.006 A 
ENDBRANCH  63  80
ENDBRANCH  37  38
ENDBRANCH  30  32
ENDBRANCH  29  30
ENDBRANCH  28  29
ENDBRANCH  27  28
ENDBRANCH  26  27
ENDBRANCH  25  26
ENDBRANCH   1  25
TORSDOF 21
ENDMDL
MODEL 2
REMARK VINA RESULT:     -10.0      4.703     10.114
REMARK SMILES CC1(C)CC[N@H+](CCOc2ccc(C(=O)OCCOCCOCCOC(=O)c3ccc(-c4c5nc(c(-c6c(F)cccc6F)c6ccc([nH]6)c(-c6c(F)cccc6F)c6nc(c(-c7c(F)cccc7F)c7ccc4[nH]7)C=C6)C=C5)cc3)cc2)C1
REMARK SMILES IDX 20 1 19 2 18 3 17 4 16 5 14 6 15 7 13 8 10 9 11 10 83 11
REMARK SMILES IDX 12 12 82 13 9 14 8 15 7 16 6 17 1 18 2 19 3 20 4 21 84 22
REMARK SMILES IDX 5 23 21 25 22 26 23 27 24 28 25 29 26 30 27 31 28 32 29 33
REMARK SMILES IDX 81 34 30 35 80 36 31 37 32 38 33 39 74 40 34 41 79 42 73 43
REMARK SMILES IDX 75 44 35 45 78 46 72 47 71 48 36 50 62 51 45 52 61 53 46 54
REMARK SMILES IDX 49 55 60 56 76 57 47 58 48 59 59 61 77 62 50 63 37 64 38 65
REMARK SMILES IDX 43 66 39 67 40 68 42 69 44 70 41 71 63 72 64 73 69 74 65 75
REMARK SMILES IDX 66 76 68 77 70 78 67 79 51 80 52 81 57 82 53 83 54 84 56 85
REMARK SMILES IDX 58 86 55 87
REMARK H PARENT 6 24 75 49 49 60
REMARK Flexibility Score: inf
ROOT
ATOM      1  C   UNL A   1      32.949  35.678  29.334  1.00  0.00     0.188 C 
ENDROOT
BRANCH   1   2
ATOM      2  O   UNL A   1      33.061  34.269  29.308  1.00  0.00    -0.376 OA
BRANCH   2   3
ATOM      3  C   UNL A   1      33.229  33.595  28.074  1.00  0.00     0.202 C 
BRANCH   3   4
ATOM      4  C   UNL A   1      33.957  32.243  28.005  1.00  0.00     0.261 C 
BRANCH   4   5
ATOM      5  O   UNL A   1      33.197  31.149  27.466  1.00  0.00    -0.460 OA
BRANCH   5   6
ATOM      6  C   UNL A   1      33.898  30.049  27.085  1.00  0.00     0.338 C 
ATOM      7  O   UNL A   1      35.088  29.867  27.289  1.00  0.00    -0.246 OA
BRANCH   6   8
ATOM      8  C   UNL A   1      33.049  29.065  26.329  1.00  0.00     0.060 A 
ATOM      9  C   UNL A   1      31.993  26.669  25.422  1.00  0.00     0.119 A 
ATOM     10  C   UNL A   1      31.498  27.228  26.600  1.00  0.00     0.047 A 
ATOM     11  C   UNL A   1      32.760  27.422  24.549  1.00  0.00     0.047 A 
ATOM     12  C   UNL A   1      32.018  28.445  27.047  1.00  0.00     0.019 A 
ATOM     13  C   UNL A   1      33.354  28.584  25.040  1.00  0.00     0.019 A 
BRANCH   9  14
ATOM     14  O   UNL A   1      31.930  25.322  25.179  1.00  0.00    -0.488 OA
BRANCH  14  15
ATOM     15  C   UNL A   1      32.074  24.558  26.409  1.00  0.00     0.290 C 
BRANCH  15  16
ATOM     16  C   UNL A   1      31.852  23.024  26.241  1.00  0.00     0.304 C 
BRANCH  16  17
ATOM     17  N   UNL A   1      32.960  22.043  26.113  1.00  0.00    -0.332 N 
ATOM     18  C   UNL A   1      36.201  21.202  25.371  1.00  0.00     0.017 C 
ATOM     19  C   UNL A   1      35.290  22.436  25.460  1.00  0.00     0.019 C 
ATOM     20  C   UNL A   1      36.155  23.702  25.420  1.00  0.00     0.017 C 
ATOM     21  C   UNL A   1      34.348  22.387  24.278  1.00  0.00     0.073 C 
ATOM     22  C   UNL A   1      34.286  22.442  26.640  1.00  0.00     0.268 C 
ATOM     23  C   UNL A   1      33.174  21.564  24.755  1.00  0.00     0.263 C 
ATOM     24  H   UNL A   1      32.598  21.305  26.715  1.00  0.00     0.348 HD
ENDBRANCH  16  17
ENDBRANCH  15  16
ENDBRANCH  14  15
ENDBRANCH   9  14
ENDBRANCH   6   8
ENDBRANCH   5   6
ENDBRANCH   4   5
ENDBRANCH   3   4
ENDBRANCH   2   3
ENDBRANCH   1   2
BRANCH   1  25
ATOM     25  C   UNL A   1      33.314  36.468  30.602  1.00  0.00     0.188 C 
BRANCH  25  26
ATOM     26  O   UNL A   1      32.963  36.018  31.882  1.00  0.00    -0.376 OA
BRANCH  26  27
ATOM     27  C   UNL A   1      33.934  35.352  32.661  1.00  0.00     0.202 C 
BRANCH  27  28
ATOM     28  C   UNL A   1      35.324  34.945  32.126  1.00  0.00     0.261 C 
BRANCH  28  29
ATOM     29  O   UNL A   1      35.887  33.703  32.586  1.00  0.00    -0.460 OA
BRANCH  29  30
ATOM     30  C   UNL A   1      35.345  32.568  32.069  1.00  0.00     0.338 C 
ATOM     31  O   UNL A   1      34.155  32.335  31.901  1.00  0.00    -0.246 OA
BRANCH  30  32
ATOM     32  C   UNL A   1      36.418  31.722  31.494  1.00  0.00     0.060 A 
ATOM     33  C   UNL A   1      37.351  31.113  32.353  1.00  0.00     0.016 A 
ATOM     34  C   UNL A   1      36.520  31.541  30.116  1.00  0.00     0.016 A 
ATOM     35  C   UNL A   1      38.401  30.347  31.836  1.00  0.00     0.010 A 
ATOM     36  C   UNL A   1      37.590  30.802  29.598  1.00  0.00     0.010 A 
ATOM     37  C   UNL A   1      38.555  30.228  30.450  1.00  0.00    -0.014 A 
BRANCH  37  38
ATOM     38  C   UNL A   1      39.823  29.703  29.876  1.00  0.00     0.031 A 
ATOM     39  C   UNL A   1      40.977  30.657  29.709  1.00  0.00     0.074 A 
ATOM     40  C   UNL A   1      39.960  28.419  29.499  1.00  0.00     0.049 A 
ATOM     41  N   UNL A   1      42.138  30.471  29.136  1.00  0.00    -0.248 NA
ATOM     42  C   UNL A   1      40.786  32.008  30.260  1.00  0.00     0.031 C 
ATOM     43  C   UNL A   1      38.949  27.376  29.649  1.00  0.00     0.029 A 
ATOM     44  N   UNL A   1      41.016  27.781  28.889  1.00  0.00    -0.354 N 
ATOM     45  C   UNL A   1      42.809  31.684  29.244  1.00  0.00     0.074 A 
ATOM     46  C   UNL A   1      41.915  32.605  29.910  1.00  0.00     0.031 C 
ATOM     47  C   UNL A   1      39.424  26.232  29.125  1.00  0.00     0.029 A 
ATOM     48  C   UNL A   1      40.756  26.471  28.569  1.00  0.00     0.049 A 
ATOM     49  H   UNL A   1      41.874  28.223  28.701  1.00  0.00     0.167 HD
ATOM     50  C   UNL A   1      44.060  32.001  28.833  1.00  0.00     0.037 A 
ATOM     51  C   UNL A   1      41.497  25.578  27.882  1.00  0.00     0.037 A 
ATOM     52  C   UNL A   1      44.951  31.090  28.165  1.00  0.00     0.049 A 
ATOM     53  C   UNL A   1      42.854  25.980  27.354  1.00  0.00     0.074 A 
ATOM     54  C   UNL A   1      46.241  31.317  27.719  1.00  0.00     0.029 A 
ATOM     55  N   UNL A   1      44.641  29.778  27.838  1.00  0.00    -0.354 N 
ATOM     56  N   UNL A   1      43.486  27.122  27.476  1.00  0.00    -0.248 NA
ATOM     57  C   UNL A   1      43.599  24.965  26.595  1.00  0.00     0.031 C 
ATOM     58  C   UNL A   1      46.690  30.163  27.070  1.00  0.00     0.029 A 
ATOM     59  C   UNL A   1      45.705  29.193  27.173  1.00  0.00     0.049 A 
ATOM     60  H   UNL A   1      43.790  29.331  28.047  1.00  0.00     0.167 HD
ATOM     61  C   UNL A   1      44.715  26.948  26.847  1.00  0.00     0.074 A 
ATOM     62  C   UNL A   1      44.742  25.589  26.351  1.00  0.00     0.031 C 
ATOM     63  C   UNL A   1      45.732  27.833  26.698  1.00  0.00     0.037 A 
BRANCH  50  64
ATOM     64  C   UNL A   1      44.526  33.410  29.066  1.00  0.00     0.057 A 
ATOM     65  C   UNL A   1      45.145  33.801  30.260  1.00  0.00     0.134 A 
ATOM     66  C   UNL A   1      44.382  34.383  28.068  1.00  0.00     0.134 A 
ATOM     67  F   UNL A   1      45.303  32.922  31.263  1.00  0.00    -0.206 F 
ATOM     68  C   UNL A   1      45.578  35.112  30.464  1.00  0.00     0.040 A 
ATOM     69  C   UNL A   1      44.838  35.689  28.247  1.00  0.00     0.040 A 
ATOM     70  F   UNL A   1      43.803  34.077  26.896  1.00  0.00    -0.206 F 
ATOM     71  C   UNL A   1      45.432  36.058  29.451  1.00  0.00     0.006 A 
ENDBRANCH  50  64
BRANCH  51  72
ATOM     72  C   UNL A   1      40.976  24.208  27.629  1.00  0.00     0.057 A 
ATOM     73  C   UNL A   1      41.515  23.094  28.283  1.00  0.00     0.134 A 
ATOM     74  C   UNL A   1      39.959  23.974  26.694  1.00  0.00     0.134 A 
ATOM     75  F   UNL A   1      42.512  23.246  29.167  1.00  0.00    -0.206 F 
ATOM     76  C   UNL A   1      41.078  21.797  28.004  1.00  0.00     0.040 A 
ATOM     77  C   UNL A   1      39.491  22.686  26.428  1.00  0.00     0.040 A 
ATOM     78  F   UNL A   1      39.404  24.996  26.027  1.00  0.00    -0.206 F 
ATOM     79  C   UNL A   1      40.058  21.592  27.077  1.00  0.00     0.006 A 
ENDBRANCH  51  72
BRANCH  63  80
ATOM     80  C   UNL A   1      46.987  27.349  26.027  1.00  0.00     0.057 A 
ATOM     81  C   UNL A   1      48.061  26.807  26.745  1.00  0.00     0.134 A 
ATOM     82  C   UNL A   1      47.103  27.385  24.630  1.00  0.00     0.134 A 
ATOM     83  F   UNL A   1      48.022  26.750  28.085  1.00  0.00    -0.206 F 
ATOM     84  C   UNL A   1      49.212  26.345  26.103  1.00  0.00     0.040 A 
ATOM     85  C   UNL A   1      48.234  26.896  23.974  1.00  0.00     0.040 A 
ATOM     86  F   UNL A   1      46.108  27.879  23.876  1.00  0.00    -0.206 F 
ATOM     87  C   UNL A   1      49.297  26.382  24.712  1.00  0.00     0.006 A 
ENDBRANCH  63  80
ENDBRANCH  37  38
ENDBRANCH  30  32
ENDBRANCH  29  30
ENDBRANCH  28  29
ENDBRANCH  27  28
ENDBRANCH  26  27
ENDBRANCH  25  26
ENDBRANCH   1  25
TORSDOF 21
ENDMDL
MODEL 3
REMARK VINA RESULT:      -9.9      4.714      9.965
REMARK SMILES CC1(C)CC[N@H+](CCOc2ccc(C(=O)OCCOCCOCCOC(=O)c3ccc(-c4c5nc(c(-c6c(F)cccc6F)c6ccc([nH]6)c(-c6c(F)cccc6F)c6nc(c(-c7c(F)cccc7F)c7ccc4[nH]7)C=C6)C=C5)cc3)cc2)C1
REMARK SMILES IDX 20 1 19 2 18 3 17 4 16 5 14 6 15 7 13 8 10 9 11 10 83 11
REMARK SMILES IDX 12 12 82 13 9 14 8 15 7 16 6 17 1 18 2 19 3 20 4 21 84 22
REMARK SMILES IDX 5 23 21 25 22 26 23 27 24 28 25 29 26 30 27 31 28 32 29 33
REMARK SMILES IDX 81 34 30 35 80 36 31 37 32 38 33 39 74 40 34 41 79 42 73 43
REMARK SMILES IDX 75 44 35 45 78 46 72 47 71 48 36 50 62 51 45 52 61 53 46 54
REMARK SMILES IDX 49 55 60 56 76 57 47 58 48 59 59 61 77 62 50 63 37 64 38 65
REMARK SMILES IDX 43 66 39 67 40 68 42 69 44 70 41 71 63 72 64 73 69 74 65 75
REMARK SMILES IDX 66 76 68 77 70 78 67 79 51 80 52 81 57 82 53 83 54 84 56 85
REMARK SMILES IDX 58 86 55 87
REMARK H PARENT 6 24 75 49 49 60
REMARK Flexibility Score: inf
ROOT
ATOM      1  C   UNL A   1      32.903  35.034  28.900  1.00  0.00     0.188 C 
ENDROOT
BRANCH   1   2
ATOM      2  O   UNL A   1      32.945  33.838  28.147  1.00  0.00    -0.376 OA
BRANCH   2   3
ATOM      3  C   UNL A   1      33.885  32.830  28.472  1.00  0.00     0.202 C 
BRANCH   3   4
ATOM      4  C   UNL A   1      34.252  31.736  27.457  1.00  0.00     0.261 C 
BRANCH   4   5
ATOM      5  O   UNL A   1      33.494  30.518  27.546  1.00  0.00    -0.460 OA
BRANCH   5   6
ATOM      6  C   UNL A   1      34.175  29.359  27.351  1.00  0.00     0.338 C 
ATOM      7  O   UNL A   1      35.384  29.226  27.459  1.00  0.00    -0.246 OA
BRANCH   6   8
ATOM      8  C   UNL A   1      33.275  28.229  26.936  1.00  0.00     0.060 A 
ATOM      9  C   UNL A   1      31.607  26.634  25.403  1.00  0.00     0.119 A 
ATOM     10  C   UNL A   1      32.988  26.475  25.295  1.00  0.00     0.047 A 
ATOM     11  C   UNL A   1      31.056  27.333  26.463  1.00  0.00     0.047 A 
ATOM     12  C   UNL A   1      33.828  27.266  26.083  1.00  0.00     0.019 A 
ATOM     13  C   UNL A   1      31.886  28.197  27.176  1.00  0.00     0.019 A 
BRANCH   9  14
ATOM     14  O   UNL A   1      30.759  26.301  24.379  1.00  0.00    -0.488 OA
BRANCH  14  15
ATOM     15  C   UNL A   1      29.893  27.418  24.029  1.00  0.00     0.290 C 
BRANCH  15  16
ATOM     16  C   UNL A   1      30.332  28.194  22.750  1.00  0.00     0.304 C 
BRANCH  16  17
ATOM     17  N   UNL A   1      30.383  29.676  22.665  1.00  0.00    -0.332 N 
ATOM     18  C   UNL A   1      28.948  32.782  22.889  1.00  0.00     0.017 C 
ATOM     19  C   UNL A   1      28.603  31.301  23.108  1.00  0.00     0.019 C 
ATOM     20  C   UNL A   1      27.278  31.203  23.876  1.00  0.00     0.017 C 
ATOM     21  C   UNL A   1      28.487  30.658  21.745  1.00  0.00     0.073 C 
ATOM     22  C   UNL A   1      29.723  30.442  23.748  1.00  0.00     0.268 C 
ATOM     23  C   UNL A   1      29.891  30.215  21.407  1.00  0.00     0.263 C 
ATOM     24  H   UNL A   1      31.389  29.812  22.761  1.00  0.00     0.348 HD
ENDBRANCH  16  17
ENDBRANCH  15  16
ENDBRANCH  14  15
ENDBRANCH   9  14
ENDBRANCH   6   8
ENDBRANCH   5   6
ENDBRANCH   4   5
ENDBRANCH   3   4
ENDBRANCH   2   3
ENDBRANCH   1   2
BRANCH   1  25
ATOM     25  C   UNL A   1      33.969  35.323  29.970  1.00  0.00     0.188 C 
BRANCH  25  26
ATOM     26  O   UNL A   1      33.677  36.060  31.125  1.00  0.00    -0.376 OA
BRANCH  26  27
ATOM     27  C   UNL A   1      33.912  35.472  32.387  1.00  0.00     0.202 C 
BRANCH  27  28
ATOM     28  C   UNL A   1      35.298  34.974  32.852  1.00  0.00     0.261 C 
BRANCH  28  29
ATOM     29  O   UNL A   1      35.997  34.042  32.007  1.00  0.00    -0.460 OA
BRANCH  29  30
ATOM     30  C   UNL A   1      35.639  32.736  32.125  1.00  0.00     0.338 C 
ATOM     31  O   UNL A   1      34.547  32.304  32.469  1.00  0.00    -0.246 OA
BRANCH  30  32
ATOM     32  C   UNL A   1      36.693  31.875  31.535  1.00  0.00     0.060 A 
ATOM     33  C   UNL A   1      37.598  31.214  32.385  1.00  0.00     0.016 A 
ATOM     34  C   UNL A   1      36.804  31.733  30.153  1.00  0.00     0.016 A 
ATOM     35  C   UNL A   1      38.631  30.433  31.855  1.00  0.00     0.010 A 
ATOM     36  C   UNL A   1      37.857  30.978  29.623  1.00  0.00     0.010 A 
ATOM     37  C   UNL A   1      38.796  30.351  30.467  1.00  0.00    -0.014 A 
BRANCH  37  38
ATOM     38  C   UNL A   1      40.054  29.806  29.891  1.00  0.00     0.031 A 
ATOM     39  C   UNL A   1      41.217  30.745  29.705  1.00  0.00     0.074 A 
ATOM     40  C   UNL A   1      40.174  28.516  29.527  1.00  0.00     0.049 A 
ATOM     41  N   UNL A   1      42.372  30.540  29.126  1.00  0.00    -0.248 NA
ATOM     42  C   UNL A   1      41.045  32.104  30.244  1.00  0.00     0.031 C 
ATOM     43  C   UNL A   1      39.153  27.486  29.694  1.00  0.00     0.029 A 
ATOM     44  N   UNL A   1      41.218  27.860  28.916  1.00  0.00    -0.354 N 
ATOM     45  C   UNL A   1      43.057  31.746  29.217  1.00  0.00     0.074 A 
ATOM     46  C   UNL A   1      42.178  32.685  29.880  1.00  0.00     0.031 C 
ATOM     47  C   UNL A   1      39.611  26.332  29.179  1.00  0.00     0.029 A 
ATOM     48  C   UNL A   1      40.942  26.550  28.612  1.00  0.00     0.049 A 
ATOM     49  H   UNL A   1      42.081  28.291  28.717  1.00  0.00     0.167 HD
ATOM     50  C   UNL A   1      44.309  32.046  28.794  1.00  0.00     0.037 A 
ATOM     51  C   UNL A   1      41.669  25.641  27.928  1.00  0.00     0.037 A 
ATOM     52  C   UNL A   1      45.185  31.117  28.130  1.00  0.00     0.049 A 
ATOM     53  C   UNL A   1      43.026  26.023  27.387  1.00  0.00     0.074 A 
ATOM     54  C   UNL A   1      46.474  31.325  27.672  1.00  0.00     0.029 A 
ATOM     55  N   UNL A   1      44.858  29.806  27.819  1.00  0.00    -0.354 N 
ATOM     56  N   UNL A   1      43.672  27.159  27.493  1.00  0.00    -0.248 NA
ATOM     57  C   UNL A   1      43.754  24.991  26.633  1.00  0.00     0.031 C 
ATOM     58  C   UNL A   1      46.906  30.160  27.033  1.00  0.00     0.029 A 
ATOM     59  C   UNL A   1      45.911  29.202  27.153  1.00  0.00     0.049 A 
ATOM     60  H   UNL A   1      44.003  29.370  28.039  1.00  0.00     0.167 HD
ATOM     61  C   UNL A   1      44.894  26.965  26.857  1.00  0.00     0.074 A 
ATOM     62  C   UNL A   1      44.902  25.600  26.376  1.00  0.00     0.031 C 
ATOM     63  C   UNL A   1      45.920  27.837  26.692  1.00  0.00     0.037 A 
BRANCH  50  64
ATOM     64  C   UNL A   1      44.792  33.451  29.009  1.00  0.00     0.057 A 
ATOM     65  C   UNL A   1      44.494  34.486  28.112  1.00  0.00     0.134 A 
ATOM     66  C   UNL A   1      45.542  33.781  30.146  1.00  0.00     0.134 A 
ATOM     67  F   UNL A   1      43.792  34.236  26.996  1.00  0.00    -0.206 F 
ATOM     68  C   UNL A   1      44.946  35.789  28.324  1.00  0.00     0.040 A 
ATOM     69  C   UNL A   1      45.973  35.087  30.385  1.00  0.00     0.040 A 
ATOM     70  F   UNL A   1      45.859  32.841  31.050  1.00  0.00    -0.206 F 
ATOM     71  C   UNL A   1      45.681  36.094  29.469  1.00  0.00     0.006 A 
ENDBRANCH  50  64
BRANCH  51  72
ATOM     72  C   UNL A   1      41.131  24.275  27.694  1.00  0.00     0.057 A 
ATOM     73  C   UNL A   1      41.643  23.165  28.376  1.00  0.00     0.134 A 
ATOM     74  C   UNL A   1      40.123  24.039  26.749  1.00  0.00     0.134 A 
ATOM     75  F   UNL A   1      42.631  23.320  29.271  1.00  0.00    -0.206 F 
ATOM     76  C   UNL A   1      41.191  21.870  28.115  1.00  0.00     0.040 A 
ATOM     77  C   UNL A   1      39.640  22.753  26.500  1.00  0.00     0.040 A 
ATOM     78  F   UNL A   1      39.593  25.056  26.055  1.00  0.00    -0.206 F 
ATOM     79  C   UNL A   1      40.181  21.662  27.177  1.00  0.00     0.006 A 
ENDBRANCH  51  72
BRANCH  63  80
ATOM     80  C   UNL A   1      47.165  27.332  26.017  1.00  0.00     0.057 A 
ATOM     81  C   UNL A   1      48.215  26.738  26.729  1.00  0.00     0.134 A 
ATOM     82  C   UNL A   1      47.293  27.401  24.622  1.00  0.00     0.134 A 
ATOM     83  F   UNL A   1      48.164  26.647  28.067  1.00  0.00    -0.206 F 
ATOM     84  C   UNL A   1      49.356  26.257  26.083  1.00  0.00     0.040 A 
ATOM     85  C   UNL A   1      48.414  26.895  23.962  1.00  0.00     0.040 A 
ATOM     86  F   UNL A   1      46.320  27.946  23.875  1.00  0.00    -0.206 F 
ATOM     87  C   UNL A   1      49.454  26.329  24.694  1.00  0.00     0.006 A 
ENDBRANCH  63  80
ENDBRANCH  37  38
ENDBRANCH  30  32
ENDBRANCH  29  30
ENDBRANCH  28  29
ENDBRANCH  27  28
ENDBRANCH  26  27
ENDBRANCH  25  26
ENDBRANCH   1  25
TORSDOF 21
ENDMDL
