MODEL 1
REMARK VINA RESULT:     -12.5      0.000      0.000
REMARK SMILES Cc1cccc(O[C@H](C)C(=O)NNC(=O)[C@H]2[C@@H]3CC[C@@H](C3)[C@@H]2C(=O)OCCOCCOCCOC(=O)c2ccc(-c3c4nc(c(-c5c(F)cccc5F)c5ccc([nH]5)c(-c5c(F)cccc5F)c5nc(c(-c6c(F)cccc6F)c6ccc3[nH]6)C=C5)C=C4)cc2)c1
REMARK SMILES IDX 28 1 27 2 26 3 25 4 23 5 24 6 22 7 16 8 17 9 18 10 21 11
REMARK SMILES IDX 20 12 19 13 14 14 13 15 15 17 12 18 10 19 11 20 8 22 9 23
REMARK SMILES IDX 7 24 6 25 1 26 2 27 3 28 91 29 4 30 5 31 29 32 30 33 31 34
REMARK SMILES IDX 32 35 33 36 34 37 35 38 36 39 37 40 38 41 90 42 39 43 89 44
REMARK SMILES IDX 40 45 41 46 42 47 83 48 43 49 88 50 82 51 84 52 44 53 87 54
REMARK SMILES IDX 81 55 80 56 45 58 71 59 54 60 70 61 55 62 58 63 69 64 85 65
REMARK SMILES IDX 56 66 57 67 68 69 86 70 59 71 46 72 47 73 52 74 48 75 49 76
REMARK SMILES IDX 51 77 53 78 50 79 72 80 73 81 78 82 74 83 75 84 77 85 79 86
REMARK SMILES IDX 76 87 60 88 61 89 66 90 62 91 63 92 65 93 67 94 64 95
REMARK H PARENT 13 16 12 21 84 57 58 68
REMARK Flexibility Score: inf
ROOT
ATOM      1  O   UNL A   1      38.420  21.858  26.063  1.00  0.00    -0.376 OA
ENDROOT
BRANCH   1   2
ATOM      2  C   UNL A   1      37.984  23.222  25.898  1.00  0.00     0.202 C 
BRANCH   2   3
ATOM      3  C   UNL A   1      36.454  24.031  25.714  1.00  0.00     0.261 C 
BRANCH   3   4
ATOM      4  O   UNL A   1      35.205  24.299  24.375  1.00  0.00    -0.463 OA
BRANCH   4   5
ATOM      5  C   UNL A   1      34.259  23.580  23.457  1.00  0.00     0.310 C 
ATOM      6  O   UNL A   1      34.337  23.466  22.228  1.00  0.00    -0.252 OA
BRANCH   5   7
ATOM      7  C   UNL A   1      33.057  22.823  23.930  1.00  0.00     0.115 C 
ATOM      8  C   UNL A   1      32.801  23.200  25.437  1.00  0.00     0.098 C 
ATOM      9  C   UNL A   1      32.638  21.840  26.179  1.00  0.00     0.003 C 
ATOM     10  C   UNL A   1      34.036  21.272  26.469  1.00  0.00     0.005 C 
ATOM     11  C   UNL A   1      32.150  20.906  25.076  1.00  0.00     0.009 C 
ATOM     12  C   UNL A   1      33.307  21.257  24.129  1.00  0.00     0.004 C 
ATOM     13  C   UNL A   1      34.490  20.831  25.070  1.00  0.00     0.005 C 
BRANCH   8  14
ATOM     14  C   UNL A   1      31.721  24.144  25.891  1.00  0.00     0.242 C 
ATOM     15  N   UNL A   1      31.833  25.490  25.830  1.00  0.00    -0.267 N 
ATOM     16  H   UNL A   1      31.016  26.001  26.031  1.00  0.00     0.191 HD
ATOM     17  O   UNL A   1      30.623  23.690  26.240  1.00  0.00    -0.273 OA
BRANCH  15  18
ATOM     18  N   UNL A   1      32.943  26.223  25.523  1.00  0.00    -0.264 N 
ATOM     19  C   UNL A   1      33.070  27.530  25.917  1.00  0.00     0.279 C 
ATOM     20  O   UNL A   1      34.163  27.917  26.340  1.00  0.00    -0.269 OA
ATOM     21  H   UNL A   1      33.669  25.803  25.008  1.00  0.00     0.191 HD
BRANCH  19  22
ATOM     22  C   UNL A   1      31.924  28.526  25.579  1.00  0.00     0.260 C 
ATOM     23  C   UNL A   1      31.889  29.644  26.627  1.00  0.00     0.064 C 
BRANCH  22  24
ATOM     24  O   UNL A   1      31.490  28.854  24.274  1.00  0.00    -0.481 OA
BRANCH  24  25
ATOM     25  C   UNL A   1      30.224  28.932  23.796  1.00  0.00     0.120 A 
ATOM     26  C   UNL A   1      27.920  31.918  23.129  1.00  0.00     0.044 C 
ATOM     27  C   UNL A   1      28.420  30.513  23.291  1.00  0.00    -0.047 A 
ATOM     28  C   UNL A   1      27.575  29.448  22.986  1.00  0.00     0.003 A 
ATOM     29  C   UNL A   1      29.732  30.242  23.710  1.00  0.00     0.049 A 
ATOM     30  C   UNL A   1      28.067  28.149  23.009  1.00  0.00     0.004 A 
ATOM     31  C   UNL A   1      29.400  27.905  23.355  1.00  0.00     0.046 A 
ENDBRANCH  24  25
ENDBRANCH  22  24
ENDBRANCH  19  22
ENDBRANCH  15  18
ENDBRANCH   8  14
ENDBRANCH   5   7
ENDBRANCH   4   5
ENDBRANCH   3   4
ENDBRANCH   2   3
ENDBRANCH   1   2
BRANCH   1  32
ATOM     32  C   UNL A   1      39.766  21.407  26.265  1.00  0.00     0.188 C 
BRANCH  32  33
ATOM     33  C   UNL A   1      40.142  19.963  26.061  1.00  0.00     0.188 C 
BRANCH  33  34
ATOM     34  O   UNL A   1      41.537  19.887  25.914  1.00  0.00    -0.376 OA
BRANCH  34  35
ATOM     35  C   UNL A   1      42.273  20.668  26.825  1.00  0.00     0.202 C 
BRANCH  35  36
ATOM     36  C   UNL A   1      43.116  21.713  26.088  1.00  0.00     0.261 C 
BRANCH  36  37
ATOM     37  O   UNL A   1      42.897  23.027  26.659  1.00  0.00    -0.460 OA
BRANCH  37  38
ATOM     38  C   UNL A   1      42.628  24.053  25.784  1.00  0.00     0.338 C 
ATOM     39  O   UNL A   1      43.363  24.391  24.858  1.00  0.00    -0.246 OA
BRANCH  38  40
ATOM     40  C   UNL A   1      41.507  24.902  26.299  1.00  0.00     0.060 A 
ATOM     41  C   UNL A   1      41.238  26.202  25.838  1.00  0.00     0.016 A 
ATOM     42  C   UNL A   1      41.111  24.622  27.554  1.00  0.00     0.016 A 
ATOM     43  C   UNL A   1      40.952  27.304  26.738  1.00  0.00     0.010 A 
ATOM     44  C   UNL A   1      41.053  25.723  28.392  1.00  0.00     0.010 A 
ATOM     45  C   UNL A   1      41.044  27.170  28.122  1.00  0.00    -0.014 A 
BRANCH  45  46
ATOM     46  C   UNL A   1      41.062  28.576  29.278  1.00  0.00     0.031 A 
ATOM     47  C   UNL A   1      39.835  29.896  29.564  1.00  0.00     0.074 A 
ATOM     48  C   UNL A   1      42.225  28.870  29.899  1.00  0.00     0.049 A 
ATOM     49  N   UNL A   1      40.110  31.187  29.618  1.00  0.00    -0.248 NA
ATOM     50  C   UNL A   1      38.260  29.857  29.472  1.00  0.00     0.031 C 
ATOM     51  C   UNL A   1      42.455  29.841  30.962  1.00  0.00     0.029 A 
ATOM     52  N   UNL A   1      43.494  28.333  29.666  1.00  0.00    -0.354 N 
ATOM     53  C   UNL A   1      38.875  31.871  29.707  1.00  0.00     0.074 A 
ATOM     54  C   UNL A   1      37.920  31.065  29.093  1.00  0.00     0.031 C 
ATOM     55  C   UNL A   1      43.781  30.045  31.066  1.00  0.00     0.029 A 
ATOM     56  C   UNL A   1      44.410  29.352  29.954  1.00  0.00     0.049 A 
ATOM     57  H   UNL A   1      43.702  27.420  29.361  1.00  0.00     0.167 HD
ATOM     58  C   UNL A   1      38.601  32.832  30.635  1.00  0.00     0.037 A 
ATOM     59  C   UNL A   1      45.134  29.889  28.932  1.00  0.00     0.037 A 
ATOM     60  C   UNL A   1      39.865  33.299  31.138  1.00  0.00     0.049 A 
ATOM     61  C   UNL A   1      44.812  31.361  28.740  1.00  0.00     0.074 A 
ATOM     62  C   UNL A   1      40.681  32.988  32.206  1.00  0.00     0.029 A 
ATOM     63  N   UNL A   1      40.677  33.856  30.187  1.00  0.00    -0.354 N 
ATOM     64  N   UNL A   1      43.943  32.030  29.455  1.00  0.00    -0.248 NA
ATOM     65  C   UNL A   1      45.405  32.185  27.692  1.00  0.00     0.031 C 
ATOM     66  C   UNL A   1      42.031  33.280  31.799  1.00  0.00     0.029 A 
ATOM     67  C   UNL A   1      42.005  33.803  30.515  1.00  0.00     0.049 A 
ATOM     68  H   UNL A   1      40.341  34.254  29.352  1.00  0.00     0.167 HD
ATOM     69  C   UNL A   1      43.803  33.293  28.961  1.00  0.00     0.074 A 
ATOM     70  C   UNL A   1      44.738  33.342  27.849  1.00  0.00     0.031 C 
ATOM     71  C   UNL A   1      42.922  34.210  29.461  1.00  0.00     0.037 A 
BRANCH  58  72
ATOM     72  C   UNL A   1      37.205  33.112  31.226  1.00  0.00     0.057 A 
ATOM     73  C   UNL A   1      36.904  32.632  32.512  1.00  0.00     0.134 A 
ATOM     74  C   UNL A   1      36.093  33.749  30.609  1.00  0.00     0.134 A 
ATOM     75  F   UNL A   1      37.853  32.086  33.285  1.00  0.00    -0.206 F 
ATOM     76  C   UNL A   1      35.616  32.685  33.081  1.00  0.00     0.040 A 
ATOM     77  C   UNL A   1      34.787  33.751  31.136  1.00  0.00     0.040 A 
ATOM     78  F   UNL A   1      36.194  34.485  29.499  1.00  0.00    -0.206 F 
ATOM     79  C   UNL A   1      34.541  33.209  32.380  1.00  0.00     0.006 A 
ENDBRANCH  58  72
BRANCH  59  80
ATOM     80  C   UNL A   1      45.506  28.877  27.878  1.00  0.00     0.057 A 
ATOM     81  C   UNL A   1      46.586  27.995  28.137  1.00  0.00     0.134 A 
ATOM     82  C   UNL A   1      44.677  28.523  26.807  1.00  0.00     0.134 A 
ATOM     83  F   UNL A   1      47.450  28.257  29.133  1.00  0.00    -0.206 F 
ATOM     84  C   UNL A   1      46.742  26.771  27.476  1.00  0.00     0.040 A 
ATOM     85  C   UNL A   1      44.848  27.313  26.108  1.00  0.00     0.040 A 
ATOM     86  F   UNL A   1      43.611  29.269  26.489  1.00  0.00    -0.206 F 
ATOM     87  C   UNL A   1      45.857  26.418  26.467  1.00  0.00     0.006 A 
ENDBRANCH  59  80
BRANCH  71  88
ATOM     88  C   UNL A   1      42.824  35.605  28.896  1.00  0.00     0.057 A 
ATOM     89  C   UNL A   1      43.292  36.701  29.625  1.00  0.00     0.134 A 
ATOM     90  C   UNL A   1      42.166  35.918  27.685  1.00  0.00     0.134 A 
ATOM     91  F   UNL A   1      43.870  36.537  30.824  1.00  0.00    -0.206 F 
ATOM     92  C   UNL A   1      43.173  38.011  29.153  1.00  0.00     0.040 A 
ATOM     93  C   UNL A   1      41.968  37.226  27.245  1.00  0.00     0.040 A 
ATOM     94  F   UNL A   1      41.711  34.982  26.842  1.00  0.00    -0.206 F 
ATOM     95  C   UNL A   1      42.496  38.279  27.970  1.00  0.00     0.006 A 
ENDBRANCH  71  88
ENDBRANCH  45  46
ENDBRANCH  38  40
ENDBRANCH  37  38
ENDBRANCH  36  37
ENDBRANCH  35  36
ENDBRANCH  34  35
ENDBRANCH  33  34
ENDBRANCH  32  33
ENDBRANCH   1  32
TORSDOF 22
ENDMDL
MODEL 2
REMARK VINA RESULT:     -12.3      1.793      2.619
REMARK SMILES Cc1cccc(O[C@H](C)C(=O)NNC(=O)[C@H]2[C@@H]3CC[C@@H](C3)[C@@H]2C(=O)OCCOCCOCCOC(=O)c2ccc(-c3c4nc(c(-c5c(F)cccc5F)c5ccc([nH]5)c(-c5c(F)cccc5F)c5nc(c(-c6c(F)cccc6F)c6ccc3[nH]6)C=C5)C=C4)cc2)c1
REMARK SMILES IDX 28 1 27 2 26 3 25 4 23 5 24 6 22 7 16 8 17 9 18 10 21 11
REMARK SMILES IDX 20 12 19 13 14 14 13 15 15 17 12 18 10 19 11 20 8 22 9 23
REMARK SMILES IDX 7 24 6 25 1 26 2 27 3 28 91 29 4 30 5 31 29 32 30 33 31 34
REMARK SMILES IDX 32 35 33 36 34 37 35 38 36 39 37 40 38 41 90 42 39 43 89 44
REMARK SMILES IDX 40 45 41 46 42 47 83 48 43 49 88 50 82 51 84 52 44 53 87 54
REMARK SMILES IDX 81 55 80 56 45 58 71 59 54 60 70 61 55 62 58 63 69 64 85 65
REMARK SMILES IDX 56 66 57 67 68 69 86 70 59 71 46 72 47 73 52 74 48 75 49 76
REMARK SMILES IDX 51 77 53 78 50 79 72 80 73 81 78 82 74 83 75 84 77 85 79 86
REMARK SMILES IDX 76 87 60 88 61 89 66 90 62 91 63 92 65 93 67 94 64 95
REMARK H PARENT 13 16 12 21 84 57 58 68
REMARK Flexibility Score: inf
ROOT
ATOM      1  O   UNL A   1      40.518  20.540  26.799  1.00  0.00    -0.376 OA
ENDROOT
BRANCH   1   2
ATOM      2  C   UNL A   1      39.740  21.624  26.254  1.00  0.00     0.202 C 
BRANCH   2   3
ATOM      3  C   UNL A   1      38.105  21.830  25.697  1.00  0.00     0.261 C 
BRANCH   3   4
ATOM      4  O   UNL A   1      36.644  22.888  26.113  1.00  0.00    -0.463 OA
BRANCH   4   5
ATOM      5  C   UNL A   1      35.169  22.839  26.388  1.00  0.00     0.310 C 
ATOM      6  O   UNL A   1      34.606  22.792  27.488  1.00  0.00    -0.252 OA
BRANCH   5   7
ATOM      7  C   UNL A   1      34.122  22.895  25.319  1.00  0.00     0.115 C 
ATOM      8  C   UNL A   1      32.729  22.577  25.981  1.00  0.00     0.098 C 
ATOM      9  C   UNL A   1      32.085  21.482  25.079  1.00  0.00     0.003 C 
ATOM     10  C   UNL A   1      32.678  20.119  25.468  1.00  0.00     0.005 C 
ATOM     11  C   UNL A   1      32.743  21.726  23.724  1.00  0.00     0.009 C 
ATOM     12  C   UNL A   1      34.168  21.670  24.294  1.00  0.00     0.004 C 
ATOM     13  C   UNL A   1      34.099  20.223  24.898  1.00  0.00     0.005 C 
BRANCH   8  14
ATOM     14  C   UNL A   1      31.697  23.624  26.301  1.00  0.00     0.242 C 
ATOM     15  N   UNL A   1      31.458  24.700  25.518  1.00  0.00    -0.267 N 
ATOM     16  H   UNL A   1      30.674  25.244  25.757  1.00  0.00     0.191 HD
ATOM     17  O   UNL A   1      30.939  23.457  27.266  1.00  0.00    -0.273 OA
BRANCH  15  18
ATOM     18  N   UNL A   1      32.176  25.121  24.436  1.00  0.00    -0.264 N 
ATOM     19  C   UNL A   1      32.552  26.431  24.290  1.00  0.00     0.279 C 
ATOM     20  O   UNL A   1      33.688  26.678  23.876  1.00  0.00    -0.269 OA
ATOM     21  H   UNL A   1      32.429  24.468  23.743  1.00  0.00     0.191 HD
BRANCH  19  22
ATOM     22  C   UNL A   1      31.464  27.537  24.404  1.00  0.00     0.260 C 
ATOM     23  C   UNL A   1      31.665  28.325  25.703  1.00  0.00     0.064 C 
BRANCH  22  24
ATOM     24  O   UNL A   1      30.893  28.232  23.313  1.00  0.00    -0.481 OA
BRANCH  24  25
ATOM     25  C   UNL A   1      29.680  28.830  23.229  1.00  0.00     0.120 A 
ATOM     26  C   UNL A   1      28.638  32.515  23.256  1.00  0.00     0.044 C 
ATOM     27  C   UNL A   1      28.573  31.018  23.270  1.00  0.00    -0.047 A 
ATOM     28  C   UNL A   1      27.331  30.387  23.234  1.00  0.00     0.003 A 
ATOM     29  C   UNL A   1      29.735  30.230  23.285  1.00  0.00     0.049 A 
ATOM     30  C   UNL A   1      27.263  29.004  23.117  1.00  0.00     0.004 A 
ATOM     31  C   UNL A   1      28.434  28.242  23.055  1.00  0.00     0.046 A 
ENDBRANCH  24  25
ENDBRANCH  22  24
ENDBRANCH  19  22
ENDBRANCH  15  18
ENDBRANCH   8  14
ENDBRANCH   5   7
ENDBRANCH   4   5
ENDBRANCH   3   4
ENDBRANCH   2   3
ENDBRANCH   1   2
BRANCH   1  32
ATOM     32  C   UNL A   1      41.250  19.554  26.060  1.00  0.00     0.188 C 
BRANCH  32  33
ATOM     33  C   UNL A   1      42.622  19.111  26.498  1.00  0.00     0.188 C 
BRANCH  33  34
ATOM     34  O   UNL A   1      43.112  18.194  25.552  1.00  0.00    -0.376 OA
BRANCH  34  35
ATOM     35  C   UNL A   1      43.895  18.761  24.528  1.00  0.00     0.202 C 
BRANCH  35  36
ATOM     36  C   UNL A   1      44.875  19.790  25.099  1.00  0.00     0.261 C 
BRANCH  36  37
ATOM     37  O   UNL A   1      44.667  21.081  24.475  1.00  0.00    -0.460 OA
BRANCH  37  38
ATOM     38  C   UNL A   1      45.079  22.190  25.177  1.00  0.00     0.338 C 
ATOM     39  O   UNL A   1      46.196  22.329  25.669  1.00  0.00    -0.246 OA
BRANCH  38  40
ATOM     40  C   UNL A   1      43.905  23.047  25.540  1.00  0.00     0.060 A 
ATOM     41  C   UNL A   1      43.711  24.350  25.052  1.00  0.00     0.016 A 
ATOM     42  C   UNL A   1      43.342  22.768  26.729  1.00  0.00     0.016 A 
ATOM     43  C   UNL A   1      43.316  25.453  25.909  1.00  0.00     0.010 A 
ATOM     44  C   UNL A   1      43.181  23.866  27.556  1.00  0.00     0.010 A 
ATOM     45  C   UNL A   1      43.220  25.315  27.292  1.00  0.00    -0.014 A 
BRANCH  45  46
ATOM     46  C   UNL A   1      43.095  26.717  28.445  1.00  0.00     0.031 A 
ATOM     47  C   UNL A   1      41.714  27.864  28.776  1.00  0.00     0.074 A 
ATOM     48  C   UNL A   1      44.231  27.167  29.021  1.00  0.00     0.049 A 
ATOM     49  N   UNL A   1      41.817  29.181  28.819  1.00  0.00    -0.248 NA
ATOM     50  C   UNL A   1      40.157  27.616  28.743  1.00  0.00     0.031 C 
ATOM     51  C   UNL A   1      44.369  28.166  30.074  1.00  0.00     0.029 A 
ATOM     52  N   UNL A   1      45.550  26.801  28.741  1.00  0.00    -0.354 N 
ATOM     53  C   UNL A   1      40.507  29.696  28.953  1.00  0.00     0.074 A 
ATOM     54  C   UNL A   1      39.645  28.766  28.376  1.00  0.00     0.031 C 
ATOM     55  C   UNL A   1      45.659  28.545  30.128  1.00  0.00     0.029 A 
ATOM     56  C   UNL A   1      46.333  27.934  28.994  1.00  0.00     0.049 A 
ATOM     57  H   UNL A   1      45.866  25.922  28.429  1.00  0.00     0.167 HD
ATOM     58  C   UNL A   1      40.143  30.617  29.890  1.00  0.00     0.037 A 
ATOM     59  C   UNL A   1      46.940  28.557  27.945  1.00  0.00     0.037 A 
ATOM     60  C   UNL A   1      41.351  31.251  30.344  1.00  0.00     0.049 A 
ATOM     61  C   UNL A   1      46.419  29.972  27.763  1.00  0.00     0.074 A 
ATOM     62  C   UNL A   1      42.241  31.058  31.381  1.00  0.00     0.029 A 
ATOM     63  N   UNL A   1      42.046  31.905  29.362  1.00  0.00    -0.354 N 
ATOM     64  N   UNL A   1      45.497  30.524  28.510  1.00  0.00    -0.248 NA
ATOM     65  C   UNL A   1      46.857  30.861  26.692  1.00  0.00     0.031 C 
ATOM     66  C   UNL A   1      43.523  31.524  30.923  1.00  0.00     0.029 A 
ATOM     67  C   UNL A   1      43.381  32.031  29.640  1.00  0.00     0.049 A 
ATOM     68  H   UNL A   1      41.629  32.250  28.541  1.00  0.00     0.167 HD
ATOM     69  C   UNL A   1      45.171  31.754  28.020  1.00  0.00     0.074 A 
ATOM     70  C   UNL A   1      46.049  31.920  26.873  1.00  0.00     0.031 C 
ATOM     71  C   UNL A   1      44.196  32.550  28.552  1.00  0.00     0.037 A 
BRANCH  58  72
ATOM     72  C   UNL A   1      38.744  30.713  30.533  1.00  0.00     0.057 A 
ATOM     73  C   UNL A   1      37.811  31.615  29.996  1.00  0.00     0.134 A 
ATOM     74  C   UNL A   1      38.255  30.048  31.691  1.00  0.00     0.134 A 
ATOM     75  F   UNL A   1      38.058  32.264  28.850  1.00  0.00    -0.206 F 
ATOM     76  C   UNL A   1      36.571  31.903  30.600  1.00  0.00     0.040 A 
ATOM     77  C   UNL A   1      37.049  30.372  32.341  1.00  0.00     0.040 A 
ATOM     78  F   UNL A   1      38.856  28.986  32.234  1.00  0.00    -0.206 F 
ATOM     79  C   UNL A   1      36.200  31.312  31.798  1.00  0.00     0.006 A 
ENDBRANCH  58  72
BRANCH  59  80
ATOM     80  C   UNL A   1      47.404  27.597  26.878  1.00  0.00     0.057 A 
ATOM     81  C   UNL A   1      48.553  26.805  27.132  1.00  0.00     0.134 A 
ATOM     82  C   UNL A   1      46.615  27.192  25.795  1.00  0.00     0.134 A 
ATOM     83  F   UNL A   1      49.384  27.123  28.140  1.00  0.00    -0.206 F 
ATOM     84  C   UNL A   1      48.816  25.609  26.454  1.00  0.00     0.040 A 
ATOM     85  C   UNL A   1      46.893  26.011  25.079  1.00  0.00     0.040 A 
ATOM     86  F   UNL A   1      45.493  27.850  25.479  1.00  0.00    -0.206 F 
ATOM     87  C   UNL A   1      47.971  25.199  25.432  1.00  0.00     0.006 A 
ENDBRANCH  59  80
BRANCH  71  88
ATOM     88  C   UNL A   1      43.892  33.915  27.989  1.00  0.00     0.057 A 
ATOM     89  C   UNL A   1      43.916  35.044  28.812  1.00  0.00     0.134 A 
ATOM     90  C   UNL A   1      43.455  34.141  26.665  1.00  0.00     0.134 A 
ATOM     91  F   UNL A   1      44.244  34.945  30.110  1.00  0.00    -0.206 F 
ATOM     92  C   UNL A   1      43.593  36.318  28.336  1.00  0.00     0.040 A 
ATOM     93  C   UNL A   1      43.051  35.392  26.201  1.00  0.00     0.040 A 
ATOM     94  F   UNL A   1      43.429  33.177  25.734  1.00  0.00    -0.206 F 
ATOM     95  C   UNL A   1      43.143  36.493  27.033  1.00  0.00     0.006 A 
ENDBRANCH  71  88
ENDBRANCH  45  46
ENDBRANCH  38  40
ENDBRANCH  37  38
ENDBRANCH  36  37
ENDBRANCH  35  36
ENDBRANCH  34  35
ENDBRANCH  33  34
ENDBRANCH  32  33
ENDBRANCH   1  32
TORSDOF 22
ENDMDL
MODEL 3
REMARK VINA RESULT:     -12.2      2.030      3.039
REMARK SMILES Cc1cccc(O[C@H](C)C(=O)NNC(=O)[C@H]2[C@@H]3CC[C@@H](C3)[C@@H]2C(=O)OCCOCCOCCOC(=O)c2ccc(-c3c4nc(c(-c5c(F)cccc5F)c5ccc([nH]5)c(-c5c(F)cccc5F)c5nc(c(-c6c(F)cccc6F)c6ccc3[nH]6)C=C5)C=C4)cc2)c1
REMARK SMILES IDX 28 1 27 2 26 3 25 4 23 5 24 6 22 7 16 8 17 9 18 10 21 11
REMARK SMILES IDX 20 12 19 13 14 14 13 15 15 17 12 18 10 19 11 20 8 22 9 23
REMARK SMILES IDX 7 24 6 25 1 26 2 27 3 28 91 29 4 30 5 31 29 32 30 33 31 34
REMARK SMILES IDX 32 35 33 36 34 37 35 38 36 39 37 40 38 41 90 42 39 43 89 44
REMARK SMILES IDX 40 45 41 46 42 47 83 48 43 49 88 50 82 51 84 52 44 53 87 54
REMARK SMILES IDX 81 55 80 56 45 58 71 59 54 60 70 61 55 62 58 63 69 64 85 65
REMARK SMILES IDX 56 66 57 67 68 69 86 70 59 71 46 72 47 73 52 74 48 75 49 76
REMARK SMILES IDX 51 77 53 78 50 79 72 80 73 81 78 82 74 83 75 84 77 85 79 86
REMARK SMILES IDX 76 87 60 88 61 89 66 90 62 91 63 92 65 93 67 94 64 95
REMARK H PARENT 13 16 12 21 84 57 58 68
REMARK Flexibility Score: inf
ROOT
ATOM      1  O   UNL A   1      40.788  20.931  26.677  1.00  0.00    -0.376 OA
ENDROOT
BRANCH   1   2
ATOM      2  C   UNL A   1      39.812  21.858  26.163  1.00  0.00     0.202 C 
BRANCH   2   3
ATOM      3  C   UNL A   1      38.116  21.799  25.775  1.00  0.00     0.261 C 
BRANCH   3   4
ATOM      4  O   UNL A   1      36.661  22.940  25.837  1.00  0.00    -0.463 OA
BRANCH   4   5
ATOM      5  C   UNL A   1      35.176  22.977  26.050  1.00  0.00     0.310 C 
ATOM      6  O   UNL A   1      34.563  22.909  27.122  1.00  0.00    -0.252 OA
BRANCH   5   7
ATOM      7  C   UNL A   1      34.182  23.161  24.945  1.00  0.00     0.115 C 
ATOM      8  C   UNL A   1      32.741  23.184  25.580  1.00  0.00     0.098 C 
ATOM      9  C   UNL A   1      31.905  22.176  24.737  1.00  0.00     0.003 C 
ATOM     10  C   UNL A   1      32.199  20.755  25.242  1.00  0.00     0.005 C 
ATOM     11  C   UNL A   1      32.623  22.178  23.391  1.00  0.00     0.009 C 
ATOM     12  C   UNL A   1      33.996  21.878  24.011  1.00  0.00     0.004 C 
ATOM     13  C   UNL A   1      33.622  20.525  24.714  1.00  0.00     0.005 C 
BRANCH   8  14
ATOM     14  C   UNL A   1      31.939  24.439  25.790  1.00  0.00     0.242 C 
ATOM     15  N   UNL A   1      31.632  25.303  24.796  1.00  0.00    -0.267 N 
ATOM     16  H   UNL A   1      30.994  26.017  25.025  1.00  0.00     0.191 HD
ATOM     17  O   UNL A   1      31.429  24.658  26.897  1.00  0.00    -0.273 OA
BRANCH  15  18
ATOM     18  N   UNL A   1      32.102  25.303  23.515  1.00  0.00    -0.264 N 
ATOM     19  C   UNL A   1      33.211  26.025  23.157  1.00  0.00     0.279 C 
ATOM     20  O   UNL A   1      34.031  25.510  22.391  1.00  0.00    -0.269 OA
ATOM     21  H   UNL A   1      31.634  24.771  22.831  1.00  0.00     0.191 HD
BRANCH  19  22
ATOM     22  C   UNL A   1      33.266  27.537  23.519  1.00  0.00     0.260 C 
ATOM     23  C   UNL A   1      33.808  28.332  22.326  1.00  0.00     0.064 C 
BRANCH  22  24
ATOM     24  O   UNL A   1      32.358  28.201  24.375  1.00  0.00    -0.481 OA
BRANCH  24  25
ATOM     25  C   UNL A   1      32.619  29.108  25.349  1.00  0.00     0.120 A 
ATOM     26  C   UNL A   1      35.617  29.556  27.690  1.00  0.00     0.044 C 
ATOM     27  C   UNL A   1      34.267  29.720  27.058  1.00  0.00    -0.047 A 
ATOM     28  C   UNL A   1      33.412  30.719  27.521  1.00  0.00     0.003 A 
ATOM     29  C   UNL A   1      33.852  28.913  25.986  1.00  0.00     0.049 A 
ATOM     30  C   UNL A   1      32.215  30.962  26.859  1.00  0.00     0.004 A 
ATOM     31  C   UNL A   1      31.854  30.197  25.745  1.00  0.00     0.046 A 
ENDBRANCH  24  25
ENDBRANCH  22  24
ENDBRANCH  19  22
ENDBRANCH  15  18
ENDBRANCH   8  14
ENDBRANCH   5   7
ENDBRANCH   4   5
ENDBRANCH   3   4
ENDBRANCH   2   3
ENDBRANCH   1   2
BRANCH   1  32
ATOM     32  C   UNL A   1      41.227  19.716  26.054  1.00  0.00     0.188 C 
BRANCH  32  33
ATOM     33  C   UNL A   1      42.673  19.296  26.100  1.00  0.00     0.188 C 
BRANCH  33  34
ATOM     34  O   UNL A   1      43.287  19.694  24.901  1.00  0.00    -0.376 OA
BRANCH  34  35
ATOM     35  C   UNL A   1      44.693  19.620  24.901  1.00  0.00     0.202 C 
BRANCH  35  36
ATOM     36  C   UNL A   1      45.310  20.985  24.583  1.00  0.00     0.261 C 
BRANCH  36  37
ATOM     37  O   UNL A   1      44.298  21.885  24.066  1.00  0.00    -0.460 OA
BRANCH  37  38
ATOM     38  C   UNL A   1      44.328  23.185  24.513  1.00  0.00     0.338 C 
ATOM     39  O   UNL A   1      45.262  23.963  24.333  1.00  0.00    -0.246 OA
BRANCH  38  40
ATOM     40  C   UNL A   1      43.238  23.421  25.514  1.00  0.00     0.060 A 
ATOM     41  C   UNL A   1      42.213  24.367  25.341  1.00  0.00     0.016 A 
ATOM     42  C   UNL A   1      43.555  23.113  26.784  1.00  0.00     0.016 A 
ATOM     43  C   UNL A   1      41.801  25.272  26.398  1.00  0.00     0.010 A 
ATOM     44  C   UNL A   1      43.298  24.122  27.697  1.00  0.00     0.010 A 
ATOM     45  C   UNL A   1      42.478  25.342  27.615  1.00  0.00    -0.014 A 
BRANCH  45  46
ATOM     46  C   UNL A   1      42.256  26.685  28.823  1.00  0.00     0.031 A 
ATOM     47  C   UNL A   1      40.994  28.000  28.919  1.00  0.00     0.074 A 
ATOM     48  C   UNL A   1      43.265  26.936  29.684  1.00  0.00     0.049 A 
ATOM     49  N   UNL A   1      41.250  29.284  29.097  1.00  0.00    -0.248 NA
ATOM     50  C   UNL A   1      39.472  27.982  28.502  1.00  0.00     0.031 C 
ATOM     51  C   UNL A   1      43.270  27.847  30.822  1.00  0.00     0.029 A 
ATOM     52  N   UNL A   1      44.556  26.399  29.690  1.00  0.00    -0.354 N 
ATOM     53  C   UNL A   1      40.023  29.975  28.966  1.00  0.00     0.074 A 
ATOM     54  C   UNL A   1      39.216  29.211  28.126  1.00  0.00     0.031 C 
ATOM     55  C   UNL A   1      44.545  28.033  31.208  1.00  0.00     0.029 A 
ATOM     56  C   UNL A   1      45.392  27.392  30.214  1.00  0.00     0.049 A 
ATOM     57  H   UNL A   1      44.823  25.501  29.386  1.00  0.00     0.167 HD
ATOM     58  C   UNL A   1      39.562  30.889  29.867  1.00  0.00     0.037 A 
ATOM     59  C   UNL A   1      46.310  27.975  29.393  1.00  0.00     0.037 A 
ATOM     60  C   UNL A   1      40.695  31.317  30.644  1.00  0.00     0.049 A 
ATOM     61  C   UNL A   1      46.032  29.458  29.217  1.00  0.00     0.074 A 
ATOM     62  C   UNL A   1      41.273  30.942  31.839  1.00  0.00     0.029 A 
ATOM     63  N   UNL A   1      41.685  31.914  29.911  1.00  0.00    -0.354 N 
ATOM     64  N   UNL A   1      45.034  30.097  29.773  1.00  0.00    -0.248 NA
ATOM     65  C   UNL A   1      46.827  30.330  28.359  1.00  0.00     0.031 C 
ATOM     66  C   UNL A   1      42.678  31.242  31.735  1.00  0.00     0.029 A 
ATOM     67  C   UNL A   1      42.917  31.832  30.503  1.00  0.00     0.049 A 
ATOM     68  H   UNL A   1      41.527  32.359  29.047  1.00  0.00     0.167 HD
ATOM     69  C   UNL A   1      44.997  31.386  29.327  1.00  0.00     0.074 A 
ATOM     70  C   UNL A   1      46.141  31.483  28.436  1.00  0.00     0.031 C 
ATOM     71  C   UNL A   1      44.031  32.284  29.683  1.00  0.00     0.037 A 
BRANCH  58  72
ATOM     72  C   UNL A   1      38.074  31.150  30.172  1.00  0.00     0.057 A 
ATOM     73  C   UNL A   1      37.479  32.329  29.691  1.00  0.00     0.134 A 
ATOM     74  C   UNL A   1      37.184  30.379  30.969  1.00  0.00     0.134 A 
ATOM     75  F   UNL A   1      38.134  33.136  28.845  1.00  0.00    -0.206 F 
ATOM     76  C   UNL A   1      36.182  32.748  30.045  1.00  0.00     0.040 A 
ATOM     77  C   UNL A   1      35.911  30.815  31.385  1.00  0.00     0.040 A 
ATOM     78  F   UNL A   1      37.435  29.120  31.337  1.00  0.00    -0.206 F 
ATOM     79  C   UNL A   1      35.405  32.012  30.927  1.00  0.00     0.006 A 
ENDBRANCH  58  72
BRANCH  59  80
ATOM     80  C   UNL A   1      46.893  27.016  28.386  1.00  0.00     0.057 A 
ATOM     81  C   UNL A   1      47.954  26.168  28.793  1.00  0.00     0.134 A 
ATOM     82  C   UNL A   1      46.265  26.668  27.184  1.00  0.00     0.134 A 
ATOM     83  F   UNL A   1      48.631  26.428  29.925  1.00  0.00    -0.206 F 
ATOM     84  C   UNL A   1      48.268  24.975  28.133  1.00  0.00     0.040 A 
ATOM     85  C   UNL A   1      46.601  25.490  26.489  1.00  0.00     0.040 A 
ATOM     86  F   UNL A   1      45.234  27.383  26.716  1.00  0.00    -0.206 F 
ATOM     87  C   UNL A   1      47.576  24.624  26.982  1.00  0.00     0.006 A 
ENDBRANCH  59  80
BRANCH  71  88
ATOM     88  C   UNL A   1      44.050  33.707  29.185  1.00  0.00     0.057 A 
ATOM     89  C   UNL A   1      44.174  34.772  30.081  1.00  0.00     0.134 A 
ATOM     90  C   UNL A   1      43.828  34.072  27.838  1.00  0.00     0.134 A 
ATOM     91  F   UNL A   1      44.316  34.554  31.397  1.00  0.00    -0.206 F 
ATOM     92  C   UNL A   1      44.147  36.104  29.659  1.00  0.00     0.040 A 
ATOM     93  C   UNL A   1      43.715  35.396  27.418  1.00  0.00     0.040 A 
ATOM     94  F   UNL A   1      43.744  33.174  26.847  1.00  0.00    -0.206 F 
ATOM     95  C   UNL A   1      43.900  36.420  28.328  1.00  0.00     0.006 A 
ENDBRANCH  71  88
ENDBRANCH  45  46
ENDBRANCH  38  40
ENDBRANCH  37  38
ENDBRANCH  36  37
ENDBRANCH  35  36
ENDBRANCH  34  35
ENDBRANCH  33  34
ENDBRANCH  32  33
ENDBRANCH   1  32
TORSDOF 22
ENDMDL
