MODEL 1
REMARK VINA RESULT:     -11.7      0.000      0.000
REMARK SMILES O=C(OCCOCCOCCOC(=O)c1cc2c(c(S(=O)(=O)Nc3cc(C(F)(F)F)ccc3-n3cccn3)c1)CCC2)c1ccc(-c2c3nc(c(-c4c(F)cccc4F)c4ccc([nH]4)c(-c4c(F)cccc4F)c4nc(c(-c5c(F)cccc5F)c5ccc2[nH]5)C=C4)C=C3)cc1
REMARK SMILES IDX 8 1 7 2 6 3 5 4 4 5 3 6 2 7 1 8 43 9 44 10 96 11 45 12 95 13
REMARK SMILES IDX 46 14 47 15 48 16 89 17 49 18 94 19 88 20 90 21 50 22 93 23
REMARK SMILES IDX 87 24 86 25 51 27 77 28 60 29 76 30 61 31 64 32 75 33 91 34
REMARK SMILES IDX 62 35 63 36 74 38 92 39 65 40 52 41 53 42 58 43 54 44 55 45
REMARK SMILES IDX 57 46 59 47 56 48 78 49 79 50 84 51 80 52 81 53 83 54 85 55
REMARK SMILES IDX 82 56 66 57 67 58 72 59 68 60 69 61 71 62 73 63 70 64 9 65
REMARK SMILES IDX 10 66 11 67 12 68 13 69 14 70 15 71 16 72 39 73 17 74 19 75
REMARK SMILES IDX 18 76 42 77 40 78 41 79 20 80 21 81 22 82 23 83 24 85 25 86
REMARK SMILES IDX 33 87 26 88 32 89 31 90 34 91 35 92 38 93 36 94 37 95 27 96
REMARK SMILES IDX 28 97 29 98 30 99
REMARK H PARENT 90 26 64 37 23 84
REMARK Flexibility Score: inf
ROOT
ATOM      1  C   UNL A   1      40.079  21.146  26.715  1.00  0.00     0.188 C 
ENDROOT
BRANCH   1   2
ATOM      2  C   UNL A   1      41.511  21.123  26.122  1.00  0.00     0.188 C 
BRANCH   2   3
ATOM      3  O   UNL A   1      42.366  20.135  26.644  1.00  0.00    -0.376 OA
BRANCH   3   4
ATOM      4  C   UNL A   1      42.616  18.919  25.970  1.00  0.00     0.202 C 
BRANCH   4   5
ATOM      5  C   UNL A   1      44.020  18.337  25.759  1.00  0.00     0.261 C 
BRANCH   5   6
ATOM      6  O   UNL A   1      44.768  18.853  24.659  1.00  0.00    -0.460 OA
BRANCH   6   7
ATOM      7  C   UNL A   1      44.741  20.040  24.024  1.00  0.00     0.338 C 
ATOM      8  O   UNL A   1      44.670  20.032  22.795  1.00  0.00    -0.246 OA
BRANCH   7   9
ATOM      9  C   UNL A   1      44.892  21.365  24.688  1.00  0.00     0.060 A 
ATOM     10  C   UNL A   1      45.661  21.653  25.816  1.00  0.00     0.016 A 
ATOM     11  C   UNL A   1      44.136  22.406  24.110  1.00  0.00     0.016 A 
ATOM     12  C   UNL A   1      45.514  22.875  26.462  1.00  0.00     0.010 A 
ATOM     13  C   UNL A   1      44.011  23.638  24.730  1.00  0.00     0.010 A 
ATOM     14  C   UNL A   1      44.637  23.834  25.951  1.00  0.00    -0.014 A 
BRANCH  14  15
ATOM     15  C   UNL A   1      44.450  25.062  26.709  1.00  0.00     0.031 A 
ATOM     16  C   UNL A   1      45.536  26.064  26.553  1.00  0.00     0.074 A 
ATOM     17  C   UNL A   1      43.343  25.302  27.440  1.00  0.00     0.049 A 
ATOM     18  N   UNL A   1      46.320  26.533  27.467  1.00  0.00    -0.248 NA
ATOM     19  C   UNL A   1      45.859  26.518  25.192  1.00  0.00     0.031 C 
ATOM     20  C   UNL A   1      42.094  24.536  27.464  1.00  0.00     0.029 A 
ATOM     21  N   UNL A   1      43.069  26.354  28.263  1.00  0.00    -0.354 N 
ATOM     22  C   UNL A   1      47.118  27.486  26.835  1.00  0.00     0.074 A 
ATOM     23  C   UNL A   1      46.887  27.337  25.422  1.00  0.00     0.031 C 
ATOM     24  C   UNL A   1      41.134  25.264  28.077  1.00  0.00     0.029 A 
ATOM     25  C   UNL A   1      41.729  26.480  28.605  1.00  0.00     0.049 A 
ATOM     26  H   UNL A   1      43.764  26.973  28.586  1.00  0.00     0.167 HD
ATOM     27  C   UNL A   1      47.738  28.467  27.544  1.00  0.00     0.037 A 
ATOM     28  C   UNL A   1      41.145  27.537  29.225  1.00  0.00     0.037 A 
ATOM     29  C   UNL A   1      47.875  28.101  28.931  1.00  0.00     0.049 A 
ATOM     30  C   UNL A   1      42.215  28.320  29.887  1.00  0.00     0.074 A 
ATOM     31  C   UNL A   1      48.492  27.064  29.606  1.00  0.00     0.029 A 
ATOM     32  N   UNL A   1      47.023  28.678  29.840  1.00  0.00    -0.354 N 
ATOM     33  N   UNL A   1      42.877  27.916  30.934  1.00  0.00    -0.248 NA
ATOM     34  C   UNL A   1      42.850  29.381  29.119  1.00  0.00     0.031 C 
ATOM     35  C   UNL A   1      47.627  26.770  30.701  1.00  0.00     0.029 A 
ATOM     36  C   UNL A   1      46.570  27.681  30.662  1.00  0.00     0.049 A 
ATOM     37  H   UNL A   1      46.783  29.631  29.890  1.00  0.00     0.167 HD
ATOM     38  C   UNL A   1      44.178  28.335  30.708  1.00  0.00     0.074 A 
ATOM     39  C   UNL A   1      44.081  29.316  29.630  1.00  0.00     0.031 C 
ATOM     40  C   UNL A   1      45.239  27.643  31.217  1.00  0.00     0.037 A 
BRANCH  27  41
ATOM     41  C   UNL A   1      47.869  29.897  27.072  1.00  0.00     0.057 A 
ATOM     42  C   UNL A   1      49.117  30.543  27.180  1.00  0.00     0.134 A 
ATOM     43  C   UNL A   1      46.778  30.753  26.820  1.00  0.00     0.134 A 
ATOM     44  F   UNL A   1      50.236  29.844  27.418  1.00  0.00    -0.206 F 
ATOM     45  C   UNL A   1      49.249  31.936  27.144  1.00  0.00     0.040 A 
ATOM     46  C   UNL A   1      46.907  32.143  26.733  1.00  0.00     0.040 A 
ATOM     47  F   UNL A   1      45.517  30.313  26.741  1.00  0.00    -0.206 F 
ATOM     48  C   UNL A   1      48.139  32.743  26.934  1.00  0.00     0.006 A 
ENDBRANCH  27  41
BRANCH  28  49
ATOM     49  C   UNL A   1      39.776  28.077  29.055  1.00  0.00     0.057 A 
ATOM     50  C   UNL A   1      38.873  28.117  30.128  1.00  0.00     0.134 A 
ATOM     51  C   UNL A   1      39.417  28.825  27.920  1.00  0.00     0.134 A 
ATOM     52  F   UNL A   1      39.142  27.470  31.270  1.00  0.00    -0.206 F 
ATOM     53  C   UNL A   1      37.697  28.879  30.086  1.00  0.00     0.040 A 
ATOM     54  C   UNL A   1      38.242  29.582  27.862  1.00  0.00     0.040 A 
ATOM     55  F   UNL A   1      40.237  28.921  26.865  1.00  0.00    -0.206 F 
ATOM     56  C   UNL A   1      37.385  29.625  28.954  1.00  0.00     0.006 A 
ENDBRANCH  28  49
BRANCH  40  57
ATOM     57  C   UNL A   1      44.966  26.588  32.252  1.00  0.00     0.057 A 
ATOM     58  C   UNL A   1      44.816  26.846  33.623  1.00  0.00     0.134 A 
ATOM     59  C   UNL A   1      44.697  25.285  31.820  1.00  0.00     0.134 A 
ATOM     60  F   UNL A   1      44.950  28.084  34.118  1.00  0.00    -0.206 F 
ATOM     61  C   UNL A   1      44.459  25.840  34.527  1.00  0.00     0.040 A 
ATOM     62  C   UNL A   1      44.304  24.280  32.707  1.00  0.00     0.040 A 
ATOM     63  F   UNL A   1      44.765  24.977  30.516  1.00  0.00    -0.206 F 
ATOM     64  C   UNL A   1      44.195  24.553  34.067  1.00  0.00     0.006 A 
ENDBRANCH  40  57
ENDBRANCH  14  15
ENDBRANCH   7   9
ENDBRANCH   6   7
ENDBRANCH   5   6
ENDBRANCH   4   5
ENDBRANCH   3   4
ENDBRANCH   2   3
ENDBRANCH   1   2
BRANCH   1  65
ATOM     65  O   UNL A   1      39.001  21.834  26.090  1.00  0.00    -0.376 OA
BRANCH  65  66
ATOM     66  C   UNL A   1      38.762  23.202  26.352  1.00  0.00     0.202 C 
BRANCH  66  67
ATOM     67  C   UNL A   1      37.416  23.784  25.904  1.00  0.00     0.261 C 
BRANCH  67  68
ATOM     68  O   UNL A   1      36.509  22.851  25.294  1.00  0.00    -0.460 OA
BRANCH  68  69
ATOM     69  C   UNL A   1      36.041  23.167  24.066  1.00  0.00     0.338 C 
ATOM     70  O   UNL A   1      36.545  22.898  22.974  1.00  0.00    -0.246 OA
BRANCH  69  71
ATOM     71  C   UNL A   1      34.760  23.882  24.205  1.00  0.00     0.061 A 
ATOM     72  C   UNL A   1      33.977  23.590  25.320  1.00  0.00     0.019 A 
ATOM     73  C   UNL A   1      34.346  24.850  23.254  1.00  0.00     0.038 A 
ATOM     74  C   UNL A   1      32.796  24.284  25.467  1.00  0.00    -0.043 A 
ATOM     75  C   UNL A   1      33.105  25.515  23.385  1.00  0.00     0.092 A 
ATOM     76  C   UNL A   1      32.326  25.190  24.489  1.00  0.00    -0.024 A 
ATOM     77  C   UNL A   1      31.863  24.216  26.640  1.00  0.00     0.036 C 
ATOM     78  C   UNL A   1      30.955  25.620  24.903  1.00  0.00     0.037 C 
ATOM     79  C   UNL A   1      31.098  25.521  26.424  1.00  0.00     0.010 C 
BRANCH  75  80
ATOM     80  S   UNL A   1      32.499  26.515  22.034  1.00  0.00     0.262 S 
ATOM     81  O   UNL A   1      33.431  26.350  20.934  1.00  0.00    -0.201 OA
ATOM     82  O   UNL A   1      31.108  26.167  21.831  1.00  0.00    -0.201 OA
BRANCH  80  83
ATOM     83  N   UNL A   1      32.516  28.197  22.351  1.00  0.00    -0.277 N 
ATOM     84  H   UNL A   1      32.719  28.817  21.613  1.00  0.00     0.180 HD
BRANCH  83  85
ATOM     85  C   UNL A   1      32.246  28.741  23.654  1.00  0.00     0.075 A 
ATOM     86  C   UNL A   1      33.269  28.738  24.620  1.00  0.00     0.042 A 
ATOM     87  C   UNL A   1      31.034  29.387  23.941  1.00  0.00     0.089 A 
ATOM     88  C   UNL A   1      33.119  29.443  25.835  1.00  0.00     0.058 A 
ATOM     89  C   UNL A   1      30.872  30.071  25.156  1.00  0.00     0.031 A 
ATOM     90  C   UNL A   1      31.904  30.093  26.096  1.00  0.00     0.015 A 
BRANCH  87  91
ATOM     91  N   UNL A   1      29.973  29.404  23.005  1.00  0.00    -0.239 N 
ATOM     92  C   UNL A   1      29.742  30.319  22.003  1.00  0.00     0.115 A 
ATOM     93  N   UNL A   1      28.954  28.517  23.109  1.00  0.00    -0.177 NA
ATOM     94  C   UNL A   1      28.449  30.135  21.585  1.00  0.00     0.042 A 
ATOM     95  C   UNL A   1      28.000  29.029  22.325  1.00  0.00     0.135 A 
ENDBRANCH  87  91
BRANCH  88  96
ATOM     96  C   UNL A   1      34.279  29.562  26.800  1.00  0.00     0.416 C 
ATOM     97  F   UNL A   1      34.259  30.725  27.505  1.00  0.00    -0.166 F 
ATOM     98  F   UNL A   1      34.286  28.561  27.724  1.00  0.00    -0.166 F 
ATOM     99  F   UNL A   1      35.496  29.508  26.191  1.00  0.00    -0.166 F 
ENDBRANCH  88  96
ENDBRANCH  83  85
ENDBRANCH  80  83
ENDBRANCH  75  80
ENDBRANCH  69  71
ENDBRANCH  68  69
ENDBRANCH  67  68
ENDBRANCH  66  67
ENDBRANCH  65  66
ENDBRANCH   1  65
TORSDOF 22
ENDMDL
MODEL 2
REMARK VINA RESULT:     -10.5      3.851      5.598
REMARK SMILES O=C(OCCOCCOCCOC(=O)c1cc2c(c(S(=O)(=O)Nc3cc(C(F)(F)F)ccc3-n3cccn3)c1)CCC2)c1ccc(-c2c3nc(c(-c4c(F)cccc4F)c4ccc([nH]4)c(-c4c(F)cccc4F)c4nc(c(-c5c(F)cccc5F)c5ccc2[nH]5)C=C4)C=C3)cc1
REMARK SMILES IDX 8 1 7 2 6 3 5 4 4 5 3 6 2 7 1 8 43 9 44 10 96 11 45 12 95 13
REMARK SMILES IDX 46 14 47 15 48 16 89 17 49 18 94 19 88 20 90 21 50 22 93 23
REMARK SMILES IDX 87 24 86 25 51 27 77 28 60 29 76 30 61 31 64 32 75 33 91 34
REMARK SMILES IDX 62 35 63 36 74 38 92 39 65 40 52 41 53 42 58 43 54 44 55 45
REMARK SMILES IDX 57 46 59 47 56 48 78 49 79 50 84 51 80 52 81 53 83 54 85 55
REMARK SMILES IDX 82 56 66 57 67 58 72 59 68 60 69 61 71 62 73 63 70 64 9 65
REMARK SMILES IDX 10 66 11 67 12 68 13 69 14 70 15 71 16 72 39 73 17 74 19 75
REMARK SMILES IDX 18 76 42 77 40 78 41 79 20 80 21 81 22 82 23 83 24 85 25 86
REMARK SMILES IDX 33 87 26 88 32 89 31 90 34 91 35 92 38 93 36 94 37 95 27 96
REMARK SMILES IDX 28 97 29 98 30 99
REMARK H PARENT 90 26 64 37 23 84
REMARK Flexibility Score: inf
ROOT
ATOM      1  C   UNL A   1      40.387  20.318  26.210  1.00  0.00     0.188 C 
ENDROOT
BRANCH   1   2
ATOM      2  C   UNL A   1      41.717  21.026  26.574  1.00  0.00     0.188 C 
BRANCH   2   3
ATOM      3  O   UNL A   1      42.403  21.615  25.496  1.00  0.00    -0.376 OA
BRANCH   3   4
ATOM      4  C   UNL A   1      42.882  22.943  25.541  1.00  0.00     0.202 C 
BRANCH   4   5
ATOM      5  C   UNL A   1      44.249  23.335  26.118  1.00  0.00     0.261 C 
BRANCH   5   6
ATOM      6  O   UNL A   1      44.254  23.885  27.435  1.00  0.00    -0.460 OA
BRANCH   6   7
ATOM      7  C   UNL A   1      43.285  24.031  28.358  1.00  0.00     0.338 C 
ATOM      8  O   UNL A   1      42.867  23.018  28.918  1.00  0.00    -0.246 OA
BRANCH   7   9
ATOM      9  C   UNL A   1      42.608  25.318  28.685  1.00  0.00     0.060 A 
ATOM     10  C   UNL A   1      41.488  25.858  28.050  1.00  0.00     0.016 A 
ATOM     11  C   UNL A   1      43.210  26.057  29.724  1.00  0.00     0.016 A 
ATOM     12  C   UNL A   1      41.116  27.174  28.303  1.00  0.00     0.010 A 
ATOM     13  C   UNL A   1      42.824  27.356  30.004  1.00  0.00     0.010 A 
ATOM     14  C   UNL A   1      41.830  27.936  29.229  1.00  0.00    -0.014 A 
BRANCH  14  15
ATOM     15  C   UNL A   1      41.460  29.333  29.396  1.00  0.00     0.031 A 
ATOM     16  C   UNL A   1      42.497  30.309  28.975  1.00  0.00     0.074 A 
ATOM     17  C   UNL A   1      40.242  29.714  29.833  1.00  0.00     0.049 A 
ATOM     18  N   UNL A   1      43.105  31.186  29.705  1.00  0.00    -0.248 NA
ATOM     19  C   UNL A   1      42.997  30.226  27.594  1.00  0.00     0.031 C 
ATOM     20  C   UNL A   1      39.050  28.882  30.020  1.00  0.00     0.029 A 
ATOM     21  N   UNL A   1      39.786  30.966  30.120  1.00  0.00    -0.354 N 
ATOM     22  C   UNL A   1      43.933  31.898  28.838  1.00  0.00     0.074 A 
ATOM     23  C   UNL A   1      43.930  31.180  27.591  1.00  0.00     0.031 C 
ATOM     24  C   UNL A   1      37.968  29.678  30.169  1.00  0.00     0.029 A 
ATOM     25  C   UNL A   1      38.404  31.063  30.224  1.00  0.00     0.049 A 
ATOM     26  H   UNL A   1      40.386  31.737  30.243  1.00  0.00     0.167 HD
ATOM     27  C   UNL A   1      44.381  33.142  29.156  1.00  0.00     0.037 A 
ATOM     28  C   UNL A   1      37.673  32.204  30.290  1.00  0.00     0.037 A 
ATOM     29  C   UNL A   1      44.325  33.369  30.578  1.00  0.00     0.049 A 
ATOM     30  C   UNL A   1      38.583  33.301  30.697  1.00  0.00     0.074 A 
ATOM     31  C   UNL A   1      44.891  32.759  31.682  1.00  0.00     0.029 A 
ATOM     32  N   UNL A   1      43.313  34.156  31.069  1.00  0.00    -0.354 N 
ATOM     33  N   UNL A   1      39.099  33.419  31.887  1.00  0.00    -0.248 NA
ATOM     34  C   UNL A   1      39.265  34.040  29.644  1.00  0.00     0.031 C 
ATOM     35  C   UNL A   1      43.887  32.823  32.693  1.00  0.00     0.029 A 
ATOM     36  C   UNL A   1      42.798  33.519  32.166  1.00  0.00     0.049 A 
ATOM     37  H   UNL A   1      43.014  35.018  30.700  1.00  0.00     0.167 HD
ATOM     38  C   UNL A   1      40.393  33.862  31.664  1.00  0.00     0.074 A 
ATOM     39  C   UNL A   1      40.406  34.321  30.277  1.00  0.00     0.031 C 
ATOM     40  C   UNL A   1      41.402  33.551  32.530  1.00  0.00     0.037 A 
BRANCH  27  41
ATOM     41  C   UNL A   1      44.500  34.276  28.164  1.00  0.00     0.057 A 
ATOM     42  C   UNL A   1      45.749  34.904  27.987  1.00  0.00     0.134 A 
ATOM     43  C   UNL A   1      43.402  34.976  27.622  1.00  0.00     0.134 A 
ATOM     44  F   UNL A   1      46.874  34.344  28.454  1.00  0.00    -0.206 F 
ATOM     45  C   UNL A   1      45.878  36.174  27.410  1.00  0.00     0.040 A 
ATOM     46  C   UNL A   1      43.528  36.222  27.000  1.00  0.00     0.040 A 
ATOM     47  F   UNL A   1      42.141  34.549  27.746  1.00  0.00    -0.206 F 
ATOM     48  C   UNL A   1      44.763  36.844  26.927  1.00  0.00     0.006 A 
ENDBRANCH  27  41
BRANCH  28  49
ATOM     49  C   UNL A   1      36.317  32.475  29.757  1.00  0.00     0.057 A 
ATOM     50  C   UNL A   1      35.416  33.298  30.448  1.00  0.00     0.134 A 
ATOM     51  C   UNL A   1      35.974  32.167  28.428  1.00  0.00     0.134 A 
ATOM     52  F   UNL A   1      35.671  33.681  31.708  1.00  0.00    -0.206 F 
ATOM     53  C   UNL A   1      34.259  33.810  29.846  1.00  0.00     0.040 A 
ATOM     54  C   UNL A   1      34.818  32.664  27.818  1.00  0.00     0.040 A 
ATOM     55  F   UNL A   1      36.796  31.451  27.648  1.00  0.00    -0.206 F 
ATOM     56  C   UNL A   1      33.963  33.503  28.521  1.00  0.00     0.006 A 
ENDBRANCH  28  49
BRANCH  40  57
ATOM     57  C   UNL A   1      41.036  32.964  33.863  1.00  0.00     0.057 A 
ATOM     58  C   UNL A   1      40.830  31.595  34.095  1.00  0.00     0.134 A 
ATOM     59  C   UNL A   1      41.037  33.802  34.984  1.00  0.00     0.134 A 
ATOM     60  F   UNL A   1      40.912  30.701  33.101  1.00  0.00    -0.206 F 
ATOM     61  C   UNL A   1      40.592  31.094  35.378  1.00  0.00     0.040 A 
ATOM     62  C   UNL A   1      40.838  33.309  36.275  1.00  0.00     0.040 A 
ATOM     63  F   UNL A   1      41.283  35.115  34.847  1.00  0.00    -0.206 F 
ATOM     64  C   UNL A   1      40.604  31.952  36.475  1.00  0.00     0.006 A 
ENDBRANCH  40  57
ENDBRANCH  14  15
ENDBRANCH   7   9
ENDBRANCH   6   7
ENDBRANCH   5   6
ENDBRANCH   4   5
ENDBRANCH   3   4
ENDBRANCH   2   3
ENDBRANCH   1   2
BRANCH   1  65
ATOM     65  O   UNL A   1      39.269  21.018  25.673  1.00  0.00    -0.376 OA
BRANCH  65  66
ATOM     66  C   UNL A   1      38.938  22.316  26.123  1.00  0.00     0.202 C 
BRANCH  66  67
ATOM     67  C   UNL A   1      37.631  22.931  25.611  1.00  0.00     0.261 C 
BRANCH  67  68
ATOM     68  O   UNL A   1      36.879  22.117  24.696  1.00  0.00    -0.460 OA
BRANCH  68  69
ATOM     69  C   UNL A   1      36.347  22.739  23.620  1.00  0.00     0.338 C 
ATOM     70  O   UNL A   1      36.898  22.994  22.547  1.00  0.00    -0.246 OA
BRANCH  69  71
ATOM     71  C   UNL A   1      34.934  23.057  23.893  1.00  0.00     0.061 A 
ATOM     72  C   UNL A   1      34.141  22.048  24.436  1.00  0.00     0.019 A 
ATOM     73  C   UNL A   1      34.404  24.347  23.638  1.00  0.00     0.038 A 
ATOM     74  C   UNL A   1      32.829  22.357  24.723  1.00  0.00    -0.043 A 
ATOM     75  C   UNL A   1      33.041  24.636  23.882  1.00  0.00     0.092 A 
ATOM     76  C   UNL A   1      32.260  23.609  24.398  1.00  0.00    -0.024 A 
ATOM     77  C   UNL A   1      31.835  21.469  25.414  1.00  0.00     0.036 C 
ATOM     78  C   UNL A   1      30.797  23.526  24.701  1.00  0.00     0.037 C 
ATOM     79  C   UNL A   1      30.827  22.527  25.861  1.00  0.00     0.010 C 
BRANCH  75  80
ATOM     80  S   UNL A   1      32.351  26.175  23.294  1.00  0.00     0.262 S 
ATOM     81  O   UNL A   1      33.469  27.033  22.942  1.00  0.00    -0.201 OA
ATOM     82  O   UNL A   1      31.373  25.848  22.278  1.00  0.00    -0.201 OA
BRANCH  80  83
ATOM     83  N   UNL A   1      31.503  27.059  24.489  1.00  0.00    -0.277 N 
ATOM     84  H   UNL A   1      31.381  26.657  25.380  1.00  0.00     0.180 HD
BRANCH  83  85
ATOM     85  C   UNL A   1      30.960  28.367  24.244  1.00  0.00     0.075 A 
ATOM     86  C   UNL A   1      29.835  28.493  23.408  1.00  0.00     0.042 A 
ATOM     87  C   UNL A   1      31.445  29.500  24.915  1.00  0.00     0.089 A 
ATOM     88  C   UNL A   1      29.145  29.721  23.304  1.00  0.00     0.058 A 
ATOM     89  C   UNL A   1      30.776  30.728  24.798  1.00  0.00     0.031 A 
ATOM     90  C   UNL A   1      29.639  30.838  23.995  1.00  0.00     0.015 A 
BRANCH  87  91
ATOM     91  N   UNL A   1      32.581  29.423  25.755  1.00  0.00    -0.239 N 
ATOM     92  C   UNL A   1      33.845  28.983  25.433  1.00  0.00     0.115 A 
ATOM     93  N   UNL A   1      32.472  29.686  27.080  1.00  0.00    -0.177 NA
ATOM     94  C   UNL A   1      34.505  28.767  26.616  1.00  0.00     0.042 A 
ATOM     95  C   UNL A   1      33.597  29.188  27.601  1.00  0.00     0.135 A 
ENDBRANCH  87  91
BRANCH  88  96
ATOM     96  C   UNL A   1      27.849  29.809  22.526  1.00  0.00     0.416 C 
ATOM     97  F   UNL A   1      28.045  29.896  21.184  1.00  0.00    -0.166 F 
ATOM     98  F   UNL A   1      27.057  28.718  22.721  1.00  0.00    -0.166 F 
ATOM     99  F   UNL A   1      27.085  30.883  22.869  1.00  0.00    -0.166 F 
ENDBRANCH  88  96
ENDBRANCH  83  85
ENDBRANCH  80  83
ENDBRANCH  75  80
ENDBRANCH  69  71
ENDBRANCH  68  69
ENDBRANCH  67  68
ENDBRANCH  66  67
ENDBRANCH  65  66
ENDBRANCH   1  65
TORSDOF 22
ENDMDL
MODEL 3
REMARK VINA RESULT:     -10.5      3.581      5.480
REMARK SMILES O=C(OCCOCCOCCOC(=O)c1cc2c(c(S(=O)(=O)Nc3cc(C(F)(F)F)ccc3-n3cccn3)c1)CCC2)c1ccc(-c2c3nc(c(-c4c(F)cccc4F)c4ccc([nH]4)c(-c4c(F)cccc4F)c4nc(c(-c5c(F)cccc5F)c5ccc2[nH]5)C=C4)C=C3)cc1
REMARK SMILES IDX 8 1 7 2 6 3 5 4 4 5 3 6 2 7 1 8 43 9 44 10 96 11 45 12 95 13
REMARK SMILES IDX 46 14 47 15 48 16 89 17 49 18 94 19 88 20 90 21 50 22 93 23
REMARK SMILES IDX 87 24 86 25 51 27 77 28 60 29 76 30 61 31 64 32 75 33 91 34
REMARK SMILES IDX 62 35 63 36 74 38 92 39 65 40 52 41 53 42 58 43 54 44 55 45
REMARK SMILES IDX 57 46 59 47 56 48 78 49 79 50 84 51 80 52 81 53 83 54 85 55
REMARK SMILES IDX 82 56 66 57 67 58 72 59 68 60 69 61 71 62 73 63 70 64 9 65
REMARK SMILES IDX 10 66 11 67 12 68 13 69 14 70 15 71 16 72 39 73 17 74 19 75
REMARK SMILES IDX 18 76 42 77 40 78 41 79 20 80 21 81 22 82 23 83 24 85 25 86
REMARK SMILES IDX 33 87 26 88 32 89 31 90 34 91 35 92 38 93 36 94 37 95 27 96
REMARK SMILES IDX 28 97 29 98 30 99
REMARK H PARENT 90 26 64 37 23 84
REMARK Flexibility Score: inf
ROOT
ATOM      1  C   UNL A   1      40.086  20.635  26.119  1.00  0.00     0.188 C 
ENDROOT
BRANCH   1   2
ATOM      2  C   UNL A   1      41.497  21.165  26.480  1.00  0.00     0.188 C 
BRANCH   2   3
ATOM      3  O   UNL A   1      42.167  21.849  25.449  1.00  0.00    -0.376 OA
BRANCH   3   4
ATOM      4  C   UNL A   1      42.621  23.179  25.595  1.00  0.00     0.202 C 
BRANCH   4   5
ATOM      5  C   UNL A   1      43.929  23.557  26.303  1.00  0.00     0.261 C 
BRANCH   5   6
ATOM      6  O   UNL A   1      43.807  24.276  27.530  1.00  0.00    -0.460 OA
BRANCH   6   7
ATOM      7  C   UNL A   1      42.793  24.406  28.406  1.00  0.00     0.338 C 
ATOM      8  O   UNL A   1      42.331  23.380  28.905  1.00  0.00    -0.246 OA
BRANCH   7   9
ATOM      9  C   UNL A   1      42.119  25.691  28.744  1.00  0.00     0.060 A 
ATOM     10  C   UNL A   1      41.076  26.298  28.044  1.00  0.00     0.016 A 
ATOM     11  C   UNL A   1      42.640  26.353  29.875  1.00  0.00     0.016 A 
ATOM     12  C   UNL A   1      40.712  27.607  28.338  1.00  0.00     0.010 A 
ATOM     13  C   UNL A   1      42.260  27.645  30.195  1.00  0.00     0.010 A 
ATOM     14  C   UNL A   1      41.356  28.296  29.368  1.00  0.00    -0.014 A 
BRANCH  14  15
ATOM     15  C   UNL A   1      41.004  29.692  29.582  1.00  0.00     0.031 A 
ATOM     16  C   UNL A   1      42.097  30.660  29.308  1.00  0.00     0.074 A 
ATOM     17  C   UNL A   1      39.762  30.081  29.933  1.00  0.00     0.049 A 
ATOM     18  N   UNL A   1      42.658  31.478  30.137  1.00  0.00    -0.248 NA
ATOM     19  C   UNL A   1      42.714  30.638  27.974  1.00  0.00     0.031 C 
ATOM     20  C   UNL A   1      38.539  29.274  29.968  1.00  0.00     0.029 A 
ATOM     21  N   UNL A   1      39.311  31.328  30.251  1.00  0.00    -0.354 N 
ATOM     22  C   UNL A   1      43.575  32.213  29.388  1.00  0.00     0.074 A 
ATOM     23  C   UNL A   1      43.665  31.565  28.106  1.00  0.00     0.031 C 
ATOM     24  C   UNL A   1      37.466  30.090  30.068  1.00  0.00     0.029 A 
ATOM     25  C   UNL A   1      37.928  31.457  30.240  1.00  0.00     0.049 A 
ATOM     26  H   UNL A   1      39.916  32.073  30.469  1.00  0.00     0.167 HD
ATOM     27  C   UNL A   1      44.022  33.425  29.814  1.00  0.00     0.037 A 
ATOM     28  C   UNL A   1      37.220  32.613  30.307  1.00  0.00     0.037 A 
ATOM     29  C   UNL A   1      43.846  33.575  31.236  1.00  0.00     0.049 A 
ATOM     30  C   UNL A   1      38.116  33.660  30.854  1.00  0.00     0.074 A 
ATOM     31  C   UNL A   1      44.299  32.890  32.348  1.00  0.00     0.029 A 
ATOM     32  N   UNL A   1      42.814  34.362  31.682  1.00  0.00    -0.354 N 
ATOM     33  N   UNL A   1      38.528  33.698  32.089  1.00  0.00    -0.248 NA
ATOM     34  C   UNL A   1      38.905  34.436  29.908  1.00  0.00     0.031 C 
ATOM     35  C   UNL A   1      43.212  32.926  33.271  1.00  0.00     0.029 A 
ATOM     36  C   UNL A   1      42.190  33.679  32.692  1.00  0.00     0.049 A 
ATOM     37  H   UNL A   1      42.567  35.251  31.339  1.00  0.00     0.167 HD
ATOM     38  C   UNL A   1      39.847  34.116  32.004  1.00  0.00     0.074 A 
ATOM     39  C   UNL A   1      39.991  34.651  30.653  1.00  0.00     0.031 C 
ATOM     40  C   UNL A   1      40.768  33.731  32.935  1.00  0.00     0.037 A 
BRANCH  27  41
ATOM     41  C   UNL A   1      44.254  34.608  28.902  1.00  0.00     0.057 A 
ATOM     42  C   UNL A   1      43.182  35.101  28.132  1.00  0.00     0.134 A 
ATOM     43  C   UNL A   1      45.527  35.072  28.512  1.00  0.00     0.134 A 
ATOM     44  F   UNL A   1      41.918  34.738  28.398  1.00  0.00    -0.206 F 
ATOM     45  C   UNL A   1      43.374  35.906  27.003  1.00  0.00     0.040 A 
ATOM     46  C   UNL A   1      45.724  35.916  27.415  1.00  0.00     0.040 A 
ATOM     47  F   UNL A   1      46.656  34.664  29.101  1.00  0.00    -0.206 F 
ATOM     48  C   UNL A   1      44.650  36.305  26.632  1.00  0.00     0.006 A 
ENDBRANCH  27  41
BRANCH  28  49
ATOM     49  C   UNL A   1      35.923  32.950  29.676  1.00  0.00     0.057 A 
ATOM     50  C   UNL A   1      34.905  33.586  30.402  1.00  0.00     0.134 A 
ATOM     51  C   UNL A   1      35.754  32.916  28.280  1.00  0.00     0.134 A 
ATOM     52  F   UNL A   1      34.992  33.706  31.734  1.00  0.00    -0.206 F 
ATOM     53  C   UNL A   1      33.800  34.180  29.776  1.00  0.00     0.040 A 
ATOM     54  C   UNL A   1      34.652  33.496  27.644  1.00  0.00     0.040 A 
ATOM     55  F   UNL A   1      36.698  32.401  27.480  1.00  0.00    -0.206 F 
ATOM     56  C   UNL A   1      33.678  34.146  28.391  1.00  0.00     0.006 A 
ENDBRANCH  28  49
BRANCH  40  57
ATOM     57  C   UNL A   1      40.272  33.082  34.196  1.00  0.00     0.057 A 
ATOM     58  C   UNL A   1      40.001  31.711  34.326  1.00  0.00     0.134 A 
ATOM     59  C   UNL A   1      40.211  33.852  35.363  1.00  0.00     0.134 A 
ATOM     60  F   UNL A   1      40.134  30.873  33.288  1.00  0.00    -0.206 F 
ATOM     61  C   UNL A   1      39.640  31.145  35.553  1.00  0.00     0.040 A 
ATOM     62  C   UNL A   1      39.888  33.292  36.601  1.00  0.00     0.040 A 
ATOM     63  F   UNL A   1      40.513  35.159  35.327  1.00  0.00    -0.206 F 
ATOM     64  C   UNL A   1      39.591  31.936  36.697  1.00  0.00     0.006 A 
ENDBRANCH  40  57
ENDBRANCH  14  15
ENDBRANCH   7   9
ENDBRANCH   6   7
ENDBRANCH   5   6
ENDBRANCH   4   5
ENDBRANCH   3   4
ENDBRANCH   2   3
ENDBRANCH   1   2
BRANCH   1  65
ATOM     65  O   UNL A   1      39.014  21.499  25.753  1.00  0.00    -0.376 OA
BRANCH  65  66
ATOM     66  C   UNL A   1      38.845  22.755  26.377  1.00  0.00     0.202 C 
BRANCH  66  67
ATOM     67  C   UNL A   1      37.643  23.603  25.947  1.00  0.00     0.261 C 
BRANCH  67  68
ATOM     68  O   UNL A   1      36.462  22.868  25.587  1.00  0.00    -0.460 OA
BRANCH  68  69
ATOM     69  C   UNL A   1      35.976  23.064  24.341  1.00  0.00     0.338 C 
ATOM     70  O   UNL A   1      36.448  22.662  23.275  1.00  0.00    -0.246 OA
BRANCH  69  71
ATOM     71  C   UNL A   1      34.720  23.830  24.425  1.00  0.00     0.061 A 
ATOM     72  C   UNL A   1      33.895  23.595  25.524  1.00  0.00     0.019 A 
ATOM     73  C   UNL A   1      34.372  24.790  23.441  1.00  0.00     0.038 A 
ATOM     74  C   UNL A   1      32.739  24.337  25.619  1.00  0.00    -0.043 A 
ATOM     75  C   UNL A   1      33.154  25.504  23.519  1.00  0.00     0.092 A 
ATOM     76  C   UNL A   1      32.332  25.236  24.607  1.00  0.00    -0.024 A 
ATOM     77  C   UNL A   1      31.770  24.333  26.766  1.00  0.00     0.036 C 
ATOM     78  C   UNL A   1      30.967  25.729  24.970  1.00  0.00     0.037 C 
ATOM     79  C   UNL A   1      31.063  25.661  26.497  1.00  0.00     0.010 C 
BRANCH  75  80
ATOM     80  S   UNL A   1      32.626  26.494  22.128  1.00  0.00     0.262 S 
ATOM     81  O   UNL A   1      33.653  26.373  21.109  1.00  0.00    -0.201 OA
ATOM     82  O   UNL A   1      31.271  26.096  21.807  1.00  0.00    -0.201 OA
BRANCH  80  83
ATOM     83  N   UNL A   1      32.554  28.172  22.456  1.00  0.00    -0.277 N 
ATOM     84  H   UNL A   1      32.668  28.806  21.710  1.00  0.00     0.180 HD
BRANCH  83  85
ATOM     85  C   UNL A   1      32.333  28.694  23.776  1.00  0.00     0.075 A 
ATOM     86  C   UNL A   1      33.384  28.648  24.712  1.00  0.00     0.042 A 
ATOM     87  C   UNL A   1      31.144  29.358  24.113  1.00  0.00     0.089 A 
ATOM     88  C   UNL A   1      33.284  29.330  25.945  1.00  0.00     0.058 A 
ATOM     89  C   UNL A   1      31.032  30.019  25.346  1.00  0.00     0.031 A 
ATOM     90  C   UNL A   1      32.092  30.000  26.256  1.00  0.00     0.015 A 
BRANCH  87  91
ATOM     91  N   UNL A   1      30.057  29.417  23.210  1.00  0.00    -0.239 N 
ATOM     92  C   UNL A   1      29.539  30.526  22.579  1.00  0.00     0.115 A 
ATOM     93  N   UNL A   1      29.306  28.315  22.969  1.00  0.00    -0.177 NA
ATOM     94  C   UNL A   1      28.311  30.165  22.085  1.00  0.00     0.042 A 
ATOM     95  C   UNL A   1      28.206  28.798  22.383  1.00  0.00     0.135 A 
ENDBRANCH  87  91
BRANCH  88  96
ATOM     96  C   UNL A   1      34.475  29.405  26.878  1.00  0.00     0.416 C 
ATOM     97  F   UNL A   1      35.555  30.001  26.306  1.00  0.00    -0.166 F 
ATOM     98  F   UNL A   1      34.202  30.120  28.004  1.00  0.00    -0.166 F 
ATOM     99  F   UNL A   1      34.899  28.185  27.311  1.00  0.00    -0.166 F 
ENDBRANCH  88  96
ENDBRANCH  83  85
ENDBRANCH  80  83
ENDBRANCH  75  80
ENDBRANCH  69  71
ENDBRANCH  68  69
ENDBRANCH  67  68
ENDBRANCH  66  67
ENDBRANCH  65  66
ENDBRANCH   1  65
TORSDOF 22
ENDMDL
