MODEL 1
REMARK VINA RESULT:     -10.9      0.000      0.000
REMARK SMILES O=C(OCCOCCOCCOC(=O)c1ccc(N2C(=O)[C@@H]3CC=CC[C@H]3C2=O)cc1Cl)c1ccc(-c2c3nc(c(-c4c(F)cccc4F)c4ccc([nH]4)c(-c4c(F)cccc4F)c4nc(c(-c5c(F)cccc5F)c5ccc2[nH]5)C=C4)C=C3)cc1
REMARK SMILES IDX 7 1 6 2 5 3 4 4 3 5 2 6 1 7 33 8 34 9 86 10 35 11 85 12
REMARK SMILES IDX 36 13 37 14 38 15 79 16 39 17 84 18 78 19 80 20 40 21 83 22
REMARK SMILES IDX 77 23 76 24 41 26 67 27 50 28 66 29 51 30 54 31 65 32 81 33
REMARK SMILES IDX 52 34 53 35 64 37 82 38 55 39 42 40 43 41 48 42 44 43 45 44
REMARK SMILES IDX 47 45 49 46 46 47 68 48 69 49 74 50 70 51 71 52 73 53 75 54
REMARK SMILES IDX 72 55 56 56 57 57 62 58 58 59 59 60 61 61 63 62 60 63 8 64
REMARK SMILES IDX 9 65 10 66 11 67 12 68 13 69 14 70 15 71 16 72 31 73 17 74
REMARK SMILES IDX 30 75 32 76 18 77 19 78 20 79 28 80 21 81 22 82 27 83 29 84
REMARK SMILES IDX 23 85 26 86 24 87 25 88
REMARK H PARENT 80 25 54 36
REMARK Flexibility Score: inf
ROOT
ATOM      1  C   UNL A   1      41.001  20.899  27.313  1.00  0.00     0.188 C 
ENDROOT
BRANCH   1   2
ATOM      2  O   UNL A   1      42.236  20.458  26.735  1.00  0.00    -0.376 OA
BRANCH   2   3
ATOM      3  C   UNL A   1      42.122  19.225  26.017  1.00  0.00     0.202 C 
BRANCH   3   4
ATOM      4  C   UNL A   1      43.423  18.410  25.932  1.00  0.00     0.261 C 
BRANCH   4   5
ATOM      5  O   UNL A   1      44.085  18.542  24.663  1.00  0.00    -0.460 OA
BRANCH   5   6
ATOM      6  C   UNL A   1      45.062  19.416  24.314  1.00  0.00     0.338 C 
ATOM      7  O   UNL A   1      46.002  19.001  23.638  1.00  0.00    -0.246 OA
BRANCH   6   8
ATOM      8  C   UNL A   1      45.069  20.865  24.697  1.00  0.00     0.060 A 
ATOM      9  C   UNL A   1      44.655  21.915  23.879  1.00  0.00     0.016 A 
ATOM     10  C   UNL A   1      45.454  21.181  26.012  1.00  0.00     0.016 A 
ATOM     11  C   UNL A   1      44.698  23.237  24.303  1.00  0.00     0.010 A 
ATOM     12  C   UNL A   1      45.445  22.506  26.469  1.00  0.00     0.010 A 
ATOM     13  C   UNL A   1      45.087  23.545  25.602  1.00  0.00    -0.014 A 
BRANCH  13  14
ATOM     14  C   UNL A   1      45.213  24.965  25.991  1.00  0.00     0.031 A 
ATOM     15  C   UNL A   1      46.558  25.613  25.884  1.00  0.00     0.074 A 
ATOM     16  C   UNL A   1      44.125  25.694  26.307  1.00  0.00     0.049 A 
ATOM     17  N   UNL A   1      46.933  26.804  26.264  1.00  0.00    -0.248 NA
ATOM     18  C   UNL A   1      47.614  24.832  25.215  1.00  0.00     0.031 C 
ATOM     19  C   UNL A   1      42.743  25.223  26.228  1.00  0.00     0.029 A 
ATOM     20  N   UNL A   1      44.004  26.988  26.741  1.00  0.00    -0.354 N 
ATOM     21  C   UNL A   1      48.262  26.916  25.882  1.00  0.00     0.074 A 
ATOM     22  C   UNL A   1      48.640  25.670  25.257  1.00  0.00     0.031 C 
ATOM     23  C   UNL A   1      41.916  26.201  26.632  1.00  0.00     0.029 A 
ATOM     24  C   UNL A   1      42.713  27.334  27.070  1.00  0.00     0.049 A 
ATOM     25  H   UNL A   1      44.764  27.610  26.809  1.00  0.00     0.167 HD
ATOM     26  C   UNL A   1      49.082  27.979  26.036  1.00  0.00     0.037 A 
ATOM     27  C   UNL A   1      42.243  28.413  27.727  1.00  0.00     0.037 A 
ATOM     28  C   UNL A   1      48.674  29.208  26.659  1.00  0.00     0.049 A 
ATOM     29  C   UNL A   1      43.240  29.445  28.161  1.00  0.00     0.074 A 
ATOM     30  C   UNL A   1      49.408  30.359  26.872  1.00  0.00     0.029 A 
ATOM     31  N   UNL A   1      47.408  29.432  27.181  1.00  0.00    -0.354 N 
ATOM     32  N   UNL A   1      44.515  29.526  27.869  1.00  0.00    -0.248 NA
ATOM     33  C   UNL A   1      42.752  30.511  29.043  1.00  0.00     0.031 C 
ATOM     34  C   UNL A   1      48.603  31.259  27.580  1.00  0.00     0.029 A 
ATOM     35  C   UNL A   1      47.355  30.684  27.767  1.00  0.00     0.049 A 
ATOM     36  H   UNL A   1      46.658  28.795  27.141  1.00  0.00     0.167 HD
ATOM     37  C   UNL A   1      44.974  30.677  28.488  1.00  0.00     0.074 A 
ATOM     38  C   UNL A   1      43.844  31.247  29.195  1.00  0.00     0.031 C 
ATOM     39  C   UNL A   1      46.212  31.224  28.456  1.00  0.00     0.037 A 
BRANCH  26  40
ATOM     40  C   UNL A   1      50.500  27.832  25.578  1.00  0.00     0.057 A 
ATOM     41  C   UNL A   1      50.866  27.956  24.232  1.00  0.00     0.134 A 
ATOM     42  C   UNL A   1      51.515  27.571  26.505  1.00  0.00     0.134 A 
ATOM     43  F   UNL A   1      49.937  28.180  23.292  1.00  0.00    -0.206 F 
ATOM     44  C   UNL A   1      52.195  27.817  23.824  1.00  0.00     0.040 A 
ATOM     45  C   UNL A   1      52.848  27.446  26.112  1.00  0.00     0.040 A 
ATOM     46  F   UNL A   1      51.227  27.431  27.808  1.00  0.00    -0.206 F 
ATOM     47  C   UNL A   1      53.191  27.568  24.767  1.00  0.00     0.006 A 
ENDBRANCH  26  40
BRANCH  27  48
ATOM     48  C   UNL A   1      40.826  28.484  28.175  1.00  0.00     0.057 A 
ATOM     49  C   UNL A   1      39.800  29.019  27.395  1.00  0.00     0.134 A 
ATOM     50  C   UNL A   1      40.490  28.086  29.473  1.00  0.00     0.134 A 
ATOM     51  F   UNL A   1      40.054  29.456  26.155  1.00  0.00    -0.206 F 
ATOM     52  C   UNL A   1      38.502  29.165  27.900  1.00  0.00     0.040 A 
ATOM     53  C   UNL A   1      39.200  28.202  29.986  1.00  0.00     0.040 A 
ATOM     54  F   UNL A   1      41.439  27.583  30.269  1.00  0.00    -0.206 F 
ATOM     55  C   UNL A   1      38.200  28.755  29.198  1.00  0.00     0.006 A 
ENDBRANCH  27  48
BRANCH  39  56
ATOM     56  C   UNL A   1      46.378  32.537  29.149  1.00  0.00     0.057 A 
ATOM     57  C   UNL A   1      46.087  33.749  28.515  1.00  0.00     0.134 A 
ATOM     58  C   UNL A   1      46.813  32.580  30.478  1.00  0.00     0.134 A 
ATOM     59  F   UNL A   1      45.693  33.769  27.232  1.00  0.00    -0.206 F 
ATOM     60  C   UNL A   1      46.234  34.965  29.180  1.00  0.00     0.040 A 
ATOM     61  C   UNL A   1      46.940  33.787  31.162  1.00  0.00     0.040 A 
ATOM     62  F   UNL A   1      47.107  31.447  31.135  1.00  0.00    -0.206 F 
ATOM     63  C   UNL A   1      46.654  34.985  30.511  1.00  0.00     0.006 A 
ENDBRANCH  39  56
ENDBRANCH  13  14
ENDBRANCH   6   8
ENDBRANCH   5   6
ENDBRANCH   4   5
ENDBRANCH   3   4
ENDBRANCH   2   3
ENDBRANCH   1   2
BRANCH   1  64
ATOM     64  C   UNL A   1      40.337  21.982  26.460  1.00  0.00     0.188 C 
BRANCH  64  65
ATOM     65  O   UNL A   1      40.098  23.230  27.108  1.00  0.00    -0.376 OA
BRANCH  65  66
ATOM     66  C   UNL A   1      38.893  23.913  26.786  1.00  0.00     0.202 C 
BRANCH  66  67
ATOM     67  C   UNL A   1      37.822  23.144  25.999  1.00  0.00     0.261 C 
BRANCH  67  68
ATOM     68  O   UNL A   1      36.802  23.937  25.363  1.00  0.00    -0.460 OA
BRANCH  68  69
ATOM     69  C   UNL A   1      35.537  23.575  25.701  1.00  0.00     0.339 C 
ATOM     70  O   UNL A   1      35.205  22.592  26.343  1.00  0.00    -0.246 OA
BRANCH  69  71
ATOM     71  C   UNL A   1      34.543  24.506  25.135  1.00  0.00     0.078 A 
ATOM     72  C   UNL A   1      34.139  25.654  25.829  1.00  0.00     0.019 A 
ATOM     73  C   UNL A   1      33.916  24.178  23.934  1.00  0.00     0.057 A 
ATOM     74  C   UNL A   1      33.099  26.459  25.324  1.00  0.00     0.028 A 
ATOM     75  C   UNL A   1      32.855  24.958  23.465  1.00  0.00     0.048 A 
ATOM     76  Cl  UNL A   1      34.457  22.888  22.915  1.00  0.00    -0.083 Cl
ATOM     77  C   UNL A   1      32.425  26.112  24.143  1.00  0.00     0.053 A 
BRANCH  77  78
ATOM     78  N   UNL A   1      31.397  26.916  23.573  1.00  0.00    -0.250 N 
ATOM     79  C   UNL A   1      30.034  26.803  23.863  1.00  0.00     0.238 C 
ATOM     80  C   UNL A   1      31.635  27.968  22.697  1.00  0.00     0.238 C 
ATOM     81  O   UNL A   1      29.426  25.904  24.396  1.00  0.00    -0.274 OA
ATOM     82  C   UNL A   1      29.445  28.142  23.485  1.00  0.00     0.096 C 
ATOM     83  C   UNL A   1      30.301  28.511  22.289  1.00  0.00     0.096 C 
ATOM     84  O   UNL A   1      32.692  28.358  22.217  1.00  0.00    -0.274 OA
ATOM     85  C   UNL A   1      27.978  28.299  23.140  1.00  0.00     0.041 C 
ATOM     86  C   UNL A   1      30.204  29.999  22.004  1.00  0.00     0.041 C 
ATOM     87  C   UNL A   1      27.757  29.649  22.477  1.00  0.00    -0.030 C 
ATOM     88  C   UNL A   1      28.754  30.420  21.998  1.00  0.00    -0.030 C 
ENDBRANCH  77  78
ENDBRANCH  69  71
ENDBRANCH  68  69
ENDBRANCH  67  68
ENDBRANCH  66  67
ENDBRANCH  65  66
ENDBRANCH  64  65
ENDBRANCH   1  64
TORSDOF 18
ENDMDL
MODEL 2
REMARK VINA RESULT:     -10.7      4.949      8.655
REMARK SMILES O=C(OCCOCCOCCOC(=O)c1ccc(N2C(=O)[C@@H]3CC=CC[C@H]3C2=O)cc1Cl)c1ccc(-c2c3nc(c(-c4c(F)cccc4F)c4ccc([nH]4)c(-c4c(F)cccc4F)c4nc(c(-c5c(F)cccc5F)c5ccc2[nH]5)C=C4)C=C3)cc1
REMARK SMILES IDX 7 1 6 2 5 3 4 4 3 5 2 6 1 7 33 8 34 9 86 10 35 11 85 12
REMARK SMILES IDX 36 13 37 14 38 15 79 16 39 17 84 18 78 19 80 20 40 21 83 22
REMARK SMILES IDX 77 23 76 24 41 26 67 27 50 28 66 29 51 30 54 31 65 32 81 33
REMARK SMILES IDX 52 34 53 35 64 37 82 38 55 39 42 40 43 41 48 42 44 43 45 44
REMARK SMILES IDX 47 45 49 46 46 47 68 48 69 49 74 50 70 51 71 52 73 53 75 54
REMARK SMILES IDX 72 55 56 56 57 57 62 58 58 59 59 60 61 61 63 62 60 63 8 64
REMARK SMILES IDX 9 65 10 66 11 67 12 68 13 69 14 70 15 71 16 72 31 73 17 74
REMARK SMILES IDX 30 75 32 76 18 77 19 78 20 79 28 80 21 81 22 82 27 83 29 84
REMARK SMILES IDX 23 85 26 86 24 87 25 88
REMARK H PARENT 80 25 54 36
REMARK Flexibility Score: inf
ROOT
ATOM      1  C   UNL A   1      33.821  26.897  25.852  1.00  0.00     0.188 C 
ENDROOT
BRANCH   1   2
ATOM      2  O   UNL A   1      32.427  26.967  26.174  1.00  0.00    -0.376 OA
BRANCH   2   3
ATOM      3  C   UNL A   1      31.999  28.273  26.574  1.00  0.00     0.202 C 
BRANCH   3   4
ATOM      4  C   UNL A   1      32.767  29.429  25.913  1.00  0.00     0.261 C 
BRANCH   4   5
ATOM      5  O   UNL A   1      32.429  30.713  26.462  1.00  0.00    -0.460 OA
BRANCH   5   6
ATOM      6  C   UNL A   1      33.219  31.557  27.172  1.00  0.00     0.338 C 
ATOM      7  O   UNL A   1      32.889  32.739  27.251  1.00  0.00    -0.246 OA
BRANCH   6   8
ATOM      8  C   UNL A   1      34.475  31.139  27.875  1.00  0.00     0.060 A 
ATOM      9  C   UNL A   1      34.740  29.856  28.352  1.00  0.00     0.016 A 
ATOM     10  C   UNL A   1      35.495  32.099  27.995  1.00  0.00     0.016 A 
ATOM     11  C   UNL A   1      35.929  29.546  29.002  1.00  0.00     0.010 A 
ATOM     12  C   UNL A   1      36.721  31.781  28.596  1.00  0.00     0.010 A 
ATOM     13  C   UNL A   1      36.932  30.501  29.125  1.00  0.00    -0.014 A 
BRANCH  13  14
ATOM     14  C   UNL A   1      38.142  30.168  29.903  1.00  0.00     0.031 A 
ATOM     15  C   UNL A   1      39.154  29.253  29.287  1.00  0.00     0.074 A 
ATOM     16  C   UNL A   1      38.393  30.773  31.081  1.00  0.00     0.049 A 
ATOM     17  N   UNL A   1      40.231  28.738  29.815  1.00  0.00    -0.248 NA
ATOM     18  C   UNL A   1      38.951  28.907  27.869  1.00  0.00     0.031 C 
ATOM     19  C   UNL A   1      37.588  31.843  31.667  1.00  0.00     0.029 A 
ATOM     20  N   UNL A   1      39.404  30.592  31.988  1.00  0.00    -0.354 N 
ATOM     21  C   UNL A   1      40.834  28.012  28.798  1.00  0.00     0.074 A 
ATOM     22  C   UNL A   1      39.998  28.132  27.626  1.00  0.00     0.031 C 
ATOM     23  C   UNL A   1      38.115  32.200  32.850  1.00  0.00     0.029 A 
ATOM     24  C   UNL A   1      39.245  31.332  33.137  1.00  0.00     0.049 A 
ATOM     25  H   UNL A   1      40.170  29.992  31.834  1.00  0.00     0.167 HD
ATOM     26  C   UNL A   1      41.991  27.316  28.850  1.00  0.00     0.037 A 
ATOM     27  C   UNL A   1      39.892  31.256  34.317  1.00  0.00     0.037 A 
ATOM     28  C   UNL A   1      42.802  27.220  30.032  1.00  0.00     0.049 A 
ATOM     29  C   UNL A   1      40.988  30.242  34.439  1.00  0.00     0.074 A 
ATOM     30  C   UNL A   1      43.997  26.550  30.212  1.00  0.00     0.029 A 
ATOM     31  N   UNL A   1      42.482  27.811  31.245  1.00  0.00    -0.354 N 
ATOM     32  N   UNL A   1      41.521  29.494  33.502  1.00  0.00    -0.248 NA
ATOM     33  C   UNL A   1      41.551  30.027  35.777  1.00  0.00     0.031 C 
ATOM     34  C   UNL A   1      44.369  26.685  31.554  1.00  0.00     0.029 A 
ATOM     35  C   UNL A   1      43.428  27.476  32.197  1.00  0.00     0.049 A 
ATOM     36  H   UNL A   1      41.697  28.383  31.407  1.00  0.00     0.167 HD
ATOM     37  C   UNL A   1      42.513  28.756  34.124  1.00  0.00     0.074 A 
ATOM     38  C   UNL A   1      42.492  29.128  35.525  1.00  0.00     0.031 C 
ATOM     39  C   UNL A   1      43.380  27.868  33.582  1.00  0.00     0.037 A 
BRANCH  26  40
ATOM     40  C   UNL A   1      42.406  26.571  27.619  1.00  0.00     0.057 A 
ATOM     41  C   UNL A   1      43.187  27.161  26.617  1.00  0.00     0.134 A 
ATOM     42  C   UNL A   1      42.025  25.236  27.444  1.00  0.00     0.134 A 
ATOM     43  F   UNL A   1      43.563  28.444  26.714  1.00  0.00    -0.206 F 
ATOM     44  C   UNL A   1      43.565  26.448  25.477  1.00  0.00     0.040 A 
ATOM     45  C   UNL A   1      42.411  24.509  26.317  1.00  0.00     0.040 A 
ATOM     46  F   UNL A   1      41.268  24.618  28.363  1.00  0.00    -0.206 F 
ATOM     47  C   UNL A   1      43.183  25.116  25.328  1.00  0.00     0.006 A 
ENDBRANCH  26  40
BRANCH  27  48
ATOM     48  C   UNL A   1      39.411  32.007  35.508  1.00  0.00     0.057 A 
ATOM     49  C   UNL A   1      38.369  31.567  36.324  1.00  0.00     0.134 A 
ATOM     50  C   UNL A   1      39.951  33.264  35.797  1.00  0.00     0.134 A 
ATOM     51  F   UNL A   1      37.778  30.389  36.085  1.00  0.00    -0.206 F 
ATOM     52  C   UNL A   1      37.877  32.358  37.370  1.00  0.00     0.040 A 
ATOM     53  C   UNL A   1      39.491  34.058  36.846  1.00  0.00     0.040 A 
ATOM     54  F   UNL A   1      40.939  33.743  35.036  1.00  0.00    -0.206 F 
ATOM     55  C   UNL A   1      38.440  33.607  37.633  1.00  0.00     0.006 A 
ENDBRANCH  27  48
BRANCH  39  56
ATOM     56  C   UNL A   1      44.414  27.300  34.498  1.00  0.00     0.057 A 
ATOM     57  C   UNL A   1      44.231  26.077  35.151  1.00  0.00     0.134 A 
ATOM     58  C   UNL A   1      45.619  27.981  34.707  1.00  0.00     0.134 A 
ATOM     59  F   UNL A   1      43.083  25.395  35.009  1.00  0.00    -0.206 F 
ATOM     60  C   UNL A   1      45.211  25.553  35.991  1.00  0.00     0.040 A 
ATOM     61  C   UNL A   1      46.617  27.457  35.524  1.00  0.00     0.040 A 
ATOM     62  F   UNL A   1      45.848  29.159  34.106  1.00  0.00    -0.206 F 
ATOM     63  C   UNL A   1      46.412  26.241  36.173  1.00  0.00     0.006 A 
ENDBRANCH  39  56
ENDBRANCH  13  14
ENDBRANCH   6   8
ENDBRANCH   5   6
ENDBRANCH   4   5
ENDBRANCH   3   4
ENDBRANCH   2   3
ENDBRANCH   1   2
BRANCH   1  64
ATOM     64  C   UNL A   1      34.123  25.724  24.914  1.00  0.00     0.188 C 
BRANCH  64  65
ATOM     65  O   UNL A   1      35.109  24.799  25.368  1.00  0.00    -0.376 OA
BRANCH  65  66
ATOM     66  C   UNL A   1      34.693  23.806  26.297  1.00  0.00     0.202 C 
BRANCH  66  67
ATOM     67  C   UNL A   1      34.351  22.412  25.752  1.00  0.00     0.261 C 
BRANCH  67  68
ATOM     68  O   UNL A   1      33.190  21.772  26.313  1.00  0.00    -0.460 OA
BRANCH  68  69
ATOM     69  C   UNL A   1      32.171  21.612  25.428  1.00  0.00     0.339 C 
ATOM     70  O   UNL A   1      31.748  20.557  24.984  1.00  0.00    -0.246 OA
BRANCH  69  71
ATOM     71  C   UNL A   1      31.635  22.912  24.987  1.00  0.00     0.078 A 
ATOM     72  C   UNL A   1      31.006  23.786  25.884  1.00  0.00     0.019 A 
ATOM     73  C   UNL A   1      31.658  23.228  23.629  1.00  0.00     0.057 A 
ATOM     74  C   UNL A   1      30.393  24.965  25.415  1.00  0.00     0.028 A 
ATOM     75  C   UNL A   1      31.007  24.377  23.168  1.00  0.00     0.048 A 
ATOM     76  Cl  UNL A   1      32.555  22.312  22.468  1.00  0.00    -0.083 Cl
ATOM     77  C   UNL A   1      30.365  25.269  24.045  1.00  0.00     0.053 A 
BRANCH  77  78
ATOM     78  N   UNL A   1      29.794  26.466  23.530  1.00  0.00    -0.250 N 
ATOM     79  C   UNL A   1      28.481  26.892  23.753  1.00  0.00     0.238 C 
ATOM     80  C   UNL A   1      30.502  27.402  22.785  1.00  0.00     0.238 C 
ATOM     81  O   UNL A   1      27.523  26.276  24.160  1.00  0.00    -0.274 OA
ATOM     82  C   UNL A   1      28.509  28.382  23.504  1.00  0.00     0.096 C 
ATOM     83  C   UNL A   1      29.533  28.474  22.390  1.00  0.00     0.096 C 
ATOM     84  O   UNL A   1      31.661  27.369  22.393  1.00  0.00    -0.274 OA
ATOM     85  C   UNL A   1      27.260  29.151  23.122  1.00  0.00     0.041 C 
ATOM     86  C   UNL A   1      30.063  29.891  22.269  1.00  0.00     0.041 C 
ATOM     87  C   UNL A   1      27.650  30.526  22.605  1.00  0.00    -0.030 C 
ATOM     88  C   UNL A   1      28.907  30.864  22.254  1.00  0.00    -0.030 C 
ENDBRANCH  77  78
ENDBRANCH  69  71
ENDBRANCH  68  69
ENDBRANCH  67  68
ENDBRANCH  66  67
ENDBRANCH  65  66
ENDBRANCH  64  65
ENDBRANCH   1  64
TORSDOF 18
ENDMDL
MODEL 3
REMARK VINA RESULT:     -10.7      5.276      9.125
REMARK SMILES O=C(OCCOCCOCCOC(=O)c1ccc(N2C(=O)[C@@H]3CC=CC[C@H]3C2=O)cc1Cl)c1ccc(-c2c3nc(c(-c4c(F)cccc4F)c4ccc([nH]4)c(-c4c(F)cccc4F)c4nc(c(-c5c(F)cccc5F)c5ccc2[nH]5)C=C4)C=C3)cc1
REMARK SMILES IDX 7 1 6 2 5 3 4 4 3 5 2 6 1 7 33 8 34 9 86 10 35 11 85 12
REMARK SMILES IDX 36 13 37 14 38 15 79 16 39 17 84 18 78 19 80 20 40 21 83 22
REMARK SMILES IDX 77 23 76 24 41 26 67 27 50 28 66 29 51 30 54 31 65 32 81 33
REMARK SMILES IDX 52 34 53 35 64 37 82 38 55 39 42 40 43 41 48 42 44 43 45 44
REMARK SMILES IDX 47 45 49 46 46 47 68 48 69 49 74 50 70 51 71 52 73 53 75 54
REMARK SMILES IDX 72 55 56 56 57 57 62 58 58 59 59 60 61 61 63 62 60 63 8 64
REMARK SMILES IDX 9 65 10 66 11 67 12 68 13 69 14 70 15 71 16 72 31 73 17 74
REMARK SMILES IDX 30 75 32 76 18 77 19 78 20 79 28 80 21 81 22 82 27 83 29 84
REMARK SMILES IDX 23 85 26 86 24 87 25 88
REMARK H PARENT 80 25 54 36
REMARK Flexibility Score: inf
ROOT
ATOM      1  C   UNL A   1      42.530  20.319  26.129  1.00  0.00     0.188 C 
ENDROOT
BRANCH   1   2
ATOM      2  O   UNL A   1      43.088  21.596  26.465  1.00  0.00    -0.376 OA
BRANCH   2   3
ATOM      3  C   UNL A   1      43.385  22.406  25.323  1.00  0.00     0.202 C 
BRANCH   3   4
ATOM      4  C   UNL A   1      43.571  23.901  25.628  1.00  0.00     0.261 C 
BRANCH   4   5
ATOM      5  O   UNL A   1      42.346  24.648  25.544  1.00  0.00    -0.460 OA
BRANCH   5   6
ATOM      6  C   UNL A   1      42.172  25.989  25.645  1.00  0.00     0.338 C 
ATOM      7  O   UNL A   1      42.279  26.671  24.626  1.00  0.00    -0.246 OA
BRANCH   6   8
ATOM      8  C   UNL A   1      41.854  26.700  26.925  1.00  0.00     0.060 A 
ATOM      9  C   UNL A   1      41.002  26.222  27.920  1.00  0.00     0.016 A 
ATOM     10  C   UNL A   1      42.527  27.909  27.175  1.00  0.00     0.016 A 
ATOM     11  C   UNL A   1      40.750  26.944  29.081  1.00  0.00     0.010 A 
ATOM     12  C   UNL A   1      42.325  28.617  28.368  1.00  0.00     0.010 A 
ATOM     13  C   UNL A   1      41.413  28.144  29.319  1.00  0.00    -0.014 A 
BRANCH  13  14
ATOM     14  C   UNL A   1      41.051  28.932  30.514  1.00  0.00     0.031 A 
ATOM     15  C   UNL A   1      39.933  29.921  30.401  1.00  0.00     0.074 A 
ATOM     16  C   UNL A   1      41.622  28.678  31.708  1.00  0.00     0.049 A 
ATOM     17  N   UNL A   1      39.511  30.793  31.275  1.00  0.00    -0.248 NA
ATOM     18  C   UNL A   1      39.152  29.891  29.151  1.00  0.00     0.031 C 
ATOM     19  C   UNL A   1      42.560  27.590  31.978  1.00  0.00     0.029 A 
ATOM     20  N   UNL A   1      41.487  29.301  32.921  1.00  0.00    -0.354 N 
ATOM     21  C   UNL A   1      38.419  31.414  30.686  1.00  0.00     0.074 A 
ATOM     22  C   UNL A   1      38.250  30.837  29.372  1.00  0.00     0.031 C 
ATOM     23  C   UNL A   1      42.942  27.641  33.265  1.00  0.00     0.029 A 
ATOM     24  C   UNL A   1      42.337  28.808  33.885  1.00  0.00     0.049 A 
ATOM     25  H   UNL A   1      40.845  30.028  33.088  1.00  0.00     0.167 HD
ATOM     26  C   UNL A   1      37.628  32.375  31.211  1.00  0.00     0.037 A 
ATOM     27  C   UNL A   1      42.649  29.297  35.101  1.00  0.00     0.037 A 
ATOM     28  C   UNL A   1      37.821  32.926  32.524  1.00  0.00     0.049 A 
ATOM     29  C   UNL A   1      41.966  30.559  35.533  1.00  0.00     0.074 A 
ATOM     30  C   UNL A   1      37.087  33.900  33.173  1.00  0.00     0.029 A 
ATOM     31  N   UNL A   1      38.841  32.547  33.385  1.00  0.00    -0.354 N 
ATOM     32  N   UNL A   1      40.981  31.199  34.950  1.00  0.00    -0.248 NA
ATOM     33  C   UNL A   1      42.453  31.191  36.765  1.00  0.00     0.031 C 
ATOM     34  C   UNL A   1      37.701  34.155  34.404  1.00  0.00     0.029 A 
ATOM     35  C   UNL A   1      38.790  33.307  34.539  1.00  0.00     0.049 A 
ATOM     36  H   UNL A   1      39.503  31.842  33.201  1.00  0.00     0.167 HD
ATOM     37  C   UNL A   1      40.695  32.280  35.766  1.00  0.00     0.074 A 
ATOM     38  C   UNL A   1      41.630  32.225  36.873  1.00  0.00     0.031 C 
ATOM     39  C   UNL A   1      39.732  33.222  35.625  1.00  0.00     0.037 A 
BRANCH  26  40
ATOM     40  C   UNL A   1      36.533  32.920  30.347  1.00  0.00     0.057 A 
ATOM     41  C   UNL A   1      36.777  33.856  29.334  1.00  0.00     0.134 A 
ATOM     42  C   UNL A   1      35.214  32.489  30.529  1.00  0.00     0.134 A 
ATOM     43  F   UNL A   1      38.014  34.327  29.127  1.00  0.00    -0.206 F 
ATOM     44  C   UNL A   1      35.742  34.351  28.538  1.00  0.00     0.040 A 
ATOM     45  C   UNL A   1      34.174  32.964  29.729  1.00  0.00     0.040 A 
ATOM     46  F   UNL A   1      34.915  31.601  31.490  1.00  0.00    -0.206 F 
ATOM     47  C   UNL A   1      34.437  33.900  28.730  1.00  0.00     0.006 A 
ENDBRANCH  26  40
BRANCH  27  48
ATOM     48  C   UNL A   1      43.766  28.722  35.898  1.00  0.00     0.057 A 
ATOM     49  C   UNL A   1      43.598  27.694  36.825  1.00  0.00     0.134 A 
ATOM     50  C   UNL A   1      45.045  29.280  35.800  1.00  0.00     0.134 A 
ATOM     51  F   UNL A   1      42.393  27.135  37.001  1.00  0.00    -0.206 F 
ATOM     52  C   UNL A   1      44.657  27.258  37.632  1.00  0.00     0.040 A 
ATOM     53  C   UNL A   1      46.117  28.847  36.577  1.00  0.00     0.040 A 
ATOM     54  F   UNL A   1      45.257  30.280  34.940  1.00  0.00    -0.206 F 
ATOM     55  C   UNL A   1      45.921  27.836  37.508  1.00  0.00     0.006 A 
ENDBRANCH  27  48
BRANCH  39  56
ATOM     56  C   UNL A   1      39.605  34.217  36.731  1.00  0.00     0.057 A 
ATOM     57  C   UNL A   1      40.169  35.494  36.645  1.00  0.00     0.134 A 
ATOM     58  C   UNL A   1      38.885  33.895  37.887  1.00  0.00     0.134 A 
ATOM     59  F   UNL A   1      40.894  35.847  35.572  1.00  0.00    -0.206 F 
ATOM     60  C   UNL A   1      40.029  36.416  37.681  1.00  0.00     0.040 A 
ATOM     61  C   UNL A   1      38.716  34.815  38.918  1.00  0.00     0.040 A 
ATOM     62  F   UNL A   1      38.322  32.683  38.023  1.00  0.00    -0.206 F 
ATOM     63  C   UNL A   1      39.293  36.080  38.818  1.00  0.00     0.006 A 
ENDBRANCH  39  56
ENDBRANCH  13  14
ENDBRANCH   6   8
ENDBRANCH   5   6
ENDBRANCH   4   5
ENDBRANCH   3   4
ENDBRANCH   2   3
ENDBRANCH   1   2
BRANCH   1  64
ATOM     64  C   UNL A   1      41.045  20.241  26.496  1.00  0.00     0.188 C 
BRANCH  64  65
ATOM     65  O   UNL A   1      40.564  21.257  27.374  1.00  0.00    -0.376 OA
BRANCH  65  66
ATOM     66  C   UNL A   1      39.648  22.203  26.837  1.00  0.00     0.202 C 
BRANCH  66  67
ATOM     67  C   UNL A   1      38.675  21.722  25.751  1.00  0.00     0.261 C 
BRANCH  67  68
ATOM     68  O   UNL A   1      37.569  22.593  25.451  1.00  0.00    -0.460 OA
BRANCH  68  69
ATOM     69  C   UNL A   1      36.384  21.944  25.306  1.00  0.00     0.339 C 
ATOM     70  O   UNL A   1      36.197  20.740  25.376  1.00  0.00    -0.246 OA
BRANCH  69  71
ATOM     71  C   UNL A   1      35.295  22.882  24.979  1.00  0.00     0.078 A 
ATOM     72  C   UNL A   1      35.160  23.425  23.694  1.00  0.00     0.019 A 
ATOM     73  C   UNL A   1      34.449  23.319  25.997  1.00  0.00     0.057 A 
ATOM     74  C   UNL A   1      34.188  24.414  23.440  1.00  0.00     0.028 A 
ATOM     75  C   UNL A   1      33.518  24.333  25.745  1.00  0.00     0.048 A 
ATOM     76  Cl  UNL A   1      34.415  22.590  27.565  1.00  0.00    -0.083 Cl
ATOM     77  C   UNL A   1      33.364  24.898  24.468  1.00  0.00     0.053 A 
BRANCH  77  78
ATOM     78  N   UNL A   1      32.342  25.865  24.250  1.00  0.00    -0.250 N 
ATOM     79  C   UNL A   1      32.526  27.104  23.629  1.00  0.00     0.238 C 
ATOM     80  C   UNL A   1      31.006  25.664  24.575  1.00  0.00     0.238 C 
ATOM     81  O   UNL A   1      33.545  27.715  23.401  1.00  0.00    -0.274 OA
ATOM     82  C   UNL A   1      31.151  27.503  23.146  1.00  0.00     0.096 C 
ATOM     83  C   UNL A   1      30.277  26.929  24.244  1.00  0.00     0.096 C 
ATOM     84  O   UNL A   1      30.476  24.711  25.131  1.00  0.00    -0.274 OA
ATOM     85  C   UNL A   1      30.783  28.952  22.897  1.00  0.00     0.041 C 
ATOM     86  C   UNL A   1      28.839  26.810  23.772  1.00  0.00     0.041 C 
ATOM     87  C   UNL A   1      29.274  29.074  22.764  1.00  0.00    -0.030 C 
ATOM     88  C   UNL A   1      28.410  28.105  23.126  1.00  0.00    -0.030 C 
ENDBRANCH  77  78
ENDBRANCH  69  71
ENDBRANCH  68  69
ENDBRANCH  67  68
ENDBRANCH  66  67
ENDBRANCH  65  66
ENDBRANCH  64  65
ENDBRANCH   1  64
TORSDOF 18
ENDMDL
