MODEL 1
REMARK VINA RESULT:     -10.3      0.000      0.000
REMARK SMILES C[C@@H](C(=O)OCCOCCOCCOC(=O)c1ccc(-c2c3nc(c(-c4c(F)cccc4F)c4ccc([nH]4)c(-c4c(F)cccc4F)c4nc(c(-c5c(F)cccc5F)c5ccc2[nH]5)C=C4)C=C3)cc1)c1ccc(Cc2cccs2)cc1F
REMARK SMILES IDX 9 1 8 2 7 3 6 4 5 5 3 6 4 7 2 8 1 9 71 10 72 11 82 12 73 13
REMARK SMILES IDX 81 14 83 15 74 16 75 17 76 18 77 19 80 20 78 21 79 22 10 23
REMARK SMILES IDX 11 24 12 25 13 26 14 27 15 28 16 29 17 30 18 31 70 32 19 33
REMARK SMILES IDX 69 34 20 35 21 36 22 37 63 38 23 39 68 40 62 41 64 42 24 43
REMARK SMILES IDX 67 44 61 45 60 46 25 48 51 49 34 50 50 51 35 52 38 53 49 54
REMARK SMILES IDX 65 55 36 56 37 57 48 59 66 60 39 61 26 62 27 63 32 64 28 65
REMARK SMILES IDX 29 66 31 67 33 68 30 69 52 70 53 71 58 72 54 73 55 74 57 75
REMARK SMILES IDX 59 76 56 77 40 78 41 79 46 80 42 81 43 82 45 83 47 84 44 85
REMARK H PARENT 64 47 38 58
REMARK Flexibility Score: inf
ROOT
ATOM      1  C   UNL A   1      32.355  29.612  25.802  1.00  0.00     0.188 C 
ENDROOT
BRANCH   1   2
ATOM      2  O   UNL A   1      32.232  28.212  25.979  1.00  0.00    -0.376 OA
BRANCH   2   3
ATOM      3  C   UNL A   1      33.407  27.458  26.259  1.00  0.00     0.202 C 
BRANCH   3   4
ATOM      4  C   UNL A   1      33.544  25.999  25.783  1.00  0.00     0.261 C 
BRANCH   4   5
ATOM      5  O   UNL A   1      34.334  25.831  24.591  1.00  0.00    -0.463 OA
BRANCH   5   6
ATOM      6  C   UNL A   1      33.660  25.730  23.413  1.00  0.00     0.313 C 
ATOM      7  O   UNL A   1      34.128  26.057  22.327  1.00  0.00    -0.252 OA
BRANCH   6   8
ATOM      8  C   UNL A   1      32.242  25.156  23.561  1.00  0.00     0.129 C 
ATOM      9  C   UNL A   1      31.987  23.876  22.740  1.00  0.00     0.025 C 
BRANCH   8  10
ATOM     10  C   UNL A   1      31.078  26.150  23.479  1.00  0.00     0.002 A 
ATOM     11  C   UNL A   1      31.147  27.206  22.552  1.00  0.00     0.008 A 
ATOM     12  C   UNL A   1      29.889  26.043  24.210  1.00  0.00     0.127 A 
ATOM     13  C   UNL A   1      30.078  28.096  22.363  1.00  0.00     0.004 A 
ATOM     14  C   UNL A   1      28.833  26.953  24.053  1.00  0.00     0.043 A 
ATOM     15  F   UNL A   1      29.700  25.037  25.072  1.00  0.00    -0.207 F 
ATOM     16  C   UNL A   1      28.907  27.994  23.119  1.00  0.00    -0.040 A 
BRANCH  16  17
ATOM     17  C   UNL A   1      27.698  28.870  22.839  1.00  0.00     0.082 C 
BRANCH  17  18
ATOM     18  C   UNL A   1      27.951  30.271  22.332  1.00  0.00     0.009 A 
ATOM     19  C   UNL A   1      27.965  30.803  21.055  1.00  0.00     0.016 A 
ATOM     20  S   UNL A   1      28.161  31.524  23.498  1.00  0.00    -0.149 S 
ATOM     21  C   UNL A   1      28.269  32.198  21.038  1.00  0.00     0.012 A 
ATOM     22  C   UNL A   1      28.461  32.700  22.303  1.00  0.00     0.065 A 
ENDBRANCH  17  18
ENDBRANCH  16  17
ENDBRANCH   8  10
ENDBRANCH   6   8
ENDBRANCH   5   6
ENDBRANCH   4   5
ENDBRANCH   3   4
ENDBRANCH   2   3
ENDBRANCH   1   2
BRANCH   1  23
ATOM     23  C   UNL A   1      31.114  30.432  25.422  1.00  0.00     0.188 C 
BRANCH  23  24
ATOM     24  O   UNL A   1      31.009  31.743  25.913  1.00  0.00    -0.376 OA
BRANCH  24  25
ATOM     25  C   UNL A   1      31.750  32.147  27.050  1.00  0.00     0.202 C 
BRANCH  25  26
ATOM     26  C   UNL A   1      32.536  33.465  27.206  1.00  0.00     0.261 C 
BRANCH  26  27
ATOM     27  O   UNL A   1      32.344  34.250  28.384  1.00  0.00    -0.460 OA
BRANCH  27  28
ATOM     28  C   UNL A   1      33.396  35.005  28.780  1.00  0.00     0.338 C 
ATOM     29  O   UNL A   1      33.410  36.208  28.987  1.00  0.00    -0.246 OA
BRANCH  28  30
ATOM     30  C   UNL A   1      34.502  34.092  29.131  1.00  0.00     0.060 A 
ATOM     31  C   UNL A   1      34.239  32.975  29.939  1.00  0.00     0.016 A 
ATOM     32  C   UNL A   1      35.793  34.340  28.663  1.00  0.00     0.016 A 
ATOM     33  C   UNL A   1      35.274  32.112  30.298  1.00  0.00     0.010 A 
ATOM     34  C   UNL A   1      36.833  33.490  29.046  1.00  0.00     0.010 A 
ATOM     35  C   UNL A   1      36.583  32.389  29.885  1.00  0.00    -0.014 A 
BRANCH  35  36
ATOM     36  C   UNL A   1      37.723  31.647  30.475  1.00  0.00     0.031 A 
ATOM     37  C   UNL A   1      38.069  31.896  31.917  1.00  0.00     0.074 A 
ATOM     38  C   UNL A   1      38.433  30.767  29.749  1.00  0.00     0.049 A 
ATOM     39  N   UNL A   1      39.029  31.389  32.644  1.00  0.00    -0.248 NA
ATOM     40  C   UNL A   1      37.217  32.860  32.631  1.00  0.00     0.031 C 
ATOM     41  C   UNL A   1      38.146  30.381  28.371  1.00  0.00     0.029 A 
ATOM     42  N   UNL A   1      39.526  30.009  30.093  1.00  0.00    -0.354 N 
ATOM     43  C   UNL A   1      38.921  31.998  33.888  1.00  0.00     0.074 A 
ATOM     44  C   UNL A   1      37.803  32.914  33.816  1.00  0.00     0.031 C 
ATOM     45  C   UNL A   1      39.007  29.415  28.003  1.00  0.00     0.029 A 
ATOM     46  C   UNL A   1      39.930  29.145  29.106  1.00  0.00     0.049 A 
ATOM     47  H   UNL A   1      39.977  30.080  30.965  1.00  0.00     0.167 HD
ATOM     48  C   UNL A   1      39.692  31.820  34.987  1.00  0.00     0.037 A 
ATOM     49  C   UNL A   1      40.918  28.227  29.109  1.00  0.00     0.037 A 
ATOM     50  C   UNL A   1      40.800  30.905  35.057  1.00  0.00     0.049 A 
ATOM     51  C   UNL A   1      41.776  28.067  30.341  1.00  0.00     0.074 A 
ATOM     52  C   UNL A   1      41.640  30.653  36.127  1.00  0.00     0.029 A 
ATOM     53  N   UNL A   1      41.227  30.098  34.012  1.00  0.00    -0.354 N 
ATOM     54  N   UNL A   1      41.665  28.640  31.516  1.00  0.00    -0.248 NA
ATOM     55  C   UNL A   1      42.912  27.137  30.237  1.00  0.00     0.031 C 
ATOM     56  C   UNL A   1      42.613  29.738  35.711  1.00  0.00     0.029 A 
ATOM     57  C   UNL A   1      42.339  29.370  34.404  1.00  0.00     0.049 A 
ATOM     58  H   UNL A   1      40.803  30.051  33.125  1.00  0.00     0.167 HD
ATOM     59  C   UNL A   1      42.699  28.126  32.292  1.00  0.00     0.074 A 
ATOM     60  C   UNL A   1      43.409  27.175  31.466  1.00  0.00     0.031 C 
ATOM     61  C   UNL A   1      43.037  28.424  33.572  1.00  0.00     0.037 A 
BRANCH  48  62
ATOM     62  C   UNL A   1      39.400  32.680  36.182  1.00  0.00     0.057 A 
ATOM     63  C   UNL A   1      38.497  32.293  37.180  1.00  0.00     0.134 A 
ATOM     64  C   UNL A   1      40.054  33.909  36.344  1.00  0.00     0.134 A 
ATOM     65  F   UNL A   1      37.825  31.136  37.078  1.00  0.00    -0.206 F 
ATOM     66  C   UNL A   1      38.235  33.109  38.283  1.00  0.00     0.040 A 
ATOM     67  C   UNL A   1      39.824  34.718  37.456  1.00  0.00     0.040 A 
ATOM     68  F   UNL A   1      40.934  34.338  35.428  1.00  0.00    -0.206 F 
ATOM     69  C   UNL A   1      38.907  34.322  38.426  1.00  0.00     0.006 A 
ENDBRANCH  48  62
BRANCH  49  70
ATOM     70  C   UNL A   1      41.154  27.372  27.916  1.00  0.00     0.057 A 
ATOM     71  C   UNL A   1      41.921  27.830  26.836  1.00  0.00     0.134 A 
ATOM     72  C   UNL A   1      40.588  26.097  27.802  1.00  0.00     0.134 A 
ATOM     73  F   UNL A   1      42.471  29.054  26.869  1.00  0.00    -0.206 F 
ATOM     74  C   UNL A   1      42.097  27.064  25.682  1.00  0.00     0.040 A 
ATOM     75  C   UNL A   1      40.784  25.305  26.668  1.00  0.00     0.040 A 
ATOM     76  F   UNL A   1      39.840  25.595  28.795  1.00  0.00    -0.206 F 
ATOM     77  C   UNL A   1      41.532  25.794  25.599  1.00  0.00     0.006 A 
ENDBRANCH  49  70
BRANCH  61  78
ATOM     78  C   UNL A   1      44.216  27.704  34.167  1.00  0.00     0.057 A 
ATOM     79  C   UNL A   1      45.506  28.249  34.146  1.00  0.00     0.134 A 
ATOM     80  C   UNL A   1      44.048  26.475  34.822  1.00  0.00     0.134 A 
ATOM     81  F   UNL A   1      45.741  29.419  33.531  1.00  0.00    -0.206 F 
ATOM     82  C   UNL A   1      46.590  27.587  34.728  1.00  0.00     0.040 A 
ATOM     83  C   UNL A   1      45.117  25.819  35.435  1.00  0.00     0.040 A 
ATOM     84  F   UNL A   1      42.837  25.902  34.895  1.00  0.00    -0.206 F 
ATOM     85  C   UNL A   1      46.395  26.372  35.382  1.00  0.00     0.006 A 
ENDBRANCH  61  78
ENDBRANCH  35  36
ENDBRANCH  28  30
ENDBRANCH  27  28
ENDBRANCH  26  27
ENDBRANCH  25  26
ENDBRANCH  24  25
ENDBRANCH  23  24
ENDBRANCH   1  23
TORSDOF 20
ENDMDL
MODEL 2
REMARK VINA RESULT:     -10.3      4.050      7.947
REMARK SMILES C[C@@H](C(=O)OCCOCCOCCOC(=O)c1ccc(-c2c3nc(c(-c4c(F)cccc4F)c4ccc([nH]4)c(-c4c(F)cccc4F)c4nc(c(-c5c(F)cccc5F)c5ccc2[nH]5)C=C4)C=C3)cc1)c1ccc(Cc2cccs2)cc1F
REMARK SMILES IDX 9 1 8 2 7 3 6 4 5 5 3 6 4 7 2 8 1 9 71 10 72 11 82 12 73 13
REMARK SMILES IDX 81 14 83 15 74 16 75 17 76 18 77 19 80 20 78 21 79 22 10 23
REMARK SMILES IDX 11 24 12 25 13 26 14 27 15 28 16 29 17 30 18 31 70 32 19 33
REMARK SMILES IDX 69 34 20 35 21 36 22 37 63 38 23 39 68 40 62 41 64 42 24 43
REMARK SMILES IDX 67 44 61 45 60 46 25 48 51 49 34 50 50 51 35 52 38 53 49 54
REMARK SMILES IDX 65 55 36 56 37 57 48 59 66 60 39 61 26 62 27 63 32 64 28 65
REMARK SMILES IDX 29 66 31 67 33 68 30 69 52 70 53 71 58 72 54 73 55 74 57 75
REMARK SMILES IDX 59 76 56 77 40 78 41 79 46 80 42 81 43 82 45 83 47 84 44 85
REMARK H PARENT 64 47 38 58
REMARK Flexibility Score: inf
ROOT
ATOM      1  C   UNL A   1      33.358  24.371  22.933  1.00  0.00     0.188 C 
ENDROOT
BRANCH   1   2
ATOM      2  O   UNL A   1      33.800  25.482  22.173  1.00  0.00    -0.376 OA
BRANCH   2   3
ATOM      3  C   UNL A   1      32.825  26.384  21.660  1.00  0.00     0.202 C 
BRANCH   3   4
ATOM      4  C   UNL A   1      32.065  27.345  22.596  1.00  0.00     0.261 C 
BRANCH   4   5
ATOM      5  O   UNL A   1      32.817  27.777  23.746  1.00  0.00    -0.463 OA
BRANCH   5   6
ATOM      6  C   UNL A   1      32.134  28.459  24.707  1.00  0.00     0.313 C 
ATOM      7  O   UNL A   1      31.169  29.181  24.478  1.00  0.00    -0.252 OA
BRANCH   6   8
ATOM      8  C   UNL A   1      32.680  28.237  26.126  1.00  0.00     0.129 C 
ATOM      9  C   UNL A   1      31.722  27.474  27.063  1.00  0.00     0.025 C 
BRANCH   8  10
ATOM     10  C   UNL A   1      33.342  29.438  26.812  1.00  0.00     0.002 A 
ATOM     11  C   UNL A   1      34.719  29.386  27.098  1.00  0.00     0.008 A 
ATOM     12  C   UNL A   1      32.692  30.641  27.108  1.00  0.00     0.127 A 
ATOM     13  C   UNL A   1      35.403  30.485  27.641  1.00  0.00     0.004 A 
ATOM     14  C   UNL A   1      33.362  31.729  27.687  1.00  0.00     0.043 A 
ATOM     15  F   UNL A   1      31.397  30.812  26.817  1.00  0.00    -0.207 F 
ATOM     16  C   UNL A   1      34.735  31.671  27.958  1.00  0.00    -0.040 A 
BRANCH  16  17
ATOM     17  C   UNL A   1      35.484  32.907  28.428  1.00  0.00     0.082 C 
BRANCH  17  18
ATOM     18  C   UNL A   1      34.703  33.950  29.193  1.00  0.00     0.009 A 
ATOM     19  C   UNL A   1      34.478  34.127  30.546  1.00  0.00     0.016 A 
ATOM     20  S   UNL A   1      34.024  35.262  28.303  1.00  0.00    -0.149 S 
ATOM     21  C   UNL A   1      33.654  35.258  30.829  1.00  0.00     0.012 A 
ATOM     22  C   UNL A   1      33.285  35.927  29.687  1.00  0.00     0.065 A 
ENDBRANCH  17  18
ENDBRANCH  16  17
ENDBRANCH   8  10
ENDBRANCH   6   8
ENDBRANCH   5   6
ENDBRANCH   4   5
ENDBRANCH   3   4
ENDBRANCH   2   3
ENDBRANCH   1   2
BRANCH   1  23
ATOM     23  C   UNL A   1      34.287  23.161  23.106  1.00  0.00     0.188 C 
BRANCH  23  24
ATOM     24  O   UNL A   1      35.638  23.307  22.754  1.00  0.00    -0.376 OA
BRANCH  24  25
ATOM     25  C   UNL A   1      36.643  22.582  23.439  1.00  0.00     0.202 C 
BRANCH  25  26
ATOM     26  C   UNL A   1      36.415  21.453  24.466  1.00  0.00     0.261 C 
BRANCH  26  27
ATOM     27  O   UNL A   1      37.025  21.557  25.754  1.00  0.00    -0.460 OA
BRANCH  27  28
ATOM     28  C   UNL A   1      38.347  21.269  25.816  1.00  0.00     0.338 C 
ATOM     29  O   UNL A   1      38.918  20.299  25.344  1.00  0.00    -0.246 OA
BRANCH  28  30
ATOM     30  C   UNL A   1      39.041  22.444  26.380  1.00  0.00     0.060 A 
ATOM     31  C   UNL A   1      38.479  23.718  26.210  1.00  0.00     0.016 A 
ATOM     32  C   UNL A   1      40.241  22.285  27.073  1.00  0.00     0.016 A 
ATOM     33  C   UNL A   1      39.129  24.843  26.719  1.00  0.00     0.010 A 
ATOM     34  C   UNL A   1      40.904  23.415  27.558  1.00  0.00     0.010 A 
ATOM     35  C   UNL A   1      40.366  24.699  27.360  1.00  0.00    -0.014 A 
BRANCH  35  36
ATOM     36  C   UNL A   1      41.192  25.892  27.661  1.00  0.00     0.031 A 
ATOM     37  C   UNL A   1      40.634  26.930  28.595  1.00  0.00     0.074 A 
ATOM     38  C   UNL A   1      42.412  26.051  27.120  1.00  0.00     0.049 A 
ATOM     39  N   UNL A   1      41.155  28.063  28.990  1.00  0.00    -0.248 NA
ATOM     40  C   UNL A   1      39.301  26.653  29.151  1.00  0.00     0.031 C 
ATOM     41  C   UNL A   1      43.091  25.080  26.268  1.00  0.00     0.029 A 
ATOM     42  N   UNL A   1      43.312  27.081  27.247  1.00  0.00    -0.354 N 
ATOM     43  C   UNL A   1      40.198  28.650  29.808  1.00  0.00     0.074 A 
ATOM     44  C   UNL A   1      39.067  27.750  29.853  1.00  0.00     0.031 C 
ATOM     45  C   UNL A   1      44.327  25.537  25.991  1.00  0.00     0.029 A 
ATOM     46  C   UNL A   1      44.509  26.848  26.614  1.00  0.00     0.049 A 
ATOM     47  H   UNL A   1      43.116  27.909  27.742  1.00  0.00     0.167 HD
ATOM     48  C   UNL A   1      40.254  29.839  30.455  1.00  0.00     0.037 A 
ATOM     49  C   UNL A   1      45.626  27.601  26.569  1.00  0.00     0.037 A 
ATOM     50  C   UNL A   1      41.383  30.730  30.413  1.00  0.00     0.049 A 
ATOM     51  C   UNL A   1      45.649  28.933  27.280  1.00  0.00     0.074 A 
ATOM     52  C   UNL A   1      41.534  31.955  31.037  1.00  0.00     0.029 A 
ATOM     53  N   UNL A   1      42.550  30.494  29.702  1.00  0.00    -0.354 N 
ATOM     54  N   UNL A   1      44.746  29.480  28.059  1.00  0.00    -0.248 NA
ATOM     55  C   UNL A   1      46.852  29.760  27.091  1.00  0.00     0.031 C 
ATOM     56  C   UNL A   1      42.768  32.490  30.654  1.00  0.00     0.029 A 
ATOM     57  C   UNL A   1      43.414  31.568  29.847  1.00  0.00     0.049 A 
ATOM     58  H   UNL A   1      42.736  29.685  29.173  1.00  0.00     0.167 HD
ATOM     59  C   UNL A   1      45.278  30.699  28.465  1.00  0.00     0.074 A 
ATOM     60  C   UNL A   1      46.594  30.800  27.872  1.00  0.00     0.031 C 
ATOM     61  C   UNL A   1      44.723  31.656  29.252  1.00  0.00     0.037 A 
BRANCH  48  62
ATOM     62  C   UNL A   1      39.032  30.271  31.212  1.00  0.00     0.057 A 
ATOM     63  C   UNL A   1      38.852  29.984  32.571  1.00  0.00     0.134 A 
ATOM     64  C   UNL A   1      38.027  31.007  30.569  1.00  0.00     0.134 A 
ATOM     65  F   UNL A   1      39.768  29.269  33.242  1.00  0.00    -0.206 F 
ATOM     66  C   UNL A   1      37.705  30.391  33.256  1.00  0.00     0.040 A 
ATOM     67  C   UNL A   1      36.892  31.446  31.250  1.00  0.00     0.040 A 
ATOM     68  F   UNL A   1      38.138  31.320  29.269  1.00  0.00    -0.206 F 
ATOM     69  C   UNL A   1      36.725  31.132  32.597  1.00  0.00     0.006 A 
ENDBRANCH  48  62
BRANCH  49  70
ATOM     70  C   UNL A   1      46.827  27.123  25.835  1.00  0.00     0.057 A 
ATOM     71  C   UNL A   1      47.810  26.357  26.475  1.00  0.00     0.134 A 
ATOM     72  C   UNL A   1      47.046  27.452  24.492  1.00  0.00     0.134 A 
ATOM     73  F   UNL A   1      47.675  26.028  27.769  1.00  0.00    -0.206 F 
ATOM     74  C   UNL A   1      48.974  25.957  25.816  1.00  0.00     0.040 A 
ATOM     75  C   UNL A   1      48.189  27.029  23.810  1.00  0.00     0.040 A 
ATOM     76  F   UNL A   1      46.149  28.185  23.818  1.00  0.00    -0.206 F 
ATOM     77  C   UNL A   1      49.163  26.288  24.477  1.00  0.00     0.006 A 
ENDBRANCH  49  70
BRANCH  61  78
ATOM     78  C   UNL A   1      45.538  32.888  29.531  1.00  0.00     0.057 A 
ATOM     79  C   UNL A   1      46.426  32.963  30.613  1.00  0.00     0.134 A 
ATOM     80  C   UNL A   1      45.477  33.996  28.672  1.00  0.00     0.134 A 
ATOM     81  F   UNL A   1      46.530  31.942  31.478  1.00  0.00    -0.206 F 
ATOM     82  C   UNL A   1      47.202  34.101  30.846  1.00  0.00     0.040 A 
ATOM     83  C   UNL A   1      46.271  35.126  28.877  1.00  0.00     0.040 A 
ATOM     84  F   UNL A   1      44.662  33.989  27.607  1.00  0.00    -0.206 F 
ATOM     85  C   UNL A   1      47.131  35.183  29.972  1.00  0.00     0.006 A 
ENDBRANCH  61  78
ENDBRANCH  35  36
ENDBRANCH  28  30
ENDBRANCH  27  28
ENDBRANCH  26  27
ENDBRANCH  25  26
ENDBRANCH  24  25
ENDBRANCH  23  24
ENDBRANCH   1  23
TORSDOF 20
ENDMDL
MODEL 3
REMARK VINA RESULT:     -10.1      3.421      8.686
REMARK SMILES C[C@@H](C(=O)OCCOCCOCCOC(=O)c1ccc(-c2c3nc(c(-c4c(F)cccc4F)c4ccc([nH]4)c(-c4c(F)cccc4F)c4nc(c(-c5c(F)cccc5F)c5ccc2[nH]5)C=C4)C=C3)cc1)c1ccc(Cc2cccs2)cc1F
REMARK SMILES IDX 9 1 8 2 7 3 6 4 5 5 3 6 4 7 2 8 1 9 71 10 72 11 82 12 73 13
REMARK SMILES IDX 81 14 83 15 74 16 75 17 76 18 77 19 80 20 78 21 79 22 10 23
REMARK SMILES IDX 11 24 12 25 13 26 14 27 15 28 16 29 17 30 18 31 70 32 19 33
REMARK SMILES IDX 69 34 20 35 21 36 22 37 63 38 23 39 68 40 62 41 64 42 24 43
REMARK SMILES IDX 67 44 61 45 60 46 25 48 51 49 34 50 50 51 35 52 38 53 49 54
REMARK SMILES IDX 65 55 36 56 37 57 48 59 66 60 39 61 26 62 27 63 32 64 28 65
REMARK SMILES IDX 29 66 31 67 33 68 30 69 52 70 53 71 58 72 54 73 55 74 57 75
REMARK SMILES IDX 59 76 56 77 40 78 41 79 46 80 42 81 43 82 45 83 47 84 44 85
REMARK H PARENT 64 47 38 58
REMARK Flexibility Score: inf
ROOT
ATOM      1  C   UNL A   1      41.169  19.623  26.749  1.00  0.00     0.188 C 
ENDROOT
BRANCH   1   2
ATOM      2  O   UNL A   1      40.316  19.110  25.741  1.00  0.00    -0.376 OA
BRANCH   2   3
ATOM      3  C   UNL A   1      39.060  19.745  25.527  1.00  0.00     0.202 C 
BRANCH   3   4
ATOM      4  C   UNL A   1      38.911  21.272  25.666  1.00  0.00     0.261 C 
BRANCH   4   5
ATOM      5  O   UNL A   1      37.798  21.832  24.944  1.00  0.00    -0.463 OA
BRANCH   5   6
ATOM      6  C   UNL A   1      36.926  22.599  25.654  1.00  0.00     0.313 C 
ATOM      7  O   UNL A   1      37.238  23.644  26.217  1.00  0.00    -0.252 OA
BRANCH   6   8
ATOM      8  C   UNL A   1      35.495  22.041  25.684  1.00  0.00     0.129 C 
ATOM      9  C   UNL A   1      35.321  20.700  24.943  1.00  0.00     0.025 C 
BRANCH   8  10
ATOM     10  C   UNL A   1      34.358  23.027  25.392  1.00  0.00     0.002 A 
ATOM     11  C   UNL A   1      33.547  23.467  26.455  1.00  0.00     0.008 A 
ATOM     12  C   UNL A   1      34.106  23.602  24.141  1.00  0.00     0.127 A 
ATOM     13  C   UNL A   1      32.549  24.437  26.271  1.00  0.00     0.004 A 
ATOM     14  C   UNL A   1      33.084  24.543  23.944  1.00  0.00     0.043 A 
ATOM     15  F   UNL A   1      34.862  23.296  23.080  1.00  0.00    -0.207 F 
ATOM     16  C   UNL A   1      32.291  24.982  25.011  1.00  0.00    -0.040 A 
BRANCH  16  17
ATOM     17  C   UNL A   1      31.301  26.120  24.822  1.00  0.00     0.082 C 
BRANCH  17  18
ATOM     18  C   UNL A   1      31.540  27.392  25.601  1.00  0.00     0.009 A 
ATOM     19  C   UNL A   1      31.672  27.633  26.957  1.00  0.00     0.016 A 
ATOM     20  S   UNL A   1      31.821  28.842  24.712  1.00  0.00    -0.149 S 
ATOM     21  C   UNL A   1      31.877  29.013  27.258  1.00  0.00     0.012 A 
ATOM     22  C   UNL A   1      31.915  29.789  26.125  1.00  0.00     0.065 A 
ENDBRANCH  17  18
ENDBRANCH  16  17
ENDBRANCH   8  10
ENDBRANCH   6   8
ENDBRANCH   5   6
ENDBRANCH   4   5
ENDBRANCH   3   4
ENDBRANCH   2   3
ENDBRANCH   1   2
BRANCH   1  23
ATOM     23  C   UNL A   1      42.656  19.841  26.436  1.00  0.00     0.188 C 
BRANCH  23  24
ATOM     24  O   UNL A   1      42.991  20.614  25.314  1.00  0.00    -0.376 OA
BRANCH  24  25
ATOM     25  C   UNL A   1      43.533  21.913  25.469  1.00  0.00     0.202 C 
BRANCH  25  26
ATOM     26  C   UNL A   1      43.771  22.942  24.345  1.00  0.00     0.261 C 
BRANCH  26  27
ATOM     27  O   UNL A   1      43.411  24.307  24.569  1.00  0.00    -0.460 OA
BRANCH  27  28
ATOM     28  C   UNL A   1      44.325  25.069  25.215  1.00  0.00     0.338 C 
ATOM     29  O   UNL A   1      45.490  25.257  24.902  1.00  0.00    -0.246 OA
BRANCH  28  30
ATOM     30  C   UNL A   1      43.620  25.824  26.271  1.00  0.00     0.060 A 
ATOM     31  C   UNL A   1      43.828  27.207  26.380  1.00  0.00     0.016 A 
ATOM     32  C   UNL A   1      42.757  25.166  27.148  1.00  0.00     0.016 A 
ATOM     33  C   UNL A   1      43.187  27.934  27.383  1.00  0.00     0.010 A 
ATOM     34  C   UNL A   1      42.137  25.890  28.168  1.00  0.00     0.010 A 
ATOM     35  C   UNL A   1      42.370  27.271  28.307  1.00  0.00    -0.014 A 
BRANCH  35  36
ATOM     36  C   UNL A   1      41.904  27.972  29.526  1.00  0.00     0.031 A 
ATOM     37  C   UNL A   1      40.630  28.767  29.451  1.00  0.00     0.074 A 
ATOM     38  C   UNL A   1      42.593  27.902  30.678  1.00  0.00     0.049 A 
ATOM     39  N   UNL A   1      40.037  29.481  30.372  1.00  0.00    -0.248 NA
ATOM     40  C   UNL A   1      39.938  28.763  28.153  1.00  0.00     0.031 C 
ATOM     41  C   UNL A   1      43.793  27.101  30.897  1.00  0.00     0.029 A 
ATOM     42  N   UNL A   1      42.351  28.491  31.895  1.00  0.00    -0.354 N 
ATOM     43  C   UNL A   1      38.925  30.040  29.755  1.00  0.00     0.074 A 
ATOM     44  C   UNL A   1      38.926  29.585  28.382  1.00  0.00     0.031 C 
ATOM     45  C   UNL A   1      44.153  27.204  32.189  1.00  0.00     0.029 A 
ATOM     46  C   UNL A   1      43.232  28.110  32.877  1.00  0.00     0.049 A 
ATOM     47  H   UNL A   1      41.617  29.128  32.048  1.00  0.00     0.167 HD
ATOM     48  C   UNL A   1      37.993  30.869  30.283  1.00  0.00     0.037 A 
ATOM     49  C   UNL A   1      43.269  28.440  34.184  1.00  0.00     0.037 A 
ATOM     50  C   UNL A   1      37.990  31.317  31.650  1.00  0.00     0.049 A 
ATOM     51  C   UNL A   1      42.231  29.386  34.738  1.00  0.00     0.074 A 
ATOM     52  C   UNL A   1      37.087  32.155  32.278  1.00  0.00     0.029 A 
ATOM     53  N   UNL A   1      38.941  30.968  32.598  1.00  0.00    -0.354 N 
ATOM     54  N   UNL A   1      41.178  29.905  34.153  1.00  0.00    -0.248 NA
ATOM     55  C   UNL A   1      42.399  29.801  36.140  1.00  0.00     0.031 C 
ATOM     56  C   UNL A   1      37.525  32.364  33.590  1.00  0.00     0.029 A 
ATOM     57  C   UNL A   1      38.663  31.601  33.798  1.00  0.00     0.049 A 
ATOM     58  H   UNL A   1      39.700  30.362  32.441  1.00  0.00     0.167 HD
ATOM     59  C   UNL A   1      40.551  30.688  35.117  1.00  0.00     0.074 A 
ATOM     60  C   UNL A   1      41.324  30.553  36.332  1.00  0.00     0.031 C 
ATOM     61  C   UNL A   1      39.439  31.459  35.003  1.00  0.00     0.037 A 
BRANCH  48  62
ATOM     62  C   UNL A   1      36.933  31.395  29.358  1.00  0.00     0.057 A 
ATOM     63  C   UNL A   1      36.993  32.679  28.804  1.00  0.00     0.134 A 
ATOM     64  C   UNL A   1      35.844  30.588  29.002  1.00  0.00     0.134 A 
ATOM     65  F   UNL A   1      38.000  33.509  29.116  1.00  0.00    -0.206 F 
ATOM     66  C   UNL A   1      35.994  33.151  27.949  1.00  0.00     0.040 A 
ATOM     67  C   UNL A   1      34.857  31.037  28.126  1.00  0.00     0.040 A 
ATOM     68  F   UNL A   1      35.727  29.345  29.494  1.00  0.00    -0.206 F 
ATOM     69  C   UNL A   1      34.926  32.325  27.601  1.00  0.00     0.006 A 
ENDBRANCH  48  62
BRANCH  49  70
ATOM     70  C   UNL A   1      44.316  27.872  35.074  1.00  0.00     0.057 A 
ATOM     71  C   UNL A   1      45.565  28.493  35.212  1.00  0.00     0.134 A 
ATOM     72  C   UNL A   1      44.116  26.677  35.774  1.00  0.00     0.134 A 
ATOM     73  F   UNL A   1      45.832  29.628  34.549  1.00  0.00    -0.206 F 
ATOM     74  C   UNL A   1      46.580  27.937  35.993  1.00  0.00     0.040 A 
ATOM     75  C   UNL A   1      45.109  26.126  36.586  1.00  0.00     0.040 A 
ATOM     76  F   UNL A   1      42.946  26.027  35.685  1.00  0.00    -0.206 F 
ATOM     77  C   UNL A   1      46.350  26.751  36.688  1.00  0.00     0.006 A 
ENDBRANCH  49  70
BRANCH  61  78
ATOM     78  C   UNL A   1      38.981  32.205  36.225  1.00  0.00     0.057 A 
ATOM     79  C   UNL A   1      39.329  33.543  36.453  1.00  0.00     0.134 A 
ATOM     80  C   UNL A   1      38.131  31.595  37.159  1.00  0.00     0.134 A 
ATOM     81  F   UNL A   1      40.144  34.187  35.603  1.00  0.00    -0.206 F 
ATOM     82  C   UNL A   1      38.873  34.238  37.576  1.00  0.00     0.040 A 
ATOM     83  C   UNL A   1      37.643  32.288  38.269  1.00  0.00     0.040 A 
ATOM     84  F   UNL A   1      37.743  30.320  36.997  1.00  0.00    -0.206 F 
ATOM     85  C   UNL A   1      38.021  33.612  38.483  1.00  0.00     0.006 A 
ENDBRANCH  61  78
ENDBRANCH  35  36
ENDBRANCH  28  30
ENDBRANCH  27  28
ENDBRANCH  26  27
ENDBRANCH  25  26
ENDBRANCH  24  25
ENDBRANCH  23  24
ENDBRANCH   1  23
TORSDOF 20
ENDMDL
