MODEL 1
REMARK VINA RESULT:     -10.9      0.000      0.000
REMARK SMILES Cc1ccc(Cl)cc1NC(=O)N[C@@](C)(C(=O)OCCOCCOCCOC(=O)c1ccc(-c2c3nc(c(-c4c(F)cccc4F)c4ccc([nH]4)c(-c4c(F)cccc4F)c4nc(c(-c5c(F)cccc5F)c5ccc2[nH]5)C=C4)C=C3)cc1)C(F)(F)F
REMARK SMILES IDX 21 1 20 2 19 3 18 4 17 5 15 6 16 7 13 8 14 9 12 10 9 11
REMARK SMILES IDX 10 12 11 14 8 16 1 17 2 18 3 19 4 20 7 21 5 22 6 23 83 24
REMARK SMILES IDX 84 25 85 26 86 27 22 28 23 29 24 30 25 31 26 32 27 33 28 34
REMARK SMILES IDX 29 35 30 36 82 37 31 38 81 39 32 40 33 41 34 42 75 43 35 44
REMARK SMILES IDX 80 45 74 46 76 47 36 48 79 49 73 50 72 51 37 53 63 54 46 55
REMARK SMILES IDX 62 56 47 57 50 58 61 59 77 60 48 61 49 62 60 64 78 65 51 66
REMARK SMILES IDX 38 67 39 68 44 69 40 70 41 71 43 72 45 73 42 74 64 75 65 76
REMARK SMILES IDX 70 77 66 78 67 79 69 80 71 81 68 82 52 83 53 84 58 85 54 86
REMARK SMILES IDX 55 87 57 88 59 89 56 90
REMARK H PARENT 9 13 12 15 76 52 50 63
REMARK Flexibility Score: inf
ROOT
ATOM      1  C   UNL A   1      38.898  20.252  25.378  1.00  0.00     0.188 C 
ENDROOT
BRANCH   1   2
ATOM      2  O   UNL A   1      37.587  20.731  25.189  1.00  0.00    -0.376 OA
BRANCH   2   3
ATOM      3  C   UNL A   1      37.403  22.085  24.797  1.00  0.00     0.202 C 
BRANCH   3   4
ATOM      4  C   UNL A   1      36.483  22.530  23.635  1.00  0.00     0.261 C 
BRANCH   4   5
ATOM      5  O   UNL A   1      35.613  23.649  23.886  1.00  0.00    -0.461 OA
BRANCH   5   6
ATOM      6  C   UNL A   1      34.293  23.321  23.960  1.00  0.00     0.341 C 
ATOM      7  O   UNL A   1      33.906  22.156  23.903  1.00  0.00    -0.249 OA
BRANCH   6   8
ATOM      8  C   UNL A   1      33.393  24.491  24.457  1.00  0.00     0.232 C 
ATOM      9  C   UNL A   1      34.373  25.444  25.165  1.00  0.00     0.058 C 
BRANCH   8  10
ATOM     10  N   UNL A   1      32.348  24.165  25.498  1.00  0.00    -0.314 N 
ATOM     11  N   UNL A   1      31.043  26.007  26.413  1.00  0.00    -0.308 N 
ATOM     12  C   UNL A   1      31.536  24.762  26.377  1.00  0.00     0.320 C 
ATOM     13  H   UNL A   1      30.412  26.101  27.163  1.00  0.00     0.171 HD
ATOM     14  O   UNL A   1      31.074  23.998  27.240  1.00  0.00    -0.248 OA
ATOM     15  H   UNL A   1      32.225  23.189  25.546  1.00  0.00     0.166 HD
BRANCH  11  16
ATOM     16  C   UNL A   1      31.148  27.219  25.713  1.00  0.00     0.047 A 
ATOM     17  C   UNL A   1      33.020  28.092  27.271  1.00  0.00     0.046 C 
ATOM     18  C   UNL A   1      31.935  28.270  26.240  1.00  0.00    -0.027 A 
ATOM     19  C   UNL A   1      31.802  29.567  25.706  1.00  0.00     0.007 A 
ATOM     20  C   UNL A   1      31.033  29.791  24.574  1.00  0.00     0.021 A 
ATOM     21  C   UNL A   1      30.547  27.419  24.477  1.00  0.00     0.047 A 
ATOM     22  C   UNL A   1      30.492  28.700  23.911  1.00  0.00     0.043 A 
ATOM     23  Cl  UNL A   1      29.726  28.943  22.387  1.00  0.00    -0.084 Cl
ENDBRANCH  11  16
ENDBRANCH   8  10
BRANCH   8  24
ATOM     24  C   UNL A   1      32.874  24.975  23.084  1.00  0.00     0.422 C 
ATOM     25  F   UNL A   1      31.558  24.698  22.919  1.00  0.00    -0.168 F 
ATOM     26  F   UNL A   1      33.068  26.298  22.929  1.00  0.00    -0.168 F 
ATOM     27  F   UNL A   1      33.472  24.414  22.005  1.00  0.00    -0.168 F 
ENDBRANCH   8  24
ENDBRANCH   6   8
ENDBRANCH   5   6
ENDBRANCH   4   5
ENDBRANCH   3   4
ENDBRANCH   2   3
ENDBRANCH   1   2
BRANCH   1  28
ATOM     28  C   UNL A   1      39.797  21.163  26.240  1.00  0.00     0.188 C 
BRANCH  28  29
ATOM     29  O   UNL A   1      40.475  20.653  27.375  1.00  0.00    -0.376 OA
BRANCH  29  30
ATOM     30  C   UNL A   1      41.867  20.391  27.264  1.00  0.00     0.202 C 
BRANCH  30  31
ATOM     31  C   UNL A   1      42.707  21.032  26.143  1.00  0.00     0.261 C 
BRANCH  31  32
ATOM     32  O   UNL A   1      43.467  22.201  26.503  1.00  0.00    -0.460 OA
BRANCH  32  33
ATOM     33  C   UNL A   1      43.305  23.275  25.695  1.00  0.00     0.338 C 
ATOM     34  O   UNL A   1      43.463  23.318  24.478  1.00  0.00    -0.246 OA
BRANCH  33  35
ATOM     35  C   UNL A   1      42.695  24.391  26.446  1.00  0.00     0.060 A 
ATOM     36  C   UNL A   1      43.382  25.611  26.514  1.00  0.00     0.016 A 
ATOM     37  C   UNL A   1      41.499  24.220  27.141  1.00  0.00     0.016 A 
ATOM     38  C   UNL A   1      42.881  26.656  27.286  1.00  0.00     0.010 A 
ATOM     39  C   UNL A   1      41.020  25.260  27.948  1.00  0.00     0.010 A 
ATOM     40  C   UNL A   1      41.723  26.475  28.046  1.00  0.00    -0.014 A 
BRANCH  40  41
ATOM     41  C   UNL A   1      41.373  27.468  29.093  1.00  0.00     0.031 A 
ATOM     42  C   UNL A   1      42.161  27.463  30.374  1.00  0.00     0.074 A 
ATOM     43  C   UNL A   1      40.394  28.372  28.915  1.00  0.00     0.049 A 
ATOM     44  N   UNL A   1      41.974  28.155  31.469  1.00  0.00    -0.248 NA
ATOM     45  C   UNL A   1      43.316  26.552  30.425  1.00  0.00     0.031 C 
ATOM     46  C   UNL A   1      39.599  28.534  27.701  1.00  0.00     0.029 A 
ATOM     47  N   UNL A   1      39.893  29.320  29.775  1.00  0.00    -0.354 N 
ATOM     48  C   UNL A   1      42.969  27.743  32.348  1.00  0.00     0.074 A 
ATOM     49  C   UNL A   1      43.752  26.739  31.662  1.00  0.00     0.031 C 
ATOM     50  C   UNL A   1      38.689  29.504  27.903  1.00  0.00     0.029 A 
ATOM     51  C   UNL A   1      38.815  30.005  29.273  1.00  0.00     0.049 A 
ATOM     52  H   UNL A   1      40.272  29.491  30.668  1.00  0.00     0.167 HD
ATOM     53  C   UNL A   1      43.204  28.158  33.615  1.00  0.00     0.037 A 
ATOM     54  C   UNL A   1      38.001  30.904  29.862  1.00  0.00     0.037 A 
ATOM     55  C   UNL A   1      42.426  29.155  34.302  1.00  0.00     0.049 A 
ATOM     56  C   UNL A   1      38.233  31.293  31.301  1.00  0.00     0.074 A 
ATOM     57  C   UNL A   1      42.595  29.646  35.585  1.00  0.00     0.029 A 
ATOM     58  N   UNL A   1      41.325  29.806  33.767  1.00  0.00    -0.354 N 
ATOM     59  N   UNL A   1      39.177  30.903  32.123  1.00  0.00    -0.248 NA
ATOM     60  C   UNL A   1      37.281  32.245  31.895  1.00  0.00     0.031 C 
ATOM     61  C   UNL A   1      41.562  30.551  35.847  1.00  0.00     0.029 A 
ATOM     62  C   UNL A   1      40.788  30.673  34.705  1.00  0.00     0.049 A 
ATOM     63  H   UNL A   1      40.976  29.671  32.856  1.00  0.00     0.167 HD
ATOM     64  C   UNL A   1      38.948  31.581  33.318  1.00  0.00     0.074 A 
ATOM     65  C   UNL A   1      37.788  32.417  33.109  1.00  0.00     0.031 C 
ATOM     66  C   UNL A   1      39.639  31.514  34.483  1.00  0.00     0.037 A 
BRANCH  53  67
ATOM     67  C   UNL A   1      44.326  27.498  34.361  1.00  0.00     0.057 A 
ATOM     68  C   UNL A   1      45.611  28.051  34.419  1.00  0.00     0.134 A 
ATOM     69  C   UNL A   1      44.104  26.303  35.059  1.00  0.00     0.134 A 
ATOM     70  F   UNL A   1      45.893  29.185  33.760  1.00  0.00    -0.206 F 
ATOM     71  C   UNL A   1      46.641  27.430  35.127  1.00  0.00     0.040 A 
ATOM     72  C   UNL A   1      45.118  25.688  35.794  1.00  0.00     0.040 A 
ATOM     73  F   UNL A   1      42.895  25.722  35.049  1.00  0.00    -0.206 F 
ATOM     74  C   UNL A   1      46.393  26.248  35.824  1.00  0.00     0.006 A 
ENDBRANCH  53  67
BRANCH  54  75
ATOM     75  C   UNL A   1      36.855  31.482  29.111  1.00  0.00     0.057 A 
ATOM     76  C   UNL A   1      36.881  32.803  28.647  1.00  0.00     0.134 A 
ATOM     77  C   UNL A   1      35.688  30.743  28.877  1.00  0.00     0.134 A 
ATOM     78  F   UNL A   1      37.959  33.572  28.862  1.00  0.00    -0.206 F 
ATOM     79  C   UNL A   1      35.784  33.375  28.000  1.00  0.00     0.040 A 
ATOM     80  C   UNL A   1      34.595  31.291  28.205  1.00  0.00     0.040 A 
ATOM     81  F   UNL A   1      35.594  29.473  29.299  1.00  0.00    -0.206 F 
ATOM     82  C   UNL A   1      34.638  32.615  27.773  1.00  0.00     0.006 A 
ENDBRANCH  54  75
BRANCH  66  83
ATOM     83  C   UNL A   1      39.194  32.402  35.611  1.00  0.00     0.057 A 
ATOM     84  C   UNL A   1      38.318  31.958  36.609  1.00  0.00     0.134 A 
ATOM     85  C   UNL A   1      39.690  33.709  35.726  1.00  0.00     0.134 A 
ATOM     86  F   UNL A   1      37.797  30.723  36.557  1.00  0.00    -0.206 F 
ATOM     87  C   UNL A   1      37.934  32.787  37.667  1.00  0.00     0.040 A 
ATOM     88  C   UNL A   1      39.338  34.535  36.793  1.00  0.00     0.040 A 
ATOM     89  F   UNL A   1      40.543  34.196  34.812  1.00  0.00    -0.206 F 
ATOM     90  C   UNL A   1      38.451  34.077  37.765  1.00  0.00     0.006 A 
ENDBRANCH  66  83
ENDBRANCH  40  41
ENDBRANCH  33  35
ENDBRANCH  32  33
ENDBRANCH  31  32
ENDBRANCH  30  31
ENDBRANCH  29  30
ENDBRANCH  28  29
ENDBRANCH   1  28
TORSDOF 20
ENDMDL
MODEL 2
REMARK VINA RESULT:     -10.7      4.680      9.699
REMARK SMILES Cc1ccc(Cl)cc1NC(=O)N[C@@](C)(C(=O)OCCOCCOCCOC(=O)c1ccc(-c2c3nc(c(-c4c(F)cccc4F)c4ccc([nH]4)c(-c4c(F)cccc4F)c4nc(c(-c5c(F)cccc5F)c5ccc2[nH]5)C=C4)C=C3)cc1)C(F)(F)F
REMARK SMILES IDX 21 1 20 2 19 3 18 4 17 5 15 6 16 7 13 8 14 9 12 10 9 11
REMARK SMILES IDX 10 12 11 14 8 16 1 17 2 18 3 19 4 20 7 21 5 22 6 23 83 24
REMARK SMILES IDX 84 25 85 26 86 27 22 28 23 29 24 30 25 31 26 32 27 33 28 34
REMARK SMILES IDX 29 35 30 36 82 37 31 38 81 39 32 40 33 41 34 42 75 43 35 44
REMARK SMILES IDX 80 45 74 46 76 47 36 48 79 49 73 50 72 51 37 53 63 54 46 55
REMARK SMILES IDX 62 56 47 57 50 58 61 59 77 60 48 61 49 62 60 64 78 65 51 66
REMARK SMILES IDX 38 67 39 68 44 69 40 70 41 71 43 72 45 73 42 74 64 75 65 76
REMARK SMILES IDX 70 77 66 78 67 79 69 80 71 81 68 82 52 83 53 84 58 85 54 86
REMARK SMILES IDX 55 87 57 88 59 89 56 90
REMARK H PARENT 9 13 12 15 76 52 50 63
REMARK Flexibility Score: inf
ROOT
ATOM      1  C   UNL A   1      34.153  32.655  28.026  1.00  0.00     0.188 C 
ENDROOT
BRANCH   1   2
ATOM      2  O   UNL A   1      33.853  31.284  28.154  1.00  0.00    -0.376 OA
BRANCH   2   3
ATOM      3  C   UNL A   1      33.403  30.572  27.009  1.00  0.00     0.202 C 
BRANCH   3   4
ATOM      4  C   UNL A   1      31.919  30.241  26.725  1.00  0.00     0.261 C 
BRANCH   4   5
ATOM      5  O   UNL A   1      31.647  28.999  26.048  1.00  0.00    -0.461 OA
BRANCH   5   6
ATOM      6  C   UNL A   1      31.575  27.920  26.876  1.00  0.00     0.341 C 
ATOM      7  O   UNL A   1      31.240  28.023  28.054  1.00  0.00    -0.249 OA
BRANCH   6   8
ATOM      8  C   UNL A   1      31.614  26.558  26.120  1.00  0.00     0.232 C 
ATOM      9  C   UNL A   1      30.830  26.828  24.823  1.00  0.00     0.058 C 
BRANCH   8  10
ATOM     10  N   UNL A   1      30.908  25.390  26.765  1.00  0.00    -0.314 N 
ATOM     11  N   UNL A   1      30.981  23.244  25.615  1.00  0.00    -0.308 N 
ATOM     12  C   UNL A   1      30.525  24.135  26.504  1.00  0.00     0.320 C 
ATOM     13  H   UNL A   1      30.523  22.380  25.733  1.00  0.00     0.171 HD
ATOM     14  O   UNL A   1      29.679  23.688  27.296  1.00  0.00    -0.248 OA
ATOM     15  H   UNL A   1      30.641  25.632  27.681  1.00  0.00     0.166 HD
BRANCH  11  16
ATOM     16  C   UNL A   1      31.912  23.159  24.567  1.00  0.00     0.047 A 
ATOM     17  C   UNL A   1      32.896  20.942  25.465  1.00  0.00     0.046 C 
ATOM     18  C   UNL A   1      32.937  22.184  24.614  1.00  0.00    -0.027 A 
ATOM     19  C   UNL A   1      34.032  22.290  23.734  1.00  0.00     0.007 A 
ATOM     20  C   UNL A   1      34.039  23.241  22.723  1.00  0.00     0.021 A 
ATOM     21  C   UNL A   1      31.841  23.968  23.441  1.00  0.00     0.047 A 
ATOM     22  C   UNL A   1      32.899  24.006  22.524  1.00  0.00     0.043 A 
ATOM     23  Cl  UNL A   1      32.812  25.028  21.139  1.00  0.00    -0.084 Cl
ENDBRANCH  11  16
ENDBRANCH   8  10
BRANCH   8  24
ATOM     24  C   UNL A   1      33.146  26.437  25.955  1.00  0.00     0.422 C 
ATOM     25  F   UNL A   1      33.539  26.727  24.692  1.00  0.00    -0.168 F 
ATOM     26  F   UNL A   1      33.794  27.245  26.815  1.00  0.00    -0.168 F 
ATOM     27  F   UNL A   1      33.661  25.205  26.191  1.00  0.00    -0.168 F 
ENDBRANCH   8  24
ENDBRANCH   6   8
ENDBRANCH   5   6
ENDBRANCH   4   5
ENDBRANCH   3   4
ENDBRANCH   2   3
ENDBRANCH   1   2
BRANCH   1  28
ATOM     28  C   UNL A   1      34.738  33.304  29.298  1.00  0.00     0.188 C 
BRANCH  28  29
ATOM     29  O   UNL A   1      34.374  32.839  30.586  1.00  0.00    -0.376 OA
BRANCH  29  30
ATOM     30  C   UNL A   1      34.510  33.729  31.685  1.00  0.00     0.202 C 
BRANCH  30  31
ATOM     31  C   UNL A   1      34.999  33.227  33.056  1.00  0.00     0.261 C 
BRANCH  31  32
ATOM     32  O   UNL A   1      35.592  31.915  33.082  1.00  0.00    -0.460 OA
BRANCH  32  33
ATOM     33  C   UNL A   1      36.843  31.849  33.595  1.00  0.00     0.338 C 
ATOM     34  O   UNL A   1      37.189  32.115  34.743  1.00  0.00    -0.246 OA
BRANCH  33  35
ATOM     35  C   UNL A   1      37.756  31.202  32.631  1.00  0.00     0.060 A 
ATOM     36  C   UNL A   1      38.878  30.518  33.122  1.00  0.00     0.016 A 
ATOM     37  C   UNL A   1      37.558  31.329  31.257  1.00  0.00     0.016 A 
ATOM     38  C   UNL A   1      39.808  29.973  32.241  1.00  0.00     0.010 A 
ATOM     39  C   UNL A   1      38.517  30.814  30.375  1.00  0.00     0.010 A 
ATOM     40  C   UNL A   1      39.661  30.156  30.863  1.00  0.00    -0.014 A 
BRANCH  40  41
ATOM     41  C   UNL A   1      40.800  29.849  29.960  1.00  0.00     0.031 A 
ATOM     42  C   UNL A   1      40.870  28.481  29.339  1.00  0.00     0.074 A 
ATOM     43  C   UNL A   1      41.744  30.761  29.673  1.00  0.00     0.049 A 
ATOM     44  N   UNL A   1      41.815  27.946  28.610  1.00  0.00    -0.248 NA
ATOM     45  C   UNL A   1      39.715  27.599  29.575  1.00  0.00     0.031 C 
ATOM     46  C   UNL A   1      41.762  32.142  30.149  1.00  0.00     0.029 A 
ATOM     47  N   UNL A   1      42.887  30.650  28.917  1.00  0.00    -0.354 N 
ATOM     48  C   UNL A   1      41.383  26.656  28.324  1.00  0.00     0.074 A 
ATOM     49  C   UNL A   1      40.096  26.488  28.961  1.00  0.00     0.031 C 
ATOM     50  C   UNL A   1      42.878  32.743  29.697  1.00  0.00     0.029 A 
ATOM     51  C   UNL A   1      43.669  31.778  28.932  1.00  0.00     0.049 A 
ATOM     52  H   UNL A   1      43.122  29.837  28.413  1.00  0.00     0.167 HD
ATOM     53  C   UNL A   1      42.006  25.695  27.601  1.00  0.00     0.037 A 
ATOM     54  C   UNL A   1      44.897  31.994  28.418  1.00  0.00     0.037 A 
ATOM     55  C   UNL A   1      43.288  25.857  26.967  1.00  0.00     0.049 A 
ATOM     56  C   UNL A   1      45.607  30.883  27.684  1.00  0.00     0.074 A 
ATOM     57  C   UNL A   1      43.995  24.941  26.207  1.00  0.00     0.029 A 
ATOM     58  N   UNL A   1      44.061  27.007  27.028  1.00  0.00    -0.354 N 
ATOM     59  N   UNL A   1      45.192  29.669  27.414  1.00  0.00    -0.248 NA
ATOM     60  C   UNL A   1      46.962  31.173  27.189  1.00  0.00     0.031 C 
ATOM     61  C   UNL A   1      45.220  25.517  25.857  1.00  0.00     0.029 A 
ATOM     62  C   UNL A   1      45.249  26.813  26.342  1.00  0.00     0.049 A 
ATOM     63  H   UNL A   1      43.803  27.838  27.490  1.00  0.00     0.167 HD
ATOM     64  C   UNL A   1      46.220  29.063  26.697  1.00  0.00     0.074 A 
ATOM     65  C   UNL A   1      47.270  30.047  26.560  1.00  0.00     0.031 C 
ATOM     66  C   UNL A   1      46.286  27.804  26.198  1.00  0.00     0.037 A 
BRANCH  53  67
ATOM     67  C   UNL A   1      41.328  24.360  27.497  1.00  0.00     0.057 A 
ATOM     68  C   UNL A   1      40.245  24.139  26.637  1.00  0.00     0.134 A 
ATOM     69  C   UNL A   1      41.792  23.272  28.248  1.00  0.00     0.134 A 
ATOM     70  F   UNL A   1      39.744  25.144  25.903  1.00  0.00    -0.206 F 
ATOM     71  C   UNL A   1      39.633  22.888  26.544  1.00  0.00     0.040 A 
ATOM     72  C   UNL A   1      41.207  22.009  28.141  1.00  0.00     0.040 A 
ATOM     73  F   UNL A   1      42.829  23.414  29.087  1.00  0.00    -0.206 F 
ATOM     74  C   UNL A   1      40.120  21.817  27.292  1.00  0.00     0.006 A 
ENDBRANCH  53  67
BRANCH  54  75
ATOM     75  C   UNL A   1      45.566  33.309  28.605  1.00  0.00     0.057 A 
ATOM     76  C   UNL A   1      46.502  33.510  29.626  1.00  0.00     0.134 A 
ATOM     77  C   UNL A   1      45.253  34.408  27.795  1.00  0.00     0.134 A 
ATOM     78  F   UNL A   1      46.825  32.504  30.453  1.00  0.00    -0.206 F 
ATOM     79  C   UNL A   1      47.085  34.759  29.851  1.00  0.00     0.040 A 
ATOM     80  C   UNL A   1      45.851  35.655  27.989  1.00  0.00     0.040 A 
ATOM     81  F   UNL A   1      44.362  34.286  26.801  1.00  0.00    -0.206 F 
ATOM     82  C   UNL A   1      46.762  35.835  29.026  1.00  0.00     0.006 A 
ENDBRANCH  54  75
BRANCH  66  83
ATOM     83  C   UNL A   1      47.511  27.426  25.414  1.00  0.00     0.057 A 
ATOM     84  C   UNL A   1      47.608  27.640  24.033  1.00  0.00     0.134 A 
ATOM     85  C   UNL A   1      48.631  26.886  26.062  1.00  0.00     0.134 A 
ATOM     86  F   UNL A   1      46.571  28.145  23.348  1.00  0.00    -0.206 F 
ATOM     87  C   UNL A   1      48.764  27.308  23.322  1.00  0.00     0.040 A 
ATOM     88  C   UNL A   1      49.801  26.579  25.367  1.00  0.00     0.040 A 
ATOM     89  F   UNL A   1      48.612  26.666  27.385  1.00  0.00    -0.206 F 
ATOM     90  C   UNL A   1      49.868  26.783  23.991  1.00  0.00     0.006 A 
ENDBRANCH  66  83
ENDBRANCH  40  41
ENDBRANCH  33  35
ENDBRANCH  32  33
ENDBRANCH  31  32
ENDBRANCH  30  31
ENDBRANCH  29  30
ENDBRANCH  28  29
ENDBRANCH   1  28
TORSDOF 20
ENDMDL
MODEL 3
REMARK VINA RESULT:      -9.9      3.169      8.041
REMARK SMILES Cc1ccc(Cl)cc1NC(=O)N[C@@](C)(C(=O)OCCOCCOCCOC(=O)c1ccc(-c2c3nc(c(-c4c(F)cccc4F)c4ccc([nH]4)c(-c4c(F)cccc4F)c4nc(c(-c5c(F)cccc5F)c5ccc2[nH]5)C=C4)C=C3)cc1)C(F)(F)F
REMARK SMILES IDX 21 1 20 2 19 3 18 4 17 5 15 6 16 7 13 8 14 9 12 10 9 11
REMARK SMILES IDX 10 12 11 14 8 16 1 17 2 18 3 19 4 20 7 21 5 22 6 23 83 24
REMARK SMILES IDX 84 25 85 26 86 27 22 28 23 29 24 30 25 31 26 32 27 33 28 34
REMARK SMILES IDX 29 35 30 36 82 37 31 38 81 39 32 40 33 41 34 42 75 43 35 44
REMARK SMILES IDX 80 45 74 46 76 47 36 48 79 49 73 50 72 51 37 53 63 54 46 55
REMARK SMILES IDX 62 56 47 57 50 58 61 59 77 60 48 61 49 62 60 64 78 65 51 66
REMARK SMILES IDX 38 67 39 68 44 69 40 70 41 71 43 72 45 73 42 74 64 75 65 76
REMARK SMILES IDX 70 77 66 78 67 79 69 80 71 81 68 82 52 83 53 84 58 85 54 86
REMARK SMILES IDX 55 87 57 88 59 89 56 90
REMARK H PARENT 9 13 12 15 76 52 50 63
REMARK Flexibility Score: inf
ROOT
ATOM      1  C   UNL A   1      33.286  29.652  25.749  1.00  0.00     0.188 C 
ENDROOT
BRANCH   1   2
ATOM      2  O   UNL A   1      33.470  28.443  26.450  1.00  0.00    -0.376 OA
BRANCH   2   3
ATOM      3  C   UNL A   1      32.329  27.769  26.963  1.00  0.00     0.202 C 
BRANCH   3   4
ATOM      4  C   UNL A   1      31.948  26.315  26.598  1.00  0.00     0.261 C 
BRANCH   4   5
ATOM      5  O   UNL A   1      32.981  25.498  26.015  1.00  0.00    -0.461 OA
BRANCH   5   6
ATOM      6  C   UNL A   1      32.706  24.164  26.024  1.00  0.00     0.341 C 
ATOM      7  O   UNL A   1      31.589  23.730  26.300  1.00  0.00    -0.249 OA
BRANCH   6   8
ATOM      8  C   UNL A   1      33.805  23.302  25.335  1.00  0.00     0.232 C 
ATOM      9  C   UNL A   1      34.902  24.318  24.968  1.00  0.00     0.058 C 
BRANCH   8  10
ATOM     10  N   UNL A   1      33.442  22.634  24.031  1.00  0.00    -0.314 N 
ATOM     11  N   UNL A   1      32.204  23.941  22.390  1.00  0.00    -0.308 N 
ATOM     12  C   UNL A   1      32.688  22.820  22.942  1.00  0.00     0.320 C 
ATOM     13  H   UNL A   1      31.744  23.732  21.545  1.00  0.00     0.171 HD
ATOM     14  O   UNL A   1      32.502  21.793  22.271  1.00  0.00    -0.248 OA
ATOM     15  H   UNL A   1      33.919  21.775  23.958  1.00  0.00     0.166 HD
BRANCH  11  16
ATOM     16  C   UNL A   1      32.150  25.320  22.644  1.00  0.00     0.047 A 
ATOM     17  C   UNL A   1      29.823  25.141  23.762  1.00  0.00     0.046 C 
ATOM     18  C   UNL A   1      30.946  25.904  23.107  1.00  0.00    -0.027 A 
ATOM     19  C   UNL A   1      30.800  27.305  23.074  1.00  0.00     0.007 A 
ATOM     20  C   UNL A   1      31.872  28.121  22.745  1.00  0.00     0.021 A 
ATOM     21  C   UNL A   1      33.258  26.146  22.511  1.00  0.00     0.047 A 
ATOM     22  C   UNL A   1      33.118  27.540  22.563  1.00  0.00     0.043 A 
ATOM     23  Cl  UNL A   1      34.496  28.558  22.375  1.00  0.00    -0.084 Cl
ENDBRANCH  11  16
ENDBRANCH   8  10
BRANCH   8  24
ATOM     24  C   UNL A   1      34.136  22.369  26.523  1.00  0.00     0.422 C 
ATOM     25  F   UNL A   1      33.277  21.324  26.594  1.00  0.00    -0.168 F 
ATOM     26  F   UNL A   1      35.395  21.900  26.437  1.00  0.00    -0.168 F 
ATOM     27  F   UNL A   1      34.069  22.942  27.749  1.00  0.00    -0.168 F 
ENDBRANCH   8  24
ENDBRANCH   6   8
ENDBRANCH   5   6
ENDBRANCH   4   5
ENDBRANCH   3   4
ENDBRANCH   2   3
ENDBRANCH   1   2
BRANCH   1  28
ATOM     28  C   UNL A   1      31.837  30.181  25.753  1.00  0.00     0.188 C 
BRANCH  28  29
ATOM     29  O   UNL A   1      31.510  31.402  26.394  1.00  0.00    -0.376 OA
BRANCH  29  30
ATOM     30  C   UNL A   1      32.457  31.965  27.291  1.00  0.00     0.202 C 
BRANCH  30  31
ATOM     31  C   UNL A   1      32.784  33.470  27.258  1.00  0.00     0.261 C 
BRANCH  31  32
ATOM     32  O   UNL A   1      32.262  34.261  28.342  1.00  0.00    -0.460 OA
BRANCH  32  33
ATOM     33  C   UNL A   1      33.052  35.281  28.754  1.00  0.00     0.338 C 
ATOM     34  O   UNL A   1      32.812  36.483  28.676  1.00  0.00    -0.246 OA
BRANCH  33  35
ATOM     35  C   UNL A   1      34.199  34.759  29.523  1.00  0.00     0.060 A 
ATOM     36  C   UNL A   1      35.441  34.642  28.883  1.00  0.00     0.016 A 
ATOM     37  C   UNL A   1      34.042  34.317  30.836  1.00  0.00     0.016 A 
ATOM     38  C   UNL A   1      36.523  34.072  29.549  1.00  0.00     0.010 A 
ATOM     39  C   UNL A   1      35.123  33.707  31.488  1.00  0.00     0.010 A 
ATOM     40  C   UNL A   1      36.361  33.557  30.838  1.00  0.00    -0.014 A 
BRANCH  40  41
ATOM     41  C   UNL A   1      37.416  32.684  31.414  1.00  0.00     0.031 A 
ATOM     42  C   UNL A   1      37.965  33.027  32.771  1.00  0.00     0.074 A 
ATOM     43  C   UNL A   1      37.869  31.596  30.766  1.00  0.00     0.049 A 
ATOM     44  N   UNL A   1      38.957  32.485  33.429  1.00  0.00    -0.248 NA
ATOM     45  C   UNL A   1      37.304  34.135  33.480  1.00  0.00     0.031 C 
ATOM     46  C   UNL A   1      37.377  31.109  29.480  1.00  0.00     0.029 A 
ATOM     47  N   UNL A   1      38.864  30.711  31.105  1.00  0.00    -0.354 N 
ATOM     48  C   UNL A   1      39.058  33.202  34.615  1.00  0.00     0.074 A 
ATOM     49  C   UNL A   1      38.032  34.220  34.584  1.00  0.00     0.031 C 
ATOM     50  C   UNL A   1      38.093  30.027  29.123  1.00  0.00     0.029 A 
ATOM     51  C   UNL A   1      39.116  29.770  30.138  1.00  0.00     0.049 A 
ATOM     52  H   UNL A   1      39.350  30.749  31.960  1.00  0.00     0.167 HD
ATOM     53  C   UNL A   1      39.932  33.032  35.636  1.00  0.00     0.037 A 
ATOM     54  C   UNL A   1      40.083  28.833  30.064  1.00  0.00     0.037 A 
ATOM     55  C   UNL A   1      40.956  32.021  35.670  1.00  0.00     0.049 A 
ATOM     56  C   UNL A   1      41.095  28.713  31.177  1.00  0.00     0.074 A 
ATOM     57  C   UNL A   1      41.883  31.769  36.666  1.00  0.00     0.029 A 
ATOM     58  N   UNL A   1      41.196  31.104  34.658  1.00  0.00    -0.354 N 
ATOM     59  N   UNL A   1      41.182  29.391  32.296  1.00  0.00    -0.248 NA
ATOM     60  C   UNL A   1      42.150  27.700  31.011  1.00  0.00     0.031 C 
ATOM     61  C   UNL A   1      42.720  30.736  36.232  1.00  0.00     0.029 A 
ATOM     62  C   UNL A   1      42.273  30.302  34.996  1.00  0.00     0.049 A 
ATOM     63  H   UNL A   1      40.676  31.033  33.825  1.00  0.00     0.167 HD
ATOM     64  C   UNL A   1      42.279  28.870  32.976  1.00  0.00     0.074 A 
ATOM     65  C   UNL A   1      42.816  27.809  32.152  1.00  0.00     0.031 C 
ATOM     66  C   UNL A   1      42.794  29.237  34.175  1.00  0.00     0.037 A 
BRANCH  53  67
ATOM     67  C   UNL A   1      39.848  33.995  36.784  1.00  0.00     0.057 A 
ATOM     68  C   UNL A   1      40.495  35.237  36.765  1.00  0.00     0.134 A 
ATOM     69  C   UNL A   1      39.079  33.683  37.913  1.00  0.00     0.134 A 
ATOM     70  F   UNL A   1      41.260  35.589  35.719  1.00  0.00    -0.206 F 
ATOM     71  C   UNL A   1      40.398  36.126  37.836  1.00  0.00     0.040 A 
ATOM     72  C   UNL A   1      38.951  34.576  38.978  1.00  0.00     0.040 A 
ATOM     73  F   UNL A   1      38.430  32.512  37.994  1.00  0.00    -0.206 F 
ATOM     74  C   UNL A   1      39.617  35.798  38.944  1.00  0.00     0.006 A 
ENDBRANCH  53  67
BRANCH  54  75
ATOM     75  C   UNL A   1      40.176  27.944  28.875  1.00  0.00     0.057 A 
ATOM     76  C   UNL A   1      39.578  26.678  28.864  1.00  0.00     0.134 A 
ATOM     77  C   UNL A   1      40.901  28.322  27.738  1.00  0.00     0.134 A 
ATOM     78  F   UNL A   1      38.893  26.247  29.933  1.00  0.00    -0.206 F 
ATOM     79  C   UNL A   1      39.718  25.812  27.779  1.00  0.00     0.040 A 
ATOM     80  C   UNL A   1      41.024  27.478  26.633  1.00  0.00     0.040 A 
ATOM     81  F   UNL A   1      41.502  29.520  27.684  1.00  0.00    -0.206 F 
ATOM     82  C   UNL A   1      40.439  26.215  26.656  1.00  0.00     0.006 A 
ENDBRANCH  54  75
BRANCH  66  83
ATOM     83  C   UNL A   1      43.969  28.461  34.699  1.00  0.00     0.057 A 
ATOM     84  C   UNL A   1      45.291  28.870  34.483  1.00  0.00     0.134 A 
ATOM     85  C   UNL A   1      43.772  27.309  35.475  1.00  0.00     0.134 A 
ATOM     86  F   UNL A   1      45.553  29.957  33.741  1.00  0.00    -0.206 F 
ATOM     87  C   UNL A   1      46.373  28.152  34.999  1.00  0.00     0.040 A 
ATOM     88  C   UNL A   1      44.843  26.601  36.020  1.00  0.00     0.040 A 
ATOM     89  F   UNL A   1      42.532  26.866  35.731  1.00  0.00    -0.206 F 
ATOM     90  C   UNL A   1      46.149  27.018  35.777  1.00  0.00     0.006 A 
ENDBRANCH  66  83
ENDBRANCH  40  41
ENDBRANCH  33  35
ENDBRANCH  32  33
ENDBRANCH  31  32
ENDBRANCH  30  31
ENDBRANCH  29  30
ENDBRANCH  28  29
ENDBRANCH   1  28
TORSDOF 20
ENDMDL
