MODEL 1
REMARK VINA RESULT:     -13.3      0.000      0.000
REMARK SMILES Cc1ccccc1OC1(C(=O)OCCOCCOCCOC(=O)c2ccc(-c3c4nc(c(-c5c(F)cccc5F)c5ccc([nH]5)c(-c5c(F)cccc5F)c5nc(c(-c6c(F)cccc6F)c6ccc3[nH]6)C=C5)C=C4)cc2)CCN(C(=O)[C@H]2CCCCO2)CC1
REMARK SMILES IDX 16 1 15 2 14 3 13 4 12 5 10 6 11 7 9 8 78 9 90 10 79 11
REMARK SMILES IDX 89 12 80 13 81 14 82 15 8 16 7 17 1 18 2 19 3 20 4 21 6 22
REMARK SMILES IDX 5 23 83 24 84 25 88 26 85 27 87 28 86 29 17 30 18 31 19 32
REMARK SMILES IDX 20 33 21 34 22 35 23 36 24 37 25 38 77 39 26 40 76 41 27 42
REMARK SMILES IDX 28 43 29 44 70 45 30 46 75 47 69 48 71 49 31 50 74 51 68 52
REMARK SMILES IDX 67 53 32 55 58 56 41 57 57 58 42 59 45 60 56 61 72 62 43 63
REMARK SMILES IDX 44 64 55 66 73 67 46 68 33 69 34 70 39 71 35 72 36 73 38 74
REMARK SMILES IDX 40 75 37 76 59 77 60 78 65 79 61 80 62 81 64 82 66 83 63 84
REMARK SMILES IDX 47 85 48 86 53 87 49 88 50 89 52 90 54 91 51 92
REMARK H PARENT 71 54 45 65
REMARK Flexibility Score: inf
ROOT
ATOM      1  C   UNL A   1      41.374  19.268  26.101  1.00  0.00     0.188 C 
ENDROOT
BRANCH   1   2
ATOM      2  O   UNL A   1      40.071  19.876  25.986  1.00  0.00    -0.376 OA
BRANCH   2   3
ATOM      3  C   UNL A   1      39.704  21.182  26.455  1.00  0.00     0.202 C 
BRANCH   3   4
ATOM      4  C   UNL A   1      38.589  22.325  25.808  1.00  0.00     0.261 C 
BRANCH   4   5
ATOM      5  O   UNL A   1      36.849  22.348  25.528  1.00  0.00    -0.460 OA
BRANCH   5   6
ATOM      6  C   UNL A   1      35.716  23.263  25.312  1.00  0.00     0.350 C 
ATOM      7  O   UNL A   1      35.759  24.495  25.216  1.00  0.00    -0.247 OA
BRANCH   6   8
ATOM      8  C   UNL A   1      34.258  22.780  25.339  1.00  0.00     0.209 C 
ATOM      9  C   UNL A   1      33.634  23.098  24.012  1.00  0.00     0.082 C 
ATOM     10  C   UNL A   1      34.376  21.315  25.835  1.00  0.00     0.082 C 
ATOM     11  C   UNL A   1      32.950  21.953  23.322  1.00  0.00     0.124 C 
ATOM     12  C   UNL A   1      34.246  20.295  24.737  1.00  0.00     0.124 C 
ATOM     13  N   UNL A   1      33.207  20.593  23.765  1.00  0.00    -0.340 N 
ATOM     14  C   UNL A   1      32.487  19.622  23.069  1.00  0.00     0.251 C 
ATOM     15  O   UNL A   1      31.837  19.932  22.065  1.00  0.00    -0.272 OA
BRANCH   8  16
ATOM     16  O   UNL A   1      33.676  23.647  26.372  1.00  0.00    -0.475 OA
BRANCH  16  17
ATOM     17  C   UNL A   1      32.549  24.426  26.355  1.00  0.00     0.123 A 
ATOM     18  C   UNL A   1      30.615  22.697  26.327  1.00  0.00     0.048 C 
ATOM     19  C   UNL A   1      31.192  24.073  26.269  1.00  0.00    -0.009 A 
ATOM     20  C   UNL A   1      30.223  25.084  26.032  1.00  0.00     0.007 A 
ATOM     21  C   UNL A   1      30.562  26.427  25.926  1.00  0.00     0.001 A 
ATOM     22  C   UNL A   1      32.861  25.802  26.288  1.00  0.00     0.047 A 
ATOM     23  C   UNL A   1      31.888  26.792  26.081  1.00  0.00     0.004 A 
ENDBRANCH  16  17
ENDBRANCH   8  16
BRANCH  14  24
ATOM     24  C   UNL A   1      32.427  18.203  23.651  1.00  0.00     0.207 C 
ATOM     25  C   UNL A   1      33.763  17.523  23.303  1.00  0.00     0.042 C 
ATOM     26  O   UNL A   1      32.240  18.309  25.063  1.00  0.00    -0.368 OA
ATOM     27  C   UNL A   1      33.984  16.238  24.086  1.00  0.00     0.006 C 
ATOM     28  C   UNL A   1      32.313  17.061  25.736  1.00  0.00     0.161 C 
ATOM     29  C   UNL A   1      33.698  16.462  25.562  1.00  0.00     0.029 C 
ENDBRANCH  14  24
ENDBRANCH   6   8
ENDBRANCH   5   6
ENDBRANCH   4   5
ENDBRANCH   3   4
ENDBRANCH   2   3
ENDBRANCH   1   2
BRANCH   1  30
ATOM     30  C   UNL A   1      42.658  20.066  26.346  1.00  0.00     0.188 C 
BRANCH  30  31
ATOM     31  O   UNL A   1      43.038  20.768  25.177  1.00  0.00    -0.376 OA
BRANCH  31  32
ATOM     32  C   UNL A   1      43.966  21.823  25.363  1.00  0.00     0.202 C 
BRANCH  32  33
ATOM     33  C   UNL A   1      43.416  23.205  24.956  1.00  0.00     0.261 C 
BRANCH  33  34
ATOM     34  O   UNL A   1      42.093  23.428  25.503  1.00  0.00    -0.460 OA
BRANCH  34  35
ATOM     35  C   UNL A   1      41.995  23.872  26.799  1.00  0.00     0.338 C 
ATOM     36  O   UNL A   1      42.442  23.286  27.775  1.00  0.00    -0.246 OA
BRANCH  35  37
ATOM     37  C   UNL A   1      41.029  25.020  26.871  1.00  0.00     0.060 A 
ATOM     38  C   UNL A   1      41.206  26.288  26.295  1.00  0.00     0.016 A 
ATOM     39  C   UNL A   1      40.174  24.964  27.911  1.00  0.00     0.016 A 
ATOM     40  C   UNL A   1      40.710  27.498  26.935  1.00  0.00     0.010 A 
ATOM     41  C   UNL A   1      40.079  26.143  28.633  1.00  0.00     0.010 A 
ATOM     42  C   UNL A   1      40.210  27.505  28.242  1.00  0.00    -0.014 A 
BRANCH  42  43
ATOM     43  C   UNL A   1      39.884  28.904  29.198  1.00  0.00     0.031 A 
ATOM     44  C   UNL A   1      38.723  30.223  29.058  1.00  0.00     0.074 A 
ATOM     45  C   UNL A   1      40.820  29.165  30.138  1.00  0.00     0.049 A 
ATOM     46  N   UNL A   1      38.903  31.449  29.527  1.00  0.00    -0.248 NA
ATOM     47  C   UNL A   1      37.405  30.314  28.301  1.00  0.00     0.031 C 
ATOM     48  C   UNL A   1      40.814  30.197  31.170  1.00  0.00     0.029 A 
ATOM     49  N   UNL A   1      42.109  28.619  30.218  1.00  0.00    -0.354 N 
ATOM     50  C   UNL A   1      37.777  32.243  29.236  1.00  0.00     0.074 A 
ATOM     51  C   UNL A   1      37.034  31.571  28.274  1.00  0.00     0.031 C 
ATOM     52  C   UNL A   1      42.083  30.447  31.524  1.00  0.00     0.029 A 
ATOM     53  C   UNL A   1      42.935  29.669  30.641  1.00  0.00     0.049 A 
ATOM     54  H   UNL A   1      42.378  27.693  30.018  1.00  0.00     0.167 HD
ATOM     55  C   UNL A   1      37.419  33.396  29.855  1.00  0.00     0.037 A 
ATOM     56  C   UNL A   1      43.932  30.151  29.850  1.00  0.00     0.037 A 
ATOM     57  C   UNL A   1      38.602  33.936  30.460  1.00  0.00     0.049 A 
ATOM     58  C   UNL A   1      43.838  31.644  29.635  1.00  0.00     0.074 A 
ATOM     59  C   UNL A   1      39.146  33.822  31.721  1.00  0.00     0.029 A 
ATOM     60  N   UNL A   1      39.617  34.336  29.604  1.00  0.00    -0.354 N 
ATOM     61  N   UNL A   1      42.756  32.354  29.824  1.00  0.00    -0.248 NA
ATOM     62  C   UNL A   1      44.966  32.455  29.190  1.00  0.00     0.031 C 
ATOM     63  C   UNL A   1      40.549  34.001  31.579  1.00  0.00     0.029 A 
ATOM     64  C   UNL A   1      40.830  34.307  30.256  1.00  0.00     0.049 A 
ATOM     65  H   UNL A   1      39.488  34.604  28.665  1.00  0.00     0.167 HD
ATOM     66  C   UNL A   1      43.006  33.660  29.496  1.00  0.00     0.074 A 
ATOM     67  C   UNL A   1      44.411  33.676  29.134  1.00  0.00     0.031 C 
ATOM     68  C   UNL A   1      42.043  34.627  29.520  1.00  0.00     0.037 A 
BRANCH  55  69
ATOM     69  C   UNL A   1      35.975  33.936  29.999  1.00  0.00     0.057 A 
ATOM     70  C   UNL A   1      35.287  34.350  28.842  1.00  0.00     0.134 A 
ATOM     71  C   UNL A   1      35.250  34.222  31.192  1.00  0.00     0.134 A 
ATOM     72  F   UNL A   1      35.816  34.176  27.624  1.00  0.00    -0.206 F 
ATOM     73  C   UNL A   1      34.037  35.005  28.869  1.00  0.00     0.040 A 
ATOM     74  C   UNL A   1      33.982  34.833  31.227  1.00  0.00     0.040 A 
ATOM     75  F   UNL A   1      35.715  33.999  32.423  1.00  0.00    -0.206 F 
ATOM     76  C   UNL A   1      33.376  35.250  30.063  1.00  0.00     0.006 A 
ENDBRANCH  55  69
BRANCH  56  77
ATOM     77  C   UNL A   1      44.547  29.157  28.916  1.00  0.00     0.057 A 
ATOM     78  C   UNL A   1      45.474  28.223  29.428  1.00  0.00     0.134 A 
ATOM     79  C   UNL A   1      44.082  28.915  27.618  1.00  0.00     0.134 A 
ATOM     80  F   UNL A   1      45.982  28.382  30.663  1.00  0.00    -0.206 F 
ATOM     81  C   UNL A   1      45.837  27.061  28.739  1.00  0.00     0.040 A 
ATOM     82  C   UNL A   1      44.458  27.761  26.905  1.00  0.00     0.040 A 
ATOM     83  F   UNL A   1      43.179  29.725  27.051  1.00  0.00    -0.206 F 
ATOM     84  C   UNL A   1      45.315  26.820  27.474  1.00  0.00     0.006 A 
ENDBRANCH  56  77
BRANCH  68  85
ATOM     85  C   UNL A   1      42.159  35.984  28.866  1.00  0.00     0.057 A 
ATOM     86  C   UNL A   1      42.861  37.066  29.420  1.00  0.00     0.134 A 
ATOM     87  C   UNL A   1      41.698  36.187  27.545  1.00  0.00     0.134 A 
ATOM     88  F   UNL A   1      43.467  36.976  30.612  1.00  0.00    -0.206 F 
ATOM     89  C   UNL A   1      43.030  38.279  28.743  1.00  0.00     0.040 A 
ATOM     90  C   UNL A   1      41.920  37.369  26.835  1.00  0.00     0.040 A 
ATOM     91  F   UNL A   1      41.040  35.230  26.873  1.00  0.00    -0.206 F 
ATOM     92  C   UNL A   1      42.570  38.431  27.441  1.00  0.00     0.006 A 
ENDBRANCH  68  85
ENDBRANCH  42  43
ENDBRANCH  35  37
ENDBRANCH  34  35
ENDBRANCH  33  34
ENDBRANCH  32  33
ENDBRANCH  31  32
ENDBRANCH  30  31
ENDBRANCH   1  30
TORSDOF 20
ENDMDL
MODEL 2
REMARK VINA RESULT:     -13.0      3.836      9.879
REMARK SMILES Cc1ccccc1OC1(C(=O)OCCOCCOCCOC(=O)c2ccc(-c3c4nc(c(-c5c(F)cccc5F)c5ccc([nH]5)c(-c5c(F)cccc5F)c5nc(c(-c6c(F)cccc6F)c6ccc3[nH]6)C=C5)C=C4)cc2)CCN(C(=O)[C@H]2CCCCO2)CC1
REMARK SMILES IDX 16 1 15 2 14 3 13 4 12 5 10 6 11 7 9 8 78 9 90 10 79 11
REMARK SMILES IDX 89 12 80 13 81 14 82 15 8 16 7 17 1 18 2 19 3 20 4 21 6 22
REMARK SMILES IDX 5 23 83 24 84 25 88 26 85 27 87 28 86 29 17 30 18 31 19 32
REMARK SMILES IDX 20 33 21 34 22 35 23 36 24 37 25 38 77 39 26 40 76 41 27 42
REMARK SMILES IDX 28 43 29 44 70 45 30 46 75 47 69 48 71 49 31 50 74 51 68 52
REMARK SMILES IDX 67 53 32 55 58 56 41 57 57 58 42 59 45 60 56 61 72 62 43 63
REMARK SMILES IDX 44 64 55 66 73 67 46 68 33 69 34 70 39 71 35 72 36 73 38 74
REMARK SMILES IDX 40 75 37 76 59 77 60 78 65 79 61 80 62 81 64 82 66 83 63 84
REMARK SMILES IDX 47 85 48 86 53 87 49 88 50 89 52 90 54 91 51 92
REMARK H PARENT 71 54 45 65
REMARK Flexibility Score: inf
ROOT
ATOM      1  C   UNL A   1      31.643  27.408  26.474  1.00  0.00     0.188 C 
ENDROOT
BRANCH   1   2
ATOM      2  O   UNL A   1      30.487  26.733  27.013  1.00  0.00    -0.376 OA
BRANCH   2   3
ATOM      3  C   UNL A   1      29.837  25.586  26.443  1.00  0.00     0.202 C 
BRANCH   3   4
ATOM      4  C   UNL A   1      30.041  23.909  26.781  1.00  0.00     0.261 C 
BRANCH   4   5
ATOM      5  O   UNL A   1      30.522  22.498  25.843  1.00  0.00    -0.460 OA
BRANCH   5   6
ATOM      6  C   UNL A   1      31.699  21.831  25.262  1.00  0.00     0.350 C 
ATOM      7  O   UNL A   1      31.958  20.621  25.284  1.00  0.00    -0.247 OA
BRANCH   6   8
ATOM      8  C   UNL A   1      32.878  22.618  24.672  1.00  0.00     0.209 C 
ATOM      9  C   UNL A   1      33.159  22.083  23.298  1.00  0.00     0.082 C 
ATOM     10  C   UNL A   1      32.461  24.097  24.881  1.00  0.00     0.082 C 
ATOM     11  C   UNL A   1      33.225  23.106  22.201  1.00  0.00     0.124 C 
ATOM     12  C   UNL A   1      31.946  24.761  23.634  1.00  0.00     0.124 C 
ATOM     13  N   UNL A   1      32.698  24.440  22.432  1.00  0.00    -0.340 N 
ATOM     14  C   UNL A   1      32.849  25.307  21.350  1.00  0.00     0.251 C 
ATOM     15  O   UNL A   1      33.244  24.878  20.261  1.00  0.00    -0.272 OA
BRANCH   8  16
ATOM     16  O   UNL A   1      33.972  22.240  25.576  1.00  0.00    -0.475 OA
BRANCH  16  17
ATOM     17  C   UNL A   1      35.318  22.114  25.348  1.00  0.00     0.123 A 
ATOM     18  C   UNL A   1      35.610  19.592  24.814  1.00  0.00     0.048 C 
ATOM     19  C   UNL A   1      36.098  20.978  25.079  1.00  0.00    -0.009 A 
ATOM     20  C   UNL A   1      37.515  21.081  25.115  1.00  0.00     0.007 A 
ATOM     21  C   UNL A   1      38.165  22.283  25.365  1.00  0.00     0.001 A 
ATOM     22  C   UNL A   1      36.003  23.332  25.556  1.00  0.00     0.047 A 
ATOM     23  C   UNL A   1      37.404  23.422  25.561  1.00  0.00     0.004 A 
ENDBRANCH  16  17
ENDBRANCH   8  16
BRANCH  14  24
ATOM     24  C   UNL A   1      32.631  26.809  21.583  1.00  0.00     0.207 C 
ATOM     25  C   UNL A   1      31.160  26.985  21.999  1.00  0.00     0.042 C 
ATOM     26  O   UNL A   1      33.526  27.233  22.613  1.00  0.00    -0.368 OA
ATOM     27  C   UNL A   1      30.879  28.364  22.576  1.00  0.00     0.006 C 
ATOM     28  C   UNL A   1      33.318  28.576  23.021  1.00  0.00     0.161 C 
ATOM     29  C   UNL A   1      31.929  28.726  23.616  1.00  0.00     0.029 C 
ENDBRANCH  14  24
ENDBRANCH   6   8
ENDBRANCH   5   6
ENDBRANCH   4   5
ENDBRANCH   3   4
ENDBRANCH   2   3
ENDBRANCH   1   2
BRANCH   1  30
ATOM     30  C   UNL A   1      32.651  28.174  27.336  1.00  0.00     0.188 C 
BRANCH  30  31
ATOM     31  O   UNL A   1      32.399  29.565  27.277  1.00  0.00    -0.376 OA
BRANCH  31  32
ATOM     32  C   UNL A   1      33.477  30.371  26.832  1.00  0.00     0.202 C 
BRANCH  32  33
ATOM     33  C   UNL A   1      33.688  31.641  27.683  1.00  0.00     0.261 C 
BRANCH  33  34
ATOM     34  O   UNL A   1      34.422  31.346  28.897  1.00  0.00    -0.460 OA
BRANCH  34  35
ATOM     35  C   UNL A   1      35.791  31.455  28.867  1.00  0.00     0.338 C 
ATOM     36  O   UNL A   1      36.405  32.484  28.619  1.00  0.00    -0.246 OA
BRANCH  35  37
ATOM     37  C   UNL A   1      36.411  30.088  28.903  1.00  0.00     0.060 A 
ATOM     38  C   UNL A   1      36.973  29.463  30.027  1.00  0.00     0.016 A 
ATOM     39  C   UNL A   1      36.845  29.641  27.708  1.00  0.00     0.016 A 
ATOM     40  C   UNL A   1      38.129  28.584  29.921  1.00  0.00     0.010 A 
ATOM     41  C   UNL A   1      38.133  29.131  27.725  1.00  0.00     0.010 A 
ATOM     42  C   UNL A   1      38.872  28.463  28.741  1.00  0.00    -0.014 A 
BRANCH  42  43
ATOM     43  C   UNL A   1      40.412  27.702  28.585  1.00  0.00     0.031 A 
ATOM     44  C   UNL A   1      40.919  26.040  28.282  1.00  0.00     0.074 A 
ATOM     45  C   UNL A   1      41.456  28.477  28.959  1.00  0.00     0.049 A 
ATOM     46  N   UNL A   1      42.062  25.507  28.686  1.00  0.00    -0.248 NA
ATOM     47  C   UNL A   1      40.169  24.868  27.664  1.00  0.00     0.031 C 
ATOM     48  C   UNL A   1      42.883  28.192  28.867  1.00  0.00     0.029 A 
ATOM     49  N   UNL A   1      41.399  29.665  29.701  1.00  0.00    -0.354 N 
ATOM     50  C   UNL A   1      42.135  24.162  28.273  1.00  0.00     0.074 A 
ATOM     51  C   UNL A   1      40.856  23.776  27.894  1.00  0.00     0.031 C 
ATOM     52  C   UNL A   1      43.523  28.938  29.780  1.00  0.00     0.029 A 
ATOM     53  C   UNL A   1      42.506  29.625  30.558  1.00  0.00     0.049 A 
ATOM     54  H   UNL A   1      40.722  30.378  29.635  1.00  0.00     0.167 HD
ATOM     55  C   UNL A   1      43.260  23.412  28.157  1.00  0.00     0.037 A 
ATOM     56  C   UNL A   1      42.357  29.581  31.910  1.00  0.00     0.037 A 
ATOM     57  C   UNL A   1      44.256  24.011  28.997  1.00  0.00     0.049 A 
ATOM     58  C   UNL A   1      43.090  28.419  32.541  1.00  0.00     0.074 A 
ATOM     59  C   UNL A   1      45.251  24.934  28.761  1.00  0.00     0.029 A 
ATOM     60  N   UNL A   1      44.009  24.006  30.362  1.00  0.00    -0.354 N 
ATOM     61  N   UNL A   1      43.489  27.355  31.895  1.00  0.00    -0.248 NA
ATOM     62  C   UNL A   1      43.431  28.371  33.959  1.00  0.00     0.031 C 
ATOM     63  C   UNL A   1      45.485  25.607  29.991  1.00  0.00     0.029 A 
ATOM     64  C   UNL A   1      44.697  25.030  30.975  1.00  0.00     0.049 A 
ATOM     65  H   UNL A   1      43.425  23.363  30.827  1.00  0.00     0.167 HD
ATOM     66  C   UNL A   1      44.077  26.484  32.774  1.00  0.00     0.074 A 
ATOM     67  C   UNL A   1      44.043  27.180  34.045  1.00  0.00     0.031 C 
ATOM     68  C   UNL A   1      44.527  25.250  32.403  1.00  0.00     0.037 A 
BRANCH  55  69
ATOM     69  C   UNL A   1      43.460  22.226  27.183  1.00  0.00     0.057 A 
ATOM     70  C   UNL A   1      44.376  22.366  26.122  1.00  0.00     0.134 A 
ATOM     71  C   UNL A   1      42.727  21.006  27.108  1.00  0.00     0.134 A 
ATOM     72  F   UNL A   1      45.149  23.455  26.016  1.00  0.00    -0.206 F 
ATOM     73  C   UNL A   1      44.522  21.418  25.086  1.00  0.00     0.040 A 
ATOM     74  C   UNL A   1      42.898  20.033  26.104  1.00  0.00     0.040 A 
ATOM     75  F   UNL A   1      41.747  20.668  27.948  1.00  0.00    -0.206 F 
ATOM     76  C   UNL A   1      43.784  20.246  25.071  1.00  0.00     0.006 A 
ENDBRANCH  55  69
BRANCH  56  77
ATOM     77  C   UNL A   1      41.129  30.250  32.442  1.00  0.00     0.057 A 
ATOM     78  C   UNL A   1      40.044  29.450  32.863  1.00  0.00     0.134 A 
ATOM     79  C   UNL A   1      41.068  31.604  32.792  1.00  0.00     0.134 A 
ATOM     80  F   UNL A   1      40.013  28.140  32.561  1.00  0.00    -0.206 F 
ATOM     81  C   UNL A   1      39.014  29.937  33.674  1.00  0.00     0.040 A 
ATOM     82  C   UNL A   1      40.026  32.112  33.589  1.00  0.00     0.040 A 
ATOM     83  F   UNL A   1      42.061  32.442  32.465  1.00  0.00    -0.206 F 
ATOM     84  C   UNL A   1      39.012  31.274  34.053  1.00  0.00     0.006 A 
ENDBRANCH  56  77
BRANCH  68  85
ATOM     85  C   UNL A   1      44.873  24.129  33.356  1.00  0.00     0.057 A 
ATOM     86  C   UNL A   1      44.011  23.066  33.664  1.00  0.00     0.134 A 
ATOM     87  C   UNL A   1      46.184  24.001  33.868  1.00  0.00     0.134 A 
ATOM     88  F   UNL A   1      42.779  22.985  33.144  1.00  0.00    -0.206 F 
ATOM     89  C   UNL A   1      44.400  21.994  34.477  1.00  0.00     0.040 A 
ATOM     90  C   UNL A   1      46.603  22.902  34.623  1.00  0.00     0.040 A 
ATOM     91  F   UNL A   1      47.129  24.923  33.627  1.00  0.00    -0.206 F 
ATOM     92  C   UNL A   1      45.702  21.902  34.948  1.00  0.00     0.006 A 
ENDBRANCH  68  85
ENDBRANCH  42  43
ENDBRANCH  35  37
ENDBRANCH  34  35
ENDBRANCH  33  34
ENDBRANCH  32  33
ENDBRANCH  31  32
ENDBRANCH  30  31
ENDBRANCH   1  30
TORSDOF 20
ENDMDL
MODEL 3
REMARK VINA RESULT:     -12.8      3.207      6.076
REMARK SMILES Cc1ccccc1OC1(C(=O)OCCOCCOCCOC(=O)c2ccc(-c3c4nc(c(-c5c(F)cccc5F)c5ccc([nH]5)c(-c5c(F)cccc5F)c5nc(c(-c6c(F)cccc6F)c6ccc3[nH]6)C=C5)C=C4)cc2)CCN(C(=O)[C@H]2CCCCO2)CC1
REMARK SMILES IDX 16 1 15 2 14 3 13 4 12 5 10 6 11 7 9 8 78 9 90 10 79 11
REMARK SMILES IDX 89 12 80 13 81 14 82 15 8 16 7 17 1 18 2 19 3 20 4 21 6 22
REMARK SMILES IDX 5 23 83 24 84 25 88 26 85 27 87 28 86 29 17 30 18 31 19 32
REMARK SMILES IDX 20 33 21 34 22 35 23 36 24 37 25 38 77 39 26 40 76 41 27 42
REMARK SMILES IDX 28 43 29 44 70 45 30 46 75 47 69 48 71 49 31 50 74 51 68 52
REMARK SMILES IDX 67 53 32 55 58 56 41 57 57 58 42 59 45 60 56 61 72 62 43 63
REMARK SMILES IDX 44 64 55 66 73 67 46 68 33 69 34 70 39 71 35 72 36 73 38 74
REMARK SMILES IDX 40 75 37 76 59 77 60 78 65 79 61 80 62 81 64 82 66 83 63 84
REMARK SMILES IDX 47 85 48 86 53 87 49 88 50 89 52 90 54 91 51 92
REMARK H PARENT 71 54 45 65
REMARK Flexibility Score: inf
ROOT
ATOM      1  C   UNL A   1      38.739  21.884  25.780  1.00  0.00     0.188 C 
ENDROOT
BRANCH   1   2
ATOM      2  O   UNL A   1      37.794  22.874  25.322  1.00  0.00    -0.376 OA
BRANCH   2   3
ATOM      3  C   UNL A   1      36.400  22.931  25.661  1.00  0.00     0.202 C 
BRANCH   3   4
ATOM      4  C   UNL A   1      35.227  24.152  25.343  1.00  0.00     0.261 C 
BRANCH   4   5
ATOM      5  O   UNL A   1      34.056  25.039  26.316  1.00  0.00    -0.460 OA
BRANCH   5   6
ATOM      6  C   UNL A   1      32.768  25.747  26.230  1.00  0.00     0.350 C 
ATOM      7  O   UNL A   1      31.637  25.244  26.242  1.00  0.00    -0.247 OA
BRANCH   6   8
ATOM      8  C   UNL A   1      32.678  27.253  25.944  1.00  0.00     0.209 C 
ATOM      9  C   UNL A   1      33.591  27.567  24.794  1.00  0.00     0.082 C 
ATOM     10  C   UNL A   1      31.152  27.507  25.841  1.00  0.00     0.082 C 
ATOM     11  C   UNL A   1      32.972  28.329  23.659  1.00  0.00     0.124 C 
ATOM     12  C   UNL A   1      30.656  27.641  24.428  1.00  0.00     0.124 C 
ATOM     13  N   UNL A   1      31.525  28.420  23.561  1.00  0.00    -0.340 N 
ATOM     14  C   UNL A   1      31.074  29.183  22.484  1.00  0.00     0.251 C 
ATOM     15  O   UNL A   1      31.870  29.579  21.626  1.00  0.00    -0.272 OA
BRANCH   8  16
ATOM     16  O   UNL A   1      33.233  27.826  27.177  1.00  0.00    -0.475 OA
BRANCH  16  17
ATOM     17  C   UNL A   1      33.788  29.054  27.423  1.00  0.00     0.123 A 
ATOM     18  C   UNL A   1      31.867  30.710  26.876  1.00  0.00     0.048 C 
ATOM     19  C   UNL A   1      33.266  30.347  27.247  1.00  0.00    -0.009 A 
ATOM     20  C   UNL A   1      34.132  31.468  27.355  1.00  0.00     0.007 A 
ATOM     21  C   UNL A   1      35.478  31.338  27.675  1.00  0.00     0.001 A 
ATOM     22  C   UNL A   1      35.148  28.953  27.790  1.00  0.00     0.047 A 
ATOM     23  C   UNL A   1      35.984  30.073  27.919  1.00  0.00     0.004 A 
ENDBRANCH  16  17
ENDBRANCH   8  16
BRANCH  14  24
ATOM     24  C   UNL A   1      29.600  29.614  22.464  1.00  0.00     0.207 C 
ATOM     25  C   UNL A   1      29.419  30.634  23.601  1.00  0.00     0.042 C 
ATOM     26  O   UNL A   1      29.325  30.191  21.186  1.00  0.00    -0.368 OA
ATOM     27  C   UNL A   1      28.103  31.390  23.500  1.00  0.00     0.006 C 
ATOM     28  C   UNL A   1      28.028  30.761  21.095  1.00  0.00     0.161 C 
ATOM     29  C   UNL A   1      27.896  31.905  22.085  1.00  0.00     0.029 C 
ENDBRANCH  14  24
ENDBRANCH   6   8
ENDBRANCH   5   6
ENDBRANCH   4   5
ENDBRANCH   3   4
ENDBRANCH   2   3
ENDBRANCH   1   2
BRANCH   1  30
ATOM     30  C   UNL A   1      39.828  22.173  26.816  1.00  0.00     0.188 C 
BRANCH  30  31
ATOM     31  O   UNL A   1      40.430  20.969  27.254  1.00  0.00    -0.376 OA
BRANCH  31  32
ATOM     32  C   UNL A   1      40.982  20.148  26.239  1.00  0.00     0.202 C 
BRANCH  32  33
ATOM     33  C   UNL A   1      42.484  20.397  25.994  1.00  0.00     0.261 C 
BRANCH  33  34
ATOM     34  O   UNL A   1      42.701  21.629  25.262  1.00  0.00    -0.460 OA
BRANCH  34  35
ATOM     35  C   UNL A   1      43.958  21.872  24.764  1.00  0.00     0.338 C 
ATOM     36  O   UNL A   1      44.529  21.178  23.934  1.00  0.00    -0.246 OA
BRANCH  35  37
ATOM     37  C   UNL A   1      44.632  22.936  25.584  1.00  0.00     0.060 A 
ATOM     38  C   UNL A   1      44.973  22.841  26.942  1.00  0.00     0.016 A 
ATOM     39  C   UNL A   1      44.485  24.186  25.104  1.00  0.00     0.016 A 
ATOM     40  C   UNL A   1      44.915  23.993  27.831  1.00  0.00     0.010 A 
ATOM     41  C   UNL A   1      44.086  25.116  26.050  1.00  0.00     0.010 A 
ATOM     42  C   UNL A   1      44.332  25.207  27.448  1.00  0.00    -0.014 A 
BRANCH  42  43
ATOM     43  C   UNL A   1      43.938  26.520  28.497  1.00  0.00     0.031 A 
ATOM     44  C   UNL A   1      42.465  27.448  28.777  1.00  0.00     0.074 A 
ATOM     45  C   UNL A   1      45.008  27.097  29.090  1.00  0.00     0.049 A 
ATOM     46  N   UNL A   1      42.424  28.703  29.195  1.00  0.00    -0.248 NA
ATOM     47  C   UNL A   1      41.008  27.113  28.490  1.00  0.00     0.031 C 
ATOM     48  C   UNL A   1      45.033  28.153  30.096  1.00  0.00     0.029 A 
ATOM     49  N   UNL A   1      46.354  26.942  28.734  1.00  0.00    -0.354 N 
ATOM     50  C   UNL A   1      41.086  29.128  29.306  1.00  0.00     0.074 A 
ATOM     51  C   UNL A   1      40.303  28.210  28.618  1.00  0.00     0.031 C 
ATOM     52  C   UNL A   1      46.220  28.774  30.027  1.00  0.00     0.029 A 
ATOM     53  C   UNL A   1      46.933  28.207  28.895  1.00  0.00     0.049 A 
ATOM     54  H   UNL A   1      46.800  26.117  28.432  1.00  0.00     0.167 HD
ATOM     55  C   UNL A   1      40.628  30.173  30.039  1.00  0.00     0.037 A 
ATOM     56  C   UNL A   1      47.444  28.895  27.837  1.00  0.00     0.037 A 
ATOM     57  C   UNL A   1      41.733  31.064  30.244  1.00  0.00     0.049 A 
ATOM     58  C   UNL A   1      46.862  30.283  27.705  1.00  0.00     0.074 A 
ATOM     59  C   UNL A   1      42.658  31.194  31.256  1.00  0.00     0.029 A 
ATOM     60  N   UNL A   1      42.263  31.673  29.116  1.00  0.00    -0.354 N 
ATOM     61  N   UNL A   1      45.740  30.672  28.253  1.00  0.00    -0.248 NA
ATOM     62  C   UNL A   1      47.506  31.346  26.942  1.00  0.00     0.031 C 
ATOM     63  C   UNL A   1      43.829  31.749  30.673  1.00  0.00     0.029 A 
ATOM     64  C   UNL A   1      43.575  32.030  29.339  1.00  0.00     0.049 A 
ATOM     65  H   UNL A   1      41.772  31.829  28.277  1.00  0.00     0.167 HD
ATOM     66  C   UNL A   1      45.486  31.970  27.898  1.00  0.00     0.074 A 
ATOM     67  C   UNL A   1      46.636  32.355  27.102  1.00  0.00     0.031 C 
ATOM     68  C   UNL A   1      44.346  32.627  28.259  1.00  0.00     0.037 A 
BRANCH  55  69
ATOM     69  C   UNL A   1      39.214  30.295  30.657  1.00  0.00     0.057 A 
ATOM     70  C   UNL A   1      38.446  31.442  30.376  1.00  0.00     0.134 A 
ATOM     71  C   UNL A   1      38.592  29.453  31.625  1.00  0.00     0.134 A 
ATOM     72  F   UNL A   1      38.872  32.360  29.498  1.00  0.00    -0.206 F 
ATOM     73  C   UNL A   1      37.218  31.735  31.007  1.00  0.00     0.040 A 
ATOM     74  C   UNL A   1      37.347  29.713  32.226  1.00  0.00     0.040 A 
ATOM     75  F   UNL A   1      39.148  28.344  32.120  1.00  0.00    -0.206 F 
ATOM     76  C   UNL A   1      36.661  30.872  31.937  1.00  0.00     0.006 A 
ENDBRANCH  55  69
BRANCH  56  77
ATOM     77  C   UNL A   1      47.989  28.051  26.728  1.00  0.00     0.057 A 
ATOM     78  C   UNL A   1      49.312  27.566  26.827  1.00  0.00     0.134 A 
ATOM     79  C   UNL A   1      47.202  27.494  25.714  1.00  0.00     0.134 A 
ATOM     80  F   UNL A   1      50.143  28.053  27.765  1.00  0.00    -0.206 F 
ATOM     81  C   UNL A   1      49.793  26.515  26.039  1.00  0.00     0.040 A 
ATOM     82  C   UNL A   1      47.682  26.451  24.900  1.00  0.00     0.040 A 
ATOM     83  F   UNL A   1      45.925  27.865  25.554  1.00  0.00    -0.206 F 
ATOM     84  C   UNL A   1      48.968  25.942  25.079  1.00  0.00     0.006 A 
ENDBRANCH  56  77
BRANCH  68  85
ATOM     85  C   UNL A   1      43.853  33.915  27.640  1.00  0.00     0.057 A 
ATOM     86  C   UNL A   1      43.575  34.074  26.274  1.00  0.00     0.134 A 
ATOM     87  C   UNL A   1      43.472  35.004  28.457  1.00  0.00     0.134 A 
ATOM     88  F   UNL A   1      43.762  33.079  25.397  1.00  0.00    -0.206 F 
ATOM     89  C   UNL A   1      43.028  35.251  25.750  1.00  0.00     0.040 A 
ATOM     90  C   UNL A   1      42.862  36.156  27.954  1.00  0.00     0.040 A 
ATOM     91  F   UNL A   1      43.644  34.981  29.788  1.00  0.00    -0.206 F 
ATOM     92  C   UNL A   1      42.657  36.292  26.591  1.00  0.00     0.006 A 
ENDBRANCH  68  85
ENDBRANCH  42  43
ENDBRANCH  35  37
ENDBRANCH  34  35
ENDBRANCH  33  34
ENDBRANCH  32  33
ENDBRANCH  31  32
ENDBRANCH  30  31
ENDBRANCH   1  30
TORSDOF 20
ENDMDL
