MODEL 1
REMARK VINA RESULT:     -11.4      0.000      0.000
REMARK SMILES C[C@@H](CCC(=O)OCCOCCOCCOC(=O)c1ccc(-c2c3nc(c(-c4c(F)cccc4F)c4ccc([nH]4)c(-c4c(F)cccc4F)c4nc(c(-c5c(F)cccc5F)c5ccc2[nH]5)C=C4)C=C3)cc1)[C@@H]1CC[C@@H]2[C@H]3CC[C@@H]4CC(=O)CC[C@]4(C)[C@@H]3CC(=O)[C@]21C
REMARK SMILES IDX 11 1 10 2 9 3 8 4 7 5 5 6 6 7 4 8 3 9 2 10 1 11 73 12 74 13
REMARK SMILES IDX 92 14 75 15 76 16 90 17 93 18 77 19 89 20 91 21 78 22 88 23
REMARK SMILES IDX 79 24 86 25 80 26 85 27 87 28 81 29 84 30 82 31 83 32 12 33
REMARK SMILES IDX 13 34 14 35 15 36 16 37 17 38 18 39 19 40 20 41 72 42 21 43
REMARK SMILES IDX 71 44 22 45 23 46 24 47 65 48 25 49 70 50 64 51 66 52 26 53
REMARK SMILES IDX 69 54 63 55 62 56 27 58 53 59 36 60 52 61 37 62 40 63 51 64
REMARK SMILES IDX 67 65 38 66 39 67 50 69 68 70 41 71 28 72 29 73 34 74 30 75
REMARK SMILES IDX 31 76 33 77 35 78 32 79 54 80 55 81 60 82 56 83 57 84 59 85
REMARK SMILES IDX 61 86 58 87 42 88 43 89 48 90 44 91 45 92 47 93 49 94 46 95
REMARK H PARENT 66 57 40 68
REMARK Flexibility Score: inf
ROOT
ATOM      1  C   UNL A   1      43.236  18.481  25.811  1.00  0.00     0.188 C 
ENDROOT
BRANCH   1   2
ATOM      2  O   UNL A   1      42.042  19.088  26.288  1.00  0.00    -0.376 OA
BRANCH   2   3
ATOM      3  C   UNL A   1      42.090  19.880  27.469  1.00  0.00     0.202 C 
BRANCH   3   4
ATOM      4  C   UNL A   1      40.882  20.783  27.733  1.00  0.00     0.261 C 
BRANCH   4   5
ATOM      5  O   UNL A   1      40.120  21.062  26.536  1.00  0.00    -0.463 OA
BRANCH   5   6
ATOM      6  C   UNL A   1      39.644  22.313  26.359  1.00  0.00     0.305 C 
ATOM      7  O   UNL A   1      40.222  23.330  26.719  1.00  0.00    -0.252 OA
BRANCH   6   8
ATOM      8  C   UNL A   1      38.256  22.330  25.742  1.00  0.00     0.123 C 
BRANCH   8   9
ATOM      9  C   UNL A   1      37.645  21.007  25.229  1.00  0.00     0.015 C 
BRANCH   9  10
ATOM     10  C   UNL A   1      36.091  20.738  25.201  1.00  0.00    -0.010 C 
ATOM     11  C   UNL A   1      35.822  19.258  24.880  1.00  0.00     0.008 C 
BRANCH  10  12
ATOM     12  C   UNL A   1      35.135  21.659  24.335  1.00  0.00     0.005 C 
ATOM     13  C   UNL A   1      35.978  22.552  23.418  1.00  0.00     0.005 C 
ATOM     14  C   UNL A   1      34.139  22.704  24.971  1.00  0.00     0.032 C 
ATOM     15  C   UNL A   1      35.072  23.622  22.852  1.00  0.00     0.005 C 
ATOM     16  C   UNL A   1      33.819  23.572  23.709  1.00  0.00     0.006 C 
ATOM     17  C   UNL A   1      32.707  22.351  25.389  1.00  0.00     0.139 C 
ATOM     18  C   UNL A   1      34.747  23.288  26.236  1.00  0.00     0.020 C 
ATOM     19  C   UNL A   1      33.094  24.908  23.943  1.00  0.00    -0.003 C 
ATOM     20  C   UNL A   1      31.785  23.571  25.740  1.00  0.00     0.080 C 
ATOM     21  O   UNL A   1      32.316  21.190  25.483  1.00  0.00    -0.299 OA
ATOM     22  C   UNL A   1      32.858  25.653  22.613  1.00  0.00     0.004 C 
ATOM     23  C   UNL A   1      31.734  24.666  24.640  1.00  0.00     0.006 C 
ATOM     24  C   UNL A   1      31.978  26.894  22.737  1.00  0.00     0.005 C 
ATOM     25  C   UNL A   1      30.945  26.039  24.935  1.00  0.00    -0.025 C 
ATOM     26  C   UNL A   1      30.673  26.669  23.537  1.00  0.00     0.002 C 
ATOM     27  C   UNL A   1      31.640  27.106  25.836  1.00  0.00     0.015 C 
ATOM     28  C   UNL A   1      29.629  25.681  25.666  1.00  0.00     0.012 C 
ATOM     29  C   UNL A   1      29.865  27.963  23.631  1.00  0.00     0.079 C 
ATOM     30  C   UNL A   1      31.594  28.598  25.450  1.00  0.00     0.076 C 
ATOM     31  C   UNL A   1      30.605  29.023  24.394  1.00  0.00     0.133 C 
ATOM     32  O   UNL A   1      30.418  30.218  24.155  1.00  0.00    -0.300 OA
ENDBRANCH  10  12
ENDBRANCH   9  10
ENDBRANCH   8   9
ENDBRANCH   6   8
ENDBRANCH   5   6
ENDBRANCH   4   5
ENDBRANCH   3   4
ENDBRANCH   2   3
ENDBRANCH   1   2
BRANCH   1  33
ATOM     33  C   UNL A   1      44.104  19.273  24.833  1.00  0.00     0.188 C 
BRANCH  33  34
ATOM     34  O   UNL A   1      45.002  20.230  25.385  1.00  0.00    -0.376 OA
BRANCH  34  35
ATOM     35  C   UNL A   1      45.057  21.499  24.745  1.00  0.00     0.202 C 
BRANCH  35  36
ATOM     36  C   UNL A   1      43.782  22.301  24.976  1.00  0.00     0.261 C 
BRANCH  36  37
ATOM     37  O   UNL A   1      43.955  23.214  26.061  1.00  0.00    -0.460 OA
BRANCH  37  38
ATOM     38  C   UNL A   1      44.328  24.465  25.726  1.00  0.00     0.338 C 
ATOM     39  O   UNL A   1      44.966  24.846  24.767  1.00  0.00    -0.246 OA
BRANCH  38  40
ATOM     40  C   UNL A   1      43.723  25.402  26.648  1.00  0.00     0.060 A 
ATOM     41  C   UNL A   1      42.832  24.913  27.616  1.00  0.00     0.016 A 
ATOM     42  C   UNL A   1      44.115  26.734  26.581  1.00  0.00     0.016 A 
ATOM     43  C   UNL A   1      42.387  25.771  28.601  1.00  0.00     0.010 A 
ATOM     44  C   UNL A   1      43.694  27.577  27.576  1.00  0.00     0.010 A 
ATOM     45  C   UNL A   1      42.847  27.089  28.585  1.00  0.00    -0.014 A 
BRANCH  45  46
ATOM     46  C   UNL A   1      42.426  28.059  29.591  1.00  0.00     0.031 A 
ATOM     47  C   UNL A   1      43.129  28.014  30.903  1.00  0.00     0.074 A 
ATOM     48  C   UNL A   1      41.316  28.771  29.351  1.00  0.00     0.049 A 
ATOM     49  N   UNL A   1      42.772  28.522  32.045  1.00  0.00    -0.248 NA
ATOM     50  C   UNL A   1      44.374  27.223  30.943  1.00  0.00     0.031 C 
ATOM     51  C   UNL A   1      40.580  28.794  28.082  1.00  0.00     0.029 A 
ATOM     52  N   UNL A   1      40.583  29.564  30.181  1.00  0.00    -0.354 N 
ATOM     53  C   UNL A   1      43.729  28.089  32.949  1.00  0.00     0.074 A 
ATOM     54  C   UNL A   1      44.652  27.235  32.237  1.00  0.00     0.031 C 
ATOM     55  C   UNL A   1      39.485  29.557  28.227  1.00  0.00     0.029 A 
ATOM     56  C   UNL A   1      39.430  30.033  29.603  1.00  0.00     0.049 A 
ATOM     57  H   UNL A   1      40.852  29.780  31.103  1.00  0.00     0.167 HD
ATOM     58  C   UNL A   1      43.817  28.398  34.262  1.00  0.00     0.037 A 
ATOM     59  C   UNL A   1      38.437  30.747  30.159  1.00  0.00     0.037 A 
ATOM     60  C   UNL A   1      42.862  29.251  34.913  1.00  0.00     0.049 A 
ATOM     61  C   UNL A   1      38.571  31.096  31.615  1.00  0.00     0.074 A 
ATOM     62  C   UNL A   1      42.840  29.693  36.220  1.00  0.00     0.029 A 
ATOM     63  N   UNL A   1      41.746  29.793  34.282  1.00  0.00    -0.354 N 
ATOM     64  N   UNL A   1      39.506  30.739  32.467  1.00  0.00    -0.248 NA
ATOM     65  C   UNL A   1      37.528  31.952  32.185  1.00  0.00     0.031 C 
ATOM     66  C   UNL A   1      41.691  30.475  36.389  1.00  0.00     0.029 A 
ATOM     67  C   UNL A   1      41.023  30.563  35.174  1.00  0.00     0.049 A 
ATOM     68  H   UNL A   1      41.506  29.650  33.338  1.00  0.00     0.167 HD
ATOM     69  C   UNL A   1      39.185  31.352  33.667  1.00  0.00     0.074 A 
ATOM     70  C   UNL A   1      37.972  32.114  33.424  1.00  0.00     0.031 C 
ATOM     71  C   UNL A   1      39.824  31.302  34.864  1.00  0.00     0.037 A 
BRANCH  58  72
ATOM     72  C   UNL A   1      44.956  27.800  35.032  1.00  0.00     0.057 A 
ATOM     73  C   UNL A   1      46.213  28.422  35.101  1.00  0.00     0.134 A 
ATOM     74  C   UNL A   1      44.815  26.568  35.683  1.00  0.00     0.134 A 
ATOM     75  F   UNL A   1      46.427  29.591  34.477  1.00  0.00    -0.206 F 
ATOM     76  C   UNL A   1      47.292  27.827  35.755  1.00  0.00     0.040 A 
ATOM     77  C   UNL A   1      45.879  25.977  36.367  1.00  0.00     0.040 A 
ATOM     78  F   UNL A   1      43.647  25.910  35.651  1.00  0.00    -0.206 F 
ATOM     79  C   UNL A   1      47.125  26.602  36.396  1.00  0.00     0.006 A 
ENDBRANCH  58  72
BRANCH  59  80
ATOM     80  C   UNL A   1      37.292  31.206  29.335  1.00  0.00     0.057 A 
ATOM     81  C   UNL A   1      37.260  32.510  28.829  1.00  0.00     0.134 A 
ATOM     82  C   UNL A   1      36.228  30.360  29.002  1.00  0.00     0.134 A 
ATOM     83  F   UNL A   1      38.249  33.369  29.115  1.00  0.00    -0.206 F 
ATOM     84  C   UNL A   1      36.202  32.965  28.040  1.00  0.00     0.040 A 
ATOM     85  C   UNL A   1      35.174  30.794  28.194  1.00  0.00     0.040 A 
ATOM     86  F   UNL A   1      36.209  29.091  29.436  1.00  0.00    -0.206 F 
ATOM     87  C   UNL A   1      35.156  32.103  27.717  1.00  0.00     0.006 A 
ENDBRANCH  59  80
BRANCH  71  88
ATOM     88  C   UNL A   1      39.237  32.131  35.965  1.00  0.00     0.057 A 
ATOM     89  C   UNL A   1      38.286  31.613  36.853  1.00  0.00     0.134 A 
ATOM     90  C   UNL A   1      39.660  33.452  36.155  1.00  0.00     0.134 A 
ATOM     91  F   UNL A   1      37.834  30.358  36.711  1.00  0.00    -0.206 F 
ATOM     92  C   UNL A   1      37.755  32.394  37.877  1.00  0.00     0.040 A 
ATOM     93  C   UNL A   1      39.159  34.231  37.194  1.00  0.00     0.040 A 
ATOM     94  F   UNL A   1      40.577  33.998  35.341  1.00  0.00    -0.206 F 
ATOM     95  C   UNL A   1      38.197  33.704  38.055  1.00  0.00     0.006 A 
ENDBRANCH  71  88
ENDBRANCH  45  46
ENDBRANCH  38  40
ENDBRANCH  37  38
ENDBRANCH  36  37
ENDBRANCH  35  36
ENDBRANCH  34  35
ENDBRANCH  33  34
ENDBRANCH   1  33
TORSDOF 20
ENDMDL
MODEL 2
REMARK VINA RESULT:     -11.0      4.564     10.727
REMARK SMILES C[C@@H](CCC(=O)OCCOCCOCCOC(=O)c1ccc(-c2c3nc(c(-c4c(F)cccc4F)c4ccc([nH]4)c(-c4c(F)cccc4F)c4nc(c(-c5c(F)cccc5F)c5ccc2[nH]5)C=C4)C=C3)cc1)[C@@H]1CC[C@@H]2[C@H]3CC[C@@H]4CC(=O)CC[C@]4(C)[C@@H]3CC(=O)[C@]21C
REMARK SMILES IDX 11 1 10 2 9 3 8 4 7 5 5 6 6 7 4 8 3 9 2 10 1 11 73 12 74 13
REMARK SMILES IDX 92 14 75 15 76 16 90 17 93 18 77 19 89 20 91 21 78 22 88 23
REMARK SMILES IDX 79 24 86 25 80 26 85 27 87 28 81 29 84 30 82 31 83 32 12 33
REMARK SMILES IDX 13 34 14 35 15 36 16 37 17 38 18 39 19 40 20 41 72 42 21 43
REMARK SMILES IDX 71 44 22 45 23 46 24 47 65 48 25 49 70 50 64 51 66 52 26 53
REMARK SMILES IDX 69 54 63 55 62 56 27 58 53 59 36 60 52 61 37 62 40 63 51 64
REMARK SMILES IDX 67 65 38 66 39 67 50 69 68 70 41 71 28 72 29 73 34 74 30 75
REMARK SMILES IDX 31 76 33 77 35 78 32 79 54 80 55 81 60 82 56 83 57 84 59 85
REMARK SMILES IDX 61 86 58 87 42 88 43 89 48 90 44 91 45 92 47 93 49 94 46 95
REMARK H PARENT 66 57 40 68
REMARK Flexibility Score: inf
ROOT
ATOM      1  C   UNL A   1      39.731  34.181  30.474  1.00  0.00     0.188 C 
ENDROOT
BRANCH   1   2
ATOM      2  O   UNL A   1      38.518  33.444  30.392  1.00  0.00    -0.376 OA
BRANCH   2   3
ATOM      3  C   UNL A   1      37.312  34.039  30.859  1.00  0.00     0.202 C 
BRANCH   3   4
ATOM      4  C   UNL A   1      36.029  33.229  30.653  1.00  0.00     0.261 C 
BRANCH   4   5
ATOM      5  O   UNL A   1      35.177  33.783  29.625  1.00  0.00    -0.463 OA
BRANCH   5   6
ATOM      6  C   UNL A   1      35.047  33.102  28.467  1.00  0.00     0.305 C 
ATOM      7  O   UNL A   1      35.903  33.054  27.593  1.00  0.00    -0.252 OA
BRANCH   6   8
ATOM      8  C   UNL A   1      33.676  32.465  28.311  1.00  0.00     0.123 C 
BRANCH   8   9
ATOM      9  C   UNL A   1      33.556  31.110  27.577  1.00  0.00     0.015 C 
BRANCH   9  10
ATOM     10  C   UNL A   1      32.529  30.862  26.406  1.00  0.00    -0.010 C 
ATOM     11  C   UNL A   1      31.426  31.934  26.442  1.00  0.00     0.008 C 
BRANCH  10  12
ATOM     12  C   UNL A   1      31.882  29.430  26.201  1.00  0.00     0.005 C 
ATOM     13  C   UNL A   1      31.682  28.759  27.564  1.00  0.00     0.005 C 
ATOM     14  C   UNL A   1      32.580  28.279  25.377  1.00  0.00     0.032 C 
ATOM     15  C   UNL A   1      31.370  27.299  27.321  1.00  0.00     0.005 C 
ATOM     16  C   UNL A   1      31.745  27.051  25.870  1.00  0.00     0.006 C 
ATOM     17  C   UNL A   1      32.400  28.101  23.866  1.00  0.00     0.139 C 
ATOM     18  C   UNL A   1      34.088  28.368  25.550  1.00  0.00     0.020 C 
ATOM     19  C   UNL A   1      32.287  25.653  25.531  1.00  0.00    -0.003 C 
ATOM     20  C   UNL A   1      32.943  26.753  23.275  1.00  0.00     0.080 C 
ATOM     21  O   UNL A   1      31.901  28.971  23.155  1.00  0.00    -0.299 OA
ATOM     22  C   UNL A   1      31.367  24.548  26.088  1.00  0.00     0.004 C 
ATOM     23  C   UNL A   1      32.415  25.484  23.998  1.00  0.00     0.006 C 
ATOM     24  C   UNL A   1      31.732  23.138  25.633  1.00  0.00     0.005 C 
ATOM     25  C   UNL A   1      33.008  24.044  23.589  1.00  0.00    -0.025 C 
ATOM     26  C   UNL A   1      31.971  23.006  24.110  1.00  0.00     0.002 C 
ATOM     27  C   UNL A   1      34.419  23.651  24.125  1.00  0.00     0.015 C 
ATOM     28  C   UNL A   1      33.131  24.003  22.047  1.00  0.00     0.012 C 
ATOM     29  C   UNL A   1      32.352  21.571  23.745  1.00  0.00     0.079 C 
ATOM     30  C   UNL A   1      34.675  22.233  24.673  1.00  0.00     0.076 C 
ATOM     31  C   UNL A   1      33.653  21.166  24.375  1.00  0.00     0.133 C 
ATOM     32  O   UNL A   1      33.877  19.986  24.655  1.00  0.00    -0.300 OA
ENDBRANCH  10  12
ENDBRANCH   9  10
ENDBRANCH   8   9
ENDBRANCH   6   8
ENDBRANCH   5   6
ENDBRANCH   4   5
ENDBRANCH   3   4
ENDBRANCH   2   3
ENDBRANCH   1   2
BRANCH   1  33
ATOM     33  C   UNL A   1      40.470  34.203  31.813  1.00  0.00     0.188 C 
BRANCH  33  34
ATOM     34  O   UNL A   1      41.893  34.216  31.773  1.00  0.00    -0.376 OA
BRANCH  34  35
ATOM     35  C   UNL A   1      42.551  35.104  32.667  1.00  0.00     0.202 C 
BRANCH  35  36
ATOM     36  C   UNL A   1      43.514  36.029  31.933  1.00  0.00     0.261 C 
BRANCH  36  37
ATOM     37  O   UNL A   1      44.864  35.742  32.303  1.00  0.00    -0.460 OA
BRANCH  37  38
ATOM     38  C   UNL A   1      45.739  35.611  31.286  1.00  0.00     0.338 C 
ATOM     39  O   UNL A   1      46.611  36.371  30.920  1.00  0.00    -0.246 OA
BRANCH  38  40
ATOM     40  C   UNL A   1      45.599  34.291  30.709  1.00  0.00     0.060 A 
ATOM     41  C   UNL A   1      45.611  33.179  31.564  1.00  0.00     0.016 A 
ATOM     42  C   UNL A   1      45.380  34.195  29.340  1.00  0.00     0.016 A 
ATOM     43  C   UNL A   1      45.308  31.938  31.042  1.00  0.00     0.010 A 
ATOM     44  C   UNL A   1      45.051  32.967  28.828  1.00  0.00     0.010 A 
ATOM     45  C   UNL A   1      45.004  31.851  29.682  1.00  0.00    -0.014 A 
BRANCH  45  46
ATOM     46  C   UNL A   1      44.670  30.578  29.052  1.00  0.00     0.031 A 
ATOM     47  C   UNL A   1      43.233  30.189  29.042  1.00  0.00     0.074 A 
ATOM     48  C   UNL A   1      45.679  29.760  28.719  1.00  0.00     0.049 A 
ATOM     49  N   UNL A   1      42.698  29.021  28.840  1.00  0.00    -0.248 NA
ATOM     50  C   UNL A   1      42.271  31.257  29.376  1.00  0.00     0.031 C 
ATOM     51  C   UNL A   1      47.103  30.105  28.766  1.00  0.00     0.029 A 
ATOM     52  N   UNL A   1      45.661  28.454  28.332  1.00  0.00    -0.354 N 
ATOM     53  C   UNL A   1      41.341  29.202  29.054  1.00  0.00     0.074 A 
ATOM     54  C   UNL A   1      41.139  30.577  29.450  1.00  0.00     0.031 C 
ATOM     55  C   UNL A   1      47.826  29.023  28.433  1.00  0.00     0.029 A 
ATOM     56  C   UNL A   1      46.914  27.912  28.195  1.00  0.00     0.049 A 
ATOM     57  H   UNL A   1      44.832  27.948  28.168  1.00  0.00     0.167 HD
ATOM     58  C   UNL A   1      40.359  28.284  28.915  1.00  0.00     0.037 A 
ATOM     59  C   UNL A   1      47.261  26.642  27.930  1.00  0.00     0.037 A 
ATOM     60  C   UNL A   1      40.628  26.929  28.521  1.00  0.00     0.049 A 
ATOM     61  C   UNL A   1      46.147  25.646  27.758  1.00  0.00     0.074 A 
ATOM     62  C   UNL A   1      39.740  25.897  28.294  1.00  0.00     0.029 A 
ATOM     63  N   UNL A   1      41.905  26.424  28.296  1.00  0.00    -0.354 N 
ATOM     64  N   UNL A   1      44.853  25.822  27.901  1.00  0.00    -0.248 NA
ATOM     65  C   UNL A   1      46.535  24.285  27.380  1.00  0.00     0.031 C 
ATOM     66  C   UNL A   1      40.483  24.758  27.965  1.00  0.00     0.029 A 
ATOM     67  C   UNL A   1      41.832  25.091  27.937  1.00  0.00     0.049 A 
ATOM     68  H   UNL A   1      42.739  26.940  28.380  1.00  0.00     0.167 HD
ATOM     69  C   UNL A   1      44.265  24.604  27.598  1.00  0.00     0.074 A 
ATOM     70  C   UNL A   1      45.350  23.703  27.252  1.00  0.00     0.031 C 
ATOM     71  C   UNL A   1      42.954  24.251  27.598  1.00  0.00     0.037 A 
BRANCH  58  72
ATOM     72  C   UNL A   1      38.957  28.731  29.204  1.00  0.00     0.057 A 
ATOM     73  C   UNL A   1      38.151  29.328  28.222  1.00  0.00     0.134 A 
ATOM     74  C   UNL A   1      38.413  28.603  30.488  1.00  0.00     0.134 A 
ATOM     75  F   UNL A   1      38.619  29.508  26.977  1.00  0.00    -0.206 F 
ATOM     76  C   UNL A   1      36.875  29.811  28.514  1.00  0.00     0.040 A 
ATOM     77  C   UNL A   1      37.125  29.054  30.785  1.00  0.00     0.040 A 
ATOM     78  F   UNL A   1      39.128  28.053  31.480  1.00  0.00    -0.206 F 
ATOM     79  C   UNL A   1      36.356  29.670  29.798  1.00  0.00     0.006 A 
ENDBRANCH  58  72
BRANCH  59  80
ATOM     80  C   UNL A   1      48.687  26.273  27.765  1.00  0.00     0.057 A 
ATOM     81  C   UNL A   1      49.293  26.326  26.504  1.00  0.00     0.134 A 
ATOM     82  C   UNL A   1      49.489  25.897  28.849  1.00  0.00     0.134 A 
ATOM     83  F   UNL A   1      48.577  26.677  25.427  1.00  0.00    -0.206 F 
ATOM     84  C   UNL A   1      50.638  25.997  26.322  1.00  0.00     0.040 A 
ATOM     85  C   UNL A   1      50.842  25.587  28.685  1.00  0.00     0.040 A 
ATOM     86  F   UNL A   1      48.977  25.848  30.087  1.00  0.00    -0.206 F 
ATOM     87  C   UNL A   1      51.418  25.630  27.417  1.00  0.00     0.006 A 
ENDBRANCH  59  80
BRANCH  71  88
ATOM     88  C   UNL A   1      42.645  22.850  27.167  1.00  0.00     0.057 A 
ATOM     89  C   UNL A   1      42.303  21.852  28.088  1.00  0.00     0.134 A 
ATOM     90  C   UNL A   1      42.655  22.512  25.808  1.00  0.00     0.134 A 
ATOM     91  F   UNL A   1      42.290  22.115  29.403  1.00  0.00    -0.206 F 
ATOM     92  C   UNL A   1      42.009  20.555  27.671  1.00  0.00     0.040 A 
ATOM     93  C   UNL A   1      42.333  21.228  25.379  1.00  0.00     0.040 A 
ATOM     94  F   UNL A   1      42.964  23.430  24.880  1.00  0.00    -0.206 F 
ATOM     95  C   UNL A   1      42.016  20.243  26.312  1.00  0.00     0.006 A 
ENDBRANCH  71  88
ENDBRANCH  45  46
ENDBRANCH  38  40
ENDBRANCH  37  38
ENDBRANCH  36  37
ENDBRANCH  35  36
ENDBRANCH  34  35
ENDBRANCH  33  34
ENDBRANCH   1  33
TORSDOF 20
ENDMDL
MODEL 3
REMARK VINA RESULT:     -10.7      1.803      6.253
REMARK SMILES C[C@@H](CCC(=O)OCCOCCOCCOC(=O)c1ccc(-c2c3nc(c(-c4c(F)cccc4F)c4ccc([nH]4)c(-c4c(F)cccc4F)c4nc(c(-c5c(F)cccc5F)c5ccc2[nH]5)C=C4)C=C3)cc1)[C@@H]1CC[C@@H]2[C@H]3CC[C@@H]4CC(=O)CC[C@]4(C)[C@@H]3CC(=O)[C@]21C
REMARK SMILES IDX 11 1 10 2 9 3 8 4 7 5 5 6 6 7 4 8 3 9 2 10 1 11 73 12 74 13
REMARK SMILES IDX 92 14 75 15 76 16 90 17 93 18 77 19 89 20 91 21 78 22 88 23
REMARK SMILES IDX 79 24 86 25 80 26 85 27 87 28 81 29 84 30 82 31 83 32 12 33
REMARK SMILES IDX 13 34 14 35 15 36 16 37 17 38 18 39 19 40 20 41 72 42 21 43
REMARK SMILES IDX 71 44 22 45 23 46 24 47 65 48 25 49 70 50 64 51 66 52 26 53
REMARK SMILES IDX 69 54 63 55 62 56 27 58 53 59 36 60 52 61 37 62 40 63 51 64
REMARK SMILES IDX 67 65 38 66 39 67 50 69 68 70 41 71 28 72 29 73 34 74 30 75
REMARK SMILES IDX 31 76 33 77 35 78 32 79 54 80 55 81 60 82 56 83 57 84 59 85
REMARK SMILES IDX 61 86 58 87 42 88 43 89 48 90 44 91 45 92 47 93 49 94 46 95
REMARK H PARENT 66 57 40 68
REMARK Flexibility Score: inf
ROOT
ATOM      1  C   UNL A   1      42.778  19.464  25.986  1.00  0.00     0.188 C 
ENDROOT
BRANCH   1   2
ATOM      2  O   UNL A   1      41.499  19.476  25.364  1.00  0.00    -0.376 OA
BRANCH   2   3
ATOM      3  C   UNL A   1      40.366  19.897  26.117  1.00  0.00     0.202 C 
BRANCH   3   4
ATOM      4  C   UNL A   1      39.021  19.282  25.722  1.00  0.00     0.261 C 
BRANCH   4   5
ATOM      5  O   UNL A   1      38.302  20.081  24.754  1.00  0.00    -0.463 OA
BRANCH   5   6
ATOM      6  C   UNL A   1      37.752  21.242  25.166  1.00  0.00     0.305 C 
ATOM      7  O   UNL A   1      38.251  21.987  26.000  1.00  0.00    -0.252 OA
BRANCH   6   8
ATOM      8  C   UNL A   1      36.385  21.494  24.553  1.00  0.00     0.123 C 
BRANCH   8   9
ATOM      9  C   UNL A   1      35.227  20.521  24.874  1.00  0.00     0.015 C 
BRANCH   9  10
ATOM     10  C   UNL A   1      33.710  20.912  24.698  1.00  0.00    -0.010 C 
ATOM     11  C   UNL A   1      33.010  19.892  23.783  1.00  0.00     0.008 C 
BRANCH  10  12
ATOM     12  C   UNL A   1      33.307  22.384  24.270  1.00  0.00     0.005 C 
ATOM     13  C   UNL A   1      34.391  22.965  23.355  1.00  0.00     0.005 C 
ATOM     14  C   UNL A   1      33.102  23.556  25.306  1.00  0.00     0.032 C 
ATOM     15  C   UNL A   1      34.144  24.452  23.228  1.00  0.00     0.005 C 
ATOM     16  C   UNL A   1      33.162  24.784  24.338  1.00  0.00     0.006 C 
ATOM     17  C   UNL A   1      31.760  23.850  25.986  1.00  0.00     0.139 C 
ATOM     18  C   UNL A   1      34.063  23.383  26.472  1.00  0.00     0.020 C 
ATOM     19  C   UNL A   1      33.295  26.176  24.978  1.00  0.00    -0.003 C 
ATOM     20  C   UNL A   1      31.680  25.210  26.764  1.00  0.00     0.080 C 
ATOM     21  O   UNL A   1      30.821  23.058  25.958  1.00  0.00    -0.299 OA
ATOM     22  C   UNL A   1      33.351  27.280  23.903  1.00  0.00     0.004 C 
ATOM     23  C   UNL A   1      32.104  26.448  25.926  1.00  0.00     0.006 C 
ATOM     24  C   UNL A   1      33.293  28.700  24.459  1.00  0.00     0.005 C 
ATOM     25  C   UNL A   1      32.210  27.884  26.648  1.00  0.00    -0.025 C 
ATOM     26  C   UNL A   1      32.166  28.930  25.495  1.00  0.00     0.002 C 
ATOM     27  C   UNL A   1      33.463  28.170  27.533  1.00  0.00     0.015 C 
ATOM     28  C   UNL A   1      30.997  28.029  27.596  1.00  0.00     0.012 C 
ATOM     29  C   UNL A   1      32.194  30.368  26.014  1.00  0.00     0.079 C 
ATOM     30  C   UNL A   1      34.181  29.531  27.447  1.00  0.00     0.076 C 
ATOM     31  C   UNL A   1      33.465  30.664  26.756  1.00  0.00     0.133 C 
ATOM     32  O   UNL A   1      33.922  31.809  26.790  1.00  0.00    -0.300 OA
ENDBRANCH  10  12
ENDBRANCH   9  10
ENDBRANCH   8   9
ENDBRANCH   6   8
ENDBRANCH   5   6
ENDBRANCH   4   5
ENDBRANCH   3   4
ENDBRANCH   2   3
ENDBRANCH   1   2
BRANCH   1  33
ATOM     33  C   UNL A   1      43.892  20.301  25.357  1.00  0.00     0.188 C 
BRANCH  33  34
ATOM     34  O   UNL A   1      43.578  21.644  25.005  1.00  0.00    -0.376 OA
BRANCH  34  35
ATOM     35  C   UNL A   1      43.589  22.601  26.057  1.00  0.00     0.202 C 
BRANCH  35  36
ATOM     36  C   UNL A   1      42.309  23.428  26.078  1.00  0.00     0.261 C 
BRANCH  36  37
ATOM     37  O   UNL A   1      42.605  24.803  26.327  1.00  0.00    -0.460 OA
BRANCH  37  38
ATOM     38  C   UNL A   1      41.566  25.657  26.234  1.00  0.00     0.338 C 
ATOM     39  O   UNL A   1      40.763  25.795  25.335  1.00  0.00    -0.246 OA
BRANCH  38  40
ATOM     40  C   UNL A   1      41.421  26.363  27.489  1.00  0.00     0.060 A 
ATOM     41  C   UNL A   1      42.254  27.463  27.741  1.00  0.00     0.016 A 
ATOM     42  C   UNL A   1      40.407  25.965  28.352  1.00  0.00     0.016 A 
ATOM     43  C   UNL A   1      42.007  28.241  28.854  1.00  0.00     0.010 A 
ATOM     44  C   UNL A   1      40.144  26.754  29.441  1.00  0.00     0.010 A 
ATOM     45  C   UNL A   1      40.934  27.892  29.678  1.00  0.00    -0.014 A 
BRANCH  45  46
ATOM     46  C   UNL A   1      40.604  28.663  30.872  1.00  0.00     0.031 A 
ATOM     47  C   UNL A   1      39.531  29.686  30.735  1.00  0.00     0.074 A 
ATOM     48  C   UNL A   1      41.414  28.551  31.935  1.00  0.00     0.049 A 
ATOM     49  N   UNL A   1      39.252  30.693  31.509  1.00  0.00    -0.248 NA
ATOM     50  C   UNL A   1      38.704  29.599  29.517  1.00  0.00     0.031 C 
ATOM     51  C   UNL A   1      42.506  27.582  32.071  1.00  0.00     0.029 A 
ATOM     52  N   UNL A   1      41.478  29.295  33.074  1.00  0.00    -0.354 N 
ATOM     53  C   UNL A   1      38.239  31.380  30.859  1.00  0.00     0.074 A 
ATOM     54  C   UNL A   1      37.988  30.708  29.605  1.00  0.00     0.031 C 
ATOM     55  C   UNL A   1      43.145  27.806  33.231  1.00  0.00     0.029 A 
ATOM     56  C   UNL A   1      42.530  28.953  33.885  1.00  0.00     0.049 A 
ATOM     57  H   UNL A   1      40.835  30.008  33.293  1.00  0.00     0.167 HD
ATOM     58  C   UNL A   1      37.580  32.476  31.295  1.00  0.00     0.037 A 
ATOM     59  C   UNL A   1      42.947  29.540  35.020  1.00  0.00     0.037 A 
ATOM     60  C   UNL A   1      37.882  33.101  32.553  1.00  0.00     0.049 A 
ATOM     61  C   UNL A   1      42.181  30.743  35.494  1.00  0.00     0.074 A 
ATOM     62  C   UNL A   1      37.275  34.185  33.153  1.00  0.00     0.029 A 
ATOM     63  N   UNL A   1      38.896  32.679  33.407  1.00  0.00    -0.354 N 
ATOM     64  N   UNL A   1      41.180  31.367  34.913  1.00  0.00    -0.248 NA
ATOM     65  C   UNL A   1      42.588  31.318  36.779  1.00  0.00     0.031 C 
ATOM     66  C   UNL A   1      37.945  34.441  34.355  1.00  0.00     0.029 A 
ATOM     67  C   UNL A   1      38.937  33.484  34.530  1.00  0.00     0.049 A 
ATOM     68  H   UNL A   1      39.497  31.918  33.237  1.00  0.00     0.167 HD
ATOM     69  C   UNL A   1      40.814  32.389  35.775  1.00  0.00     0.074 A 
ATOM     70  C   UNL A   1      41.696  32.288  36.924  1.00  0.00     0.031 C 
ATOM     71  C   UNL A   1      39.840  33.325  35.644  1.00  0.00     0.037 A 
BRANCH  58  72
ATOM     72  C   UNL A   1      36.513  33.035  30.402  1.00  0.00     0.057 A 
ATOM     73  C   UNL A   1      36.819  33.860  29.308  1.00  0.00     0.134 A 
ATOM     74  C   UNL A   1      35.159  32.783  30.655  1.00  0.00     0.134 A 
ATOM     75  F   UNL A   1      38.095  34.167  29.025  1.00  0.00    -0.206 F 
ATOM     76  C   UNL A   1      35.822  34.440  28.524  1.00  0.00     0.040 A 
ATOM     77  C   UNL A   1      34.152  33.333  29.857  1.00  0.00     0.040 A 
ATOM     78  F   UNL A   1      34.790  32.013  31.688  1.00  0.00    -0.206 F 
ATOM     79  C   UNL A   1      34.482  34.173  28.795  1.00  0.00     0.006 A 
ENDBRANCH  58  72
BRANCH  59  80
ATOM     80  C   UNL A   1      44.084  28.972  35.783  1.00  0.00     0.057 A 
ATOM     81  C   UNL A   1      45.375  29.490  35.626  1.00  0.00     0.134 A 
ATOM     82  C   UNL A   1      43.916  27.933  36.707  1.00  0.00     0.134 A 
ATOM     83  F   UNL A   1      45.600  30.484  34.754  1.00  0.00    -0.206 F 
ATOM     84  C   UNL A   1      46.461  28.984  36.341  1.00  0.00     0.040 A 
ATOM     85  C   UNL A   1      44.990  27.432  37.446  1.00  0.00     0.040 A 
ATOM     86  F   UNL A   1      42.702  27.407  36.922  1.00  0.00    -0.206 F 
ATOM     87  C   UNL A   1      46.269  27.953  37.259  1.00  0.00     0.006 A 
ENDBRANCH  59  80
BRANCH  71  88
ATOM     88  C   UNL A   1      39.667  34.268  36.794  1.00  0.00     0.057 A 
ATOM     89  C   UNL A   1      38.923  33.922  37.928  1.00  0.00     0.134 A 
ATOM     90  C   UNL A   1      40.286  35.525  36.775  1.00  0.00     0.134 A 
ATOM     91  F   UNL A   1      38.297  32.738  37.996  1.00  0.00    -0.206 F 
ATOM     92  C   UNL A   1      38.778  34.807  38.995  1.00  0.00     0.040 A 
ATOM     93  C   UNL A   1      40.173  36.404  37.849  1.00  0.00     0.040 A 
ATOM     94  F   UNL A   1      41.021  35.907  35.720  1.00  0.00    -0.206 F 
ATOM     95  C   UNL A   1      39.411  36.049  38.960  1.00  0.00     0.006 A 
ENDBRANCH  71  88
ENDBRANCH  45  46
ENDBRANCH  38  40
ENDBRANCH  37  38
ENDBRANCH  36  37
ENDBRANCH  35  36
ENDBRANCH  34  35
ENDBRANCH  33  34
ENDBRANCH   1  33
TORSDOF 20
ENDMDL
