MODEL 1
REMARK VINA RESULT:     -10.9      0.000      0.000
REMARK SMILES Cc1c(C)c2c(c(C)c1O)CC[C@@](C)(C(=O)OCCOCCOCCOC(=O)c1ccc(-c3c4nc(c(-c5c(F)cccc5F)c5ccc([nH]5)c(-c5c(F)cccc5F)c5nc(c(-c6c(F)cccc6F)c6ccc3[nH]6)C=C5)C=C4)cc1)O2
REMARK SMILES IDX 22 1 21 2 20 3 19 4 18 5 17 6 15 7 16 8 13 9 1 10 2 11 3 12
REMARK SMILES IDX 9 13 4 14 5 15 7 16 6 17 83 18 8 19 11 20 12 21 14 22 10 23
REMARK SMILES IDX 23 25 24 26 25 27 26 28 27 29 28 30 29 31 30 32 82 33 31 34
REMARK SMILES IDX 81 35 32 36 33 37 34 38 75 39 35 40 80 41 74 42 76 43 36 44
REMARK SMILES IDX 79 45 73 46 72 47 37 49 63 50 46 51 62 52 47 53 50 54 61 55
REMARK SMILES IDX 77 56 48 57 49 58 60 60 78 61 51 62 38 63 39 64 44 65 40 66
REMARK SMILES IDX 41 67 43 68 45 69 42 70 64 71 65 72 70 73 66 74 67 75 69 76
REMARK SMILES IDX 71 77 68 78 52 79 53 80 58 81 54 82 55 83 57 84 59 85 56 86
REMARK H PARENT 10 24 76 48 50 59
REMARK Flexibility Score: inf
ROOT
ATOM      1  C   UNL A   1      33.820  29.815  27.360  1.00  0.00     0.188 C 
ENDROOT
BRANCH   1   2
ATOM      2  C   UNL A   1      33.909  28.579  26.458  1.00  0.00     0.188 C 
BRANCH   2   3
ATOM      3  O   UNL A   1      33.078  28.510  25.308  1.00  0.00    -0.376 OA
BRANCH   3   4
ATOM      4  C   UNL A   1      33.631  28.818  24.034  1.00  0.00     0.202 C 
BRANCH   4   5
ATOM      5  C   UNL A   1      32.840  28.454  22.765  1.00  0.00     0.261 C 
BRANCH   5   6
ATOM      6  O   UNL A   1      32.171  27.169  22.740  1.00  0.00    -0.460 OA
BRANCH   6   7
ATOM      7  C   UNL A   1      32.989  26.081  22.634  1.00  0.00     0.350 C 
ATOM      8  O   UNL A   1      33.652  25.842  21.626  1.00  0.00    -0.247 OA
BRANCH   7   9
ATOM      9  C   UNL A   1      32.977  25.134  23.860  1.00  0.00     0.203 C 
ATOM     10  C   UNL A   1      32.154  19.015  23.794  1.00  0.00     0.049 C 
ATOM     11  C   UNL A   1      32.644  20.341  24.324  1.00  0.00    -0.002 A 
ATOM     12  C   UNL A   1      32.687  21.490  23.502  1.00  0.00    -0.002 A 
ATOM     13  C   UNL A   1      33.081  20.454  25.660  1.00  0.00     0.122 A 
ATOM     14  C   UNL A   1      32.306  21.407  22.042  1.00  0.00     0.049 C 
ATOM     15  C   UNL A   1      33.063  22.730  24.064  1.00  0.00     0.127 A 
ATOM     16  C   UNL A   1      33.533  21.673  26.198  1.00  0.00    -0.002 A 
ATOM     17  C   UNL A   1      33.535  22.825  25.383  1.00  0.00     0.001 A 
ATOM     18  O   UNL A   1      32.936  23.825  23.248  1.00  0.00    -0.475 OA
ATOM     19  C   UNL A   1      34.031  21.745  27.619  1.00  0.00     0.049 C 
ATOM     20  C   UNL A   1      34.013  24.152  25.925  1.00  0.00     0.044 C 
ATOM     21  C   UNL A   1      34.165  25.193  24.819  1.00  0.00     0.065 C 
ATOM     22  C   UNL A   1      31.651  25.441  24.577  1.00  0.00     0.069 C 
BRANCH  13  23
ATOM     23  O   UNL A   1      33.089  19.371  26.501  1.00  0.00    -0.507 OA
ATOM     24  H   UNL A   1      33.215  19.493  27.421  1.00  0.00     0.293 HD
ENDBRANCH  13  23
ENDBRANCH   7   9
ENDBRANCH   6   7
ENDBRANCH   5   6
ENDBRANCH   4   5
ENDBRANCH   3   4
ENDBRANCH   2   3
ENDBRANCH   1   2
BRANCH   1  25
ATOM     25  O   UNL A   1      33.481  31.004  26.683  1.00  0.00    -0.376 OA
BRANCH  25  26
ATOM     26  C   UNL A   1      32.188  31.545  26.873  1.00  0.00     0.202 C 
BRANCH  26  27
ATOM     27  C   UNL A   1      32.080  33.079  26.878  1.00  0.00     0.261 C 
BRANCH  27  28
ATOM     28  O   UNL A   1      32.156  33.718  28.165  1.00  0.00    -0.460 OA
BRANCH  28  29
ATOM     29  C   UNL A   1      33.183  34.576  28.377  1.00  0.00     0.338 C 
ATOM     30  O   UNL A   1      33.123  35.794  28.413  1.00  0.00    -0.246 OA
BRANCH  29  31
ATOM     31  C   UNL A   1      34.339  33.766  28.839  1.00  0.00     0.060 A 
ATOM     32  C   UNL A   1      34.115  32.730  29.760  1.00  0.00     0.016 A 
ATOM     33  C   UNL A   1      35.616  33.967  28.310  1.00  0.00     0.016 A 
ATOM     34  C   UNL A   1      35.166  31.893  30.147  1.00  0.00     0.010 A 
ATOM     35  C   UNL A   1      36.673  33.148  28.723  1.00  0.00     0.010 A 
ATOM     36  C   UNL A   1      36.459  32.118  29.657  1.00  0.00    -0.014 A 
BRANCH  36  37
ATOM     37  C   UNL A   1      37.613  31.400  30.258  1.00  0.00     0.031 A 
ATOM     38  C   UNL A   1      37.967  31.690  31.690  1.00  0.00     0.074 A 
ATOM     39  C   UNL A   1      38.323  30.489  29.567  1.00  0.00     0.049 A 
ATOM     40  N   UNL A   1      38.927  31.194  32.428  1.00  0.00    -0.248 NA
ATOM     41  C   UNL A   1      37.121  32.676  32.386  1.00  0.00     0.031 C 
ATOM     42  C   UNL A   1      38.068  30.083  28.187  1.00  0.00     0.029 A 
ATOM     43  N   UNL A   1      39.412  29.738  29.942  1.00  0.00    -0.354 N 
ATOM     44  C   UNL A   1      38.794  31.795  33.672  1.00  0.00     0.074 A 
ATOM     45  C   UNL A   1      37.691  32.728  33.579  1.00  0.00     0.031 C 
ATOM     46  C   UNL A   1      38.976  29.156  27.831  1.00  0.00     0.029 A 
ATOM     47  C   UNL A   1      39.893  28.920  28.948  1.00  0.00     0.049 A 
ATOM     48  H   UNL A   1      39.811  29.782  30.842  1.00  0.00     0.167 HD
ATOM     49  C   UNL A   1      39.509  31.575  34.799  1.00  0.00     0.037 A 
ATOM     50  C   UNL A   1      40.953  28.085  28.938  1.00  0.00     0.037 A 
ATOM     51  C   UNL A   1      40.608  30.654  34.897  1.00  0.00     0.049 A 
ATOM     52  C   UNL A   1      41.800  27.932  30.177  1.00  0.00     0.074 A 
ATOM     53  C   UNL A   1      41.383  30.360  36.005  1.00  0.00     0.029 A 
ATOM     54  N   UNL A   1      41.095  29.888  33.851  1.00  0.00    -0.354 N 
ATOM     55  N   UNL A   1      41.641  28.475  31.359  1.00  0.00    -0.248 NA
ATOM     56  C   UNL A   1      42.975  27.049  30.081  1.00  0.00     0.031 C 
ATOM     57  C   UNL A   1      42.374  29.457  35.616  1.00  0.00     0.029 A 
ATOM     58  C   UNL A   1      42.179  29.143  34.281  1.00  0.00     0.049 A 
ATOM     59  H   UNL A   1      40.725  29.875  32.939  1.00  0.00     0.167 HD
ATOM     60  C   UNL A   1      42.669  27.977  32.152  1.00  0.00     0.074 A 
ATOM     61  C   UNL A   1      43.446  27.084  31.321  1.00  0.00     0.031 C 
ATOM     62  C   UNL A   1      42.939  28.239  33.454  1.00  0.00     0.037 A 
BRANCH  49  63
ATOM     63  C   UNL A   1      39.127  32.346  36.027  1.00  0.00     0.057 A 
ATOM     64  C   UNL A   1      38.269  31.808  36.994  1.00  0.00     0.134 A 
ATOM     65  C   UNL A   1      39.675  33.610  36.279  1.00  0.00     0.134 A 
ATOM     66  F   UNL A   1      37.702  30.606  36.807  1.00  0.00    -0.206 F 
ATOM     67  C   UNL A   1      37.960  32.504  38.164  1.00  0.00     0.040 A 
ATOM     68  C   UNL A   1      39.395  34.304  37.457  1.00  0.00     0.040 A 
ATOM     69  F   UNL A   1      40.509  34.180  35.395  1.00  0.00    -0.206 F 
ATOM     70  C   UNL A   1      38.533  33.751  38.401  1.00  0.00     0.006 A 
ENDBRANCH  49  63
BRANCH  50  71
ATOM     71  C   UNL A   1      41.270  27.308  27.711  1.00  0.00     0.057 A 
ATOM     72  C   UNL A   1      42.057  27.856  26.691  1.00  0.00     0.134 A 
ATOM     73  C   UNL A   1      40.793  26.005  27.524  1.00  0.00     0.134 A 
ATOM     74  F   UNL A   1      42.520  29.111  26.798  1.00  0.00    -0.206 F 
ATOM     75  C   UNL A   1      42.356  27.141  25.530  1.00  0.00     0.040 A 
ATOM     76  C   UNL A   1      41.104  25.268  26.379  1.00  0.00     0.040 A 
ATOM     77  F   UNL A   1      40.026  25.424  28.459  1.00  0.00    -0.206 F 
ATOM     78  C   UNL A   1      41.884  25.838  25.376  1.00  0.00     0.006 A 
ENDBRANCH  50  71
BRANCH  62  79
ATOM     79  C   UNL A   1      44.101  27.541  34.100  1.00  0.00     0.057 A 
ATOM     80  C   UNL A   1      45.359  28.146  34.201  1.00  0.00     0.134 A 
ATOM     81  C   UNL A   1      43.922  26.310  34.747  1.00  0.00     0.134 A 
ATOM     82  F   UNL A   1      45.599  29.321  33.600  1.00  0.00    -0.206 F 
ATOM     83  C   UNL A   1      46.397  27.555  34.926  1.00  0.00     0.040 A 
ATOM     84  C   UNL A   1      44.942  25.721  35.497  1.00  0.00     0.040 A 
ATOM     85  F   UNL A   1      42.737  25.683  34.702  1.00  0.00    -0.206 F 
ATOM     86  C   UNL A   1      46.184  26.347  35.589  1.00  0.00     0.006 A 
ENDBRANCH  62  79
ENDBRANCH  36  37
ENDBRANCH  29  31
ENDBRANCH  28  29
ENDBRANCH  27  28
ENDBRANCH  26  27
ENDBRANCH  25  26
ENDBRANCH   1  25
TORSDOF 18
ENDMDL
MODEL 2
REMARK VINA RESULT:     -10.9      2.801      8.484
REMARK SMILES Cc1c(C)c2c(c(C)c1O)CC[C@@](C)(C(=O)OCCOCCOCCOC(=O)c1ccc(-c3c4nc(c(-c5c(F)cccc5F)c5ccc([nH]5)c(-c5c(F)cccc5F)c5nc(c(-c6c(F)cccc6F)c6ccc3[nH]6)C=C5)C=C4)cc1)O2
REMARK SMILES IDX 22 1 21 2 20 3 19 4 18 5 17 6 15 7 16 8 13 9 1 10 2 11 3 12
REMARK SMILES IDX 9 13 4 14 5 15 7 16 6 17 83 18 8 19 11 20 12 21 14 22 10 23
REMARK SMILES IDX 23 25 24 26 25 27 26 28 27 29 28 30 29 31 30 32 82 33 31 34
REMARK SMILES IDX 81 35 32 36 33 37 34 38 75 39 35 40 80 41 74 42 76 43 36 44
REMARK SMILES IDX 79 45 73 46 72 47 37 49 63 50 46 51 62 52 47 53 50 54 61 55
REMARK SMILES IDX 77 56 48 57 49 58 60 60 78 61 51 62 38 63 39 64 44 65 40 66
REMARK SMILES IDX 41 67 43 68 45 69 42 70 64 71 65 72 70 73 66 74 67 75 69 76
REMARK SMILES IDX 71 77 68 78 52 79 53 80 58 81 54 82 55 83 57 84 59 85 56 86
REMARK H PARENT 10 24 76 48 50 59
REMARK Flexibility Score: inf
ROOT
ATOM      1  C   UNL A   1      39.961  20.963  26.102  1.00  0.00     0.188 C 
ENDROOT
BRANCH   1   2
ATOM      2  C   UNL A   1      38.740  21.828  25.770  1.00  0.00     0.188 C 
BRANCH   2   3
ATOM      3  O   UNL A   1      38.536  23.032  26.497  1.00  0.00    -0.376 OA
BRANCH   3   4
ATOM      4  C   UNL A   1      37.467  23.893  26.125  1.00  0.00     0.202 C 
BRANCH   4   5
ATOM      5  C   UNL A   1      36.453  23.418  25.070  1.00  0.00     0.261 C 
BRANCH   5   6
ATOM      6  O   UNL A   1      35.286  24.246  24.844  1.00  0.00    -0.460 OA
BRANCH   6   7
ATOM      7  C   UNL A   1      34.695  24.110  23.622  1.00  0.00     0.350 C 
ATOM      8  O   UNL A   1      35.122  23.347  22.756  1.00  0.00    -0.247 OA
BRANCH   7   9
ATOM      9  C   UNL A   1      33.473  25.032  23.381  1.00  0.00     0.203 C 
ATOM     10  C   UNL A   1      32.059  30.179  26.485  1.00  0.00     0.049 C 
ATOM     11  C   UNL A   1      32.075  29.230  25.311  1.00  0.00    -0.002 A 
ATOM     12  C   UNL A   1      33.001  28.164  25.241  1.00  0.00    -0.002 A 
ATOM     13  C   UNL A   1      31.162  29.398  24.250  1.00  0.00     0.122 A 
ATOM     14  C   UNL A   1      34.053  27.985  26.312  1.00  0.00     0.049 C 
ATOM     15  C   UNL A   1      32.919  27.245  24.172  1.00  0.00     0.127 A 
ATOM     16  C   UNL A   1      31.134  28.529  23.144  1.00  0.00    -0.002 A 
ATOM     17  C   UNL A   1      32.035  27.444  23.099  1.00  0.00     0.001 A 
ATOM     18  O   UNL A   1      33.748  26.155  24.248  1.00  0.00    -0.475 OA
ATOM     19  C   UNL A   1      30.171  28.766  22.008  1.00  0.00     0.049 C 
ATOM     20  C   UNL A   1      32.034  26.489  21.928  1.00  0.00     0.044 C 
ATOM     21  C   UNL A   1      33.238  25.551  21.963  1.00  0.00     0.065 C 
ATOM     22  C   UNL A   1      32.268  24.227  23.899  1.00  0.00     0.069 C 
BRANCH  13  23
ATOM     23  O   UNL A   1      30.256  30.428  24.246  1.00  0.00    -0.507 OA
ATOM     24  H   UNL A   1      29.601  30.477  24.913  1.00  0.00     0.293 HD
ENDBRANCH  13  23
ENDBRANCH   7   9
ENDBRANCH   6   7
ENDBRANCH   5   6
ENDBRANCH   4   5
ENDBRANCH   3   4
ENDBRANCH   2   3
ENDBRANCH   1   2
BRANCH   1  25
ATOM     25  O   UNL A   1      41.129  21.695  26.389  1.00  0.00    -0.376 OA
BRANCH  25  26
ATOM     26  C   UNL A   1      42.384  21.096  26.131  1.00  0.00     0.202 C 
BRANCH  26  27
ATOM     27  C   UNL A   1      43.410  21.951  25.368  1.00  0.00     0.261 C 
BRANCH  27  28
ATOM     28  O   UNL A   1      43.022  23.306  25.081  1.00  0.00    -0.460 OA
BRANCH  28  29
ATOM     29  C   UNL A   1      43.932  24.281  25.319  1.00  0.00     0.338 C 
ATOM     30  O   UNL A   1      44.892  24.571  24.625  1.00  0.00    -0.246 OA
BRANCH  29  31
ATOM     31  C   UNL A   1      43.395  25.117  26.423  1.00  0.00     0.060 A 
ATOM     32  C   UNL A   1      43.945  26.391  26.637  1.00  0.00     0.016 A 
ATOM     33  C   UNL A   1      42.307  24.688  27.187  1.00  0.00     0.016 A 
ATOM     34  C   UNL A   1      43.405  27.237  27.610  1.00  0.00     0.010 A 
ATOM     35  C   UNL A   1      41.787  25.524  28.182  1.00  0.00     0.010 A 
ATOM     36  C   UNL A   1      42.344  26.796  28.412  1.00  0.00    -0.014 A 
BRANCH  36  37
ATOM     37  C   UNL A   1      41.940  27.585  29.605  1.00  0.00     0.031 A 
ATOM     38  C   UNL A   1      40.766  28.516  29.480  1.00  0.00     0.074 A 
ATOM     39  C   UNL A   1      42.575  27.466  30.785  1.00  0.00     0.049 A 
ATOM     40  N   UNL A   1      40.231  29.305  30.376  1.00  0.00    -0.248 NA
ATOM     41  C   UNL A   1      40.106  28.564  28.165  1.00  0.00     0.031 C 
ATOM     42  C   UNL A   1      43.701  26.576  31.058  1.00  0.00     0.029 A 
ATOM     43  N   UNL A   1      42.356  28.107  31.983  1.00  0.00    -0.354 N 
ATOM     44  C   UNL A   1      39.168  29.931  29.739  1.00  0.00     0.074 A 
ATOM     45  C   UNL A   1      39.161  29.468  28.368  1.00  0.00     0.031 C 
ATOM     46  C   UNL A   1      44.074  26.727  32.342  1.00  0.00     0.029 A 
ATOM     47  C   UNL A   1      43.231  27.743  32.976  1.00  0.00     0.049 A 
ATOM     48  H   UNL A   1      41.636  28.766  32.116  1.00  0.00     0.167 HD
ATOM     49  C   UNL A   1      38.264  30.797  30.252  1.00  0.00     0.037 A 
ATOM     50  C   UNL A   1      43.346  28.182  34.247  1.00  0.00     0.037 A 
ATOM     51  C   UNL A   1      38.267  31.264  31.611  1.00  0.00     0.049 A 
ATOM     52  C   UNL A   1      42.388  29.225  34.769  1.00  0.00     0.074 A 
ATOM     53  C   UNL A   1      37.381  32.135  32.220  1.00  0.00     0.029 A 
ATOM     54  N   UNL A   1      39.206  30.911  32.567  1.00  0.00    -0.354 N 
ATOM     55  N   UNL A   1      41.363  29.780  34.170  1.00  0.00    -0.248 NA
ATOM     56  C   UNL A   1      42.603  29.703  36.145  1.00  0.00     0.031 C 
ATOM     57  C   UNL A   1      37.814  32.352  33.529  1.00  0.00     0.029 A 
ATOM     58  C   UNL A   1      38.936  31.571  33.754  1.00  0.00     0.049 A 
ATOM     59  H   UNL A   1      39.952  30.286  32.424  1.00  0.00     0.167 HD
ATOM     60  C   UNL A   1      40.795  30.643  35.101  1.00  0.00     0.074 A 
ATOM     61  C   UNL A   1      41.584  30.537  36.309  1.00  0.00     0.031 C 
ATOM     62  C   UNL A   1      39.713  31.447  34.962  1.00  0.00     0.037 A 
BRANCH  49  63
ATOM     63  C   UNL A   1      37.186  31.300  29.338  1.00  0.00     0.057 A 
ATOM     64  C   UNL A   1      36.043  30.539  29.064  1.00  0.00     0.134 A 
ATOM     65  C   UNL A   1      37.259  32.583  28.783  1.00  0.00     0.134 A 
ATOM     66  F   UNL A   1      35.917  29.297  29.557  1.00  0.00    -0.206 F 
ATOM     67  C   UNL A   1      35.014  31.033  28.260  1.00  0.00     0.040 A 
ATOM     68  C   UNL A   1      36.225  33.098  28.001  1.00  0.00     0.040 A 
ATOM     69  F   UNL A   1      38.325  33.366  29.013  1.00  0.00    -0.206 F 
ATOM     70  C   UNL A   1      35.100  32.320  27.735  1.00  0.00     0.006 A 
ENDBRANCH  49  63
BRANCH  50  71
ATOM     71  C   UNL A   1      44.402  27.625  35.131  1.00  0.00     0.057 A 
ATOM     72  C   UNL A   1      44.197  26.436  35.842  1.00  0.00     0.134 A 
ATOM     73  C   UNL A   1      45.638  28.264  35.292  1.00  0.00     0.134 A 
ATOM     74  F   UNL A   1      43.025  25.792  35.753  1.00  0.00    -0.206 F 
ATOM     75  C   UNL A   1      45.178  25.906  36.682  1.00  0.00     0.040 A 
ATOM     76  C   UNL A   1      46.638  27.732  36.109  1.00  0.00     0.040 A 
ATOM     77  F   UNL A   1      45.896  29.412  34.645  1.00  0.00    -0.206 F 
ATOM     78  C   UNL A   1      46.407  26.552  36.810  1.00  0.00     0.006 A 
ENDBRANCH  50  71
BRANCH  62  79
ATOM     79  C   UNL A   1      39.273  32.268  36.140  1.00  0.00     0.057 A 
ATOM     80  C   UNL A   1      39.735  33.574  36.341  1.00  0.00     0.134 A 
ATOM     81  C   UNL A   1      38.274  31.796  37.004  1.00  0.00     0.134 A 
ATOM     82  F   UNL A   1      40.695  34.084  35.554  1.00  0.00    -0.206 F 
ATOM     83  C   UNL A   1      39.217  34.383  37.355  1.00  0.00     0.040 A 
ATOM     84  C   UNL A   1      37.729  32.603  38.004  1.00  0.00     0.040 A 
ATOM     85  F   UNL A   1      37.777  30.558  36.857  1.00  0.00    -0.206 F 
ATOM     86  C   UNL A   1      38.201  33.903  38.180  1.00  0.00     0.006 A 
ENDBRANCH  62  79
ENDBRANCH  36  37
ENDBRANCH  29  31
ENDBRANCH  28  29
ENDBRANCH  27  28
ENDBRANCH  26  27
ENDBRANCH  25  26
ENDBRANCH   1  25
TORSDOF 18
ENDMDL
MODEL 3
REMARK VINA RESULT:     -10.8      2.778      8.194
REMARK SMILES Cc1c(C)c2c(c(C)c1O)CC[C@@](C)(C(=O)OCCOCCOCCOC(=O)c1ccc(-c3c4nc(c(-c5c(F)cccc5F)c5ccc([nH]5)c(-c5c(F)cccc5F)c5nc(c(-c6c(F)cccc6F)c6ccc3[nH]6)C=C5)C=C4)cc1)O2
REMARK SMILES IDX 22 1 21 2 20 3 19 4 18 5 17 6 15 7 16 8 13 9 1 10 2 11 3 12
REMARK SMILES IDX 9 13 4 14 5 15 7 16 6 17 83 18 8 19 11 20 12 21 14 22 10 23
REMARK SMILES IDX 23 25 24 26 25 27 26 28 27 29 28 30 29 31 30 32 82 33 31 34
REMARK SMILES IDX 81 35 32 36 33 37 34 38 75 39 35 40 80 41 74 42 76 43 36 44
REMARK SMILES IDX 79 45 73 46 72 47 37 49 63 50 46 51 62 52 47 53 50 54 61 55
REMARK SMILES IDX 77 56 48 57 49 58 60 60 78 61 51 62 38 63 39 64 44 65 40 66
REMARK SMILES IDX 41 67 43 68 45 69 42 70 64 71 65 72 70 73 66 74 67 75 69 76
REMARK SMILES IDX 71 77 68 78 52 79 53 80 58 81 54 82 55 83 57 84 59 85 56 86
REMARK H PARENT 10 24 76 48 50 59
REMARK Flexibility Score: inf
ROOT
ATOM      1  C   UNL A   1      39.729  20.973  25.981  1.00  0.00     0.188 C 
ENDROOT
BRANCH   1   2
ATOM      2  C   UNL A   1      38.471  21.831  25.807  1.00  0.00     0.188 C 
BRANCH   2   3
ATOM      3  O   UNL A   1      38.495  23.179  26.257  1.00  0.00    -0.376 OA
BRANCH   3   4
ATOM      4  C   UNL A   1      37.413  24.040  25.921  1.00  0.00     0.202 C 
BRANCH   4   5
ATOM      5  C   UNL A   1      36.354  23.557  24.914  1.00  0.00     0.261 C 
BRANCH   5   6
ATOM      6  O   UNL A   1      35.169  24.374  24.748  1.00  0.00    -0.460 OA
BRANCH   6   7
ATOM      7  C   UNL A   1      34.481  24.183  23.585  1.00  0.00     0.350 C 
ATOM      8  O   UNL A   1      34.821  23.360  22.737  1.00  0.00    -0.247 OA
BRANCH   7   9
ATOM      9  C   UNL A   1      33.265  25.124  23.384  1.00  0.00     0.203 C 
ATOM     10  C   UNL A   1      32.108  30.369  26.428  1.00  0.00     0.049 C 
ATOM     11  C   UNL A   1      32.046  29.392  25.279  1.00  0.00    -0.002 A 
ATOM     12  C   UNL A   1      32.947  28.307  25.188  1.00  0.00    -0.002 A 
ATOM     13  C   UNL A   1      31.083  29.553  24.261  1.00  0.00     0.122 A 
ATOM     14  C   UNL A   1      34.049  28.134  26.208  1.00  0.00     0.049 C 
ATOM     15  C   UNL A   1      32.793  27.365  24.147  1.00  0.00     0.127 A 
ATOM     16  C   UNL A   1      30.982  28.659  23.180  1.00  0.00    -0.002 A 
ATOM     17  C   UNL A   1      31.860  27.556  23.116  1.00  0.00     0.001 A 
ATOM     18  O   UNL A   1      33.605  26.261  24.208  1.00  0.00    -0.475 OA
ATOM     19  C   UNL A   1      29.967  28.888  22.089  1.00  0.00     0.049 C 
ATOM     20  C   UNL A   1      31.781  26.574  21.971  1.00  0.00     0.044 C 
ATOM     21  C   UNL A   1      32.967  25.613  21.968  1.00  0.00     0.065 C 
ATOM     22  C   UNL A   1      32.074  24.355  23.983  1.00  0.00     0.069 C 
BRANCH  13  23
ATOM     23  O   UNL A   1      30.197  30.600  24.278  1.00  0.00    -0.507 OA
ATOM     24  H   UNL A   1      30.288  31.300  23.662  1.00  0.00     0.293 HD
ENDBRANCH  13  23
ENDBRANCH   7   9
ENDBRANCH   6   7
ENDBRANCH   5   6
ENDBRANCH   4   5
ENDBRANCH   3   4
ENDBRANCH   2   3
ENDBRANCH   1   2
BRANCH   1  25
ATOM     25  O   UNL A   1      40.875  21.696  26.366  1.00  0.00    -0.376 OA
BRANCH  25  26
ATOM     26  C   UNL A   1      42.147  21.128  26.123  1.00  0.00     0.202 C 
BRANCH  26  27
ATOM     27  C   UNL A   1      43.166  22.013  25.388  1.00  0.00     0.261 C 
BRANCH  27  28
ATOM     28  O   UNL A   1      42.780  23.382  25.169  1.00  0.00    -0.460 OA
BRANCH  28  29
ATOM     29  C   UNL A   1      43.731  24.333  25.328  1.00  0.00     0.338 C 
ATOM     30  O   UNL A   1      44.640  24.594  24.559  1.00  0.00    -0.246 OA
BRANCH  29  31
ATOM     31  C   UNL A   1      43.305  25.188  26.466  1.00  0.00     0.060 A 
ATOM     32  C   UNL A   1      42.355  24.688  27.371  1.00  0.00     0.016 A 
ATOM     33  C   UNL A   1      43.894  26.436  26.689  1.00  0.00     0.016 A 
ATOM     34  C   UNL A   1      41.998  25.431  28.500  1.00  0.00     0.010 A 
ATOM     35  C   UNL A   1      43.512  27.192  27.803  1.00  0.00     0.010 A 
ATOM     36  C   UNL A   1      42.549  26.703  28.706  1.00  0.00    -0.014 A 
BRANCH  36  37
ATOM     37  C   UNL A   1      41.986  27.593  29.754  1.00  0.00     0.031 A 
ATOM     38  C   UNL A   1      42.653  27.618  31.101  1.00  0.00     0.074 A 
ATOM     39  C   UNL A   1      40.925  28.386  29.519  1.00  0.00     0.049 A 
ATOM     40  N   UNL A   1      42.345  28.308  32.169  1.00  0.00    -0.248 NA
ATOM     41  C   UNL A   1      43.828  26.745  31.266  1.00  0.00     0.031 C 
ATOM     42  C   UNL A   1      40.206  28.491  28.253  1.00  0.00     0.029 A 
ATOM     43  N   UNL A   1      40.265  29.260  30.353  1.00  0.00    -0.354 N 
ATOM     44  C   UNL A   1      43.291  27.963  33.125  1.00  0.00     0.074 A 
ATOM     45  C   UNL A   1      44.156  26.968  32.529  1.00  0.00     0.031 C 
ATOM     46  C   UNL A   1      39.205  29.379  28.392  1.00  0.00     0.029 A 
ATOM     47  C   UNL A   1      39.194  29.887  29.765  1.00  0.00     0.049 A 
ATOM     48  H   UNL A   1      40.537  29.422  31.286  1.00  0.00     0.167 HD
ATOM     49  C   UNL A   1      43.443  28.446  34.380  1.00  0.00     0.037 A 
ATOM     50  C   UNL A   1      38.304  30.764  30.276  1.00  0.00     0.037 A 
ATOM     51  C   UNL A   1      42.585  29.431  34.980  1.00  0.00     0.049 A 
ATOM     52  C   UNL A   1      38.432  31.212  31.711  1.00  0.00     0.074 A 
ATOM     53  C   UNL A   1      42.672  29.987  36.244  1.00  0.00     0.029 A 
ATOM     54  N   UNL A   1      41.480  29.998  34.366  1.00  0.00    -0.354 N 
ATOM     55  N   UNL A   1      39.353  30.910  32.592  1.00  0.00    -0.248 NA
ATOM     56  C   UNL A   1      37.395  32.125  32.222  1.00  0.00     0.031 C 
ATOM     57  C   UNL A   1      41.588  30.849  36.416  1.00  0.00     0.029 A 
ATOM     58  C   UNL A   1      40.859  30.876  35.238  1.00  0.00     0.049 A 
ATOM     59  H   UNL A   1      41.181  29.805  33.448  1.00  0.00     0.167 HD
ATOM     60  C   UNL A   1      39.028  31.616  33.745  1.00  0.00     0.074 A 
ATOM     61  C   UNL A   1      37.827  32.368  33.454  1.00  0.00     0.031 C 
ATOM     62  C   UNL A   1      39.674  31.639  34.937  1.00  0.00     0.037 A 
BRANCH  49  63
ATOM     63  C   UNL A   1      44.584  27.917  35.196  1.00  0.00     0.057 A 
ATOM     64  C   UNL A   1      45.814  28.584  35.257  1.00  0.00     0.134 A 
ATOM     65  C   UNL A   1      44.430  26.768  35.982  1.00  0.00     0.134 A 
ATOM     66  F   UNL A   1      46.028  29.685  34.519  1.00  0.00    -0.206 F 
ATOM     67  C   UNL A   1      46.855  28.121  36.062  1.00  0.00     0.040 A 
ATOM     68  C   UNL A   1      45.454  26.311  36.812  1.00  0.00     0.040 A 
ATOM     69  F   UNL A   1      43.274  26.086  35.974  1.00  0.00    -0.206 F 
ATOM     70  C   UNL A   1      46.672  26.987  36.851  1.00  0.00     0.006 A 
ENDBRANCH  49  63
BRANCH  50  71
ATOM     71  C   UNL A   1      37.213  31.295  29.418  1.00  0.00     0.057 A 
ATOM     72  C   UNL A   1      37.303  32.567  28.840  1.00  0.00     0.134 A 
ATOM     73  C   UNL A   1      36.055  30.552  29.157  1.00  0.00     0.134 A 
ATOM     74  F   UNL A   1      38.373  33.340  29.075  1.00  0.00    -0.206 F 
ATOM     75  C   UNL A   1      36.282  33.082  28.039  1.00  0.00     0.040 A 
ATOM     76  C   UNL A   1      35.037  31.044  28.338  1.00  0.00     0.040 A 
ATOM     77  F   UNL A   1      35.902  29.329  29.688  1.00  0.00    -0.206 F 
ATOM     78  C   UNL A   1      35.147  32.315  27.780  1.00  0.00     0.006 A 
ENDBRANCH  50  71
BRANCH  62  79
ATOM     79  C   UNL A   1      39.135  32.518  36.028  1.00  0.00     0.057 A 
ATOM     80  C   UNL A   1      38.261  32.029  37.005  1.00  0.00     0.134 A 
ATOM     81  C   UNL A   1      39.605  33.831  36.181  1.00  0.00     0.134 A 
ATOM     82  F   UNL A   1      37.769  30.784  36.915  1.00  0.00    -0.206 F 
ATOM     83  C   UNL A   1      37.876  32.810  38.097  1.00  0.00     0.040 A 
ATOM     84  C   UNL A   1      39.249  34.613  37.281  1.00  0.00     0.040 A 
ATOM     85  F   UNL A   1      40.458  34.357  35.288  1.00  0.00    -0.206 F 
ATOM     86  C   UNL A   1      38.383  34.100  38.245  1.00  0.00     0.006 A 
ENDBRANCH  62  79
ENDBRANCH  36  37
ENDBRANCH  29  31
ENDBRANCH  28  29
ENDBRANCH  27  28
ENDBRANCH  26  27
ENDBRANCH  25  26
ENDBRANCH   1  25
TORSDOF 18
ENDMDL
