MODEL 1
REMARK VINA RESULT:     -11.8      0.000      0.000
REMARK SMILES Cc1ccccc1-n1nc(Cl)c(C(=O)OCCOCCOCCOC(=O)c2ccc(-c3c4nc(c(-c5c(F)cccc5F)c5ccc([nH]5)c(-c5c(F)cccc5F)c5nc(c(-c6c(F)cccc6F)c6ccc3[nH]6)C=C5)C=C4)cc2)n1
REMARK SMILES IDX 20 1 19 2 18 3 17 4 16 5 15 6 13 7 14 8 12 9 8 10 9 11 81 12
REMARK SMILES IDX 10 13 11 14 7 15 1 16 2 17 3 18 4 19 6 20 5 21 21 22 22 23
REMARK SMILES IDX 23 24 24 25 25 26 26 27 27 28 28 29 80 30 29 31 79 32 30 33
REMARK SMILES IDX 31 34 32 35 73 36 33 37 78 38 72 39 74 40 34 41 77 42 71 43
REMARK SMILES IDX 70 44 35 46 61 47 44 48 60 49 45 50 48 51 59 52 75 53 46 54
REMARK SMILES IDX 47 55 58 57 76 58 49 59 36 60 37 61 42 62 38 63 39 64 41 65
REMARK SMILES IDX 43 66 40 67 62 68 63 69 68 70 64 71 65 72 67 73 69 74 66 75
REMARK SMILES IDX 50 76 51 77 56 78 52 79 53 80 55 81 57 82 54 83
REMARK H PARENT 74 45 48 56
REMARK Flexibility Score: inf
ROOT
ATOM      1  C   UNL A   1      35.543  33.239  28.253  1.00  0.00     0.188 C 
ENDROOT
BRANCH   1   2
ATOM      2  C   UNL A   1      34.700  32.006  28.438  1.00  0.00     0.188 C 
BRANCH   2   3
ATOM      3  O   UNL A   1      34.882  30.813  27.695  1.00  0.00    -0.376 OA
BRANCH   3   4
ATOM      4  C   UNL A   1      33.982  29.990  26.957  1.00  0.00     0.202 C 
BRANCH   4   5
ATOM      5  C   UNL A   1      33.871  28.335  26.780  1.00  0.00     0.261 C 
BRANCH   5   6
ATOM      6  O   UNL A   1      32.670  27.247  26.246  1.00  0.00    -0.458 OA
BRANCH   6   7
ATOM      7  C   UNL A   1      32.348  26.363  25.144  1.00  0.00     0.362 C 
ATOM      8  O   UNL A   1      31.292  25.787  24.982  1.00  0.00    -0.244 OA
BRANCH   7   9
ATOM      9  C   UNL A   1      33.344  25.863  24.208  1.00  0.00     0.209 A 
ATOM     10  N   UNL A   1      34.494  24.271  23.560  1.00  0.00    -0.149 N 
ATOM     11  N   UNL A   1      34.027  24.695  22.376  1.00  0.00    -0.135 NA
ATOM     12  N   UNL A   1      34.358  25.100  24.625  1.00  0.00    -0.139 NA
ATOM     13  C   UNL A   1      33.134  25.592  22.806  1.00  0.00     0.186 A 
ATOM     14  Cl  UNL A   1      31.899  26.064  21.743  1.00  0.00    -0.057 Cl
BRANCH  10  15
ATOM     15  C   UNL A   1      35.023  22.997  23.746  1.00  0.00     0.089 A 
ATOM     16  C   UNL A   1      32.702  21.971  24.169  1.00  0.00     0.047 C 
ATOM     17  C   UNL A   1      34.208  21.978  24.277  1.00  0.00    -0.023 A 
ATOM     18  C   UNL A   1      34.851  20.921  24.918  1.00  0.00     0.006 A 
ATOM     19  C   UNL A   1      36.249  20.876  24.974  1.00  0.00     0.000 A 
ATOM     20  C   UNL A   1      36.413  22.908  23.689  1.00  0.00     0.030 A 
ATOM     21  C   UNL A   1      37.027  21.843  24.329  1.00  0.00     0.002 A 
ENDBRANCH  10  15
ENDBRANCH   7   9
ENDBRANCH   6   7
ENDBRANCH   5   6
ENDBRANCH   4   5
ENDBRANCH   3   4
ENDBRANCH   2   3
ENDBRANCH   1   2
BRANCH   1  22
ATOM     22  O   UNL A   1      35.139  34.234  29.168  1.00  0.00    -0.376 OA
BRANCH  22  23
ATOM     23  C   UNL A   1      34.137  35.095  28.645  1.00  0.00     0.202 C 
BRANCH  23  24
ATOM     24  C   UNL A   1      33.176  35.639  29.722  1.00  0.00     0.261 C 
BRANCH  24  25
ATOM     25  O   UNL A   1      33.105  34.725  30.841  1.00  0.00    -0.460 OA
BRANCH  25  26
ATOM     26  C   UNL A   1      33.377  35.218  32.096  1.00  0.00     0.338 C 
ATOM     27  O   UNL A   1      32.997  36.286  32.533  1.00  0.00    -0.246 OA
BRANCH  26  28
ATOM     28  C   UNL A   1      34.467  34.386  32.712  1.00  0.00     0.060 A 
ATOM     29  C   UNL A   1      35.700  34.864  33.153  1.00  0.00     0.016 A 
ATOM     30  C   UNL A   1      34.432  33.064  32.462  1.00  0.00     0.016 A 
ATOM     31  C   UNL A   1      36.924  34.078  33.018  1.00  0.00     0.010 A 
ATOM     32  C   UNL A   1      35.657  32.442  32.175  1.00  0.00     0.010 A 
ATOM     33  C   UNL A   1      37.002  32.852  32.339  1.00  0.00    -0.014 A 
BRANCH  33  34
ATOM     34  C   UNL A   1      38.442  32.216  31.727  1.00  0.00     0.031 A 
ATOM     35  C   UNL A   1      38.847  31.032  30.680  1.00  0.00     0.074 A 
ATOM     36  C   UNL A   1      39.607  32.730  32.198  1.00  0.00     0.049 A 
ATOM     37  N   UNL A   1      39.456  29.911  31.028  1.00  0.00    -0.248 NA
ATOM     38  C   UNL A   1      38.566  30.951  29.216  1.00  0.00     0.031 C 
ATOM     39  C   UNL A   1      40.977  32.399  31.790  1.00  0.00     0.029 A 
ATOM     40  N   UNL A   1      39.791  33.642  33.240  1.00  0.00    -0.354 N 
ATOM     41  C   UNL A   1      39.455  29.045  29.918  1.00  0.00     0.074 A 
ATOM     42  C   UNL A   1      38.666  29.660  28.910  1.00  0.00     0.031 C 
ATOM     43  C   UNL A   1      41.818  32.805  32.756  1.00  0.00     0.029 A 
ATOM     44  C   UNL A   1      41.009  33.323  33.845  1.00  0.00     0.049 A 
ATOM     45  H   UNL A   1      39.179  34.369  33.500  1.00  0.00     0.167 HD
ATOM     46  C   UNL A   1      40.308  28.004  29.686  1.00  0.00     0.037 A 
ATOM     47  C   UNL A   1      41.043  32.932  35.148  1.00  0.00     0.037 A 
ATOM     48  C   UNL A   1      41.441  28.146  30.553  1.00  0.00     0.049 A 
ATOM     49  C   UNL A   1      41.604  31.542  35.296  1.00  0.00     0.074 A 
ATOM     50  C   UNL A   1      42.560  28.948  30.401  1.00  0.00     0.029 A 
ATOM     51  N   UNL A   1      41.314  27.859  31.894  1.00  0.00    -0.354 N 
ATOM     52  N   UNL A   1      41.673  30.673  34.324  1.00  0.00    -0.248 NA
ATOM     53  C   UNL A   1      42.133  31.025  36.552  1.00  0.00     0.031 C 
ATOM     54  C   UNL A   1      43.031  29.261  31.694  1.00  0.00     0.029 A 
ATOM     55  C   UNL A   1      42.263  28.561  32.608  1.00  0.00     0.049 A 
ATOM     56  H   UNL A   1      40.648  27.247  32.283  1.00  0.00     0.167 HD
ATOM     57  C   UNL A   1      42.200  29.506  34.805  1.00  0.00     0.074 A 
ATOM     58  C   UNL A   1      42.490  29.780  36.197  1.00  0.00     0.031 C 
ATOM     59  C   UNL A   1      42.351  28.390  34.039  1.00  0.00     0.037 A 
BRANCH  46  60
ATOM     60  C   UNL A   1      40.280  27.247  28.368  1.00  0.00     0.057 A 
ATOM     61  C   UNL A   1      39.652  26.000  28.226  1.00  0.00     0.134 A 
ATOM     62  C   UNL A   1      40.967  27.701  27.219  1.00  0.00     0.134 A 
ATOM     63  F   UNL A   1      38.899  25.483  29.205  1.00  0.00    -0.206 F 
ATOM     64  C   UNL A   1      39.804  25.202  27.080  1.00  0.00     0.040 A 
ATOM     65  C   UNL A   1      41.150  26.900  26.078  1.00  0.00     0.040 A 
ATOM     66  F   UNL A   1      41.537  28.916  27.200  1.00  0.00    -0.206 F 
ATOM     67  C   UNL A   1      40.587  25.632  26.015  1.00  0.00     0.006 A 
ENDBRANCH  46  60
BRANCH  47  68
ATOM     68  C   UNL A   1      39.993  33.563  36.009  1.00  0.00     0.057 A 
ATOM     69  C   UNL A   1      38.782  32.865  36.214  1.00  0.00     0.134 A 
ATOM     70  C   UNL A   1      40.238  34.644  36.861  1.00  0.00     0.134 A 
ATOM     71  F   UNL A   1      38.474  31.807  35.445  1.00  0.00    -0.206 F 
ATOM     72  C   UNL A   1      37.912  33.156  37.270  1.00  0.00     0.040 A 
ATOM     73  C   UNL A   1      39.362  34.959  37.915  1.00  0.00     0.040 A 
ATOM     74  F   UNL A   1      41.383  35.334  36.779  1.00  0.00    -0.206 F 
ATOM     75  C   UNL A   1      38.209  34.202  38.134  1.00  0.00     0.006 A 
ENDBRANCH  47  68
BRANCH  59  76
ATOM     76  C   UNL A   1      42.650  27.019  34.565  1.00  0.00     0.057 A 
ATOM     77  C   UNL A   1      41.840  26.372  35.504  1.00  0.00     0.134 A 
ATOM     78  C   UNL A   1      43.665  26.234  33.979  1.00  0.00     0.134 A 
ATOM     79  F   UNL A   1      40.778  26.981  36.050  1.00  0.00    -0.206 F 
ATOM     80  C   UNL A   1      42.058  25.043  35.879  1.00  0.00     0.040 A 
ATOM     81  C   UNL A   1      43.855  24.890  34.302  1.00  0.00     0.040 A 
ATOM     82  F   UNL A   1      44.491  26.730  33.044  1.00  0.00    -0.206 F 
ATOM     83  C   UNL A   1      43.058  24.295  35.269  1.00  0.00     0.006 A 
ENDBRANCH  59  76
ENDBRANCH  33  34
ENDBRANCH  26  28
ENDBRANCH  25  26
ENDBRANCH  24  25
ENDBRANCH  23  24
ENDBRANCH  22  23
ENDBRANCH   1  22
TORSDOF 18
ENDMDL
MODEL 2
REMARK VINA RESULT:     -11.6      4.273      9.321
REMARK SMILES Cc1ccccc1-n1nc(Cl)c(C(=O)OCCOCCOCCOC(=O)c2ccc(-c3c4nc(c(-c5c(F)cccc5F)c5ccc([nH]5)c(-c5c(F)cccc5F)c5nc(c(-c6c(F)cccc6F)c6ccc3[nH]6)C=C5)C=C4)cc2)n1
REMARK SMILES IDX 20 1 19 2 18 3 17 4 16 5 15 6 13 7 14 8 12 9 8 10 9 11 81 12
REMARK SMILES IDX 10 13 11 14 7 15 1 16 2 17 3 18 4 19 6 20 5 21 21 22 22 23
REMARK SMILES IDX 23 24 24 25 25 26 26 27 27 28 28 29 80 30 29 31 79 32 30 33
REMARK SMILES IDX 31 34 32 35 73 36 33 37 78 38 72 39 74 40 34 41 77 42 71 43
REMARK SMILES IDX 70 44 35 46 61 47 44 48 60 49 45 50 48 51 59 52 75 53 46 54
REMARK SMILES IDX 47 55 58 57 76 58 49 59 36 60 37 61 42 62 38 63 39 64 41 65
REMARK SMILES IDX 43 66 40 67 62 68 63 69 68 70 64 71 65 72 67 73 69 74 66 75
REMARK SMILES IDX 50 76 51 77 56 78 52 79 53 80 55 81 57 82 54 83
REMARK H PARENT 74 45 48 56
REMARK Flexibility Score: inf
ROOT
ATOM      1  C   UNL A   1      38.933  21.886  26.099  1.00  0.00     0.188 C 
ENDROOT
BRANCH   1   2
ATOM      2  C   UNL A   1      37.859  21.535  25.105  1.00  0.00     0.188 C 
BRANCH   2   3
ATOM      3  O   UNL A   1      36.638  20.911  25.458  1.00  0.00    -0.376 OA
BRANCH   3   4
ATOM      4  C   UNL A   1      35.290  21.128  25.050  1.00  0.00     0.202 C 
BRANCH   4   5
ATOM      5  C   UNL A   1      34.268  22.436  25.212  1.00  0.00     0.261 C 
BRANCH   5   6
ATOM      6  O   UNL A   1      32.957  22.837  26.228  1.00  0.00    -0.458 OA
BRANCH   6   7
ATOM      7  C   UNL A   1      31.539  23.131  26.189  1.00  0.00     0.362 C 
ATOM      8  O   UNL A   1      30.645  22.311  26.163  1.00  0.00    -0.244 OA
BRANCH   7   9
ATOM      9  C   UNL A   1      31.009  24.463  25.934  1.00  0.00     0.209 A 
ATOM     10  N   UNL A   1      31.372  26.493  25.787  1.00  0.00    -0.149 N 
ATOM     11  N   UNL A   1      30.664  26.319  24.661  1.00  0.00    -0.135 NA
ATOM     12  N   UNL A   1      31.347  25.498  26.707  1.00  0.00    -0.139 NA
ATOM     13  C   UNL A   1      30.598  24.984  24.652  1.00  0.00     0.186 A 
ATOM     14  Cl  UNL A   1      30.248  24.209  23.184  1.00  0.00    -0.057 Cl
BRANCH  10  15
ATOM     15  C   UNL A   1      32.187  27.602  25.996  1.00  0.00     0.089 A 
ATOM     16  C   UNL A   1      34.304  26.324  25.284  1.00  0.00     0.047 C 
ATOM     17  C   UNL A   1      33.588  27.443  26.001  1.00  0.00    -0.023 A 
ATOM     18  C   UNL A   1      34.331  28.394  26.698  1.00  0.00     0.006 A 
ATOM     19  C   UNL A   1      33.691  29.474  27.316  1.00  0.00     0.000 A 
ATOM     20  C   UNL A   1      31.548  28.732  26.504  1.00  0.00     0.030 A 
ATOM     21  C   UNL A   1      32.312  29.665  27.187  1.00  0.00     0.002 A 
ENDBRANCH  10  15
ENDBRANCH   7   9
ENDBRANCH   6   7
ENDBRANCH   5   6
ENDBRANCH   4   5
ENDBRANCH   3   4
ENDBRANCH   2   3
ENDBRANCH   1   2
BRANCH   1  22
ATOM     22  O   UNL A   1      40.072  21.084  25.874  1.00  0.00    -0.376 OA
BRANCH  22  23
ATOM     23  C   UNL A   1      41.262  21.648  26.405  1.00  0.00     0.202 C 
BRANCH  23  24
ATOM     24  C   UNL A   1      41.016  22.550  27.632  1.00  0.00     0.261 C 
BRANCH  24  25
ATOM     25  O   UNL A   1      41.827  23.745  27.550  1.00  0.00    -0.460 OA
BRANCH  25  26
ATOM     26  C   UNL A   1      41.814  24.456  26.372  1.00  0.00     0.338 C 
ATOM     27  O   UNL A   1      42.658  24.391  25.499  1.00  0.00    -0.246 OA
BRANCH  26  28
ATOM     28  C   UNL A   1      40.782  25.543  26.477  1.00  0.00     0.060 A 
ATOM     29  C   UNL A   1      40.964  26.873  26.102  1.00  0.00     0.016 A 
ATOM     30  C   UNL A   1      39.773  25.335  27.345  1.00  0.00     0.016 A 
ATOM     31  C   UNL A   1      40.355  27.974  26.845  1.00  0.00     0.010 A 
ATOM     32  C   UNL A   1      39.382  26.429  28.133  1.00  0.00     0.010 A 
ATOM     33  C   UNL A   1      39.647  27.817  28.048  1.00  0.00    -0.014 A 
BRANCH  33  34
ATOM     34  C   UNL A   1      39.409  29.066  29.158  1.00  0.00     0.031 A 
ATOM     35  C   UNL A   1      38.292  30.234  29.384  1.00  0.00     0.074 A 
ATOM     36  C   UNL A   1      40.355  29.246  30.116  1.00  0.00     0.049 A 
ATOM     37  N   UNL A   1      38.526  31.525  29.221  1.00  0.00    -0.248 NA
ATOM     38  C   UNL A   1      36.848  30.082  29.732  1.00  0.00     0.031 C 
ATOM     39  C   UNL A   1      40.355  30.209  31.223  1.00  0.00     0.029 A 
ATOM     40  N   UNL A   1      41.593  28.612  30.237  1.00  0.00    -0.354 N 
ATOM     41  C   UNL A   1      37.298  32.209  29.294  1.00  0.00     0.074 A 
ATOM     42  C   UNL A   1      36.276  31.225  29.361  1.00  0.00     0.031 C 
ATOM     43  C   UNL A   1      41.615  30.341  31.671  1.00  0.00     0.029 A 
ATOM     44  C   UNL A   1      42.467  29.540  30.810  1.00  0.00     0.049 A 
ATOM     45  H   UNL A   1      41.810  27.689  29.970  1.00  0.00     0.167 HD
ATOM     46  C   UNL A   1      37.107  33.526  29.600  1.00  0.00     0.037 A 
ATOM     47  C   UNL A   1      43.562  29.961  30.121  1.00  0.00     0.037 A 
ATOM     48  C   UNL A   1      38.306  34.029  30.202  1.00  0.00     0.049 A 
ATOM     49  C   UNL A   1      43.530  31.448  29.883  1.00  0.00     0.074 A 
ATOM     50  C   UNL A   1      38.743  33.905  31.511  1.00  0.00     0.029 A 
ATOM     51  N   UNL A   1      39.409  34.280  29.417  1.00  0.00    -0.354 N 
ATOM     52  N   UNL A   1      42.450  32.178  29.952  1.00  0.00    -0.248 NA
ATOM     53  C   UNL A   1      44.717  32.228  29.551  1.00  0.00     0.031 C 
ATOM     54  C   UNL A   1      40.154  33.946  31.487  1.00  0.00     0.029 A 
ATOM     55  C   UNL A   1      40.552  34.201  30.187  1.00  0.00     0.049 A 
ATOM     56  H   UNL A   1      39.387  34.485  28.454  1.00  0.00     0.167 HD
ATOM     57  C   UNL A   1      42.766  33.473  29.649  1.00  0.00     0.074 A 
ATOM     58  C   UNL A   1      44.197  33.460  29.424  1.00  0.00     0.031 C 
ATOM     59  C   UNL A   1      41.838  34.467  29.587  1.00  0.00     0.037 A 
BRANCH  46  60
ATOM     60  C   UNL A   1      35.708  34.092  29.787  1.00  0.00     0.057 A 
ATOM     61  C   UNL A   1      34.932  34.558  28.713  1.00  0.00     0.134 A 
ATOM     62  C   UNL A   1      35.130  34.278  31.062  1.00  0.00     0.134 A 
ATOM     63  F   UNL A   1      35.318  34.376  27.444  1.00  0.00    -0.206 F 
ATOM     64  C   UNL A   1      33.737  35.272  28.897  1.00  0.00     0.040 A 
ATOM     65  C   UNL A   1      33.949  35.016  31.261  1.00  0.00     0.040 A 
ATOM     66  F   UNL A   1      35.733  33.801  32.162  1.00  0.00    -0.206 F 
ATOM     67  C   UNL A   1      33.260  35.539  30.175  1.00  0.00     0.006 A 
ENDBRANCH  46  60
BRANCH  47  68
ATOM     68  C   UNL A   1      44.156  28.928  29.215  1.00  0.00     0.057 A 
ATOM     69  C   UNL A   1      44.855  27.845  29.794  1.00  0.00     0.134 A 
ATOM     70  C   UNL A   1      43.818  28.797  27.864  1.00  0.00     0.134 A 
ATOM     71  F   UNL A   1      45.209  27.886  31.089  1.00  0.00    -0.206 F 
ATOM     72  C   UNL A   1      45.110  26.656  29.103  1.00  0.00     0.040 A 
ATOM     73  C   UNL A   1      44.086  27.613  27.154  1.00  0.00     0.040 A 
ATOM     74  F   UNL A   1      43.109  29.748  27.241  1.00  0.00    -0.206 F 
ATOM     75  C   UNL A   1      44.713  26.534  27.778  1.00  0.00     0.006 A 
ENDBRANCH  47  68
BRANCH  59  76
ATOM     76  C   UNL A   1      42.067  35.824  28.993  1.00  0.00     0.057 A 
ATOM     77  C   UNL A   1      42.855  36.801  29.611  1.00  0.00     0.134 A 
ATOM     78  C   UNL A   1      41.654  36.106  27.673  1.00  0.00     0.134 A 
ATOM     79  F   UNL A   1      43.394  36.602  30.821  1.00  0.00    -0.206 F 
ATOM     80  C   UNL A   1      43.168  38.008  28.979  1.00  0.00     0.040 A 
ATOM     81  C   UNL A   1      42.010  37.282  27.011  1.00  0.00     0.040 A 
ATOM     82  F   UNL A   1      40.918  35.237  26.963  1.00  0.00    -0.206 F 
ATOM     83  C   UNL A   1      42.757  38.245  27.672  1.00  0.00     0.006 A 
ENDBRANCH  59  76
ENDBRANCH  33  34
ENDBRANCH  26  28
ENDBRANCH  25  26
ENDBRANCH  24  25
ENDBRANCH  23  24
ENDBRANCH  22  23
ENDBRANCH   1  22
TORSDOF 18
ENDMDL
MODEL 3
REMARK VINA RESULT:     -11.3      3.053      4.985
REMARK SMILES Cc1ccccc1-n1nc(Cl)c(C(=O)OCCOCCOCCOC(=O)c2ccc(-c3c4nc(c(-c5c(F)cccc5F)c5ccc([nH]5)c(-c5c(F)cccc5F)c5nc(c(-c6c(F)cccc6F)c6ccc3[nH]6)C=C5)C=C4)cc2)n1
REMARK SMILES IDX 20 1 19 2 18 3 17 4 16 5 15 6 13 7 14 8 12 9 8 10 9 11 81 12
REMARK SMILES IDX 10 13 11 14 7 15 1 16 2 17 3 18 4 19 6 20 5 21 21 22 22 23
REMARK SMILES IDX 23 24 24 25 25 26 26 27 27 28 28 29 80 30 29 31 79 32 30 33
REMARK SMILES IDX 31 34 32 35 73 36 33 37 78 38 72 39 74 40 34 41 77 42 71 43
REMARK SMILES IDX 70 44 35 46 61 47 44 48 60 49 45 50 48 51 59 52 75 53 46 54
REMARK SMILES IDX 47 55 58 57 76 58 49 59 36 60 37 61 42 62 38 63 39 64 41 65
REMARK SMILES IDX 43 66 40 67 62 68 63 69 68 70 64 71 65 72 67 73 69 74 66 75
REMARK SMILES IDX 50 76 51 77 56 78 52 79 53 80 55 81 57 82 54 83
REMARK H PARENT 74 45 48 56
REMARK Flexibility Score: inf
ROOT
ATOM      1  C   UNL A   1      34.475  32.731  28.235  1.00  0.00     0.188 C 
ENDROOT
BRANCH   1   2
ATOM      2  C   UNL A   1      34.411  31.342  27.660  1.00  0.00     0.188 C 
BRANCH   2   3
ATOM      3  O   UNL A   1      33.201  30.643  27.430  1.00  0.00    -0.376 OA
BRANCH   3   4
ATOM      4  C   UNL A   1      32.237  30.701  26.382  1.00  0.00     0.202 C 
BRANCH   4   5
ATOM      5  C   UNL A   1      31.451  29.512  25.517  1.00  0.00     0.261 C 
BRANCH   5   6
ATOM      6  O   UNL A   1      31.821  28.551  24.157  1.00  0.00    -0.458 OA
BRANCH   6   7
ATOM      7  C   UNL A   1      32.929  28.160  23.311  1.00  0.00     0.362 C 
ATOM      8  O   UNL A   1      33.265  28.710  22.283  1.00  0.00    -0.244 OA
BRANCH   7   9
ATOM      9  C   UNL A   1      33.643  26.900  23.464  1.00  0.00     0.209 A 
ATOM     10  N   UNL A   1      33.940  25.181  24.574  1.00  0.00    -0.149 N 
ATOM     11  N   UNL A   1      33.843  24.635  23.352  1.00  0.00    -0.135 NA
ATOM     12  N   UNL A   1      34.124  26.522  24.652  1.00  0.00    -0.139 NA
ATOM     13  C   UNL A   1      33.456  25.714  22.665  1.00  0.00     0.186 A 
ATOM     14  Cl  UNL A   1      32.701  25.478  21.164  1.00  0.00    -0.057 Cl
BRANCH  10  15
ATOM     15  C   UNL A   1      33.773  24.442  25.741  1.00  0.00     0.089 A 
ATOM     16  C   UNL A   1      36.252  23.754  25.796  1.00  0.00     0.047 C 
ATOM     17  C   UNL A   1      34.799  23.574  26.166  1.00  0.00    -0.023 A 
ATOM     18  C   UNL A   1      34.430  22.509  26.986  1.00  0.00     0.006 A 
ATOM     19  C   UNL A   1      33.098  22.361  27.392  1.00  0.00     0.000 A 
ATOM     20  C   UNL A   1      32.469  24.376  26.231  1.00  0.00     0.030 A 
ATOM     21  C   UNL A   1      32.131  23.310  27.049  1.00  0.00     0.002 A 
ENDBRANCH  10  15
ENDBRANCH   7   9
ENDBRANCH   6   7
ENDBRANCH   5   6
ENDBRANCH   4   5
ENDBRANCH   3   4
ENDBRANCH   2   3
ENDBRANCH   1   2
BRANCH   1  22
ATOM     22  O   UNL A   1      33.954  32.727  29.546  1.00  0.00    -0.376 OA
BRANCH  22  23
ATOM     23  C   UNL A   1      34.882  33.199  30.513  1.00  0.00     0.202 C 
BRANCH  23  24
ATOM     24  C   UNL A   1      36.293  33.441  29.938  1.00  0.00     0.261 C 
BRANCH  24  25
ATOM     25  O   UNL A   1      37.182  32.365  30.316  1.00  0.00    -0.460 OA
BRANCH  25  26
ATOM     26  C   UNL A   1      36.657  31.312  31.029  1.00  0.00     0.338 C 
ATOM     27  O   UNL A   1      36.206  31.378  32.156  1.00  0.00    -0.246 OA
BRANCH  26  28
ATOM     28  C   UNL A   1      37.019  30.032  30.331  1.00  0.00     0.060 A 
ATOM     29  C   UNL A   1      37.418  28.852  30.958  1.00  0.00     0.016 A 
ATOM     30  C   UNL A   1      37.372  30.129  29.035  1.00  0.00     0.016 A 
ATOM     31  C   UNL A   1      38.424  27.970  30.370  1.00  0.00     0.010 A 
ATOM     32  C   UNL A   1      38.467  29.357  28.619  1.00  0.00     0.010 A 
ATOM     33  C   UNL A   1      39.157  28.272  29.211  1.00  0.00    -0.014 A 
BRANCH  33  34
ATOM     34  C   UNL A   1      40.637  27.553  28.832  1.00  0.00     0.031 A 
ATOM     35  C   UNL A   1      41.118  26.117  28.224  1.00  0.00     0.074 A 
ATOM     36  C   UNL A   1      41.767  28.255  29.103  1.00  0.00     0.049 A 
ATOM     37  N   UNL A   1      41.783  25.205  28.913  1.00  0.00    -0.248 NA
ATOM     38  C   UNL A   1      40.860  25.550  26.867  1.00  0.00     0.031 C 
ATOM     39  C   UNL A   1      43.158  27.886  28.817  1.00  0.00     0.029 A 
ATOM     40  N   UNL A   1      41.887  29.465  29.792  1.00  0.00    -0.354 N 
ATOM     41  C   UNL A   1      41.843  24.027  28.146  1.00  0.00     0.074 A 
ATOM     42  C   UNL A   1      41.034  24.237  26.996  1.00  0.00     0.031 C 
ATOM     43  C   UNL A   1      43.963  28.630  29.594  1.00  0.00     0.029 A 
ATOM     44  C   UNL A   1      43.114  29.428  30.461  1.00  0.00     0.049 A 
ATOM     45  H   UNL A   1      41.234  30.202  29.804  1.00  0.00     0.167 HD
ATOM     46  C   UNL A   1      42.753  23.016  28.260  1.00  0.00     0.037 A 
ATOM     47  C   UNL A   1      43.152  29.484  31.819  1.00  0.00     0.037 A 
ATOM     48  C   UNL A   1      43.866  23.494  29.027  1.00  0.00     0.049 A 
ATOM     49  C   UNL A   1      43.785  28.250  32.407  1.00  0.00     0.074 A 
ATOM     50  C   UNL A   1      44.942  24.264  28.616  1.00  0.00     0.029 A 
ATOM     51  N   UNL A   1      43.737  23.652  30.388  1.00  0.00    -0.354 N 
ATOM     52  N   UNL A   1      43.913  27.117  31.771  1.00  0.00    -0.248 NA
ATOM     53  C   UNL A   1      44.326  28.199  33.761  1.00  0.00     0.031 C 
ATOM     54  C   UNL A   1      45.379  25.005  29.735  1.00  0.00     0.029 A 
ATOM     55  C   UNL A   1      44.638  24.599  30.831  1.00  0.00     0.049 A 
ATOM     56  H   UNL A   1      43.100  23.163  30.960  1.00  0.00     0.167 HD
ATOM     57  C   UNL A   1      44.496  26.201  32.601  1.00  0.00     0.074 A 
ATOM     58  C   UNL A   1      44.754  26.928  33.827  1.00  0.00     0.031 C 
ATOM     59  C   UNL A   1      44.717  24.907  32.239  1.00  0.00     0.037 A 
BRANCH  46  60
ATOM     60  C   UNL A   1      42.783  21.872  27.259  1.00  0.00     0.057 A 
ATOM     61  C   UNL A   1      41.968  20.736  27.385  1.00  0.00     0.134 A 
ATOM     62  C   UNL A   1      43.701  21.827  26.186  1.00  0.00     0.134 A 
ATOM     63  F   UNL A   1      40.999  20.673  28.307  1.00  0.00    -0.206 F 
ATOM     64  C   UNL A   1      42.139  19.589  26.593  1.00  0.00     0.040 A 
ATOM     65  C   UNL A   1      43.902  20.675  25.405  1.00  0.00     0.040 A 
ATOM     66  F   UNL A   1      44.478  22.886  25.907  1.00  0.00    -0.206 F 
ATOM     67  C   UNL A   1      43.135  19.539  25.624  1.00  0.00     0.006 A 
ENDBRANCH  46  60
BRANCH  47  68
ATOM     68  C   UNL A   1      42.059  30.301  32.434  1.00  0.00     0.057 A 
ATOM     69  C   UNL A   1      42.165  31.710  32.389  1.00  0.00     0.134 A 
ATOM     70  C   UNL A   1      40.808  29.784  32.782  1.00  0.00     0.134 A 
ATOM     71  F   UNL A   1      43.330  32.288  32.054  1.00  0.00    -0.206 F 
ATOM     72  C   UNL A   1      41.066  32.555  32.575  1.00  0.00     0.040 A 
ATOM     73  C   UNL A   1      39.699  30.625  32.990  1.00  0.00     0.040 A 
ATOM     74  F   UNL A   1      40.595  28.462  32.801  1.00  0.00    -0.206 F 
ATOM     75  C   UNL A   1      39.823  32.009  32.865  1.00  0.00     0.006 A 
ENDBRANCH  47  68
BRANCH  59  76
ATOM     76  C   UNL A   1      45.083  23.800  33.180  1.00  0.00     0.057 A 
ATOM     77  C   UNL A   1      46.355  23.673  33.746  1.00  0.00     0.134 A 
ATOM     78  C   UNL A   1      44.089  22.941  33.696  1.00  0.00     0.134 A 
ATOM     79  F   UNL A   1      47.354  24.503  33.415  1.00  0.00    -0.206 F 
ATOM     80  C   UNL A   1      46.638  22.716  34.725  1.00  0.00     0.040 A 
ATOM     81  C   UNL A   1      44.345  22.023  34.714  1.00  0.00     0.040 A 
ATOM     82  F   UNL A   1      42.821  22.984  33.256  1.00  0.00    -0.206 F 
ATOM     83  C   UNL A   1      45.630  21.898  35.221  1.00  0.00     0.006 A 
ENDBRANCH  59  76
ENDBRANCH  33  34
ENDBRANCH  26  28
ENDBRANCH  25  26
ENDBRANCH  24  25
ENDBRANCH  23  24
ENDBRANCH  22  23
ENDBRANCH   1  22
TORSDOF 18
ENDMDL
