MODEL 1
REMARK VINA RESULT:     -11.2      0.000      0.000
REMARK SMILES O=C(/C=C/N[C@@H](Cc1c[nH]c2ccccc12)C(=O)OCCOCCOCCOC(=O)c1ccc(-c2c3nc(c(-c4c(F)cccc4F)c4ccc([nH]4)c(-c4c(F)cccc4F)c4nc(c(-c5c(F)cccc5F)c5ccc2[nH]5)C=C4)C=C3)cc1)c1ccccc1
REMARK SMILES IDX 23 1 22 2 21 3 20 4 19 5 17 6 18 7 6 8 5 9 4 11 3 12 2 13
REMARK SMILES IDX 1 14 85 15 86 16 90 17 87 18 89 19 88 20 7 21 8 22 9 23
REMARK SMILES IDX 16 24 10 25 11 26 15 27 12 29 14 30 13 31 24 32 25 33 26 34
REMARK SMILES IDX 27 35 28 36 29 37 30 38 31 39 32 40 84 41 33 42 83 43 34 44
REMARK SMILES IDX 35 45 36 46 77 47 37 48 82 49 76 50 78 51 38 52 81 53 75 54
REMARK SMILES IDX 74 55 39 57 65 58 48 59 64 60 49 61 52 62 63 63 79 64 50 65
REMARK SMILES IDX 51 66 62 68 80 69 53 70 40 71 41 72 46 73 42 74 43 75 45 76
REMARK SMILES IDX 47 77 44 78 66 79 67 80 72 81 68 82 69 83 71 84 73 85 70 86
REMARK SMILES IDX 54 87 55 88 60 89 56 90 57 91 59 92 61 93 58 94
REMARK H PARENT 5 10 10 28 78 56 52 67
REMARK Flexibility Score: inf
ROOT
ATOM      1  C   UNL A   1      37.219  23.393  25.285  1.00  0.00     0.188 C 
ENDROOT
BRANCH   1   2
ATOM      2  O   UNL A   1      36.042  24.079  25.681  1.00  0.00    -0.376 OA
BRANCH   2   3
ATOM      3  C   UNL A   1      35.108  24.457  24.678  1.00  0.00     0.202 C 
BRANCH   3   4
ATOM      4  C   UNL A   1      33.910  25.316  25.092  1.00  0.00     0.261 C 
BRANCH   4   5
ATOM      5  O   UNL A   1      33.418  26.204  24.065  1.00  0.00    -0.462 OA
BRANCH   5   6
ATOM      6  C   UNL A   1      33.008  25.621  22.902  1.00  0.00     0.328 C 
ATOM      7  O   UNL A   1      33.679  25.606  21.873  1.00  0.00    -0.250 OA
BRANCH   6   8
ATOM      8  C   UNL A   1      31.581  25.043  22.940  1.00  0.00     0.194 C 
BRANCH   8   9
ATOM      9  N   UNL A   1      31.474  23.570  22.905  1.00  0.00    -0.378 N 
ATOM     10  H   UNL A   1      30.699  23.196  22.427  1.00  0.00     0.160 HD
BRANCH   9  11
ATOM     11  C   UNL A   1      32.347  22.663  23.472  1.00  0.00     0.082 C 
ATOM     12  C   UNL A   1      32.064  21.778  24.439  1.00  0.00     0.070 C 
BRANCH  12  13
ATOM     13  C   UNL A   1      32.980  20.762  25.040  1.00  0.00     0.187 C 
ATOM     14  O   UNL A   1      33.467  20.989  26.146  1.00  0.00    -0.289 OA
BRANCH  13  15
ATOM     15  C   UNL A   1      33.335  19.494  24.349  1.00  0.00     0.022 A 
ATOM     16  C   UNL A   1      34.517  18.800  24.622  1.00  0.00     0.012 A 
ATOM     17  C   UNL A   1      32.403  18.928  23.469  1.00  0.00     0.012 A 
ATOM     18  C   UNL A   1      34.774  17.570  24.010  1.00  0.00     0.001 A 
ATOM     19  C   UNL A   1      32.668  17.704  22.845  1.00  0.00     0.001 A 
ATOM     20  C   UNL A   1      33.854  17.026  23.119  1.00  0.00     0.000 A 
ENDBRANCH  13  15
ENDBRANCH  12  13
ENDBRANCH   9  11
ENDBRANCH   8   9
BRANCH   8  21
ATOM     21  C   UNL A   1      30.821  25.654  24.125  1.00  0.00     0.074 C 
BRANCH  21  22
ATOM     22  C   UNL A   1      29.661  26.542  23.764  1.00  0.00    -0.020 A 
ATOM     23  C   UNL A   1      28.331  26.338  24.084  1.00  0.00     0.087 A 
ATOM     24  C   UNL A   1      29.724  27.807  23.095  1.00  0.00     0.003 A 
ATOM     25  N   UNL A   1      27.589  27.343  23.527  1.00  0.00    -0.361 N 
ATOM     26  C   UNL A   1      28.417  28.280  22.962  1.00  0.00     0.046 A 
ATOM     27  C   UNL A   1      30.776  28.607  22.607  1.00  0.00     0.010 A 
ATOM     28  H   UNL A   1      26.606  27.387  23.531  1.00  0.00     0.166 HD
ATOM     29  C   UNL A   1      28.107  29.503  22.359  1.00  0.00     0.026 A 
ATOM     30  C   UNL A   1      30.487  29.848  22.028  1.00  0.00     0.001 A 
ATOM     31  C   UNL A   1      29.171  30.286  21.905  1.00  0.00     0.002 A 
ENDBRANCH  21  22
ENDBRANCH   8  21
ENDBRANCH   6   8
ENDBRANCH   5   6
ENDBRANCH   4   5
ENDBRANCH   3   4
ENDBRANCH   2   3
ENDBRANCH   1   2
BRANCH   1  32
ATOM     32  C   UNL A   1      37.097  22.019  24.600  1.00  0.00     0.188 C 
BRANCH  32  33
ATOM     33  O   UNL A   1      37.313  20.881  25.390  1.00  0.00    -0.376 OA
BRANCH  33  34
ATOM     34  C   UNL A   1      38.177  19.851  24.951  1.00  0.00     0.202 C 
BRANCH  34  35
ATOM     35  C   UNL A   1      39.289  19.182  25.786  1.00  0.00     0.261 C 
BRANCH  35  36
ATOM     36  O   UNL A   1      40.620  19.692  25.680  1.00  0.00    -0.460 OA
BRANCH  36  37
ATOM     37  C   UNL A   1      41.273  19.882  26.852  1.00  0.00     0.338 C 
ATOM     38  O   UNL A   1      41.885  19.061  27.508  1.00  0.00    -0.246 OA
BRANCH  37  39
ATOM     39  C   UNL A   1      41.292  21.328  27.136  1.00  0.00     0.060 A 
ATOM     40  C   UNL A   1      40.589  22.191  26.287  1.00  0.00     0.016 A 
ATOM     41  C   UNL A   1      42.024  21.830  28.208  1.00  0.00     0.016 A 
ATOM     42  C   UNL A   1      40.621  23.567  26.494  1.00  0.00     0.010 A 
ATOM     43  C   UNL A   1      42.089  23.213  28.392  1.00  0.00     0.010 A 
ATOM     44  C   UNL A   1      41.415  24.087  27.516  1.00  0.00    -0.014 A 
BRANCH  44  45
ATOM     45  C   UNL A   1      41.744  25.530  27.549  1.00  0.00     0.031 A 
ATOM     46  C   UNL A   1      43.069  25.951  26.982  1.00  0.00     0.074 A 
ATOM     47  C   UNL A   1      40.912  26.445  28.074  1.00  0.00     0.049 A 
ATOM     48  N   UNL A   1      43.729  27.065  27.148  1.00  0.00    -0.248 NA
ATOM     49  C   UNL A   1      43.744  24.967  26.118  1.00  0.00     0.031 C 
ATOM     50  C   UNL A   1      39.551  26.192  28.540  1.00  0.00     0.029 A 
ATOM     51  N   UNL A   1      41.117  27.778  28.331  1.00  0.00    -0.354 N 
ATOM     52  C   UNL A   1      44.924  26.893  26.459  1.00  0.00     0.074 A 
ATOM     53  C   UNL A   1      44.892  25.576  25.864  1.00  0.00     0.031 C 
ATOM     54  C   UNL A   1      39.056  27.327  29.063  1.00  0.00     0.029 A 
ATOM     55  C   UNL A   1      40.090  28.360  29.032  1.00  0.00     0.049 A 
ATOM     56  H   UNL A   1      41.921  28.268  28.041  1.00  0.00     0.167 HD
ATOM     57  C   UNL A   1      45.959  27.757  26.352  1.00  0.00     0.037 A 
ATOM     58  C   UNL A   1      40.025  29.563  29.635  1.00  0.00     0.037 A 
ATOM     59  C   UNL A   1      45.963  29.073  26.928  1.00  0.00     0.049 A 
ATOM     60  C   UNL A   1      41.223  30.478  29.587  1.00  0.00     0.074 A 
ATOM     61  C   UNL A   1      46.961  30.030  26.889  1.00  0.00     0.029 A 
ATOM     62  N   UNL A   1      44.909  29.618  27.648  1.00  0.00    -0.354 N 
ATOM     63  N   UNL A   1      42.379  30.297  28.994  1.00  0.00    -0.248 NA
ATOM     64  C   UNL A   1      41.115  31.755  30.308  1.00  0.00     0.031 C 
ATOM     65  C   UNL A   1      46.526  31.140  27.621  1.00  0.00     0.029 A 
ATOM     66  C   UNL A   1      45.237  30.894  28.068  1.00  0.00     0.049 A 
ATOM     67  H   UNL A   1      44.055  29.164  27.830  1.00  0.00     0.167 HD
ATOM     68  C   UNL A   1      43.119  31.449  29.237  1.00  0.00     0.074 A 
ATOM     69  C   UNL A   1      42.284  32.321  30.035  1.00  0.00     0.031 C 
ATOM     70  C   UNL A   1      44.375  31.758  28.832  1.00  0.00     0.037 A 
BRANCH  57  71
ATOM     71  C   UNL A   1      47.184  27.284  25.631  1.00  0.00     0.057 A 
ATOM     72  C   UNL A   1      48.200  26.567  26.274  1.00  0.00     0.134 A 
ATOM     73  C   UNL A   1      47.337  27.536  24.261  1.00  0.00     0.134 A 
ATOM     74  F   UNL A   1      48.123  26.309  27.588  1.00  0.00    -0.206 F 
ATOM     75  C   UNL A   1      49.336  26.136  25.585  1.00  0.00     0.040 A 
ATOM     76  C   UNL A   1      48.454  27.087  23.556  1.00  0.00     0.040 A 
ATOM     77  F   UNL A   1      46.400  28.218  23.585  1.00  0.00    -0.206 F 
ATOM     78  C   UNL A   1      49.461  26.391  24.221  1.00  0.00     0.006 A 
ENDBRANCH  57  71
BRANCH  58  79
ATOM     79  C   UNL A   1      38.808  29.954  30.393  1.00  0.00     0.057 A 
ATOM     80  C   UNL A   1      37.799  30.718  29.795  1.00  0.00     0.134 A 
ATOM     81  C   UNL A   1      38.634  29.597  31.736  1.00  0.00     0.134 A 
ATOM     82  F   UNL A   1      37.921  31.116  28.519  1.00  0.00    -0.206 F 
ATOM     83  C   UNL A   1      36.668  31.123  30.507  1.00  0.00     0.040 A 
ATOM     84  C   UNL A   1      37.496  29.971  32.451  1.00  0.00     0.040 A 
ATOM     85  F   UNL A   1      39.565  28.869  32.369  1.00  0.00    -0.206 F 
ATOM     86  C   UNL A   1      36.512  30.744  31.838  1.00  0.00     0.006 A 
ENDBRANCH  58  79
BRANCH  70  87
ATOM     87  C   UNL A   1      44.904  33.120  29.172  1.00  0.00     0.057 A 
ATOM     88  C   UNL A   1      45.671  33.354  30.318  1.00  0.00     0.134 A 
ATOM     89  C   UNL A   1      44.720  34.188  28.283  1.00  0.00     0.134 A 
ATOM     90  F   UNL A   1      45.875  32.376  31.213  1.00  0.00    -0.206 F 
ATOM     91  C   UNL A   1      46.235  34.607  30.571  1.00  0.00     0.040 A 
ATOM     92  C   UNL A   1      45.298  35.437  28.512  1.00  0.00     0.040 A 
ATOM     93  F   UNL A   1      44.004  34.024  27.160  1.00  0.00    -0.206 F 
ATOM     94  C   UNL A   1      46.057  35.648  29.661  1.00  0.00     0.006 A 
ENDBRANCH  70  87
ENDBRANCH  44  45
ENDBRANCH  37  39
ENDBRANCH  36  37
ENDBRANCH  35  36
ENDBRANCH  34  35
ENDBRANCH  33  34
ENDBRANCH  32  33
ENDBRANCH   1  32
TORSDOF 23
ENDMDL
MODEL 2
REMARK VINA RESULT:     -11.1      4.257      8.473
REMARK SMILES O=C(/C=C/N[C@@H](Cc1c[nH]c2ccccc12)C(=O)OCCOCCOCCOC(=O)c1ccc(-c2c3nc(c(-c4c(F)cccc4F)c4ccc([nH]4)c(-c4c(F)cccc4F)c4nc(c(-c5c(F)cccc5F)c5ccc2[nH]5)C=C4)C=C3)cc1)c1ccccc1
REMARK SMILES IDX 23 1 22 2 21 3 20 4 19 5 17 6 18 7 6 8 5 9 4 11 3 12 2 13
REMARK SMILES IDX 1 14 85 15 86 16 90 17 87 18 89 19 88 20 7 21 8 22 9 23
REMARK SMILES IDX 16 24 10 25 11 26 15 27 12 29 14 30 13 31 24 32 25 33 26 34
REMARK SMILES IDX 27 35 28 36 29 37 30 38 31 39 32 40 84 41 33 42 83 43 34 44
REMARK SMILES IDX 35 45 36 46 77 47 37 48 82 49 76 50 78 51 38 52 81 53 75 54
REMARK SMILES IDX 74 55 39 57 65 58 48 59 64 60 49 61 52 62 63 63 79 64 50 65
REMARK SMILES IDX 51 66 62 68 80 69 53 70 40 71 41 72 46 73 42 74 43 75 45 76
REMARK SMILES IDX 47 77 44 78 66 79 67 80 72 81 68 82 69 83 71 84 73 85 70 86
REMARK SMILES IDX 54 87 55 88 60 89 56 90 57 91 59 92 61 93 58 94
REMARK H PARENT 5 10 10 28 78 56 52 67
REMARK Flexibility Score: inf
ROOT
ATOM      1  C   UNL A   1      39.320  22.026  26.075  1.00  0.00     0.188 C 
ENDROOT
BRANCH   1   2
ATOM      2  O   UNL A   1      38.145  21.415  25.567  1.00  0.00    -0.376 OA
BRANCH   2   3
ATOM      3  C   UNL A   1      36.921  22.132  25.643  1.00  0.00     0.202 C 
BRANCH   3   4
ATOM      4  C   UNL A   1      36.185  22.448  24.338  1.00  0.00     0.261 C 
BRANCH   4   5
ATOM      5  O   UNL A   1      34.795  22.807  24.499  1.00  0.00    -0.462 OA
BRANCH   5   6
ATOM      6  C   UNL A   1      34.221  23.493  23.468  1.00  0.00     0.328 C 
ATOM      7  O   UNL A   1      34.477  23.284  22.284  1.00  0.00    -0.250 OA
BRANCH   6   8
ATOM      8  C   UNL A   1      33.274  24.628  23.898  1.00  0.00     0.194 C 
BRANCH   8   9
ATOM      9  N   UNL A   1      31.948  24.213  24.400  1.00  0.00    -0.378 N 
ATOM     10  H   UNL A   1      31.856  23.273  24.677  1.00  0.00     0.160 HD
BRANCH   9  11
ATOM     11  C   UNL A   1      30.823  25.006  24.520  1.00  0.00     0.082 C 
ATOM     12  C   UNL A   1      30.378  25.902  23.629  1.00  0.00     0.070 C 
BRANCH  12  13
ATOM     13  C   UNL A   1      29.144  26.741  23.718  1.00  0.00     0.187 C 
ATOM     14  O   UNL A   1      28.155  26.273  24.280  1.00  0.00    -0.289 OA
BRANCH  13  15
ATOM     15  C   UNL A   1      29.060  28.109  23.145  1.00  0.00     0.022 A 
ATOM     16  C   UNL A   1      30.172  28.765  22.608  1.00  0.00     0.012 A 
ATOM     17  C   UNL A   1      27.802  28.719  23.050  1.00  0.00     0.012 A 
ATOM     18  C   UNL A   1      30.034  30.018  22.005  1.00  0.00     0.001 A 
ATOM     19  C   UNL A   1      27.667  29.980  22.459  1.00  0.00     0.001 A 
ATOM     20  C   UNL A   1      28.784  30.627  21.936  1.00  0.00     0.000 A 
ENDBRANCH  13  15
ENDBRANCH  12  13
ENDBRANCH   9  11
ENDBRANCH   8   9
BRANCH   8  21
ATOM     21  C   UNL A   1      34.007  25.550  24.882  1.00  0.00     0.074 C 
BRANCH  21  22
ATOM     22  C   UNL A   1      33.726  27.021  24.726  1.00  0.00    -0.020 A 
ATOM     23  C   UNL A   1      34.058  27.817  23.645  1.00  0.00     0.087 A 
ATOM     24  C   UNL A   1      32.991  27.855  25.628  1.00  0.00     0.003 A 
ATOM     25  N   UNL A   1      33.677  29.102  23.916  1.00  0.00    -0.361 N 
ATOM     26  C   UNL A   1      32.979  29.145  25.096  1.00  0.00     0.046 A 
ATOM     27  C   UNL A   1      32.313  27.628  26.843  1.00  0.00     0.010 A 
ATOM     28  H   UNL A   1      33.876  29.882  23.349  1.00  0.00     0.166 HD
ATOM     29  C   UNL A   1      32.334  30.219  25.718  1.00  0.00     0.026 A 
ATOM     30  C   UNL A   1      31.637  28.684  27.463  1.00  0.00     0.001 A 
ATOM     31  C   UNL A   1      31.651  29.961  26.908  1.00  0.00     0.002 A 
ENDBRANCH  21  22
ENDBRANCH   8  21
ENDBRANCH   6   8
ENDBRANCH   5   6
ENDBRANCH   4   5
ENDBRANCH   3   4
ENDBRANCH   2   3
ENDBRANCH   1   2
BRANCH   1  32
ATOM     32  C   UNL A   1      40.400  21.150  26.738  1.00  0.00     0.188 C 
BRANCH  32  33
ATOM     33  O   UNL A   1      41.736  21.405  26.403  1.00  0.00    -0.376 OA
BRANCH  33  34
ATOM     34  C   UNL A   1      42.087  22.549  25.650  1.00  0.00     0.202 C 
BRANCH  34  35
ATOM     35  C   UNL A   1      43.343  23.421  25.854  1.00  0.00     0.261 C 
BRANCH  35  36
ATOM     36  O   UNL A   1      43.230  24.602  26.651  1.00  0.00    -0.460 OA
BRANCH  36  37
ATOM     37  C   UNL A   1      42.685  25.679  26.035  1.00  0.00     0.338 C 
ATOM     38  O   UNL A   1      42.577  25.880  24.841  1.00  0.00    -0.246 OA
BRANCH  37  39
ATOM     39  C   UNL A   1      42.048  26.521  27.063  1.00  0.00     0.060 A 
ATOM     40  C   UNL A   1      42.535  27.818  27.269  1.00  0.00     0.016 A 
ATOM     41  C   UNL A   1      41.005  26.025  27.839  1.00  0.00     0.016 A 
ATOM     42  C   UNL A   1      41.991  28.627  28.262  1.00  0.00     0.010 A 
ATOM     43  C   UNL A   1      40.486  26.822  28.861  1.00  0.00     0.010 A 
ATOM     44  C   UNL A   1      41.000  28.113  29.098  1.00  0.00    -0.014 A 
BRANCH  44  45
ATOM     45  C   UNL A   1      40.649  28.805  30.358  1.00  0.00     0.031 A 
ATOM     46  C   UNL A   1      39.510  29.783  30.317  1.00  0.00     0.074 A 
ATOM     47  C   UNL A   1      41.318  28.595  31.504  1.00  0.00     0.049 A 
ATOM     48  N   UNL A   1      39.192  30.725  31.162  1.00  0.00    -0.248 NA
ATOM     49  C   UNL A   1      38.618  29.686  29.148  1.00  0.00     0.031 C 
ATOM     50  C   UNL A   1      42.354  27.587  31.714  1.00  0.00     0.029 A 
ATOM     51  N   UNL A   1      41.237  29.255  32.706  1.00  0.00    -0.354 N 
ATOM     52  C   UNL A   1      38.099  31.373  30.599  1.00  0.00     0.074 A 
ATOM     53  C   UNL A   1      37.802  30.710  29.349  1.00  0.00     0.031 C 
ATOM     54  C   UNL A   1      42.842  27.721  32.960  1.00  0.00     0.029 A 
ATOM     55  C   UNL A   1      42.202  28.868  33.603  1.00  0.00     0.049 A 
ATOM     56  H   UNL A   1      40.556  29.937  32.903  1.00  0.00     0.167 HD
ATOM     57  C   UNL A   1      37.419  32.438  31.080  1.00  0.00     0.037 A 
ATOM     58  C   UNL A   1      42.565  29.421  34.776  1.00  0.00     0.037 A 
ATOM     59  C   UNL A   1      37.711  33.070  32.338  1.00  0.00     0.049 A 
ATOM     60  C   UNL A   1      41.860  30.666  35.255  1.00  0.00     0.074 A 
ATOM     61  C   UNL A   1      37.092  34.161  32.921  1.00  0.00     0.029 A 
ATOM     62  N   UNL A   1      38.709  32.658  33.210  1.00  0.00    -0.354 N 
ATOM     63  N   UNL A   1      40.871  31.322  34.697  1.00  0.00    -0.248 NA
ATOM     64  C   UNL A   1      42.335  31.257  36.515  1.00  0.00     0.031 C 
ATOM     65  C   UNL A   1      37.743  34.434  34.128  1.00  0.00     0.029 A 
ATOM     66  C   UNL A   1      38.731  33.481  34.320  1.00  0.00     0.049 A 
ATOM     67  H   UNL A   1      39.310  31.894  33.059  1.00  0.00     0.167 HD
ATOM     68  C   UNL A   1      40.580  32.377  35.555  1.00  0.00     0.074 A 
ATOM     69  C   UNL A   1      41.500  32.277  36.668  1.00  0.00     0.031 C 
ATOM     70  C   UNL A   1      39.633  33.340  35.434  1.00  0.00     0.037 A 
BRANCH  57  71
ATOM     71  C   UNL A   1      36.335  33.014  30.221  1.00  0.00     0.057 A 
ATOM     72  C   UNL A   1      34.978  32.766  30.461  1.00  0.00     0.134 A 
ATOM     73  C   UNL A   1      36.660  33.849  29.144  1.00  0.00     0.134 A 
ATOM     74  F   UNL A   1      34.602  31.960  31.465  1.00  0.00    -0.206 F 
ATOM     75  C   UNL A   1      33.983  33.311  29.647  1.00  0.00     0.040 A 
ATOM     76  C   UNL A   1      35.673  34.422  28.340  1.00  0.00     0.040 A 
ATOM     77  F   UNL A   1      37.941  34.128  28.860  1.00  0.00    -0.206 F 
ATOM     78  C   UNL A   1      34.331  34.147  28.587  1.00  0.00     0.006 A 
ENDBRANCH  57  71
BRANCH  58  79
ATOM     79  C   UNL A   1      43.692  28.846  35.556  1.00  0.00     0.057 A 
ATOM     80  C   UNL A   1      43.471  27.866  36.530  1.00  0.00     0.134 A 
ATOM     81  C   UNL A   1      45.011  29.278  35.365  1.00  0.00     0.134 A 
ATOM     82  F   UNL A   1      42.226  27.432  36.779  1.00  0.00    -0.206 F 
ATOM     83  C   UNL A   1      44.517  27.345  37.294  1.00  0.00     0.040 A 
ATOM     84  C   UNL A   1      46.069  28.746  36.103  1.00  0.00     0.040 A 
ATOM     85  F   UNL A   1      45.290  30.217  34.451  1.00  0.00    -0.206 F 
ATOM     86  C   UNL A   1      45.822  27.781  37.077  1.00  0.00     0.006 A 
ENDBRANCH  58  79
BRANCH  70  87
ATOM     87  C   UNL A   1      39.484  34.320  36.559  1.00  0.00     0.057 A 
ATOM     88  C   UNL A   1      38.820  33.994  37.746  1.00  0.00     0.134 A 
ATOM     89  C   UNL A   1      40.102  35.576  36.484  1.00  0.00     0.134 A 
ATOM     90  F   UNL A   1      38.200  32.812  37.876  1.00  0.00    -0.206 F 
ATOM     91  C   UNL A   1      38.772  34.885  38.820  1.00  0.00     0.040 A 
ATOM     92  C   UNL A   1      40.082  36.465  37.559  1.00  0.00     0.040 A 
ATOM     93  F   UNL A   1      40.765  35.944  35.377  1.00  0.00    -0.206 F 
ATOM     94  C   UNL A   1      39.414  36.120  38.732  1.00  0.00     0.006 A 
ENDBRANCH  70  87
ENDBRANCH  44  45
ENDBRANCH  37  39
ENDBRANCH  36  37
ENDBRANCH  35  36
ENDBRANCH  34  35
ENDBRANCH  33  34
ENDBRANCH  32  33
ENDBRANCH   1  32
TORSDOF 23
ENDMDL
MODEL 3
REMARK VINA RESULT:     -11.0      3.570      5.350
REMARK SMILES O=C(/C=C/N[C@@H](Cc1c[nH]c2ccccc12)C(=O)OCCOCCOCCOC(=O)c1ccc(-c2c3nc(c(-c4c(F)cccc4F)c4ccc([nH]4)c(-c4c(F)cccc4F)c4nc(c(-c5c(F)cccc5F)c5ccc2[nH]5)C=C4)C=C3)cc1)c1ccccc1
REMARK SMILES IDX 23 1 22 2 21 3 20 4 19 5 17 6 18 7 6 8 5 9 4 11 3 12 2 13
REMARK SMILES IDX 1 14 85 15 86 16 90 17 87 18 89 19 88 20 7 21 8 22 9 23
REMARK SMILES IDX 16 24 10 25 11 26 15 27 12 29 14 30 13 31 24 32 25 33 26 34
REMARK SMILES IDX 27 35 28 36 29 37 30 38 31 39 32 40 84 41 33 42 83 43 34 44
REMARK SMILES IDX 35 45 36 46 77 47 37 48 82 49 76 50 78 51 38 52 81 53 75 54
REMARK SMILES IDX 74 55 39 57 65 58 48 59 64 60 49 61 52 62 63 63 79 64 50 65
REMARK SMILES IDX 51 66 62 68 80 69 53 70 40 71 41 72 46 73 42 74 43 75 45 76
REMARK SMILES IDX 47 77 44 78 66 79 67 80 72 81 68 82 69 83 71 84 73 85 70 86
REMARK SMILES IDX 54 87 55 88 60 89 56 90 57 91 59 92 61 93 58 94
REMARK H PARENT 5 10 10 28 78 56 52 67
REMARK Flexibility Score: inf
ROOT
ATOM      1  C   UNL A   1      37.291  20.787  25.212  1.00  0.00     0.188 C 
ENDROOT
BRANCH   1   2
ATOM      2  O   UNL A   1      36.563  21.618  24.322  1.00  0.00    -0.376 OA
BRANCH   2   3
ATOM      3  C   UNL A   1      36.754  23.023  24.396  1.00  0.00     0.202 C 
BRANCH   3   4
ATOM      4  C   UNL A   1      35.666  23.867  25.067  1.00  0.00     0.261 C 
BRANCH   4   5
ATOM      5  O   UNL A   1      34.952  24.753  24.177  1.00  0.00    -0.462 OA
BRANCH   5   6
ATOM      6  C   UNL A   1      34.067  25.615  24.757  1.00  0.00     0.328 C 
ATOM      7  O   UNL A   1      34.302  26.245  25.785  1.00  0.00    -0.250 OA
BRANCH   6   8
ATOM      8  C   UNL A   1      32.691  25.682  24.069  1.00  0.00     0.194 C 
BRANCH   8   9
ATOM      9  N   UNL A   1      32.237  24.445  23.400  1.00  0.00    -0.378 N 
ATOM     10  H   UNL A   1      32.124  24.489  22.423  1.00  0.00     0.160 HD
BRANCH   9  11
ATOM     11  C   UNL A   1      31.954  23.234  24.001  1.00  0.00     0.082 C 
ATOM     12  C   UNL A   1      32.616  22.082  23.829  1.00  0.00     0.070 C 
BRANCH  12  13
ATOM     13  C   UNL A   1      32.352  20.771  24.498  1.00  0.00     0.187 C 
ATOM     14  O   UNL A   1      31.571  20.742  25.447  1.00  0.00    -0.289 OA
BRANCH  13  15
ATOM     15  C   UNL A   1      33.006  19.507  24.071  1.00  0.00     0.022 A 
ATOM     16  C   UNL A   1      34.206  19.059  24.631  1.00  0.00     0.012 A 
ATOM     17  C   UNL A   1      32.342  18.689  23.146  1.00  0.00     0.012 A 
ATOM     18  C   UNL A   1      34.745  17.824  24.259  1.00  0.00     0.001 A 
ATOM     19  C   UNL A   1      32.889  17.460  22.763  1.00  0.00     0.001 A 
ATOM     20  C   UNL A   1      34.090  17.029  23.322  1.00  0.00     0.000 A 
ENDBRANCH  13  15
ENDBRANCH  12  13
ENDBRANCH   9  11
ENDBRANCH   8   9
BRANCH   8  21
ATOM     21  C   UNL A   1      31.655  26.219  25.066  1.00  0.00     0.074 C 
BRANCH  21  22
ATOM     22  C   UNL A   1      30.297  26.522  24.491  1.00  0.00    -0.020 A 
ATOM     23  C   UNL A   1      29.159  25.745  24.602  1.00  0.00     0.087 A 
ATOM     24  C   UNL A   1      29.907  27.709  23.793  1.00  0.00     0.003 A 
ATOM     25  N   UNL A   1      28.152  26.342  23.896  1.00  0.00    -0.361 N 
ATOM     26  C   UNL A   1      28.565  27.567  23.435  1.00  0.00     0.046 A 
ATOM     27  C   UNL A   1      30.565  28.907  23.449  1.00  0.00     0.010 A 
ATOM     28  H   UNL A   1      27.262  25.952  23.740  1.00  0.00     0.166 HD
ATOM     29  C   UNL A   1      27.852  28.552  22.744  1.00  0.00     0.026 A 
ATOM     30  C   UNL A   1      29.859  29.916  22.785  1.00  0.00     0.001 A 
ATOM     31  C   UNL A   1      28.523  29.738  22.437  1.00  0.00     0.002 A 
ENDBRANCH  21  22
ENDBRANCH   8  21
ENDBRANCH   6   8
ENDBRANCH   5   6
ENDBRANCH   4   5
ENDBRANCH   3   4
ENDBRANCH   2   3
ENDBRANCH   1   2
BRANCH   1  32
ATOM     32  C   UNL A   1      38.386  19.860  24.653  1.00  0.00     0.188 C 
BRANCH  32  33
ATOM     33  O   UNL A   1      39.209  19.200  25.576  1.00  0.00    -0.376 OA
BRANCH  33  34
ATOM     34  C   UNL A   1      40.352  19.838  26.110  1.00  0.00     0.202 C 
BRANCH  34  35
ATOM     35  C   UNL A   1      40.735  21.321  25.924  1.00  0.00     0.261 C 
BRANCH  35  36
ATOM     36  O   UNL A   1      42.027  21.750  26.356  1.00  0.00    -0.460 OA
BRANCH  36  37
ATOM     37  C   UNL A   1      42.533  22.832  25.715  1.00  0.00     0.338 C 
ATOM     38  O   UNL A   1      43.119  22.862  24.650  1.00  0.00    -0.246 OA
BRANCH  37  39
ATOM     39  C   UNL A   1      42.090  24.040  26.434  1.00  0.00     0.060 A 
ATOM     40  C   UNL A   1      42.746  25.251  26.186  1.00  0.00     0.016 A 
ATOM     41  C   UNL A   1      41.060  23.970  27.367  1.00  0.00     0.016 A 
ATOM     42  C   UNL A   1      42.387  26.404  26.879  1.00  0.00     0.010 A 
ATOM     43  C   UNL A   1      40.727  25.116  28.091  1.00  0.00     0.010 A 
ATOM     44  C   UNL A   1      41.412  26.329  27.874  1.00  0.00    -0.014 A 
BRANCH  44  45
ATOM     45  C   UNL A   1      41.252  27.428  28.851  1.00  0.00     0.031 A 
ATOM     46  C   UNL A   1      42.152  27.423  30.053  1.00  0.00     0.074 A 
ATOM     47  C   UNL A   1      40.335  28.398  28.698  1.00  0.00     0.049 A 
ATOM     48  N   UNL A   1      42.035  28.064  31.183  1.00  0.00    -0.248 NA
ATOM     49  C   UNL A   1      43.343  26.559  29.964  1.00  0.00     0.031 C 
ATOM     50  C   UNL A   1      39.489  28.594  27.524  1.00  0.00     0.029 A 
ATOM     51  N   UNL A   1      39.945  29.387  29.567  1.00  0.00    -0.354 N 
ATOM     52  C   UNL A   1      43.102  27.637  31.964  1.00  0.00     0.074 A 
ATOM     53  C   UNL A   1      43.862  26.693  31.175  1.00  0.00     0.031 C 
ATOM     54  C   UNL A   1      38.650  29.617  27.762  1.00  0.00     0.029 A 
ATOM     55  C   UNL A   1      38.854  30.096  29.128  1.00  0.00     0.049 A 
ATOM     56  H   UNL A   1      40.402  29.569  30.420  1.00  0.00     0.167 HD
ATOM     57  C   UNL A   1      43.405  27.993  33.234  1.00  0.00     0.037 A 
ATOM     58  C   UNL A   1      38.074  30.978  29.782  1.00  0.00     0.037 A 
ATOM     59  C   UNL A   1      42.653  28.952  33.994  1.00  0.00     0.049 A 
ATOM     60  C   UNL A   1      38.368  31.293  31.227  1.00  0.00     0.074 A 
ATOM     61  C   UNL A   1      42.865  29.383  35.292  1.00  0.00     0.029 A 
ATOM     62  N   UNL A   1      41.543  29.635  33.519  1.00  0.00    -0.354 N 
ATOM     63  N   UNL A   1      39.334  30.845  31.992  1.00  0.00    -0.248 NA
ATOM     64  C   UNL A   1      37.451  32.222  31.906  1.00  0.00     0.031 C 
ATOM     65  C   UNL A   1      41.857  30.297  35.615  1.00  0.00     0.029 A 
ATOM     66  C   UNL A   1      41.051  30.474  34.501  1.00  0.00     0.049 A 
ATOM     67  H   UNL A   1      41.163  29.536  32.616  1.00  0.00     0.167 HD
ATOM     68  C   UNL A   1      39.166  31.464  33.225  1.00  0.00     0.074 A 
ATOM     69  C   UNL A   1      38.002  32.316  33.109  1.00  0.00     0.031 C 
ATOM     70  C   UNL A   1      39.911  31.341  34.351  1.00  0.00     0.037 A 
BRANCH  57  71
ATOM     71  C   UNL A   1      44.562  27.303  33.889  1.00  0.00     0.057 A 
ATOM     72  C   UNL A   1      45.856  27.835  33.875  1.00  0.00     0.134 A 
ATOM     73  C   UNL A   1      44.368  26.089  34.562  1.00  0.00     0.134 A 
ATOM     74  F   UNL A   1      46.113  28.983  33.231  1.00  0.00    -0.206 F 
ATOM     75  C   UNL A   1      46.922  27.175  34.490  1.00  0.00     0.040 A 
ATOM     76  C   UNL A   1      45.419  25.434  35.204  1.00  0.00     0.040 A 
ATOM     77  F   UNL A   1      43.152  25.525  34.613  1.00  0.00    -0.206 F 
ATOM     78  C   UNL A   1      46.702  25.974  35.163  1.00  0.00     0.006 A 
ENDBRANCH  57  71
BRANCH  58  79
ATOM     79  C   UNL A   1      36.899  31.583  29.102  1.00  0.00     0.057 A 
ATOM     80  C   UNL A   1      35.726  30.848  28.893  1.00  0.00     0.134 A 
ATOM     81  C   UNL A   1      36.926  32.900  28.625  1.00  0.00     0.134 A 
ATOM     82  F   UNL A   1      35.648  29.573  29.303  1.00  0.00    -0.206 F 
ATOM     83  C   UNL A   1      34.630  31.394  28.224  1.00  0.00     0.040 A 
ATOM     84  C   UNL A   1      35.827  33.467  27.978  1.00  0.00     0.040 A 
ATOM     85  F   UNL A   1      38.021  33.657  28.788  1.00  0.00    -0.206 F 
ATOM     86  C   UNL A   1      34.676  32.710  27.769  1.00  0.00     0.006 A 
ENDBRANCH  58  79
BRANCH  70  87
ATOM     87  C   UNL A   1      39.547  32.197  35.528  1.00  0.00     0.057 A 
ATOM     88  C   UNL A   1      38.719  31.734  36.556  1.00  0.00     0.134 A 
ATOM     89  C   UNL A   1      40.116  33.470  35.674  1.00  0.00     0.134 A 
ATOM     90  F   UNL A   1      38.136  30.529  36.471  1.00  0.00    -0.206 F 
ATOM     91  C   UNL A   1      38.466  32.510  37.689  1.00  0.00     0.040 A 
ATOM     92  C   UNL A   1      39.890  34.244  36.812  1.00  0.00     0.040 A 
ATOM     93  F   UNL A   1      40.928  33.965  34.728  1.00  0.00    -0.206 F 
ATOM     94  C   UNL A   1      39.062  33.764  37.824  1.00  0.00     0.006 A 
ENDBRANCH  70  87
ENDBRANCH  44  45
ENDBRANCH  37  39
ENDBRANCH  36  37
ENDBRANCH  35  36
ENDBRANCH  34  35
ENDBRANCH  33  34
ENDBRANCH  32  33
ENDBRANCH   1  32
TORSDOF 23
ENDMDL
