MODEL 1
REMARK VINA RESULT:     -11.3      0.000      0.000
REMARK SMILES O=C(CSc1nnc2sc3ccccc3n12)N[C@H](Cc1c[nH]c2ccccc12)C(=O)OCCOCCOCCOC(=O)c1ccc(-c2c3nc(c(-c4c(F)cccc4F)c4ccc([nH]4)c(-c4c(F)cccc4F)c4nc(c(-c5c(F)cccc5F)c5ccc2[nH]5)C=C4)C=C3)cc1
REMARK SMILES IDX 35 1 34 2 33 3 32 4 31 5 29 6 30 7 18 8 17 9 1 10 2 11 3 13
REMARK SMILES IDX 4 14 5 15 6 16 16 17 7 18 8 19 15 20 9 21 10 22 14 23 11 24
REMARK SMILES IDX 13 25 12 26 19 27 20 28 21 29 28 30 22 31 23 32 27 33 24 35
REMARK SMILES IDX 26 36 25 37 36 38 37 39 38 40 39 41 40 42 41 43 42 44 43 45
REMARK SMILES IDX 44 46 96 47 45 48 95 49 46 50 47 51 48 52 89 53 49 54 94 55
REMARK SMILES IDX 88 56 90 57 50 58 93 59 87 60 86 61 51 63 77 64 60 65 76 66
REMARK SMILES IDX 61 67 64 68 75 69 91 70 62 71 63 72 74 74 92 75 65 76 52 77
REMARK SMILES IDX 53 78 58 79 54 80 55 81 57 82 59 83 56 84 78 85 79 86 84 87
REMARK SMILES IDX 80 88 81 89 83 90 85 91 82 92 66 93 67 94 72 95 68 96 69 97
REMARK SMILES IDX 71 98 73 99 70 100
REMARK H PARENT 17 12 22 34 90 62 64 73
REMARK Flexibility Score: inf
ROOT
ATOM      1  C   UNL A   1      40.580  20.175  26.507  1.00  0.00     0.188 C 
ENDROOT
BRANCH   1   2
ATOM      2  O   UNL A   1      40.265  21.485  26.090  1.00  0.00    -0.376 OA
BRANCH   2   3
ATOM      3  C   UNL A   1      38.939  21.965  26.276  1.00  0.00     0.202 C 
BRANCH   3   4
ATOM      4  C   UNL A   1      37.967  21.947  25.089  1.00  0.00     0.261 C 
BRANCH   4   5
ATOM      5  O   UNL A   1      36.694  22.599  25.363  1.00  0.00    -0.462 OA
BRANCH   5   6
ATOM      6  C   UNL A   1      35.613  21.812  25.181  1.00  0.00     0.329 C 
ATOM      7  O   UNL A   1      35.671  20.765  24.521  1.00  0.00    -0.250 OA
BRANCH   6   8
ATOM      8  C   UNL A   1      34.251  22.191  25.860  1.00  0.00     0.196 C 
BRANCH   8   9
ATOM      9  N   UNL A   1      33.449  22.194  24.650  1.00  0.00    -0.342 N 
ATOM     10  O   UNL A   1      31.923  20.515  25.040  1.00  0.00    -0.274 OA
ATOM     11  C   UNL A   1      32.370  21.424  24.357  1.00  0.00     0.231 C 
ATOM     12  H   UNL A   1      33.723  22.834  23.954  1.00  0.00     0.164 HD
BRANCH  11  13
ATOM     13  C   UNL A   1      31.763  21.822  23.037  1.00  0.00     0.178 C 
BRANCH  13  14
ATOM     14  S   UNL A   1      30.913  23.414  23.288  1.00  0.00    -0.076 SA
BRANCH  14  15
ATOM     15  C   UNL A   1      32.149  24.418  22.619  1.00  0.00     0.197 A 
ATOM     16  N   UNL A   1      33.339  24.020  22.207  1.00  0.00    -0.122 NA
ATOM     17  N   UNL A   1      32.112  25.778  22.649  1.00  0.00    -0.260 N 
ATOM     18  N   UNL A   1      34.119  25.159  21.981  1.00  0.00    -0.118 NA
ATOM     19  C   UNL A   1      33.358  26.179  22.278  1.00  0.00     0.217 A 
ATOM     20  C   UNL A   1      31.199  26.789  22.939  1.00  0.00     0.068 A 
ATOM     21  S   UNL A   1      33.534  27.900  22.253  1.00  0.00    -0.094 S 
ATOM     22  C   UNL A   1      31.812  28.036  22.755  1.00  0.00     0.055 A 
ATOM     23  C   UNL A   1      29.873  26.663  23.324  1.00  0.00     0.028 A 
ATOM     24  C   UNL A   1      31.076  29.194  22.934  1.00  0.00     0.021 A 
ATOM     25  C   UNL A   1      29.144  27.830  23.538  1.00  0.00     0.002 A 
ATOM     26  C   UNL A   1      29.735  29.084  23.328  1.00  0.00     0.002 A 
ENDBRANCH  14  15
ENDBRANCH  13  14
ENDBRANCH  11  13
ENDBRANCH   8   9
BRANCH   8  27
ATOM     27  C   UNL A   1      33.949  23.254  26.919  1.00  0.00     0.074 C 
BRANCH  27  28
ATOM     28  C   UNL A   1      32.899  24.356  26.589  1.00  0.00    -0.020 A 
ATOM     29  C   UNL A   1      31.533  24.162  26.766  1.00  0.00     0.087 A 
ATOM     30  C   UNL A   1      33.020  25.760  26.229  1.00  0.00     0.003 A 
ATOM     31  N   UNL A   1      30.891  25.370  26.707  1.00  0.00    -0.361 N 
ATOM     32  C   UNL A   1      31.798  26.377  26.511  1.00  0.00     0.046 A 
ATOM     33  C   UNL A   1      34.044  26.622  25.791  1.00  0.00     0.010 A 
ATOM     34  H   UNL A   1      29.918  25.496  26.794  1.00  0.00     0.166 HD
ATOM     35  C   UNL A   1      31.628  27.771  26.575  1.00  0.00     0.026 A 
ATOM     36  C   UNL A   1      33.928  28.009  25.925  1.00  0.00     0.001 A 
ATOM     37  C   UNL A   1      32.739  28.579  26.339  1.00  0.00     0.002 A 
ENDBRANCH  27  28
ENDBRANCH   8  27
ENDBRANCH   6   8
ENDBRANCH   5   6
ENDBRANCH   4   5
ENDBRANCH   3   4
ENDBRANCH   2   3
ENDBRANCH   1   2
BRANCH   1  38
ATOM     38  C   UNL A   1      42.044  19.749  26.522  1.00  0.00     0.188 C 
BRANCH  38  39
ATOM     39  O   UNL A   1      42.504  18.627  25.823  1.00  0.00    -0.376 OA
BRANCH  39  40
ATOM     40  C   UNL A   1      43.778  18.116  26.173  1.00  0.00     0.202 C 
BRANCH  40  41
ATOM     41  C   UNL A   1      45.085  18.533  25.440  1.00  0.00     0.261 C 
BRANCH  41  42
ATOM     42  O   UNL A   1      45.475  19.924  25.520  1.00  0.00    -0.460 OA
BRANCH  42  43
ATOM     43  C   UNL A   1      45.022  20.768  24.544  1.00  0.00     0.338 C 
ATOM     44  O   UNL A   1      44.768  20.457  23.388  1.00  0.00    -0.246 OA
BRANCH  43  45
ATOM     45  C   UNL A   1      44.507  22.026  25.196  1.00  0.00     0.060 A 
ATOM     46  C   UNL A   1      43.612  22.894  24.560  1.00  0.00     0.016 A 
ATOM     47  C   UNL A   1      45.232  22.504  26.302  1.00  0.00     0.016 A 
ATOM     48  C   UNL A   1      43.526  24.242  24.969  1.00  0.00     0.010 A 
ATOM     49  C   UNL A   1      45.143  23.851  26.702  1.00  0.00     0.010 A 
ATOM     50  C   UNL A   1      44.318  24.755  26.020  1.00  0.00    -0.014 A 
BRANCH  50  51
ATOM     51  C   UNL A   1      43.946  26.038  26.685  1.00  0.00     0.031 A 
ATOM     52  C   UNL A   1      44.939  27.062  26.344  1.00  0.00     0.074 A 
ATOM     53  C   UNL A   1      42.948  26.437  27.519  1.00  0.00     0.049 A 
ATOM     54  N   UNL A   1      45.844  27.450  27.178  1.00  0.00    -0.248 NA
ATOM     55  C   UNL A   1      45.126  27.525  24.970  1.00  0.00     0.031 C 
ATOM     56  C   UNL A   1      42.012  25.597  28.225  1.00  0.00     0.029 A 
ATOM     57  N   UNL A   1      42.555  27.695  27.965  1.00  0.00    -0.354 N 
ATOM     58  C   UNL A   1      46.539  28.438  26.517  1.00  0.00     0.074 A 
ATOM     59  C   UNL A   1      46.211  28.291  25.121  1.00  0.00     0.031 C 
ATOM     60  C   UNL A   1      41.007  26.322  28.767  1.00  0.00     0.029 A 
ATOM     61  C   UNL A   1      41.277  27.733  28.545  1.00  0.00     0.049 A 
ATOM     62  H   UNL A   1      43.126  28.493  27.881  1.00  0.00     0.167 HD
ATOM     63  C   UNL A   1      47.000  29.485  27.247  1.00  0.00     0.037 A 
ATOM     64  C   UNL A   1      40.635  28.677  29.289  1.00  0.00     0.037 A 
ATOM     65  C   UNL A   1      47.047  29.163  28.659  1.00  0.00     0.049 A 
ATOM     66  C   UNL A   1      41.632  29.426  30.051  1.00  0.00     0.074 A 
ATOM     67  C   UNL A   1      47.860  28.456  29.520  1.00  0.00     0.029 A 
ATOM     68  N   UNL A   1      45.860  29.354  29.310  1.00  0.00    -0.354 N 
ATOM     69  N   UNL A   1      42.245  28.929  31.085  1.00  0.00    -0.248 NA
ATOM     70  C   UNL A   1      42.221  30.617  29.458  1.00  0.00     0.031 C 
ATOM     71  C   UNL A   1      47.096  28.198  30.701  1.00  0.00     0.029 A 
ATOM     72  C   UNL A   1      45.843  28.776  30.551  1.00  0.00     0.049 A 
ATOM     73  H   UNL A   1      45.101  29.852  28.929  1.00  0.00     0.167 HD
ATOM     74  C   UNL A   1      43.517  29.440  30.962  1.00  0.00     0.074 A 
ATOM     75  C   UNL A   1      43.402  30.594  30.077  1.00  0.00     0.031 C 
ATOM     76  C   UNL A   1      44.599  28.675  31.269  1.00  0.00     0.037 A 
BRANCH  63  77
ATOM     77  C   UNL A   1      46.848  30.921  26.794  1.00  0.00     0.057 A 
ATOM     78  C   UNL A   1      45.616  31.580  26.599  1.00  0.00     0.134 A 
ATOM     79  C   UNL A   1      47.968  31.767  26.880  1.00  0.00     0.134 A 
ATOM     80  F   UNL A   1      44.443  30.939  26.574  1.00  0.00    -0.206 F 
ATOM     81  C   UNL A   1      45.501  32.969  26.524  1.00  0.00     0.040 A 
ATOM     82  C   UNL A   1      47.857  33.162  26.851  1.00  0.00     0.040 A 
ATOM     83  F   UNL A   1      49.196  31.265  27.078  1.00  0.00    -0.206 F 
ATOM     84  C   UNL A   1      46.619  33.768  26.682  1.00  0.00     0.006 A 
ENDBRANCH  63  77
BRANCH  64  85
ATOM     85  C   UNL A   1      39.225  29.136  29.202  1.00  0.00     0.057 A 
ATOM     86  C   UNL A   1      38.367  28.982  30.298  1.00  0.00     0.134 A 
ATOM     87  C   UNL A   1      38.607  29.496  27.994  1.00  0.00     0.134 A 
ATOM     88  F   UNL A   1      38.842  28.497  31.451  1.00  0.00    -0.206 F 
ATOM     89  C   UNL A   1      36.987  29.216  30.222  1.00  0.00     0.040 A 
ATOM     90  C   UNL A   1      37.221  29.705  27.892  1.00  0.00     0.040 A 
ATOM     91  F   UNL A   1      39.325  29.601  26.867  1.00  0.00    -0.206 F 
ATOM     92  C   UNL A   1      36.406  29.570  29.012  1.00  0.00     0.006 A 
ENDBRANCH  64  85
BRANCH  76  93
ATOM     93  C   UNL A   1      44.413  27.611  32.299  1.00  0.00     0.057 A 
ATOM     94  C   UNL A   1      44.277  26.292  31.858  1.00  0.00     0.134 A 
ATOM     95  C   UNL A   1      44.342  27.834  33.680  1.00  0.00     0.134 A 
ATOM     96  F   UNL A   1      44.323  26.012  30.546  1.00  0.00    -0.206 F 
ATOM     97  C   UNL A   1      44.075  25.234  32.745  1.00  0.00     0.040 A 
ATOM     98  C   UNL A   1      44.162  26.781  34.584  1.00  0.00     0.040 A 
ATOM     99  F   UNL A   1      44.424  29.072  34.185  1.00  0.00    -0.206 F 
ATOM    100  C   UNL A   1      44.022  25.477  34.115  1.00  0.00     0.006 A 
ENDBRANCH  76  93
ENDBRANCH  50  51
ENDBRANCH  43  45
ENDBRANCH  42  43
ENDBRANCH  41  42
ENDBRANCH  40  41
ENDBRANCH  39  40
ENDBRANCH  38  39
ENDBRANCH   1  38
TORSDOF 23
ENDMDL
MODEL 2
REMARK VINA RESULT:     -11.1      1.732      3.476
REMARK SMILES O=C(CSc1nnc2sc3ccccc3n12)N[C@H](Cc1c[nH]c2ccccc12)C(=O)OCCOCCOCCOC(=O)c1ccc(-c2c3nc(c(-c4c(F)cccc4F)c4ccc([nH]4)c(-c4c(F)cccc4F)c4nc(c(-c5c(F)cccc5F)c5ccc2[nH]5)C=C4)C=C3)cc1
REMARK SMILES IDX 35 1 34 2 33 3 32 4 31 5 29 6 30 7 18 8 17 9 1 10 2 11 3 13
REMARK SMILES IDX 4 14 5 15 6 16 16 17 7 18 8 19 15 20 9 21 10 22 14 23 11 24
REMARK SMILES IDX 13 25 12 26 19 27 20 28 21 29 28 30 22 31 23 32 27 33 24 35
REMARK SMILES IDX 26 36 25 37 36 38 37 39 38 40 39 41 40 42 41 43 42 44 43 45
REMARK SMILES IDX 44 46 96 47 45 48 95 49 46 50 47 51 48 52 89 53 49 54 94 55
REMARK SMILES IDX 88 56 90 57 50 58 93 59 87 60 86 61 51 63 77 64 60 65 76 66
REMARK SMILES IDX 61 67 64 68 75 69 91 70 62 71 63 72 74 74 92 75 65 76 52 77
REMARK SMILES IDX 53 78 58 79 54 80 55 81 57 82 59 83 56 84 78 85 79 86 84 87
REMARK SMILES IDX 80 88 81 89 83 90 85 91 82 92 66 93 67 94 72 95 68 96 69 97
REMARK SMILES IDX 71 98 73 99 70 100
REMARK H PARENT 17 12 22 34 90 62 64 73
REMARK Flexibility Score: inf
ROOT
ATOM      1  C   UNL A   1      39.637  20.930  26.462  1.00  0.00     0.188 C 
ENDROOT
BRANCH   1   2
ATOM      2  O   UNL A   1      38.976  21.622  25.427  1.00  0.00    -0.376 OA
BRANCH   2   3
ATOM      3  C   UNL A   1      37.672  21.201  25.043  1.00  0.00     0.202 C 
BRANCH   3   4
ATOM      4  C   UNL A   1      36.622  22.262  24.687  1.00  0.00     0.261 C 
BRANCH   4   5
ATOM      5  O   UNL A   1      35.718  22.583  25.782  1.00  0.00    -0.462 OA
BRANCH   5   6
ATOM      6  C   UNL A   1      34.484  22.966  25.395  1.00  0.00     0.329 C 
ATOM      7  O   UNL A   1      33.799  23.745  26.072  1.00  0.00    -0.250 OA
BRANCH   6   8
ATOM      8  C   UNL A   1      33.906  22.463  24.026  1.00  0.00     0.196 C 
BRANCH   8   9
ATOM      9  N   UNL A   1      33.202  23.683  23.676  1.00  0.00    -0.342 N 
ATOM     10  O   UNL A   1      33.482  23.803  21.394  1.00  0.00    -0.274 OA
ATOM     11  C   UNL A   1      33.012  24.219  22.442  1.00  0.00     0.231 C 
ATOM     12  H   UNL A   1      32.814  24.187  24.428  1.00  0.00     0.164 HD
BRANCH  11  13
ATOM     13  C   UNL A   1      32.131  25.438  22.511  1.00  0.00     0.178 C 
BRANCH  13  14
ATOM     14  S   UNL A   1      30.784  25.069  23.682  1.00  0.00    -0.076 SA
BRANCH  14  15
ATOM     15  C   UNL A   1      30.114  26.662  23.736  1.00  0.00     0.197 A 
ATOM     16  N   UNL A   1      29.024  27.070  23.112  1.00  0.00    -0.122 NA
ATOM     17  N   UNL A   1      30.769  27.736  24.255  1.00  0.00    -0.260 N 
ATOM     18  N   UNL A   1      28.973  28.465  23.205  1.00  0.00    -0.118 NA
ATOM     19  C   UNL A   1      30.040  28.819  23.872  1.00  0.00     0.217 A 
ATOM     20  C   UNL A   1      31.904  27.994  25.020  1.00  0.00     0.068 A 
ATOM     21  S   UNL A   1      30.708  30.314  24.431  1.00  0.00    -0.094 S 
ATOM     22  C   UNL A   1      32.017  29.375  25.231  1.00  0.00     0.055 A 
ATOM     23  C   UNL A   1      32.807  27.085  25.549  1.00  0.00     0.028 A 
ATOM     24  C   UNL A   1      33.047  29.865  26.015  1.00  0.00     0.021 A 
ATOM     25  C   UNL A   1      33.862  27.583  26.308  1.00  0.00     0.002 A 
ATOM     26  C   UNL A   1      33.972  28.960  26.553  1.00  0.00     0.002 A 
ENDBRANCH  14  15
ENDBRANCH  13  14
ENDBRANCH  11  13
ENDBRANCH   8   9
BRANCH   8  27
ATOM     27  C   UNL A   1      33.242  21.130  23.676  1.00  0.00     0.074 C 
BRANCH  27  28
ATOM     28  C   UNL A   1      33.337  19.959  24.701  1.00  0.00    -0.020 A 
ATOM     29  C   UNL A   1      32.999  20.113  26.041  1.00  0.00     0.087 A 
ATOM     30  C   UNL A   1      33.590  18.535  24.552  1.00  0.00     0.003 A 
ATOM     31  N   UNL A   1      32.871  18.878  26.621  1.00  0.00    -0.361 N 
ATOM     32  C   UNL A   1      33.099  17.896  25.695  1.00  0.00     0.046 A 
ATOM     33  C   UNL A   1      34.084  17.680  23.548  1.00  0.00     0.010 A 
ATOM     34  H   UNL A   1      32.648  18.721  27.567  1.00  0.00     0.166 HD
ATOM     35  C   UNL A   1      32.895  16.508  25.781  1.00  0.00     0.026 A 
ATOM     36  C   UNL A   1      33.819  16.307  23.572  1.00  0.00     0.001 A 
ATOM     37  C   UNL A   1      33.206  15.728  24.668  1.00  0.00     0.002 A 
ENDBRANCH  27  28
ENDBRANCH   8  27
ENDBRANCH   6   8
ENDBRANCH   5   6
ENDBRANCH   4   5
ENDBRANCH   3   4
ENDBRANCH   2   3
ENDBRANCH   1   2
BRANCH   1  38
ATOM     38  C   UNL A   1      40.604  19.813  26.087  1.00  0.00     0.188 C 
BRANCH  38  39
ATOM     39  O   UNL A   1      41.926  20.065  25.701  1.00  0.00    -0.376 OA
BRANCH  39  40
ATOM     40  C   UNL A   1      42.864  19.014  25.856  1.00  0.00     0.202 C 
BRANCH  40  41
ATOM     41  C   UNL A   1      44.072  18.812  24.896  1.00  0.00     0.261 C 
BRANCH  41  42
ATOM     42  O   UNL A   1      44.525  19.966  24.150  1.00  0.00    -0.460 OA
BRANCH  42  43
ATOM     43  C   UNL A   1      45.521  20.725  24.698  1.00  0.00     0.338 C 
ATOM     44  O   UNL A   1      46.717  20.620  24.457  1.00  0.00    -0.246 OA
BRANCH  43  45
ATOM     45  C   UNL A   1      44.906  21.954  25.318  1.00  0.00     0.060 A 
ATOM     46  C   UNL A   1      43.977  22.754  24.645  1.00  0.00     0.016 A 
ATOM     47  C   UNL A   1      45.565  22.490  26.438  1.00  0.00     0.016 A 
ATOM     48  C   UNL A   1      43.790  24.099  25.033  1.00  0.00     0.010 A 
ATOM     49  C   UNL A   1      45.377  23.832  26.818  1.00  0.00     0.010 A 
ATOM     50  C   UNL A   1      44.516  24.673  26.101  1.00  0.00    -0.014 A 
BRANCH  50  51
ATOM     51  C   UNL A   1      44.042  25.937  26.738  1.00  0.00     0.031 A 
ATOM     52  C   UNL A   1      44.966  27.024  26.397  1.00  0.00     0.074 A 
ATOM     53  C   UNL A   1      43.004  26.276  27.548  1.00  0.00     0.049 A 
ATOM     54  N   UNL A   1      45.826  27.487  27.240  1.00  0.00    -0.248 NA
ATOM     55  C   UNL A   1      45.145  27.478  25.019  1.00  0.00     0.031 C 
ATOM     56  C   UNL A   1      42.117  25.383  28.252  1.00  0.00     0.029 A 
ATOM     57  N   UNL A   1      42.513  27.510  27.967  1.00  0.00    -0.354 N 
ATOM     58  C   UNL A   1      46.460  28.513  26.575  1.00  0.00     0.074 A 
ATOM     59  C   UNL A   1      46.170  28.322  25.176  1.00  0.00     0.031 C 
ATOM     60  C   UNL A   1      41.053  26.042  28.765  1.00  0.00     0.029 A 
ATOM     61  C   UNL A   1      41.226  27.465  28.525  1.00  0.00     0.049 A 
ATOM     62  H   UNL A   1      43.028  28.345  27.879  1.00  0.00     0.167 HD
ATOM     63  C   UNL A   1      46.833  29.601  27.295  1.00  0.00     0.037 A 
ATOM     64  C   UNL A   1      40.505  28.373  29.242  1.00  0.00     0.037 A 
ATOM     65  C   UNL A   1      46.877  29.305  28.713  1.00  0.00     0.049 A 
ATOM     66  C   UNL A   1      41.433  29.202  30.008  1.00  0.00     0.074 A 
ATOM     67  C   UNL A   1      47.723  28.671  29.600  1.00  0.00     0.029 A 
ATOM     68  N   UNL A   1      45.668  29.421  29.341  1.00  0.00    -0.354 N 
ATOM     69  N   UNL A   1      42.061  28.766  31.060  1.00  0.00    -0.248 NA
ATOM     70  C   UNL A   1      41.946  30.422  29.406  1.00  0.00     0.031 C 
ATOM     71  C   UNL A   1      46.957  28.377  30.771  1.00  0.00     0.029 A 
ATOM     72  C   UNL A   1      45.669  28.861  30.590  1.00  0.00     0.049 A 
ATOM     73  H   UNL A   1      44.883  29.857  28.938  1.00  0.00     0.167 HD
ATOM     74  C   UNL A   1      43.295  29.364  30.950  1.00  0.00     0.074 A 
ATOM     75  C   UNL A   1      43.114  30.493  30.045  1.00  0.00     0.031 C 
ATOM     76  C   UNL A   1      44.422  28.683  31.289  1.00  0.00     0.037 A 
BRANCH  63  77
ATOM     77  C   UNL A   1      46.588  31.015  26.817  1.00  0.00     0.057 A 
ATOM     78  C   UNL A   1      45.315  31.591  26.617  1.00  0.00     0.134 A 
ATOM     79  C   UNL A   1      47.652  31.932  26.878  1.00  0.00     0.134 A 
ATOM     80  F   UNL A   1      44.185  30.877  26.612  1.00  0.00    -0.206 F 
ATOM     81  C   UNL A   1      45.112  32.969  26.517  1.00  0.00     0.040 A 
ATOM     82  C   UNL A   1      47.452  33.316  26.824  1.00  0.00     0.040 A 
ATOM     83  F   UNL A   1      48.911  31.513  27.078  1.00  0.00    -0.206 F 
ATOM     84  C   UNL A   1      46.178  33.839  26.652  1.00  0.00     0.006 A 
ENDBRANCH  63  77
BRANCH  64  85
ATOM     85  C   UNL A   1      39.068  28.728  29.123  1.00  0.00     0.057 A 
ATOM     86  C   UNL A   1      38.580  29.294  27.938  1.00  0.00     0.134 A 
ATOM     87  C   UNL A   1      38.193  28.769  30.219  1.00  0.00     0.134 A 
ATOM     88  F   UNL A   1      39.393  29.436  26.885  1.00  0.00    -0.206 F 
ATOM     89  C   UNL A   1      37.287  29.825  27.825  1.00  0.00     0.040 A 
ATOM     90  C   UNL A   1      36.904  29.324  30.133  1.00  0.00     0.040 A 
ATOM     91  F   UNL A   1      38.585  28.319  31.420  1.00  0.00    -0.206 F 
ATOM     92  C   UNL A   1      36.445  29.850  28.929  1.00  0.00     0.006 A 
ENDBRANCH  64  85
BRANCH  76  93
ATOM     93  C   UNL A   1      44.294  27.624  32.333  1.00  0.00     0.057 A 
ATOM     94  C   UNL A   1      44.250  26.293  31.911  1.00  0.00     0.134 A 
ATOM     95  C   UNL A   1      44.192  27.862  33.709  1.00  0.00     0.134 A 
ATOM     96  F   UNL A   1      44.330  25.998  30.603  1.00  0.00    -0.206 F 
ATOM     97  C   UNL A   1      44.106  25.237  32.812  1.00  0.00     0.040 A 
ATOM     98  C   UNL A   1      44.070  26.813  34.627  1.00  0.00     0.040 A 
ATOM     99  F   UNL A   1      44.186  29.110  34.196  1.00  0.00    -0.206 F 
ATOM    100  C   UNL A   1      44.022  25.496  34.177  1.00  0.00     0.006 A 
ENDBRANCH  76  93
ENDBRANCH  50  51
ENDBRANCH  43  45
ENDBRANCH  42  43
ENDBRANCH  41  42
ENDBRANCH  40  41
ENDBRANCH  39  40
ENDBRANCH  38  39
ENDBRANCH   1  38
TORSDOF 23
ENDMDL
MODEL 3
REMARK VINA RESULT:     -10.1      1.936      4.142
REMARK SMILES O=C(CSc1nnc2sc3ccccc3n12)N[C@H](Cc1c[nH]c2ccccc12)C(=O)OCCOCCOCCOC(=O)c1ccc(-c2c3nc(c(-c4c(F)cccc4F)c4ccc([nH]4)c(-c4c(F)cccc4F)c4nc(c(-c5c(F)cccc5F)c5ccc2[nH]5)C=C4)C=C3)cc1
REMARK SMILES IDX 35 1 34 2 33 3 32 4 31 5 29 6 30 7 18 8 17 9 1 10 2 11 3 13
REMARK SMILES IDX 4 14 5 15 6 16 16 17 7 18 8 19 15 20 9 21 10 22 14 23 11 24
REMARK SMILES IDX 13 25 12 26 19 27 20 28 21 29 28 30 22 31 23 32 27 33 24 35
REMARK SMILES IDX 26 36 25 37 36 38 37 39 38 40 39 41 40 42 41 43 42 44 43 45
REMARK SMILES IDX 44 46 96 47 45 48 95 49 46 50 47 51 48 52 89 53 49 54 94 55
REMARK SMILES IDX 88 56 90 57 50 58 93 59 87 60 86 61 51 63 77 64 60 65 76 66
REMARK SMILES IDX 61 67 64 68 75 69 91 70 62 71 63 72 74 74 92 75 65 76 52 77
REMARK SMILES IDX 53 78 58 79 54 80 55 81 57 82 59 83 56 84 78 85 79 86 84 87
REMARK SMILES IDX 80 88 81 89 83 90 85 91 82 92 66 93 67 94 72 95 68 96 69 97
REMARK SMILES IDX 71 98 73 99 70 100
REMARK H PARENT 17 12 22 34 90 62 64 73
REMARK Flexibility Score: inf
ROOT
ATOM      1  C   UNL A   1      40.814  20.187  26.099  1.00  0.00     0.188 C 
ENDROOT
BRANCH   1   2
ATOM      2  O   UNL A   1      40.287  21.456  25.784  1.00  0.00    -0.376 OA
BRANCH   2   3
ATOM      3  C   UNL A   1      38.967  21.777  26.207  1.00  0.00     0.202 C 
BRANCH   3   4
ATOM      4  C   UNL A   1      37.925  22.178  25.155  1.00  0.00     0.261 C 
BRANCH   4   5
ATOM      5  O   UNL A   1      36.621  22.500  25.715  1.00  0.00    -0.462 OA
BRANCH   5   6
ATOM      6  C   UNL A   1      35.698  21.525  25.581  1.00  0.00     0.329 C 
ATOM      7  O   UNL A   1      35.980  20.422  25.092  1.00  0.00    -0.250 OA
BRANCH   6   8
ATOM      8  C   UNL A   1      34.236  21.759  26.100  1.00  0.00     0.196 C 
BRANCH   8   9
ATOM      9  N   UNL A   1      33.594  21.797  24.799  1.00  0.00    -0.342 N 
ATOM     10  O   UNL A   1      32.096  20.053  24.912  1.00  0.00    -0.274 OA
ATOM     11  C   UNL A   1      32.590  21.009  24.334  1.00  0.00     0.231 C 
ATOM     12  H   UNL A   1      33.929  22.481  24.174  1.00  0.00     0.164 HD
BRANCH  11  13
ATOM     13  C   UNL A   1      32.141  21.454  22.968  1.00  0.00     0.178 C 
BRANCH  13  14
ATOM     14  S   UNL A   1      31.156  22.972  23.187  1.00  0.00    -0.076 SA
BRANCH  14  15
ATOM     15  C   UNL A   1      32.332  24.074  22.563  1.00  0.00     0.197 A 
ATOM     16  N   UNL A   1      33.550  23.767  22.155  1.00  0.00    -0.122 NA
ATOM     17  N   UNL A   1      32.205  25.428  22.632  1.00  0.00    -0.260 N 
ATOM     18  N   UNL A   1      34.255  24.960  21.973  1.00  0.00    -0.118 NA
ATOM     19  C   UNL A   1      33.426  25.920  22.289  1.00  0.00     0.217 A 
ATOM     20  C   UNL A   1      31.224  26.368  22.939  1.00  0.00     0.068 A 
ATOM     21  S   UNL A   1      33.489  27.648  22.316  1.00  0.00    -0.094 S 
ATOM     22  C   UNL A   1      31.756  27.656  22.799  1.00  0.00     0.055 A 
ATOM     23  C   UNL A   1      29.905  26.144  23.302  1.00  0.00     0.028 A 
ATOM     24  C   UNL A   1      30.943  28.758  23.001  1.00  0.00     0.021 A 
ATOM     25  C   UNL A   1      29.099  27.253  23.540  1.00  0.00     0.002 A 
ATOM     26  C   UNL A   1      29.608  28.549  23.374  1.00  0.00     0.002 A 
ENDBRANCH  14  15
ENDBRANCH  13  14
ENDBRANCH  11  13
ENDBRANCH   8   9
BRANCH   8  27
ATOM     27  C   UNL A   1      33.724  22.716  27.178  1.00  0.00     0.074 C 
BRANCH  27  28
ATOM     28  C   UNL A   1      32.679  23.800  26.775  1.00  0.00    -0.020 A 
ATOM     29  C   UNL A   1      31.310  23.609  26.929  1.00  0.00     0.087 A 
ATOM     30  C   UNL A   1      32.806  25.187  26.356  1.00  0.00     0.003 A 
ATOM     31  N   UNL A   1      30.667  24.812  26.802  1.00  0.00    -0.361 N 
ATOM     32  C   UNL A   1      31.576  25.812  26.582  1.00  0.00     0.046 A 
ATOM     33  C   UNL A   1      33.838  26.032  25.904  1.00  0.00     0.010 A 
ATOM     34  H   UNL A   1      29.692  24.939  26.860  1.00  0.00     0.166 HD
ATOM     35  C   UNL A   1      31.402  27.207  26.581  1.00  0.00     0.026 A 
ATOM     36  C   UNL A   1      33.717  27.423  25.974  1.00  0.00     0.001 A 
ATOM     37  C   UNL A   1      32.517  28.007  26.334  1.00  0.00     0.002 A 
ENDBRANCH  27  28
ENDBRANCH   8  27
ENDBRANCH   6   8
ENDBRANCH   5   6
ENDBRANCH   4   5
ENDBRANCH   3   4
ENDBRANCH   2   3
ENDBRANCH   1   2
BRANCH   1  38
ATOM     38  C   UNL A   1      42.320  19.977  25.989  1.00  0.00     0.188 C 
BRANCH  38  39
ATOM     39  O   UNL A   1      42.883  19.026  25.130  1.00  0.00    -0.376 OA
BRANCH  39  40
ATOM     40  C   UNL A   1      44.292  18.875  25.155  1.00  0.00     0.202 C 
BRANCH  40  41
ATOM     41  C   UNL A   1      45.254  19.808  24.365  1.00  0.00     0.261 C 
BRANCH  41  42
ATOM     42  O   UNL A   1      45.391  21.169  24.834  1.00  0.00    -0.460 OA
BRANCH  42  43
ATOM     43  C   UNL A   1      44.940  22.171  24.020  1.00  0.00     0.338 C 
ATOM     44  O   UNL A   1      44.307  22.022  22.983  1.00  0.00    -0.246 OA
BRANCH  43  45
ATOM     45  C   UNL A   1      44.986  23.470  24.784  1.00  0.00     0.060 A 
ATOM     46  C   UNL A   1      46.071  24.351  24.709  1.00  0.00     0.016 A 
ATOM     47  C   UNL A   1      44.091  23.599  25.860  1.00  0.00     0.016 A 
ATOM     48  C   UNL A   1      46.301  25.276  25.751  1.00  0.00     0.010 A 
ATOM     49  C   UNL A   1      44.329  24.521  26.897  1.00  0.00     0.010 A 
ATOM     50  C   UNL A   1      45.458  25.350  26.882  1.00  0.00    -0.014 A 
BRANCH  50  51
ATOM     51  C   UNL A   1      45.479  26.558  27.758  1.00  0.00     0.031 A 
ATOM     52  C   UNL A   1      46.421  26.336  28.860  1.00  0.00     0.074 A 
ATOM     53  C   UNL A   1      44.828  27.752  27.768  1.00  0.00     0.049 A 
ATOM     54  N   UNL A   1      46.027  26.067  30.059  1.00  0.00    -0.248 NA
ATOM     55  C   UNL A   1      47.853  26.158  28.626  1.00  0.00     0.031 C 
ATOM     56  C   UNL A   1      43.675  28.125  26.986  1.00  0.00     0.029 A 
ATOM     57  N   UNL A   1      45.021  28.912  28.513  1.00  0.00    -0.354 N 
ATOM     58  C   UNL A   1      47.183  25.979  30.803  1.00  0.00     0.074 A 
ATOM     59  C   UNL A   1      48.257  25.823  29.855  1.00  0.00     0.031 C 
ATOM     60  C   UNL A   1      43.435  29.454  27.059  1.00  0.00     0.029 A 
ATOM     61  C   UNL A   1      44.367  30.046  28.004  1.00  0.00     0.049 A 
ATOM     62  H   UNL A   1      45.571  28.935  29.330  1.00  0.00     0.167 HD
ATOM     63  C   UNL A   1      47.147  26.422  32.085  1.00  0.00     0.037 A 
ATOM     64  C   UNL A   1      44.115  31.275  28.536  1.00  0.00     0.037 A 
ATOM     65  C   UNL A   1      45.784  26.513  32.573  1.00  0.00     0.049 A 
ATOM     66  C   UNL A   1      43.976  31.135  29.985  1.00  0.00     0.074 A 
ATOM     67  C   UNL A   1      44.807  25.662  33.045  1.00  0.00     0.029 A 
ATOM     68  N   UNL A   1      45.159  27.686  32.250  1.00  0.00    -0.354 N 
ATOM     69  N   UNL A   1      42.929  30.602  30.542  1.00  0.00    -0.248 NA
ATOM     70  C   UNL A   1      45.160  31.265  30.819  1.00  0.00     0.031 C 
ATOM     71  C   UNL A   1      43.563  26.361  32.954  1.00  0.00     0.029 A 
ATOM     72  C   UNL A   1      43.807  27.633  32.457  1.00  0.00     0.049 A 
ATOM     73  H   UNL A   1      45.628  28.479  31.905  1.00  0.00     0.167 HD
ATOM     74  C   UNL A   1      43.466  29.907  31.602  1.00  0.00     0.074 A 
ATOM     75  C   UNL A   1      44.783  30.488  31.835  1.00  0.00     0.031 C 
ATOM     76  C   UNL A   1      42.970  28.689  31.947  1.00  0.00     0.037 A 
BRANCH  63  77
ATOM     77  C   UNL A   1      48.230  27.298  32.674  1.00  0.00     0.057 A 
ATOM     78  C   UNL A   1      48.518  28.615  32.257  1.00  0.00     0.134 A 
ATOM     79  C   UNL A   1      48.778  26.935  33.916  1.00  0.00     0.134 A 
ATOM     80  F   UNL A   1      48.014  29.153  31.142  1.00  0.00    -0.206 F 
ATOM     81  C   UNL A   1      49.266  29.509  33.026  1.00  0.00     0.040 A 
ATOM     82  C   UNL A   1      49.490  27.838  34.714  1.00  0.00     0.040 A 
ATOM     83  F   UNL A   1      48.566  25.714  34.431  1.00  0.00    -0.206 F 
ATOM     84  C   UNL A   1      49.728  29.133  34.274  1.00  0.00     0.006 A 
ENDBRANCH  63  77
BRANCH  64  85
ATOM     85  C   UNL A   1      44.224  32.610  27.896  1.00  0.00     0.057 A 
ATOM     86  C   UNL A   1      43.454  33.680  28.368  1.00  0.00     0.134 A 
ATOM     87  C   UNL A   1      44.872  32.825  26.669  1.00  0.00     0.134 A 
ATOM     88  F   UNL A   1      42.682  33.518  29.449  1.00  0.00    -0.206 F 
ATOM     89  C   UNL A   1      43.365  34.908  27.696  1.00  0.00     0.040 A 
ATOM     90  C   UNL A   1      44.770  34.038  25.967  1.00  0.00     0.040 A 
ATOM     91  F   UNL A   1      45.578  31.841  26.092  1.00  0.00    -0.206 F 
ATOM     92  C   UNL A   1      44.018  35.088  26.484  1.00  0.00     0.006 A 
ENDBRANCH  64  85
BRANCH  76  93
ATOM     93  C   UNL A   1      41.532  28.426  31.648  1.00  0.00     0.057 A 
ATOM     94  C   UNL A   1      40.597  28.690  32.653  1.00  0.00     0.134 A 
ATOM     95  C   UNL A   1      41.044  27.911  30.440  1.00  0.00     0.134 A 
ATOM     96  F   UNL A   1      41.001  29.173  33.839  1.00  0.00    -0.206 F 
ATOM     97  C   UNL A   1      39.234  28.452  32.474  1.00  0.00     0.040 A 
ATOM     98  C   UNL A   1      39.678  27.687  30.238  1.00  0.00     0.040 A 
ATOM     99  F   UNL A   1      41.875  27.593  29.440  1.00  0.00    -0.206 F 
ATOM    100  C   UNL A   1      38.769  27.954  31.260  1.00  0.00     0.006 A 
ENDBRANCH  76  93
ENDBRANCH  50  51
ENDBRANCH  43  45
ENDBRANCH  42  43
ENDBRANCH  41  42
ENDBRANCH  40  41
ENDBRANCH  39  40
ENDBRANCH  38  39
ENDBRANCH   1  38
TORSDOF 23
ENDMDL
