MODEL 1
REMARK VINA RESULT:     -10.6      0.000      0.000
REMARK SMILES C[C@H]1[C@H](C(=O)OCCOCCOCCOC(=O)c2ccc(-c3c4nc(c(-c5c(F)cccc5F)c5ccc([nH]5)c(-c5c(F)cccc5F)c5nc(c(-c6c(F)cccc6F)c6ccc3[nH]6)C=C5)C=C4)cc2)CCN1S(=O)(=O)N(C)Cc1ccccc1
REMARK SMILES IDX 10 1 9 2 8 3 7 4 6 5 4 6 5 7 3 8 1 9 2 10 74 11 72 12 73 13
REMARK SMILES IDX 75 14 76 15 77 16 78 17 79 18 80 19 81 20 82 21 86 22 83 23
REMARK SMILES IDX 85 24 84 25 11 26 12 27 13 28 14 29 15 30 16 31 17 32 18 33
REMARK SMILES IDX 19 34 71 35 20 36 70 37 21 38 22 39 23 40 64 41 24 42 69 43
REMARK SMILES IDX 63 44 65 45 25 46 68 47 62 48 61 49 26 51 52 52 35 53 51 54
REMARK SMILES IDX 36 55 39 56 50 57 66 58 37 59 38 60 49 62 67 63 40 64 27 65
REMARK SMILES IDX 28 66 33 67 29 68 30 69 32 70 34 71 31 72 53 73 54 74 59 75
REMARK SMILES IDX 55 76 56 77 58 78 60 79 57 80 41 81 42 82 47 83 43 84 44 85
REMARK SMILES IDX 46 86 48 87 45 88
REMARK H PARENT 65 50 39 61
REMARK Flexibility Score: inf
ROOT
ATOM      1  C   UNL A   1      34.527  31.426  27.727  1.00  0.00     0.188 C 
ENDROOT
BRANCH   1   2
ATOM      2  O   UNL A   1      33.705  30.371  27.245  1.00  0.00    -0.376 OA
BRANCH   2   3
ATOM      3  C   UNL A   1      32.392  30.734  26.814  1.00  0.00     0.202 C 
BRANCH   3   4
ATOM      4  C   UNL A   1      31.660  29.734  25.904  1.00  0.00     0.261 C 
BRANCH   4   5
ATOM      5  O   UNL A   1      32.131  29.699  24.534  1.00  0.00    -0.463 OA
BRANCH   5   6
ATOM      6  C   UNL A   1      32.891  28.623  24.206  1.00  0.00     0.310 C 
ATOM      7  O   UNL A   1      34.014  28.408  24.659  1.00  0.00    -0.252 OA
BRANCH   6   8
ATOM      8  C   UNL A   1      32.234  27.595  23.299  1.00  0.00     0.118 C 
ATOM      9  C   UNL A   1      33.019  25.855  21.650  1.00  0.00     0.027 C 
ATOM     10  C   UNL A   1      32.847  26.195  23.146  1.00  0.00     0.085 C 
ATOM     11  N   UNL A   1      31.837  25.210  23.680  1.00  0.00    -0.185 NA
ATOM     12  C   UNL A   1      30.807  27.367  23.787  1.00  0.00     0.034 C 
ATOM     13  C   UNL A   1      30.519  25.902  23.529  1.00  0.00     0.105 C 
BRANCH  11  14
ATOM     14  S   UNL A   1      32.092  24.646  25.259  1.00  0.00     0.282 S 
ATOM     15  O   UNL A   1      33.408  25.107  25.633  1.00  0.00    -0.195 OA
ATOM     16  O   UNL A   1      30.940  25.020  26.050  1.00  0.00    -0.195 OA
BRANCH  14  17
ATOM     17  N   UNL A   1      32.070  22.981  25.167  1.00  0.00    -0.188 NA
ATOM     18  C   UNL A   1      31.140  22.104  25.863  1.00  0.00     0.126 C 
BRANCH  17  19
ATOM     19  C   UNL A   1      32.720  22.388  23.981  1.00  0.00     0.138 C 
BRANCH  19  20
ATOM     20  C   UNL A   1      34.232  22.265  23.999  1.00  0.00    -0.033 A 
ATOM     21  C   UNL A   1      35.085  23.100  23.262  1.00  0.00     0.005 A 
ATOM     22  C   UNL A   1      34.814  21.256  24.785  1.00  0.00     0.005 A 
ATOM     23  C   UNL A   1      36.472  22.965  23.341  1.00  0.00     0.000 A 
ATOM     24  C   UNL A   1      36.201  21.118  24.860  1.00  0.00     0.000 A 
ATOM     25  C   UNL A   1      37.030  21.977  24.143  1.00  0.00     0.000 A 
ENDBRANCH  19  20
ENDBRANCH  17  19
ENDBRANCH  14  17
ENDBRANCH  11  14
ENDBRANCH   6   8
ENDBRANCH   5   6
ENDBRANCH   4   5
ENDBRANCH   3   4
ENDBRANCH   2   3
ENDBRANCH   1   2
BRANCH   1  26
ATOM     26  C   UNL A   1      33.825  32.768  27.960  1.00  0.00     0.188 C 
BRANCH  26  27
ATOM     27  O   UNL A   1      34.651  33.822  28.415  1.00  0.00    -0.376 OA
BRANCH  27  28
ATOM     28  C   UNL A   1      34.171  34.650  29.473  1.00  0.00     0.202 C 
BRANCH  28  29
ATOM     29  C   UNL A   1      34.411  34.222  30.936  1.00  0.00     0.261 C 
BRANCH  29  30
ATOM     30  O   UNL A   1      34.846  32.867  31.175  1.00  0.00    -0.460 OA
BRANCH  30  31
ATOM     31  C   UNL A   1      35.740  32.618  32.159  1.00  0.00     0.338 C 
ATOM     32  O   UNL A   1      35.557  32.743  33.360  1.00  0.00    -0.246 OA
BRANCH  31  33
ATOM     33  C   UNL A   1      36.877  31.864  31.554  1.00  0.00     0.060 A 
ATOM     34  C   UNL A   1      37.593  30.971  32.366  1.00  0.00     0.016 A 
ATOM     35  C   UNL A   1      37.164  31.935  30.188  1.00  0.00     0.016 A 
ATOM     36  C   UNL A   1      38.599  30.161  31.825  1.00  0.00     0.010 A 
ATOM     37  C   UNL A   1      38.185  31.143  29.651  1.00  0.00     0.010 A 
ATOM     38  C   UNL A   1      38.926  30.271  30.469  1.00  0.00    -0.014 A 
BRANCH  38  39
ATOM     39  C   UNL A   1      40.180  29.682  29.933  1.00  0.00     0.031 A 
ATOM     40  C   UNL A   1      41.353  30.608  29.751  1.00  0.00     0.074 A 
ATOM     41  C   UNL A   1      40.285  28.390  29.574  1.00  0.00     0.049 A 
ATOM     42  N   UNL A   1      42.478  30.417  29.116  1.00  0.00    -0.248 NA
ATOM     43  C   UNL A   1      41.221  31.941  30.362  1.00  0.00     0.031 C 
ATOM     44  C   UNL A   1      39.259  27.367  29.761  1.00  0.00     0.029 A 
ATOM     45  N   UNL A   1      41.311  27.726  28.944  1.00  0.00    -0.354 N 
ATOM     46  C   UNL A   1      43.174  31.614  29.225  1.00  0.00     0.074 A 
ATOM     47  C   UNL A   1      42.340  32.528  29.972  1.00  0.00     0.031 C 
ATOM     48  C   UNL A   1      39.696  26.211  29.228  1.00  0.00     0.029 A 
ATOM     49  C   UNL A   1      41.008  26.425  28.617  1.00  0.00     0.049 A 
ATOM     50  H   UNL A   1      42.181  28.142  28.746  1.00  0.00     0.167 HD
ATOM     51  C   UNL A   1      44.398  31.927  28.741  1.00  0.00     0.037 A 
ATOM     52  C   UNL A   1      41.689  25.533  27.869  1.00  0.00     0.037 A 
ATOM     53  C   UNL A   1      45.226  31.014  28.000  1.00  0.00     0.049 A 
ATOM     54  C   UNL A   1      43.012  25.929  27.257  1.00  0.00     0.074 A 
ATOM     55  C   UNL A   1      46.486  31.232  27.469  1.00  0.00     0.029 A 
ATOM     56  N   UNL A   1      44.872  29.713  27.679  1.00  0.00    -0.354 N 
ATOM     57  N   UNL A   1      43.663  27.063  27.354  1.00  0.00    -0.248 NA
ATOM     58  C   UNL A   1      43.691  24.925  26.422  1.00  0.00     0.031 C 
ATOM     59  C   UNL A   1      46.869  30.081  26.778  1.00  0.00     0.029 A 
ATOM     60  C   UNL A   1      45.880  29.124  26.936  1.00  0.00     0.049 A 
ATOM     61  H   UNL A   1      44.031  29.275  27.939  1.00  0.00     0.167 HD
ATOM     62  C   UNL A   1      44.842  26.894  26.634  1.00  0.00     0.074 A 
ATOM     63  C   UNL A   1      44.816  25.549  26.099  1.00  0.00     0.031 C 
ATOM     64  C   UNL A   1      45.856  27.771  26.440  1.00  0.00     0.037 A 
BRANCH  51  65
ATOM     65  C   UNL A   1      44.893  33.326  28.960  1.00  0.00     0.057 A 
ATOM     66  C   UNL A   1      45.673  33.676  30.069  1.00  0.00     0.134 A 
ATOM     67  C   UNL A   1      44.600  34.333  28.032  1.00  0.00     0.134 A 
ATOM     68  F   UNL A   1      45.973  32.763  31.006  1.00  0.00    -0.206 F 
ATOM     69  C   UNL A   1      46.123  34.983  30.261  1.00  0.00     0.040 A 
ATOM     70  C   UNL A   1      45.070  35.637  28.196  1.00  0.00     0.040 A 
ATOM     71  F   UNL A   1      43.858  34.066  26.945  1.00  0.00    -0.206 F 
ATOM     72  C   UNL A   1      45.827  35.966  29.317  1.00  0.00     0.006 A 
ENDBRANCH  51  65
BRANCH  52  73
ATOM     73  C   UNL A   1      41.124  24.179  27.616  1.00  0.00     0.057 A 
ATOM     74  C   UNL A   1      41.622  23.048  28.276  1.00  0.00     0.134 A 
ATOM     75  C   UNL A   1      40.101  23.976  26.682  1.00  0.00     0.134 A 
ATOM     76  F   UNL A   1      42.624  23.171  29.159  1.00  0.00    -0.206 F 
ATOM     77  C   UNL A   1      41.136  21.768  28.006  1.00  0.00     0.040 A 
ATOM     78  C   UNL A   1      39.584  22.705  26.423  1.00  0.00     0.040 A 
ATOM     79  F   UNL A   1      39.583  25.013  26.008  1.00  0.00    -0.206 F 
ATOM     80  C   UNL A   1      40.109  21.594  27.082  1.00  0.00     0.006 A 
ENDBRANCH  52  73
BRANCH  64  81
ATOM     81  C   UNL A   1      47.066  27.301  25.684  1.00  0.00     0.057 A 
ATOM     82  C   UNL A   1      47.242  27.561  24.320  1.00  0.00     0.134 A 
ATOM     83  C   UNL A   1      48.116  26.667  26.364  1.00  0.00     0.134 A 
ATOM     84  F   UNL A   1      46.274  28.158  23.609  1.00  0.00    -0.206 F 
ATOM     85  C   UNL A   1      48.419  27.204  23.658  1.00  0.00     0.040 A 
ATOM     86  C   UNL A   1      49.306  26.330  25.719  1.00  0.00     0.040 A 
ATOM     87  F   UNL A   1      48.014  26.399  27.674  1.00  0.00    -0.206 F 
ATOM     88  C   UNL A   1      49.460  26.598  24.362  1.00  0.00     0.006 A 
ENDBRANCH  64  81
ENDBRANCH  38  39
ENDBRANCH  31  33
ENDBRANCH  30  31
ENDBRANCH  29  30
ENDBRANCH  28  29
ENDBRANCH  27  28
ENDBRANCH  26  27
ENDBRANCH   1  26
TORSDOF 21
ENDMDL
MODEL 2
REMARK VINA RESULT:     -10.3      3.876      7.541
REMARK SMILES C[C@H]1[C@H](C(=O)OCCOCCOCCOC(=O)c2ccc(-c3c4nc(c(-c5c(F)cccc5F)c5ccc([nH]5)c(-c5c(F)cccc5F)c5nc(c(-c6c(F)cccc6F)c6ccc3[nH]6)C=C5)C=C4)cc2)CCN1S(=O)(=O)N(C)Cc1ccccc1
REMARK SMILES IDX 10 1 9 2 8 3 7 4 6 5 4 6 5 7 3 8 1 9 2 10 74 11 72 12 73 13
REMARK SMILES IDX 75 14 76 15 77 16 78 17 79 18 80 19 81 20 82 21 86 22 83 23
REMARK SMILES IDX 85 24 84 25 11 26 12 27 13 28 14 29 15 30 16 31 17 32 18 33
REMARK SMILES IDX 19 34 71 35 20 36 70 37 21 38 22 39 23 40 64 41 24 42 69 43
REMARK SMILES IDX 63 44 65 45 25 46 68 47 62 48 61 49 26 51 52 52 35 53 51 54
REMARK SMILES IDX 36 55 39 56 50 57 66 58 37 59 38 60 49 62 67 63 40 64 27 65
REMARK SMILES IDX 28 66 33 67 29 68 30 69 32 70 34 71 31 72 53 73 54 74 59 75
REMARK SMILES IDX 55 76 56 77 58 78 60 79 57 80 41 81 42 82 47 83 43 84 44 85
REMARK SMILES IDX 46 86 48 87 45 88
REMARK H PARENT 65 50 39 61
REMARK Flexibility Score: inf
ROOT
ATOM      1  C   UNL A   1      32.589  29.651  24.819  1.00  0.00     0.188 C 
ENDROOT
BRANCH   1   2
ATOM      2  O   UNL A   1      31.992  28.739  23.908  1.00  0.00    -0.376 OA
BRANCH   2   3
ATOM      3  C   UNL A   1      30.564  28.747  23.842  1.00  0.00     0.202 C 
BRANCH   3   4
ATOM      4  C   UNL A   1      29.903  27.647  22.996  1.00  0.00     0.261 C 
BRANCH   4   5
ATOM      5  O   UNL A   1      29.680  26.395  23.690  1.00  0.00    -0.463 OA
BRANCH   5   6
ATOM      6  C   UNL A   1      30.681  25.485  23.587  1.00  0.00     0.310 C 
ATOM      7  O   UNL A   1      31.283  25.238  22.544  1.00  0.00    -0.252 OA
BRANCH   6   8
ATOM      8  C   UNL A   1      31.120  24.828  24.886  1.00  0.00     0.118 C 
ATOM      9  C   UNL A   1      30.756  22.601  26.014  1.00  0.00     0.027 C 
ATOM     10  C   UNL A   1      31.527  23.346  24.904  1.00  0.00     0.085 C 
ATOM     11  N   UNL A   1      32.980  23.293  25.303  1.00  0.00    -0.185 NA
ATOM     12  C   UNL A   1      32.324  25.591  25.427  1.00  0.00     0.034 C 
ATOM     13  C   UNL A   1      33.203  24.547  26.088  1.00  0.00     0.105 C 
BRANCH  11  14
ATOM     14  S   UNL A   1      34.104  23.111  24.046  1.00  0.00     0.282 S 
ATOM     15  O   UNL A   1      33.331  22.780  22.873  1.00  0.00    -0.195 OA
ATOM     16  O   UNL A   1      34.957  24.280  24.048  1.00  0.00    -0.195 OA
BRANCH  14  17
ATOM     17  N   UNL A   1      35.078  21.827  24.475  1.00  0.00    -0.188 NA
ATOM     18  C   UNL A   1      36.532  21.843  24.527  1.00  0.00     0.126 C 
BRANCH  17  19
ATOM     19  C   UNL A   1      34.436  20.765  25.277  1.00  0.00     0.138 C 
BRANCH  19  20
ATOM     20  C   UNL A   1      33.958  19.526  24.543  1.00  0.00    -0.033 A 
ATOM     21  C   UNL A   1      32.721  19.445  23.886  1.00  0.00     0.005 A 
ATOM     22  C   UNL A   1      34.788  18.393  24.529  1.00  0.00     0.005 A 
ATOM     23  C   UNL A   1      32.344  18.291  23.197  1.00  0.00     0.000 A 
ATOM     24  C   UNL A   1      34.409  17.236  23.845  1.00  0.00     0.000 A 
ATOM     25  C   UNL A   1      33.190  17.188  23.174  1.00  0.00     0.000 A 
ENDBRANCH  19  20
ENDBRANCH  17  19
ENDBRANCH  14  17
ENDBRANCH  11  14
ENDBRANCH   6   8
ENDBRANCH   5   6
ENDBRANCH   4   5
ENDBRANCH   3   4
ENDBRANCH   2   3
ENDBRANCH   1   2
BRANCH   1  26
ATOM     26  C   UNL A   1      32.404  29.329  26.306  1.00  0.00     0.188 C 
BRANCH  26  27
ATOM     27  O   UNL A   1      31.772  30.332  27.078  1.00  0.00    -0.376 OA
BRANCH  27  28
ATOM     28  C   UNL A   1      31.216  31.458  26.402  1.00  0.00     0.202 C 
BRANCH  28  29
ATOM     29  C   UNL A   1      31.639  32.880  26.826  1.00  0.00     0.261 C 
BRANCH  29  30
ATOM     30  O   UNL A   1      33.038  33.108  27.101  1.00  0.00    -0.460 OA
BRANCH  30  31
ATOM     31  C   UNL A   1      33.393  33.850  28.175  1.00  0.00     0.338 C 
ATOM     32  O   UNL A   1      32.700  34.669  28.757  1.00  0.00    -0.246 OA
BRANCH  31  33
ATOM     33  C   UNL A   1      34.654  33.272  28.724  1.00  0.00     0.060 A 
ATOM     34  C   UNL A   1      34.605  32.000  29.314  1.00  0.00     0.016 A 
ATOM     35  C   UNL A   1      35.889  33.906  28.557  1.00  0.00     0.016 A 
ATOM     36  C   UNL A   1      35.775  31.366  29.749  1.00  0.00     0.010 A 
ATOM     37  C   UNL A   1      37.057  33.285  29.012  1.00  0.00     0.010 A 
ATOM     38  C   UNL A   1      37.006  32.023  29.635  1.00  0.00    -0.014 A 
BRANCH  38  39
ATOM     39  C   UNL A   1      38.204  31.538  30.366  1.00  0.00     0.031 A 
ATOM     40  C   UNL A   1      39.055  30.502  29.682  1.00  0.00     0.074 A 
ATOM     41  C   UNL A   1      38.522  31.954  31.605  1.00  0.00     0.049 A 
ATOM     42  N   UNL A   1      40.017  29.760  30.162  1.00  0.00    -0.248 NA
ATOM     43  C   UNL A   1      38.761  30.265  28.259  1.00  0.00     0.031 C 
ATOM     44  C   UNL A   1      37.834  33.001  32.355  1.00  0.00     0.029 A 
ATOM     45  N   UNL A   1      39.501  31.512  32.463  1.00  0.00    -0.354 N 
ATOM     46  C   UNL A   1      40.420  28.947  29.111  1.00  0.00     0.074 A 
ATOM     47  C   UNL A   1      39.591  29.276  27.973  1.00  0.00     0.031 C 
ATOM     48  C   UNL A   1      38.393  33.100  33.575  1.00  0.00     0.029 A 
ATOM     49  C   UNL A   1      39.442  32.089  33.710  1.00  0.00     0.049 A 
ATOM     50  H   UNL A   1      40.181  30.847  32.209  1.00  0.00     0.167 HD
ATOM     51  C   UNL A   1      41.393  28.007  29.095  1.00  0.00     0.037 A 
ATOM     52  C   UNL A   1      40.122  31.798  34.839  1.00  0.00     0.037 A 
ATOM     53  C   UNL A   1      42.217  27.684  30.228  1.00  0.00     0.049 A 
ATOM     54  C   UNL A   1      41.139  30.681  34.829  1.00  0.00     0.074 A 
ATOM     55  C   UNL A   1      43.234  26.750  30.313  1.00  0.00     0.029 A 
ATOM     56  N   UNL A   1      42.112  28.282  31.474  1.00  0.00    -0.354 N 
ATOM     57  N   UNL A   1      41.512  29.910  33.836  1.00  0.00    -0.248 NA
ATOM     58  C   UNL A   1      41.822  30.386  36.099  1.00  0.00     0.031 C 
ATOM     59  C   UNL A   1      43.706  26.743  31.628  1.00  0.00     0.029 A 
ATOM     60  C   UNL A   1      43.031  27.719  32.342  1.00  0.00     0.049 A 
ATOM     61  H   UNL A   1      41.479  28.998  31.706  1.00  0.00     0.167 HD
ATOM     62  C   UNL A   1      42.499  29.073  34.349  1.00  0.00     0.074 A 
ATOM     63  C   UNL A   1      42.665  29.426  35.742  1.00  0.00     0.031 C 
ATOM     64  C   UNL A   1      43.209  28.106  33.718  1.00  0.00     0.037 A 
BRANCH  51  65
ATOM     65  C   UNL A   1      41.585  27.230  27.825  1.00  0.00     0.057 A 
ATOM     66  C   UNL A   1      40.919  26.023  27.583  1.00  0.00     0.134 A 
ATOM     67  C   UNL A   1      42.436  27.713  26.823  1.00  0.00     0.134 A 
ATOM     68  F   UNL A   1      40.106  25.495  28.510  1.00  0.00    -0.206 F 
ATOM     69  C   UNL A   1      41.111  25.310  26.398  1.00  0.00     0.040 A 
ATOM     70  C   UNL A   1      42.612  27.025  25.622  1.00  0.00     0.040 A 
ATOM     71  F   UNL A   1      43.104  28.865  26.990  1.00  0.00    -0.206 F 
ATOM     72  C   UNL A   1      41.955  25.816  25.410  1.00  0.00     0.006 A 
ENDBRANCH  51  65
BRANCH  52  73
ATOM     73  C   UNL A   1      39.845  32.545  36.096  1.00  0.00     0.057 A 
ATOM     74  C   UNL A   1      40.661  33.608  36.504  1.00  0.00     0.134 A 
ATOM     75  C   UNL A   1      38.783  32.193  36.938  1.00  0.00     0.134 A 
ATOM     76  F   UNL A   1      41.713  33.975  35.758  1.00  0.00    -0.206 F 
ATOM     77  C   UNL A   1      40.442  34.281  37.708  1.00  0.00     0.040 A 
ATOM     78  C   UNL A   1      38.534  32.876  38.131  1.00  0.00     0.040 A 
ATOM     79  F   UNL A   1      37.968  31.180  36.612  1.00  0.00    -0.206 F 
ATOM     80  C   UNL A   1      39.371  33.919  38.523  1.00  0.00     0.006 A 
ENDBRANCH  52  73
BRANCH  64  81
ATOM     81  C   UNL A   1      44.287  27.401  34.490  1.00  0.00     0.057 A 
ATOM     82  C   UNL A   1      44.070  26.173  35.126  1.00  0.00     0.134 A 
ATOM     83  C   UNL A   1      45.591  27.916  34.505  1.00  0.00     0.134 A 
ATOM     84  F   UNL A   1      42.845  25.628  35.156  1.00  0.00    -0.206 F 
ATOM     85  C   UNL A   1      45.112  25.485  35.753  1.00  0.00     0.040 A 
ATOM     86  C   UNL A   1      46.644  27.225  35.104  1.00  0.00     0.040 A 
ATOM     87  F   UNL A   1      45.869  29.083  33.904  1.00  0.00    -0.206 F 
ATOM     88  C   UNL A   1      46.406  26.005  35.732  1.00  0.00     0.006 A 
ENDBRANCH  64  81
ENDBRANCH  38  39
ENDBRANCH  31  33
ENDBRANCH  30  31
ENDBRANCH  29  30
ENDBRANCH  28  29
ENDBRANCH  27  28
ENDBRANCH  26  27
ENDBRANCH   1  26
TORSDOF 21
ENDMDL
MODEL 3
REMARK VINA RESULT:     -10.2      3.909      6.325
REMARK SMILES C[C@H]1[C@H](C(=O)OCCOCCOCCOC(=O)c2ccc(-c3c4nc(c(-c5c(F)cccc5F)c5ccc([nH]5)c(-c5c(F)cccc5F)c5nc(c(-c6c(F)cccc6F)c6ccc3[nH]6)C=C5)C=C4)cc2)CCN1S(=O)(=O)N(C)Cc1ccccc1
REMARK SMILES IDX 10 1 9 2 8 3 7 4 6 5 4 6 5 7 3 8 1 9 2 10 74 11 72 12 73 13
REMARK SMILES IDX 75 14 76 15 77 16 78 17 79 18 80 19 81 20 82 21 86 22 83 23
REMARK SMILES IDX 85 24 84 25 11 26 12 27 13 28 14 29 15 30 16 31 17 32 18 33
REMARK SMILES IDX 19 34 71 35 20 36 70 37 21 38 22 39 23 40 64 41 24 42 69 43
REMARK SMILES IDX 63 44 65 45 25 46 68 47 62 48 61 49 26 51 52 52 35 53 51 54
REMARK SMILES IDX 36 55 39 56 50 57 66 58 37 59 38 60 49 62 67 63 40 64 27 65
REMARK SMILES IDX 28 66 33 67 29 68 30 69 32 70 34 71 31 72 53 73 54 74 59 75
REMARK SMILES IDX 55 76 56 77 58 78 60 79 57 80 41 81 42 82 47 83 43 84 44 85
REMARK SMILES IDX 46 86 48 87 45 88
REMARK H PARENT 65 50 39 61
REMARK Flexibility Score: inf
ROOT
ATOM      1  C   UNL A   1      32.937  29.187  25.306  1.00  0.00     0.188 C 
ENDROOT
BRANCH   1   2
ATOM      2  O   UNL A   1      32.305  28.894  24.067  1.00  0.00    -0.376 OA
BRANCH   2   3
ATOM      3  C   UNL A   1      30.878  28.817  24.084  1.00  0.00     0.202 C 
BRANCH   3   4
ATOM      4  C   UNL A   1      30.237  27.670  23.284  1.00  0.00     0.261 C 
BRANCH   4   5
ATOM      5  O   UNL A   1      29.869  26.510  24.070  1.00  0.00    -0.463 OA
BRANCH   5   6
ATOM      6  C   UNL A   1      30.616  25.397  23.852  1.00  0.00     0.310 C 
ATOM      7  O   UNL A   1      31.044  25.060  22.750  1.00  0.00    -0.252 OA
BRANCH   6   8
ATOM      8  C   UNL A   1      31.007  24.605  25.089  1.00  0.00     0.118 C 
ATOM      9  C   UNL A   1      30.734  22.229  25.892  1.00  0.00     0.027 C 
ATOM     10  C   UNL A   1      31.525  23.165  24.953  1.00  0.00     0.085 C 
ATOM     11  N   UNL A   1      32.945  23.157  25.461  1.00  0.00    -0.185 NA
ATOM     12  C   UNL A   1      32.106  25.369  25.821  1.00  0.00     0.034 C 
ATOM     13  C   UNL A   1      33.011  24.308  26.414  1.00  0.00     0.105 C 
BRANCH  11  14
ATOM     14  S   UNL A   1      34.169  23.219  24.289  1.00  0.00     0.282 S 
ATOM     15  O   UNL A   1      33.495  23.149  23.014  1.00  0.00    -0.195 OA
ATOM     16  O   UNL A   1      35.018  24.348  24.600  1.00  0.00    -0.195 OA
BRANCH  14  17
ATOM     17  N   UNL A   1      35.104  21.858  24.521  1.00  0.00    -0.188 NA
ATOM     18  C   UNL A   1      36.553  21.794  24.412  1.00  0.00     0.126 C 
BRANCH  17  19
ATOM     19  C   UNL A   1      34.489  20.776  25.317  1.00  0.00     0.138 C 
BRANCH  19  20
ATOM     20  C   UNL A   1      33.954  19.572  24.566  1.00  0.00    -0.033 A 
ATOM     21  C   UNL A   1      32.724  19.564  23.891  1.00  0.00     0.005 A 
ATOM     22  C   UNL A   1      34.721  18.395  24.551  1.00  0.00     0.005 A 
ATOM     23  C   UNL A   1      32.294  18.439  23.187  1.00  0.00     0.000 A 
ATOM     24  C   UNL A   1      34.288  17.267  23.851  1.00  0.00     0.000 A 
ATOM     25  C   UNL A   1      33.078  17.291  23.164  1.00  0.00     0.000 A 
ENDBRANCH  19  20
ENDBRANCH  17  19
ENDBRANCH  14  17
ENDBRANCH  11  14
ENDBRANCH   6   8
ENDBRANCH   5   6
ENDBRANCH   4   5
ENDBRANCH   3   4
ENDBRANCH   2   3
ENDBRANCH   1   2
BRANCH   1  26
ATOM     26  C   UNL A   1      32.051  29.078  26.551  1.00  0.00     0.188 C 
BRANCH  26  27
ATOM     27  O   UNL A   1      31.782  30.295  27.221  1.00  0.00    -0.376 OA
BRANCH  27  28
ATOM     28  C   UNL A   1      32.028  31.518  26.530  1.00  0.00     0.202 C 
BRANCH  28  29
ATOM     29  C   UNL A   1      31.828  32.858  27.268  1.00  0.00     0.261 C 
BRANCH  29  30
ATOM     30  O   UNL A   1      32.897  33.826  27.200  1.00  0.00    -0.460 OA
BRANCH  30  31
ATOM     31  C   UNL A   1      33.224  34.535  28.305  1.00  0.00     0.338 C 
ATOM     32  O   UNL A   1      32.601  35.469  28.783  1.00  0.00    -0.246 OA
BRANCH  31  33
ATOM     33  C   UNL A   1      34.297  33.784  29.020  1.00  0.00     0.060 A 
ATOM     34  C   UNL A   1      35.635  34.053  28.691  1.00  0.00     0.016 A 
ATOM     35  C   UNL A   1      34.010  32.919  30.080  1.00  0.00     0.016 A 
ATOM     36  C   UNL A   1      36.681  33.456  29.403  1.00  0.00     0.010 A 
ATOM     37  C   UNL A   1      35.054  32.303  30.778  1.00  0.00     0.010 A 
ATOM     38  C   UNL A   1      36.395  32.546  30.428  1.00  0.00    -0.014 A 
BRANCH  38  39
ATOM     39  C   UNL A   1      37.450  31.657  30.981  1.00  0.00     0.031 A 
ATOM     40  C   UNL A   1      37.918  31.935  32.384  1.00  0.00     0.074 A 
ATOM     41  C   UNL A   1      38.015  30.666  30.270  1.00  0.00     0.049 A 
ATOM     42  N   UNL A   1      38.953  31.465  33.028  1.00  0.00    -0.248 NA
ATOM     43  C   UNL A   1      37.106  32.889  33.157  1.00  0.00     0.031 C 
ATOM     44  C   UNL A   1      37.613  30.239  28.932  1.00  0.00     0.029 A 
ATOM     45  N   UNL A   1      39.081  29.853  30.576  1.00  0.00    -0.354 N 
ATOM     46  C   UNL A   1      38.934  32.091  34.268  1.00  0.00     0.074 A 
ATOM     47  C   UNL A   1      37.795  32.981  34.281  1.00  0.00     0.031 C 
ATOM     48  C   UNL A   1      38.442  29.263  28.519  1.00  0.00     0.029 A 
ATOM     49  C   UNL A   1      39.464  29.033  29.540  1.00  0.00     0.049 A 
ATOM     50  H   UNL A   1      39.527  29.856  31.453  1.00  0.00     0.167 HD
ATOM     51  C   UNL A   1      39.791  31.940  35.304  1.00  0.00     0.037 A 
ATOM     52  C   UNL A   1      40.541  28.230  29.417  1.00  0.00     0.037 A 
ATOM     53  C   UNL A   1      40.921  31.051  35.289  1.00  0.00     0.049 A 
ATOM     54  C   UNL A   1      41.540  28.145  30.547  1.00  0.00     0.074 A 
ATOM     55  C   UNL A   1      41.849  30.821  36.289  1.00  0.00     0.029 A 
ATOM     56  N   UNL A   1      41.280  30.252  34.214  1.00  0.00    -0.354 N 
ATOM     57  N   UNL A   1      41.524  28.742  31.713  1.00  0.00    -0.248 NA
ATOM     58  C   UNL A   1      42.714  27.280  30.339  1.00  0.00     0.031 C 
ATOM     59  C   UNL A   1      42.802  29.925  35.799  1.00  0.00     0.029 A 
ATOM     60  C   UNL A   1      42.430  29.546  34.519  1.00  0.00     0.049 A 
ATOM     61  H   UNL A   1      40.791  30.196  33.362  1.00  0.00     0.167 HD
ATOM     62  C   UNL A   1      42.654  28.295  32.392  1.00  0.00     0.074 A 
ATOM     63  C   UNL A   1      43.339  27.378  31.505  1.00  0.00     0.031 C 
ATOM     64  C   UNL A   1      43.081  28.609  33.639  1.00  0.00     0.037 A 
BRANCH  51  65
ATOM     65  C   UNL A   1      39.564  32.788  36.521  1.00  0.00     0.057 A 
ATOM     66  C   UNL A   1      40.261  33.983  36.736  1.00  0.00     0.134 A 
ATOM     67  C   UNL A   1      38.617  32.409  37.481  1.00  0.00     0.134 A 
ATOM     68  F   UNL A   1      41.196  34.393  35.866  1.00  0.00    -0.206 F 
ATOM     69  C   UNL A   1      40.041  34.759  37.875  1.00  0.00     0.040 A 
ATOM     70  C   UNL A   1      38.366  33.192  38.608  1.00  0.00     0.040 A 
ATOM     71  F   UNL A   1      37.914  31.275  37.335  1.00  0.00    -0.206 F 
ATOM     72  C   UNL A   1      39.085  34.367  38.811  1.00  0.00     0.006 A 
ENDBRANCH  51  65
BRANCH  52  73
ATOM     73  C   UNL A   1      40.766  27.464  28.161  1.00  0.00     0.057 A 
ATOM     74  C   UNL A   1      41.457  28.026  27.080  1.00  0.00     0.134 A 
ATOM     75  C   UNL A   1      40.265  26.167  27.995  1.00  0.00     0.134 A 
ATOM     76  F   UNL A   1      41.934  29.276  27.163  1.00  0.00    -0.206 F 
ATOM     77  C   UNL A   1      41.626  27.336  25.878  1.00  0.00     0.040 A 
ATOM     78  C   UNL A   1      40.452  25.453  26.810  1.00  0.00     0.040 A 
ATOM     79  F   UNL A   1      39.587  25.571  28.986  1.00  0.00    -0.206 F 
ATOM     80  C   UNL A   1      41.128  26.042  25.742  1.00  0.00     0.006 A 
ENDBRANCH  52  73
BRANCH  64  81
ATOM     81  C   UNL A   1      44.301  27.911  34.168  1.00  0.00     0.057 A 
ATOM     82  C   UNL A   1      44.235  26.663  34.796  1.00  0.00     0.134 A 
ATOM     83  C   UNL A   1      45.573  28.458  33.946  1.00  0.00     0.134 A 
ATOM     84  F   UNL A   1      43.049  26.087  35.046  1.00  0.00    -0.206 F 
ATOM     85  C   UNL A   1      45.391  25.984  35.190  1.00  0.00     0.040 A 
ATOM     86  C   UNL A   1      46.735  27.778  34.310  1.00  0.00     0.040 A 
ATOM     87  F   UNL A   1      45.707  29.646  33.338  1.00  0.00    -0.206 F 
ATOM     88  C   UNL A   1      46.646  26.537  34.935  1.00  0.00     0.006 A 
ENDBRANCH  64  81
ENDBRANCH  38  39
ENDBRANCH  31  33
ENDBRANCH  30  31
ENDBRANCH  29  30
ENDBRANCH  28  29
ENDBRANCH  27  28
ENDBRANCH  26  27
ENDBRANCH   1  26
TORSDOF 21
ENDMDL
