MODEL 1
REMARK VINA RESULT:     -10.2      0.000      0.000
REMARK SMILES CC(C)Cc1ccc([C@@H](C)C(=O)OCCOCCOCCOC(=O)c2ccc(-c3c4nc(c(-c5c(F)cccc5F)c5ccc([nH]5)c(-c5c(F)cccc5F)c5nc(c(-c6c(F)cccc6F)c6ccc3[nH]6)C=C5)C=C4)cc2)cc1
REMARK SMILES IDX 17 1 16 2 15 3 14 4 13 5 11 6 12 7 9 8 10 9 8 10 5 11 6 12
REMARK SMILES IDX 80 13 7 14 79 15 4 16 2 17 1 18 3 19 18 20 19 21 20 22 21 23
REMARK SMILES IDX 22 24 23 25 24 26 25 27 26 28 78 29 27 30 77 31 28 32 29 33
REMARK SMILES IDX 30 34 71 35 31 36 76 37 70 38 72 39 32 40 75 41 69 42 68 43
REMARK SMILES IDX 33 45 59 46 42 47 58 48 43 49 46 50 57 51 73 52 44 53 45 54
REMARK SMILES IDX 56 56 74 57 47 58 34 59 35 60 40 61 36 62 37 63 39 64 41 65
REMARK SMILES IDX 38 66 60 67 61 68 66 69 62 70 63 71 65 72 67 73 64 74 48 75
REMARK SMILES IDX 49 76 54 77 50 78 51 79 53 80 55 81 52 82
REMARK H PARENT 72 44 46 55
REMARK Flexibility Score: inf
ROOT
ATOM      1  C   UNL A   1      34.140  31.362  27.808  1.00  0.00     0.188 C 
ENDROOT
BRANCH   1   2
ATOM      2  O   UNL A   1      32.833  30.966  27.406  1.00  0.00    -0.376 OA
BRANCH   2   3
ATOM      3  C   UNL A   1      32.684  29.923  26.450  1.00  0.00     0.202 C 
BRANCH   3   4
ATOM      4  C   UNL A   1      33.851  28.944  26.264  1.00  0.00     0.261 C 
BRANCH   4   5
ATOM      5  O   UNL A   1      33.594  27.578  26.662  1.00  0.00    -0.463 OA
BRANCH   5   6
ATOM      6  C   UNL A   1      32.366  27.085  26.363  1.00  0.00     0.313 C 
ATOM      7  O   UNL A   1      31.466  26.966  27.193  1.00  0.00    -0.252 OA
BRANCH   6   8
ATOM      8  C   UNL A   1      32.131  26.680  24.907  1.00  0.00     0.126 C 
ATOM      9  C   UNL A   1      33.480  26.546  24.204  1.00  0.00     0.025 C 
BRANCH   8  10
ATOM     10  C   UNL A   1      31.149  27.436  24.018  1.00  0.00    -0.034 A 
ATOM     11  C   UNL A   1      29.395  29.017  22.434  1.00  0.00    -0.048 A 
ATOM     12  C   UNL A   1      28.905  27.958  23.211  1.00  0.00     0.004 A 
ATOM     13  C   UNL A   1      30.772  29.253  22.422  1.00  0.00     0.004 A 
ATOM     14  C   UNL A   1      29.771  27.178  23.996  1.00  0.00     0.005 A 
ATOM     15  C   UNL A   1      31.632  28.488  23.214  1.00  0.00     0.005 A 
BRANCH  11  16
ATOM     16  C   UNL A   1      28.456  29.938  21.682  1.00  0.00     0.038 C 
BRANCH  16  17
ATOM     17  C   UNL A   1      28.527  31.403  22.173  1.00  0.00    -0.013 C 
ATOM     18  C   UNL A   1      27.929  32.392  21.166  1.00  0.00     0.008 C 
ATOM     19  C   UNL A   1      27.802  31.558  23.512  1.00  0.00     0.008 C 
ENDBRANCH  16  17
ENDBRANCH  11  16
ENDBRANCH   8  10
ENDBRANCH   6   8
ENDBRANCH   5   6
ENDBRANCH   4   5
ENDBRANCH   3   4
ENDBRANCH   2   3
ENDBRANCH   1   2
BRANCH   1  20
ATOM     20  C   UNL A   1      34.480  32.856  27.928  1.00  0.00     0.188 C 
BRANCH  20  21
ATOM     21  O   UNL A   1      33.655  33.560  28.831  1.00  0.00    -0.376 OA
BRANCH  21  22
ATOM     22  C   UNL A   1      34.300  34.493  29.673  1.00  0.00     0.202 C 
BRANCH  22  23
ATOM     23  C   UNL A   1      34.396  34.039  31.135  1.00  0.00     0.261 C 
BRANCH  23  24
ATOM     24  O   UNL A   1      34.717  32.650  31.334  1.00  0.00    -0.460 OA
BRANCH  24  25
ATOM     25  C   UNL A   1      35.593  32.353  32.325  1.00  0.00     0.338 C 
ATOM     26  O   UNL A   1      35.427  32.502  33.518  1.00  0.00    -0.246 OA
BRANCH  25  27
ATOM     27  C   UNL A   1      36.731  31.623  31.717  1.00  0.00     0.060 A 
ATOM     28  C   UNL A   1      37.600  30.892  32.541  1.00  0.00     0.016 A 
ATOM     29  C   UNL A   1      36.937  31.657  30.337  1.00  0.00     0.016 A 
ATOM     30  C   UNL A   1      38.688  30.207  31.987  1.00  0.00     0.010 A 
ATOM     31  C   UNL A   1      38.038  30.990  29.788  1.00  0.00     0.010 A 
ATOM     32  C   UNL A   1      38.932  30.279  30.609  1.00  0.00    -0.014 A 
BRANCH  32  33
ATOM     33  C   UNL A   1      40.193  29.750  30.027  1.00  0.00     0.031 A 
ATOM     34  C   UNL A   1      41.360  30.685  29.862  1.00  0.00     0.074 A 
ATOM     35  C   UNL A   1      40.300  28.472  29.618  1.00  0.00     0.049 A 
ATOM     36  N   UNL A   1      42.505  30.493  29.258  1.00  0.00    -0.248 NA
ATOM     37  C   UNL A   1      41.209  32.022  30.458  1.00  0.00     0.031 C 
ATOM     38  C   UNL A   1      39.268  27.448  29.758  1.00  0.00     0.029 A 
ATOM     39  N   UNL A   1      41.330  27.828  28.975  1.00  0.00    -0.354 N 
ATOM     40  C   UNL A   1      43.204  31.687  29.385  1.00  0.00     0.074 A 
ATOM     41  C   UNL A   1      42.346  32.604  30.105  1.00  0.00     0.031 C 
ATOM     42  C   UNL A   1      39.706  26.309  29.195  1.00  0.00     0.029 A 
ATOM     43  C   UNL A   1      41.030  26.536  28.617  1.00  0.00     0.049 A 
ATOM     44  H   UNL A   1      42.199  28.252  28.789  1.00  0.00     0.167 HD
ATOM     45  C   UNL A   1      44.446  31.992  28.942  1.00  0.00     0.037 A 
ATOM     46  C   UNL A   1      41.727  25.653  27.873  1.00  0.00     0.037 A 
ATOM     47  C   UNL A   1      45.298  31.083  28.220  1.00  0.00     0.049 A 
ATOM     48  C   UNL A   1      43.071  26.045  27.312  1.00  0.00     0.074 A 
ATOM     49  C   UNL A   1      46.582  31.297  27.748  1.00  0.00     0.029 A 
ATOM     50  N   UNL A   1      44.947  29.793  27.853  1.00  0.00    -0.354 N 
ATOM     51  N   UNL A   1      43.733  27.169  27.453  1.00  0.00    -0.248 NA
ATOM     52  C   UNL A   1      43.763  25.045  26.483  1.00  0.00     0.031 C 
ATOM     53  C   UNL A   1      46.984  30.158  27.043  1.00  0.00     0.029 A 
ATOM     54  C   UNL A   1      45.977  29.210  27.132  1.00  0.00     0.049 A 
ATOM     55  H   UNL A   1      44.093  29.356  28.072  1.00  0.00     0.167 HD
ATOM     56  C   UNL A   1      44.927  26.999  26.760  1.00  0.00     0.074 A 
ATOM     57  C   UNL A   1      44.905  25.660  26.211  1.00  0.00     0.031 C 
ATOM     58  C   UNL A   1      45.950  27.874  26.594  1.00  0.00     0.037 A 
BRANCH  45  59
ATOM     59  C   UNL A   1      44.949  33.384  29.197  1.00  0.00     0.057 A 
ATOM     60  C   UNL A   1      44.713  34.437  28.302  1.00  0.00     0.134 A 
ATOM     61  C   UNL A   1      45.651  33.683  30.372  1.00  0.00     0.134 A 
ATOM     62  F   UNL A   1      44.060  34.217  27.151  1.00  0.00    -0.206 F 
ATOM     63  C   UNL A   1      45.178  35.728  28.556  1.00  0.00     0.040 A 
ATOM     64  C   UNL A   1      46.095  34.976  30.650  1.00  0.00     0.040 A 
ATOM     65  F   UNL A   1      45.907  32.724  31.275  1.00  0.00    -0.206 F 
ATOM     66  C   UNL A   1      45.864  36.002  29.737  1.00  0.00     0.006 A 
ENDBRANCH  45  59
BRANCH  46  67
ATOM     67  C   UNL A   1      41.158  24.310  27.580  1.00  0.00     0.057 A 
ATOM     68  C   UNL A   1      40.129  24.147  26.645  1.00  0.00     0.134 A 
ATOM     69  C   UNL A   1      41.602  23.166  28.254  1.00  0.00     0.134 A 
ATOM     70  F   UNL A   1      39.638  25.209  25.989  1.00  0.00    -0.206 F 
ATOM     71  C   UNL A   1      39.550  22.900  26.403  1.00  0.00     0.040 A 
ATOM     72  C   UNL A   1      41.052  21.907  28.002  1.00  0.00     0.040 A 
ATOM     73  F   UNL A   1      42.580  23.254  29.167  1.00  0.00    -0.206 F 
ATOM     74  C   UNL A   1      40.017  21.774  27.080  1.00  0.00     0.006 A 
ENDBRANCH  46  67
BRANCH  58  75
ATOM     75  C   UNL A   1      47.151  27.402  25.822  1.00  0.00     0.057 A 
ATOM     76  C   UNL A   1      48.191  26.685  26.429  1.00  0.00     0.134 A 
ATOM     77  C   UNL A   1      47.249  27.633  24.443  1.00  0.00     0.134 A 
ATOM     78  F   UNL A   1      48.168  26.437  27.747  1.00  0.00    -0.206 F 
ATOM     79  C   UNL A   1      49.294  26.238  25.698  1.00  0.00     0.040 A 
ATOM     80  C   UNL A   1      48.331  27.165  23.696  1.00  0.00     0.040 A 
ATOM     81  F   UNL A   1      46.284  28.304  23.795  1.00  0.00    -0.206 F 
ATOM     82  C   UNL A   1      49.362  26.472  24.326  1.00  0.00     0.006 A 
ENDBRANCH  58  75
ENDBRANCH  32  33
ENDBRANCH  25  27
ENDBRANCH  24  25
ENDBRANCH  23  24
ENDBRANCH  22  23
ENDBRANCH  21  22
ENDBRANCH  20  21
ENDBRANCH   1  20
TORSDOF 20
ENDMDL
MODEL 2
REMARK VINA RESULT:     -10.2      1.951      3.045
REMARK SMILES CC(C)Cc1ccc([C@@H](C)C(=O)OCCOCCOCCOC(=O)c2ccc(-c3c4nc(c(-c5c(F)cccc5F)c5ccc([nH]5)c(-c5c(F)cccc5F)c5nc(c(-c6c(F)cccc6F)c6ccc3[nH]6)C=C5)C=C4)cc2)cc1
REMARK SMILES IDX 17 1 16 2 15 3 14 4 13 5 11 6 12 7 9 8 10 9 8 10 5 11 6 12
REMARK SMILES IDX 80 13 7 14 79 15 4 16 2 17 1 18 3 19 18 20 19 21 20 22 21 23
REMARK SMILES IDX 22 24 23 25 24 26 25 27 26 28 78 29 27 30 77 31 28 32 29 33
REMARK SMILES IDX 30 34 71 35 31 36 76 37 70 38 72 39 32 40 75 41 69 42 68 43
REMARK SMILES IDX 33 45 59 46 42 47 58 48 43 49 46 50 57 51 73 52 44 53 45 54
REMARK SMILES IDX 56 56 74 57 47 58 34 59 35 60 40 61 36 62 37 63 39 64 41 65
REMARK SMILES IDX 38 66 60 67 61 68 66 69 62 70 63 71 65 72 67 73 64 74 48 75
REMARK SMILES IDX 49 76 54 77 50 78 51 79 53 80 55 81 52 82
REMARK H PARENT 72 44 46 55
REMARK Flexibility Score: inf
ROOT
ATOM      1  C   UNL A   1      33.365  35.516  30.583  1.00  0.00     0.188 C 
ENDROOT
BRANCH   1   2
ATOM      2  O   UNL A   1      33.305  34.244  29.944  1.00  0.00    -0.376 OA
BRANCH   2   3
ATOM      3  C   UNL A   1      33.693  34.129  28.581  1.00  0.00     0.202 C 
BRANCH   3   4
ATOM      4  C   UNL A   1      32.990  33.072  27.718  1.00  0.00     0.261 C 
BRANCH   4   5
ATOM      5  O   UNL A   1      33.730  31.849  27.498  1.00  0.00    -0.463 OA
BRANCH   5   6
ATOM      6  C   UNL A   1      33.012  30.780  27.071  1.00  0.00     0.313 C 
ATOM      7  O   UNL A   1      31.878  30.871  26.605  1.00  0.00    -0.252 OA
BRANCH   6   8
ATOM      8  C   UNL A   1      33.693  29.415  27.181  1.00  0.00     0.126 C 
ATOM      9  C   UNL A   1      35.174  29.622  27.493  1.00  0.00     0.025 C 
BRANCH   8  10
ATOM     10  C   UNL A   1      33.529  28.352  26.100  1.00  0.00    -0.034 A 
ATOM     11  C   UNL A   1      33.342  26.249  24.195  1.00  0.00    -0.048 A 
ATOM     12  C   UNL A   1      33.678  27.550  23.799  1.00  0.00     0.004 A 
ATOM     13  C   UNL A   1      33.059  26.015  25.544  1.00  0.00     0.004 A 
ATOM     14  C   UNL A   1      33.773  28.590  24.740  1.00  0.00     0.005 A 
ATOM     15  C   UNL A   1      33.169  27.044  26.482  1.00  0.00     0.005 A 
BRANCH  11  16
ATOM     16  C   UNL A   1      33.356  25.100  23.208  1.00  0.00     0.038 C 
BRANCH  16  17
ATOM     17  C   UNL A   1      32.286  24.026  23.517  1.00  0.00    -0.013 C 
ATOM     18  C   UNL A   1      30.875  24.466  23.113  1.00  0.00     0.008 C 
ATOM     19  C   UNL A   1      32.619  22.713  22.805  1.00  0.00     0.008 C 
ENDBRANCH  16  17
ENDBRANCH  11  16
ENDBRANCH   8  10
ENDBRANCH   6   8
ENDBRANCH   5   6
ENDBRANCH   4   5
ENDBRANCH   3   4
ENDBRANCH   2   3
ENDBRANCH   1   2
BRANCH   1  20
ATOM     20  C   UNL A   1      33.354  35.598  32.117  1.00  0.00     0.188 C 
BRANCH  20  21
ATOM     21  O   UNL A   1      34.493  36.226  32.665  1.00  0.00    -0.376 OA
BRANCH  21  22
ATOM     22  C   UNL A   1      35.466  35.375  33.234  1.00  0.00     0.202 C 
BRANCH  22  23
ATOM     23  C   UNL A   1      34.922  33.996  33.628  1.00  0.00     0.261 C 
BRANCH  23  24
ATOM     24  O   UNL A   1      35.716  32.871  33.203  1.00  0.00    -0.460 OA
BRANCH  24  25
ATOM     25  C   UNL A   1      35.291  32.192  32.110  1.00  0.00     0.338 C 
ATOM     26  O   UNL A   1      34.198  32.255  31.587  1.00  0.00    -0.246 OA
BRANCH  25  27
ATOM     27  C   UNL A   1      36.463  31.491  31.533  1.00  0.00     0.060 A 
ATOM     28  C   UNL A   1      37.313  30.761  32.377  1.00  0.00     0.016 A 
ATOM     29  C   UNL A   1      36.719  31.550  30.162  1.00  0.00     0.016 A 
ATOM     30  C   UNL A   1      38.432  30.102  31.852  1.00  0.00     0.010 A 
ATOM     31  C   UNL A   1      37.850  30.910  29.643  1.00  0.00     0.010 A 
ATOM     32  C   UNL A   1      38.725  30.200  30.486  1.00  0.00    -0.014 A 
BRANCH  32  33
ATOM     33  C   UNL A   1      40.015  29.700  29.942  1.00  0.00     0.031 A 
ATOM     34  C   UNL A   1      41.155  30.669  29.785  1.00  0.00     0.074 A 
ATOM     35  C   UNL A   1      40.171  28.419  29.562  1.00  0.00     0.049 A 
ATOM     36  N   UNL A   1      42.319  30.502  29.209  1.00  0.00    -0.248 NA
ATOM     37  C   UNL A   1      40.948  32.012  30.349  1.00  0.00     0.031 C 
ATOM     38  C   UNL A   1      39.170  27.365  29.700  1.00  0.00     0.029 A 
ATOM     39  N   UNL A   1      41.236  27.796  28.955  1.00  0.00    -0.354 N 
ATOM     40  C   UNL A   1      42.976  31.721  29.327  1.00  0.00     0.074 A 
ATOM     41  C   UNL A   1      42.074  32.623  30.010  1.00  0.00     0.031 C 
ATOM     42  C   UNL A   1      39.657  26.230  29.170  1.00  0.00     0.029 A 
ATOM     43  C   UNL A   1      40.986  26.488  28.616  1.00  0.00     0.049 A 
ATOM     44  H   UNL A   1      42.095  28.244  28.780  1.00  0.00     0.167 HD
ATOM     45  C   UNL A   1      44.218  32.058  28.906  1.00  0.00     0.037 A 
ATOM     46  C   UNL A   1      41.727  25.613  27.906  1.00  0.00     0.037 A 
ATOM     47  C   UNL A   1      45.115  31.162  28.221  1.00  0.00     0.049 A 
ATOM     48  C   UNL A   1      43.070  26.038  27.367  1.00  0.00     0.074 A 
ATOM     49  C   UNL A   1      46.401  31.408  27.774  1.00  0.00     0.029 A 
ATOM     50  N   UNL A   1      44.813  29.854  27.873  1.00  0.00    -0.354 N 
ATOM     51  N   UNL A   1      43.693  27.185  27.500  1.00  0.00    -0.248 NA
ATOM     52  C   UNL A   1      43.812  25.045  26.574  1.00  0.00     0.031 C 
ATOM     53  C   UNL A   1      46.856  30.269  27.101  1.00  0.00     0.029 A 
ATOM     54  C   UNL A   1      45.877  29.292  27.187  1.00  0.00     0.049 A 
ATOM     55  H   UNL A   1      43.969  29.395  28.082  1.00  0.00     0.167 HD
ATOM     56  C   UNL A   1      44.907  27.040  26.837  1.00  0.00     0.074 A 
ATOM     57  C   UNL A   1      44.940  25.691  26.315  1.00  0.00     0.031 C 
ATOM     58  C   UNL A   1      45.905  27.945  26.675  1.00  0.00     0.037 A 
BRANCH  45  59
ATOM     59  C   UNL A   1      44.670  33.470  29.143  1.00  0.00     0.057 A 
ATOM     60  C   UNL A   1      45.385  33.840  30.290  1.00  0.00     0.134 A 
ATOM     61  C   UNL A   1      44.414  34.467  28.193  1.00  0.00     0.134 A 
ATOM     62  F   UNL A   1      45.652  32.937  31.246  1.00  0.00    -0.206 F 
ATOM     63  C   UNL A   1      45.808  35.155  30.493  1.00  0.00     0.040 A 
ATOM     64  C   UNL A   1      44.857  35.778  28.372  1.00  0.00     0.040 A 
ATOM     65  F   UNL A   1      43.738  34.181  27.070  1.00  0.00    -0.206 F 
ATOM     66  C   UNL A   1      45.551  36.127  29.528  1.00  0.00     0.006 A 
ENDBRANCH  45  59
BRANCH  46  67
ATOM     67  C   UNL A   1      41.208  24.248  27.628  1.00  0.00     0.057 A 
ATOM     68  C   UNL A   1      40.170  24.039  26.712  1.00  0.00     0.134 A 
ATOM     69  C   UNL A   1      41.709  23.125  28.299  1.00  0.00     0.134 A 
ATOM     70  F   UNL A   1      39.625  25.078  26.061  1.00  0.00    -0.206 F 
ATOM     71  C   UNL A   1      39.638  22.769  26.485  1.00  0.00     0.040 A 
ATOM     72  C   UNL A   1      41.207  21.844  28.060  1.00  0.00     0.040 A 
ATOM     73  F   UNL A   1      42.699  23.257  29.194  1.00  0.00    -0.206 F 
ATOM     74  C   UNL A   1      40.162  21.665  27.157  1.00  0.00     0.006 A 
ENDBRANCH  46  67
BRANCH  58  75
ATOM     75  C   UNL A   1      47.138  27.497  25.940  1.00  0.00     0.057 A 
ATOM     76  C   UNL A   1      48.215  26.886  26.596  1.00  0.00     0.134 A 
ATOM     77  C   UNL A   1      47.230  27.642  24.549  1.00  0.00     0.134 A 
ATOM     78  F   UNL A   1      48.198  26.725  27.927  1.00  0.00    -0.206 F 
ATOM     79  C   UNL A   1      49.348  26.459  25.899  1.00  0.00     0.040 A 
ATOM     80  C   UNL A   1      48.343  27.192  23.838  1.00  0.00     0.040 A 
ATOM     81  F   UNL A   1      46.231  28.208  23.855  1.00  0.00    -0.206 F 
ATOM     82  C   UNL A   1      49.411  26.606  24.515  1.00  0.00     0.006 A 
ENDBRANCH  58  75
ENDBRANCH  32  33
ENDBRANCH  25  27
ENDBRANCH  24  25
ENDBRANCH  23  24
ENDBRANCH  22  23
ENDBRANCH  21  22
ENDBRANCH  20  21
ENDBRANCH   1  20
TORSDOF 20
ENDMDL
MODEL 3
REMARK VINA RESULT:      -9.9      4.801      9.222
REMARK SMILES CC(C)Cc1ccc([C@@H](C)C(=O)OCCOCCOCCOC(=O)c2ccc(-c3c4nc(c(-c5c(F)cccc5F)c5ccc([nH]5)c(-c5c(F)cccc5F)c5nc(c(-c6c(F)cccc6F)c6ccc3[nH]6)C=C5)C=C4)cc2)cc1
REMARK SMILES IDX 17 1 16 2 15 3 14 4 13 5 11 6 12 7 9 8 10 9 8 10 5 11 6 12
REMARK SMILES IDX 80 13 7 14 79 15 4 16 2 17 1 18 3 19 18 20 19 21 20 22 21 23
REMARK SMILES IDX 22 24 23 25 24 26 25 27 26 28 78 29 27 30 77 31 28 32 29 33
REMARK SMILES IDX 30 34 71 35 31 36 76 37 70 38 72 39 32 40 75 41 69 42 68 43
REMARK SMILES IDX 33 45 59 46 42 47 58 48 43 49 46 50 57 51 73 52 44 53 45 54
REMARK SMILES IDX 56 56 74 57 47 58 34 59 35 60 40 61 36 62 37 63 39 64 41 65
REMARK SMILES IDX 38 66 60 67 61 68 66 69 62 70 63 71 65 72 67 73 64 74 48 75
REMARK SMILES IDX 49 76 54 77 50 78 51 79 53 80 55 81 52 82
REMARK H PARENT 72 44 46 55
REMARK Flexibility Score: inf
ROOT
ATOM      1  C   UNL A   1      32.405  29.148  25.034  1.00  0.00     0.188 C 
ENDROOT
BRANCH   1   2
ATOM      2  O   UNL A   1      32.706  28.080  25.927  1.00  0.00    -0.376 OA
BRANCH   2   3
ATOM      3  C   UNL A   1      31.641  27.346  26.520  1.00  0.00     0.202 C 
BRANCH   3   4
ATOM      4  C   UNL A   1      30.802  26.435  25.614  1.00  0.00     0.261 C 
BRANCH   4   5
ATOM      5  O   UNL A   1      31.433  25.198  25.212  1.00  0.00    -0.463 OA
BRANCH   5   6
ATOM      6  C   UNL A   1      31.805  24.359  26.211  1.00  0.00     0.313 C 
ATOM      7  O   UNL A   1      31.165  24.222  27.251  1.00  0.00    -0.252 OA
BRANCH   6   8
ATOM      8  C   UNL A   1      33.086  23.554  25.982  1.00  0.00     0.126 C 
ATOM      9  C   UNL A   1      34.056  24.389  25.147  1.00  0.00     0.025 C 
BRANCH   8  10
ATOM     10  C   UNL A   1      33.045  22.121  25.461  1.00  0.00    -0.034 A 
ATOM     11  C   UNL A   1      32.779  19.484  24.432  1.00  0.00    -0.048 A 
ATOM     12  C   UNL A   1      33.263  19.705  25.729  1.00  0.00     0.004 A 
ATOM     13  C   UNL A   1      32.470  20.592  23.639  1.00  0.00     0.004 A 
ATOM     14  C   UNL A   1      33.393  21.007  26.239  1.00  0.00     0.005 A 
ATOM     15  C   UNL A   1      32.582  21.887  24.151  1.00  0.00     0.005 A 
BRANCH  11  16
ATOM     16  C   UNL A   1      32.522  18.082  23.918  1.00  0.00     0.038 C 
BRANCH  16  17
ATOM     17  C   UNL A   1      33.615  17.074  24.344  1.00  0.00    -0.013 C 
ATOM     18  C   UNL A   1      33.042  15.861  25.084  1.00  0.00     0.008 C 
ATOM     19  C   UNL A   1      34.402  16.585  23.125  1.00  0.00     0.008 C 
ENDBRANCH  16  17
ENDBRANCH  11  16
ENDBRANCH   8  10
ENDBRANCH   6   8
ENDBRANCH   5   6
ENDBRANCH   4   5
ENDBRANCH   3   4
ENDBRANCH   2   3
ENDBRANCH   1   2
BRANCH   1  20
ATOM     20  C   UNL A   1      31.492  30.294  25.498  1.00  0.00     0.188 C 
BRANCH  20  21
ATOM     21  O   UNL A   1      31.996  31.017  26.600  1.00  0.00    -0.376 OA
BRANCH  21  22
ATOM     22  C   UNL A   1      31.534  32.344  26.743  1.00  0.00     0.202 C 
BRANCH  22  23
ATOM     23  C   UNL A   1      32.602  33.315  27.261  1.00  0.00     0.261 C 
BRANCH  23  24
ATOM     24  O   UNL A   1      32.155  34.259  28.253  1.00  0.00    -0.460 OA
BRANCH  24  25
ATOM     25  C   UNL A   1      33.053  35.179  28.682  1.00  0.00     0.338 C 
ATOM     26  O   UNL A   1      32.895  36.380  28.751  1.00  0.00    -0.246 OA
BRANCH  25  27
ATOM     27  C   UNL A   1      34.214  34.447  29.244  1.00  0.00     0.060 A 
ATOM     28  C   UNL A   1      34.018  33.568  30.319  1.00  0.00     0.016 A 
ATOM     29  C   UNL A   1      35.490  34.625  28.707  1.00  0.00     0.016 A 
ATOM     30  C   UNL A   1      35.104  32.877  30.871  1.00  0.00     0.010 A 
ATOM     31  C   UNL A   1      36.577  33.951  29.275  1.00  0.00     0.010 A 
ATOM     32  C   UNL A   1      36.396  33.090  30.373  1.00  0.00    -0.014 A 
BRANCH  32  33
ATOM     33  C   UNL A   1      37.587  32.545  31.076  1.00  0.00     0.031 A 
ATOM     34  C   UNL A   1      38.292  31.356  30.484  1.00  0.00     0.074 A 
ATOM     35  C   UNL A   1      38.022  33.069  32.236  1.00  0.00     0.049 A 
ATOM     36  N   UNL A   1      39.258  30.625  30.981  1.00  0.00    -0.248 NA
ATOM     37  C   UNL A   1      37.840  30.931  29.149  1.00  0.00     0.031 C 
ATOM     38  C   UNL A   1      37.464  34.245  32.898  1.00  0.00     0.029 A 
ATOM     39  N   UNL A   1      39.028  32.653  33.077  1.00  0.00    -0.354 N 
ATOM     40  C   UNL A   1      39.517  29.646  30.030  1.00  0.00     0.074 A 
ATOM     41  C   UNL A   1      38.594  29.863  28.936  1.00  0.00     0.031 C 
ATOM     42  C   UNL A   1      38.119  34.444  34.056  1.00  0.00     0.029 A 
ATOM     43  C   UNL A   1      39.111  33.385  34.237  1.00  0.00     0.049 A 
ATOM     44  H   UNL A   1      39.631  31.904  32.867  1.00  0.00     0.167 HD
ATOM     45  C   UNL A   1      40.440  28.656  30.063  1.00  0.00     0.037 A 
ATOM     46  C   UNL A   1      39.871  33.196  35.335  1.00  0.00     0.037 A 
ATOM     47  C   UNL A   1      41.355  28.435  31.154  1.00  0.00     0.049 A 
ATOM     48  C   UNL A   1      40.828  32.032  35.390  1.00  0.00     0.074 A 
ATOM     49  C   UNL A   1      42.340  27.469  31.268  1.00  0.00     0.029 A 
ATOM     50  N   UNL A   1      41.388  29.180  32.322  1.00  0.00    -0.354 N 
ATOM     51  N   UNL A   1      41.082  31.123  34.479  1.00  0.00    -0.248 NA
ATOM     52  C   UNL A   1      41.604  31.867  36.629  1.00  0.00     0.031 C 
ATOM     53  C   UNL A   1      42.928  27.591  32.532  1.00  0.00     0.029 A 
ATOM     54  C   UNL A   1      42.354  28.675  33.177  1.00  0.00     0.049 A 
ATOM     55  H   UNL A   1      40.811  29.953  32.515  1.00  0.00     0.167 HD
ATOM     56  C   UNL A   1      42.064  30.301  35.022  1.00  0.00     0.074 A 
ATOM     57  C   UNL A   1      42.370  30.827  36.335  1.00  0.00     0.031 C 
ATOM     58  C   UNL A   1      42.658  29.208  34.481  1.00  0.00     0.037 A 
BRANCH  45  59
ATOM     59  C   UNL A   1      40.484  27.710  28.898  1.00  0.00     0.057 A 
ATOM     60  C   UNL A   1      39.697  26.552  28.848  1.00  0.00     0.134 A 
ATOM     61  C   UNL A   1      41.303  27.981  27.793  1.00  0.00     0.134 A 
ATOM     62  F   UNL A   1      38.901  26.226  29.878  1.00  0.00    -0.206 F 
ATOM     63  C   UNL A   1      39.740  25.686  27.754  1.00  0.00     0.040 A 
ATOM     64  C   UNL A   1      41.332  27.138  26.681  1.00  0.00     0.040 A 
ATOM     65  F   UNL A   1      42.079  29.075  27.772  1.00  0.00    -0.206 F 
ATOM     66  C   UNL A   1      40.554  25.983  26.663  1.00  0.00     0.006 A 
ENDBRANCH  45  59
BRANCH  46  67
ATOM     67  C   UNL A   1      39.741  34.112  36.499  1.00  0.00     0.057 A 
ATOM     68  C   UNL A   1      40.380  35.357  36.518  1.00  0.00     0.134 A 
ATOM     69  C   UNL A   1      39.008  33.748  37.636  1.00  0.00     0.134 A 
ATOM     70  F   UNL A   1      41.123  35.750  35.473  1.00  0.00    -0.206 F 
ATOM     71  C   UNL A   1      40.310  36.200  37.629  1.00  0.00     0.040 A 
ATOM     72  C   UNL A   1      38.904  34.593  38.743  1.00  0.00     0.040 A 
ATOM     73  F   UNL A   1      38.378  32.566  37.686  1.00  0.00    -0.206 F 
ATOM     74  C   UNL A   1      39.565  35.820  38.744  1.00  0.00     0.006 A 
ENDBRANCH  46  67
BRANCH  58  75
ATOM     75  C   UNL A   1      43.730  28.529  35.287  1.00  0.00     0.057 A 
ATOM     76  C   UNL A   1      43.454  27.448  36.134  1.00  0.00     0.134 A 
ATOM     77  C   UNL A   1      45.067  28.938  35.181  1.00  0.00     0.134 A 
ATOM     78  F   UNL A   1      42.195  27.012  36.291  1.00  0.00    -0.206 F 
ATOM     79  C   UNL A   1      44.462  26.815  36.865  1.00  0.00     0.040 A 
ATOM     80  C   UNL A   1      46.088  28.294  35.883  1.00  0.00     0.040 A 
ATOM     81  F   UNL A   1      45.407  29.959  34.380  1.00  0.00    -0.206 F 
ATOM     82  C   UNL A   1      45.784  27.234  36.735  1.00  0.00     0.006 A 
ENDBRANCH  58  75
ENDBRANCH  32  33
ENDBRANCH  25  27
ENDBRANCH  24  25
ENDBRANCH  23  24
ENDBRANCH  22  23
ENDBRANCH  21  22
ENDBRANCH  20  21
ENDBRANCH   1  20
TORSDOF 20
ENDMDL
