MODEL 1
REMARK VINA RESULT:     -10.1      0.000      0.000
REMARK SMILES CCCCNC(=O)[C@]1(C)CC[C@@](C)(C(=O)OCCOCCOCCOC(=O)c2ccc(-c3c4nc(c(-c5c(F)cccc5F)c5ccc([nH]5)c(-c5c(F)cccc5F)c5nc(c(-c6c(F)cccc6F)c6ccc3[nH]6)C=C5)C=C4)cc2)C1(C)C
REMARK SMILES IDX 20 1 19 2 18 3 17 4 16 5 14 6 15 7 12 8 8 9 10 10 82 11 9 12
REMARK SMILES IDX 11 13 83 14 84 15 13 16 6 17 5 18 7 20 4 21 3 22 2 23 1 24
REMARK SMILES IDX 21 25 22 26 23 27 24 28 25 29 26 30 27 31 28 32 29 33 81 34
REMARK SMILES IDX 30 35 80 36 31 37 32 38 33 39 74 40 34 41 79 42 73 43 75 44
REMARK SMILES IDX 35 45 78 46 72 47 71 48 36 50 62 51 45 52 61 53 46 54 49 55
REMARK SMILES IDX 60 56 76 57 47 58 48 59 59 61 77 62 50 63 37 64 38 65 43 66
REMARK SMILES IDX 39 67 40 68 42 69 44 70 41 71 63 72 64 73 69 74 65 75 66 76
REMARK SMILES IDX 68 77 70 78 67 79 51 80 52 81 57 82 53 83 54 84 56 85 58 86
REMARK SMILES IDX 55 87
REMARK H PARENT 5 19 75 49 49 60
REMARK Flexibility Score: inf
ROOT
ATOM      1  C   UNL A   1      33.827  31.811  27.689  1.00  0.00     0.188 C 
ENDROOT
BRANCH   1   2
ATOM      2  O   UNL A   1      32.818  31.033  27.071  1.00  0.00    -0.376 OA
BRANCH   2   3
ATOM      3  C   UNL A   1      32.848  29.622  27.252  1.00  0.00     0.202 C 
BRANCH   3   4
ATOM      4  C   UNL A   1      31.516  28.856  27.261  1.00  0.00     0.261 C 
BRANCH   4   5
ATOM      5  O   UNL A   1      31.384  27.791  26.284  1.00  0.00    -0.463 OA
BRANCH   5   6
ATOM      6  C   UNL A   1      31.634  28.149  25.001  1.00  0.00     0.312 C 
ATOM      7  O   UNL A   1      31.176  29.182  24.513  1.00  0.00    -0.252 OA
BRANCH   6   8
ATOM      8  C   UNL A   1      32.635  27.260  24.202  1.00  0.00     0.071 C 
ATOM      9  C   UNL A   1      31.797  25.069  23.130  1.00  0.00     0.053 C 
ATOM     10  C   UNL A   1      31.152  26.344  22.530  1.00  0.00     0.018 C 
ATOM     11  C   UNL A   1      32.703  25.646  24.337  1.00  0.00    -0.005 C 
ATOM     12  C   UNL A   1      30.615  24.189  23.569  1.00  0.00     0.022 C 
ATOM     13  C   UNL A   1      32.176  27.441  22.729  1.00  0.00     0.020 C 
ATOM     14  C   UNL A   1      32.265  25.052  25.695  1.00  0.00     0.013 C 
ATOM     15  C   UNL A   1      34.180  25.147  24.211  1.00  0.00     0.013 C 
ATOM     16  C   UNL A   1      34.006  27.973  24.340  1.00  0.00     0.024 C 
BRANCH   9  17
ATOM     17  C   UNL A   1      32.675  24.452  21.988  1.00  0.00     0.226 C 
ATOM     18  N   UNL A   1      33.095  23.168  21.922  1.00  0.00    -0.356 N 
ATOM     19  H   UNL A   1      33.970  23.066  21.482  1.00  0.00     0.163 HD
ATOM     20  O   UNL A   1      33.175  25.175  21.116  1.00  0.00    -0.274 OA
BRANCH  18  21
ATOM     21  C   UNL A   1      32.529  21.912  22.364  1.00  0.00     0.116 C 
BRANCH  21  22
ATOM     22  C   UNL A   1      33.204  21.453  23.659  1.00  0.00     0.021 C 
BRANCH  22  23
ATOM     23  C   UNL A   1      32.249  20.782  24.655  1.00  0.00    -0.002 C 
ATOM     24  C   UNL A   1      32.903  19.647  25.432  1.00  0.00     0.004 C 
ENDBRANCH  22  23
ENDBRANCH  21  22
ENDBRANCH  18  21
ENDBRANCH   9  17
ENDBRANCH   6   8
ENDBRANCH   5   6
ENDBRANCH   4   5
ENDBRANCH   3   4
ENDBRANCH   2   3
ENDBRANCH   1   2
BRANCH   1  25
ATOM     25  C   UNL A   1      33.543  33.283  28.003  1.00  0.00     0.188 C 
BRANCH  25  26
ATOM     26  O   UNL A   1      34.597  34.172  27.684  1.00  0.00    -0.376 OA
BRANCH  26  27
ATOM     27  C   UNL A   1      35.141  34.940  28.749  1.00  0.00     0.202 C 
BRANCH  27  28
ATOM     28  C   UNL A   1      34.559  34.521  30.107  1.00  0.00     0.261 C 
BRANCH  28  29
ATOM     29  O   UNL A   1      35.537  34.055  31.059  1.00  0.00    -0.460 OA
BRANCH  29  30
ATOM     30  C   UNL A   1      35.384  32.793  31.531  1.00  0.00     0.338 C 
ATOM     31  O   UNL A   1      34.389  32.328  32.062  1.00  0.00    -0.246 OA
BRANCH  30  32
ATOM     32  C   UNL A   1      36.527  31.979  31.041  1.00  0.00     0.060 A 
ATOM     33  C   UNL A   1      37.414  31.432  31.982  1.00  0.00     0.016 A 
ATOM     34  C   UNL A   1      36.679  31.681  29.684  1.00  0.00     0.016 A 
ATOM     35  C   UNL A   1      38.481  30.630  31.565  1.00  0.00     0.010 A 
ATOM     36  C   UNL A   1      37.753  30.888  29.267  1.00  0.00     0.010 A 
ATOM     37  C   UNL A   1      38.682  30.388  30.199  1.00  0.00    -0.014 A 
BRANCH  37  38
ATOM     38  C   UNL A   1      39.957  29.799  29.713  1.00  0.00     0.031 A 
ATOM     39  C   UNL A   1      41.161  30.700  29.623  1.00  0.00     0.074 A 
ATOM     40  C   UNL A   1      40.062  28.509  29.348  1.00  0.00     0.049 A 
ATOM     41  N   UNL A   1      42.352  30.457  29.138  1.00  0.00    -0.248 NA
ATOM     42  C   UNL A   1      40.991  32.065  30.146  1.00  0.00     0.031 C 
ATOM     43  C   UNL A   1      38.996  27.514  29.426  1.00  0.00     0.029 A 
ATOM     44  N   UNL A   1      41.129  27.821  28.821  1.00  0.00    -0.354 N 
ATOM     45  C   UNL A   1      43.066  31.640  29.286  1.00  0.00     0.074 A 
ATOM     46  C   UNL A   1      42.168  32.607  29.876  1.00  0.00     0.031 C 
ATOM     47  C   UNL A   1      39.459  26.345  28.947  1.00  0.00     0.029 A 
ATOM     48  C   UNL A   1      40.839  26.518  28.495  1.00  0.00     0.049 A 
ATOM     49  H   UNL A   1      42.017  28.224  28.690  1.00  0.00     0.167 HD
ATOM     50  C   UNL A   1      44.358  31.897  28.971  1.00  0.00     0.037 A 
ATOM     51  C   UNL A   1      41.592  25.584  27.878  1.00  0.00     0.037 A 
ATOM     52  C   UNL A   1      45.256  30.940  28.382  1.00  0.00     0.049 A 
ATOM     53  C   UNL A   1      43.001  25.920  27.453  1.00  0.00     0.074 A 
ATOM     54  C   UNL A   1      46.586  31.105  28.039  1.00  0.00     0.029 A 
ATOM     55  N   UNL A   1      44.913  29.640  28.041  1.00  0.00    -0.354 N 
ATOM     56  N   UNL A   1      43.674  27.034  27.615  1.00  0.00    -0.248 NA
ATOM     57  C   UNL A   1      43.755  24.865  26.758  1.00  0.00     0.031 C 
ATOM     58  C   UNL A   1      47.033  29.925  27.437  1.00  0.00     0.029 A 
ATOM     59  C   UNL A   1      45.999  29.003  27.464  1.00  0.00     0.049 A 
ATOM     60  H   UNL A   1      44.029  29.232  28.185  1.00  0.00     0.167 HD
ATOM     61  C   UNL A   1      44.936  26.800  27.077  1.00  0.00     0.074 A 
ATOM     62  C   UNL A   1      44.938  25.437  26.593  1.00  0.00     0.031 C 
ATOM     63  C   UNL A   1      45.998  27.641  26.995  1.00  0.00     0.037 A 
BRANCH  50  64
ATOM     64  C   UNL A   1      44.866  33.286  29.227  1.00  0.00     0.057 A 
ATOM     65  C   UNL A   1      45.523  33.628  30.416  1.00  0.00     0.134 A 
ATOM     66  C   UNL A   1      44.716  34.287  28.260  1.00  0.00     0.134 A 
ATOM     67  F   UNL A   1      45.684  32.720  31.391  1.00  0.00    -0.206 F 
ATOM     68  C   UNL A   1      45.991  34.924  30.645  1.00  0.00     0.040 A 
ATOM     69  C   UNL A   1      45.207  35.579  28.464  1.00  0.00     0.040 A 
ATOM     70  F   UNL A   1      44.099  34.027  27.098  1.00  0.00    -0.206 F 
ATOM     71  C   UNL A   1      45.839  35.900  29.663  1.00  0.00     0.006 A 
ENDBRANCH  50  64
BRANCH  51  72
ATOM     72  C   UNL A   1      41.032  24.236  27.596  1.00  0.00     0.057 A 
ATOM     73  C   UNL A   1      41.464  23.107  28.303  1.00  0.00     0.134 A 
ATOM     74  C   UNL A   1      40.085  24.036  26.583  1.00  0.00     0.134 A 
ATOM     75  F   UNL A   1      42.393  23.227  29.263  1.00  0.00    -0.206 F 
ATOM     76  C   UNL A   1      40.991  21.828  28.001  1.00  0.00     0.040 A 
ATOM     77  C   UNL A   1      39.582  22.767  26.290  1.00  0.00     0.040 A 
ATOM     78  F   UNL A   1      39.635  25.074  25.863  1.00  0.00    -0.206 F 
ATOM     79  C   UNL A   1      40.042  21.657  26.995  1.00  0.00     0.006 A 
ENDBRANCH  51  72
BRANCH  63  80
ATOM     80  C   UNL A   1      47.272  27.101  26.404  1.00  0.00     0.057 A 
ATOM     81  C   UNL A   1      47.549  27.175  25.034  1.00  0.00     0.134 A 
ATOM     82  C   UNL A   1      48.257  26.542  27.231  1.00  0.00     0.134 A 
ATOM     83  F   UNL A   1      46.647  27.690  24.184  1.00  0.00    -0.206 F 
ATOM     84  C   UNL A   1      48.747  26.692  24.503  1.00  0.00     0.040 A 
ATOM     85  C   UNL A   1      49.470  26.083  26.717  1.00  0.00     0.040 A 
ATOM     86  F   UNL A   1      48.064  26.451  28.555  1.00  0.00    -0.206 F 
ATOM     87  C   UNL A   1      49.715  26.151  25.348  1.00  0.00     0.006 A 
ENDBRANCH  63  80
ENDBRANCH  37  38
ENDBRANCH  30  32
ENDBRANCH  29  30
ENDBRANCH  28  29
ENDBRANCH  27  28
ENDBRANCH  26  27
ENDBRANCH  25  26
ENDBRANCH   1  25
TORSDOF 21
ENDMDL
MODEL 2
REMARK VINA RESULT:      -9.9      4.756      6.733
REMARK SMILES CCCCNC(=O)[C@]1(C)CC[C@@](C)(C(=O)OCCOCCOCCOC(=O)c2ccc(-c3c4nc(c(-c5c(F)cccc5F)c5ccc([nH]5)c(-c5c(F)cccc5F)c5nc(c(-c6c(F)cccc6F)c6ccc3[nH]6)C=C5)C=C4)cc2)C1(C)C
REMARK SMILES IDX 20 1 19 2 18 3 17 4 16 5 14 6 15 7 12 8 8 9 10 10 82 11 9 12
REMARK SMILES IDX 11 13 83 14 84 15 13 16 6 17 5 18 7 20 4 21 3 22 2 23 1 24
REMARK SMILES IDX 21 25 22 26 23 27 24 28 25 29 26 30 27 31 28 32 29 33 81 34
REMARK SMILES IDX 30 35 80 36 31 37 32 38 33 39 74 40 34 41 79 42 73 43 75 44
REMARK SMILES IDX 35 45 78 46 72 47 71 48 36 50 62 51 45 52 61 53 46 54 49 55
REMARK SMILES IDX 60 56 76 57 47 58 48 59 59 61 77 62 50 63 37 64 38 65 43 66
REMARK SMILES IDX 39 67 40 68 42 69 44 70 41 71 63 72 64 73 69 74 65 75 66 76
REMARK SMILES IDX 68 77 70 78 67 79 51 80 52 81 57 82 53 83 54 84 56 85 58 86
REMARK SMILES IDX 55 87
REMARK H PARENT 5 19 75 49 49 60
REMARK Flexibility Score: inf
ROOT
ATOM      1  C   UNL A   1      34.655  32.070  28.440  1.00  0.00     0.188 C 
ENDROOT
BRANCH   1   2
ATOM      2  O   UNL A   1      33.526  31.726  27.656  1.00  0.00    -0.376 OA
BRANCH   2   3
ATOM      3  C   UNL A   1      33.371  30.370  27.255  1.00  0.00     0.202 C 
BRANCH   3   4
ATOM      4  C   UNL A   1      32.047  29.947  26.599  1.00  0.00     0.261 C 
BRANCH   4   5
ATOM      5  O   UNL A   1      32.093  28.750  25.781  1.00  0.00    -0.463 OA
BRANCH   5   6
ATOM      6  C   UNL A   1      31.239  28.734  24.729  1.00  0.00     0.312 C 
ATOM      7  O   UNL A   1      30.613  29.736  24.384  1.00  0.00    -0.252 OA
BRANCH   6   8
ATOM      8  C   UNL A   1      31.178  27.422  23.889  1.00  0.00     0.071 C 
ATOM      9  C   UNL A   1      32.183  25.254  24.859  1.00  0.00     0.053 C 
ATOM     10  C   UNL A   1      30.967  25.790  25.656  1.00  0.00     0.018 C 
ATOM     11  C   UNL A   1      32.423  26.396  23.741  1.00  0.00    -0.005 C 
ATOM     12  C   UNL A   1      33.311  25.112  25.894  1.00  0.00     0.022 C 
ATOM     13  C   UNL A   1      30.136  26.557  24.651  1.00  0.00     0.020 C 
ATOM     14  C   UNL A   1      33.837  27.009  23.866  1.00  0.00     0.013 C 
ATOM     15  C   UNL A   1      32.452  25.771  22.306  1.00  0.00     0.013 C 
ATOM     16  C   UNL A   1      30.526  27.836  22.543  1.00  0.00     0.024 C 
BRANCH   9  17
ATOM     17  C   UNL A   1      31.717  23.902  24.218  1.00  0.00     0.226 C 
ATOM     18  N   UNL A   1      32.518  23.002  23.605  1.00  0.00    -0.356 N 
ATOM     19  H   UNL A   1      32.070  22.515  22.875  1.00  0.00     0.163 HD
ATOM     20  O   UNL A   1      30.511  23.639  24.108  1.00  0.00    -0.274 OA
BRANCH  18  21
ATOM     21  C   UNL A   1      33.896  22.604  23.796  1.00  0.00     0.116 C 
BRANCH  21  22
ATOM     22  C   UNL A   1      33.963  21.267  24.538  1.00  0.00     0.021 C 
BRANCH  22  23
ATOM     23  C   UNL A   1      33.393  21.316  25.962  1.00  0.00    -0.002 C 
ATOM     24  C   UNL A   1      34.414  21.774  26.995  1.00  0.00     0.004 C 
ENDBRANCH  22  23
ENDBRANCH  21  22
ENDBRANCH  18  21
ENDBRANCH   9  17
ENDBRANCH   6   8
ENDBRANCH   5   6
ENDBRANCH   4   5
ENDBRANCH   3   4
ENDBRANCH   2   3
ENDBRANCH   1   2
BRANCH   1  25
ATOM     25  C   UNL A   1      34.668  33.414  29.175  1.00  0.00     0.188 C 
BRANCH  25  26
ATOM     26  O   UNL A   1      34.806  34.546  28.338  1.00  0.00    -0.376 OA
BRANCH  26  27
ATOM     27  C   UNL A   1      34.067  35.708  28.693  1.00  0.00     0.202 C 
BRANCH  27  28
ATOM     28  C   UNL A   1      32.949  35.386  29.695  1.00  0.00     0.261 C 
BRANCH  28  29
ATOM     29  O   UNL A   1      32.892  36.270  30.833  1.00  0.00    -0.460 OA
BRANCH  29  30
ATOM     30  C   UNL A   1      32.578  35.715  32.030  1.00  0.00     0.338 C 
ATOM     31  O   UNL A   1      31.466  35.626  32.523  1.00  0.00    -0.246 OA
BRANCH  30  32
ATOM     32  C   UNL A   1      33.771  34.977  32.521  1.00  0.00     0.060 A 
ATOM     33  C   UNL A   1      35.030  35.591  32.417  1.00  0.00     0.016 A 
ATOM     34  C   UNL A   1      33.650  33.738  33.154  1.00  0.00     0.016 A 
ATOM     35  C   UNL A   1      36.173  34.945  32.901  1.00  0.00     0.010 A 
ATOM     36  C   UNL A   1      34.794  33.088  33.627  1.00  0.00     0.010 A 
ATOM     37  C   UNL A   1      36.066  33.669  33.471  1.00  0.00    -0.014 A 
BRANCH  37  38
ATOM     38  C   UNL A   1      37.279  32.845  33.715  1.00  0.00     0.031 A 
ATOM     39  C   UNL A   1      38.060  33.097  34.979  1.00  0.00     0.074 A 
ATOM     40  C   UNL A   1      37.696  31.903  32.851  1.00  0.00     0.049 A 
ATOM     41  N   UNL A   1      39.200  32.589  35.371  1.00  0.00    -0.248 NA
ATOM     42  C   UNL A   1      37.475  34.063  35.922  1.00  0.00     0.031 C 
ATOM     43  C   UNL A   1      37.017  31.520  31.617  1.00  0.00     0.029 A 
ATOM     44  N   UNL A   1      38.815  31.104  32.883  1.00  0.00    -0.354 N 
ATOM     45  C   UNL A   1      39.473  33.182  36.598  1.00  0.00     0.074 A 
ATOM     46  C   UNL A   1      38.397  34.110  36.869  1.00  0.00     0.031 C 
ATOM     47  C   UNL A   1      37.742  30.570  30.999  1.00  0.00     0.029 A 
ATOM     48  C   UNL A   1      38.953  30.305  31.774  1.00  0.00     0.049 A 
ATOM     49  H   UNL A   1      39.455  31.104  33.630  1.00  0.00     0.167 HD
ATOM     50  C   UNL A   1      40.518  32.967  37.431  1.00  0.00     0.037 A 
ATOM     51  C   UNL A   1      39.956  29.477  31.415  1.00  0.00     0.037 A 
ATOM     52  C   UNL A   1      41.593  32.047  37.166  1.00  0.00     0.049 A 
ATOM     53  C   UNL A   1      41.157  29.319  32.317  1.00  0.00     0.074 A 
ATOM     54  C   UNL A   1      42.689  31.752  37.958  1.00  0.00     0.029 A 
ATOM     55  N   UNL A   1      41.709  31.279  36.017  1.00  0.00    -0.354 N 
ATOM     56  N   UNL A   1      41.396  29.869  33.483  1.00  0.00    -0.248 NA
ATOM     57  C   UNL A   1      42.227  28.425  31.849  1.00  0.00     0.031 C 
ATOM     58  C   UNL A   1      43.500  30.850  37.262  1.00  0.00     0.029 A 
ATOM     59  C   UNL A   1      42.876  30.533  36.067  1.00  0.00     0.049 A 
ATOM     60  H   UNL A   1      41.062  31.267  35.276  1.00  0.00     0.167 HD
ATOM     61  C   UNL A   1      42.622  29.360  33.901  1.00  0.00     0.074 A 
ATOM     62  C   UNL A   1      43.071  28.450  32.869  1.00  0.00     0.031 C 
ATOM     63  C   UNL A   1      43.311  29.620  35.041  1.00  0.00     0.037 A 
BRANCH  50  64
ATOM     64  C   UNL A   1      40.566  33.771  38.697  1.00  0.00     0.057 A 
ATOM     65  C   UNL A   1      39.870  33.383  39.850  1.00  0.00     0.134 A 
ATOM     66  C   UNL A   1      41.340  34.936  38.771  1.00  0.00     0.134 A 
ATOM     67  F   UNL A   1      39.097  32.287  39.841  1.00  0.00    -0.206 F 
ATOM     68  C   UNL A   1      39.921  34.140  41.022  1.00  0.00     0.040 A 
ATOM     69  C   UNL A   1      41.424  35.684  39.947  1.00  0.00     0.040 A 
ATOM     70  F   UNL A   1      42.034  35.363  37.705  1.00  0.00    -0.206 F 
ATOM     71  C   UNL A   1      40.706  35.290  41.074  1.00  0.00     0.006 A 
ENDBRANCH  50  64
BRANCH  51  72
ATOM     72  C   UNL A   1      39.893  28.738  30.126  1.00  0.00     0.057 A 
ATOM     73  C   UNL A   1      39.233  27.507  30.026  1.00  0.00     0.134 A 
ATOM     74  C   UNL A   1      40.528  29.222  28.975  1.00  0.00     0.134 A 
ATOM     75  F   UNL A   1      38.634  26.973  31.100  1.00  0.00    -0.206 F 
ATOM     76  C   UNL A   1      39.224  26.775  28.836  1.00  0.00     0.040 A 
ATOM     77  C   UNL A   1      40.503  28.515  27.771  1.00  0.00     0.040 A 
ATOM     78  F   UNL A   1      41.185  30.391  29.005  1.00  0.00    -0.206 F 
ATOM     79  C   UNL A   1      39.856  27.283  27.703  1.00  0.00     0.006 A 
ENDBRANCH  51  72
BRANCH  63  80
ATOM     80  C   UNL A   1      44.601  28.879  35.262  1.00  0.00     0.057 A 
ATOM     81  C   UNL A   1      45.843  29.421  34.910  1.00  0.00     0.134 A 
ATOM     82  C   UNL A   1      44.600  27.622  35.884  1.00  0.00     0.134 A 
ATOM     83  F   UNL A   1      45.917  30.616  34.304  1.00  0.00    -0.206 F 
ATOM     84  C   UNL A   1      47.034  28.731  35.145  1.00  0.00     0.040 A 
ATOM     85  C   UNL A   1      45.785  26.936  36.150  1.00  0.00     0.040 A 
ATOM     86  F   UNL A   1      43.447  27.048  36.259  1.00  0.00    -0.206 F 
ATOM     87  C   UNL A   1      47.008  27.488  35.774  1.00  0.00     0.006 A 
ENDBRANCH  63  80
ENDBRANCH  37  38
ENDBRANCH  30  32
ENDBRANCH  29  30
ENDBRANCH  28  29
ENDBRANCH  27  28
ENDBRANCH  26  27
ENDBRANCH  25  26
ENDBRANCH   1  25
TORSDOF 21
ENDMDL
MODEL 3
REMARK VINA RESULT:      -9.7      3.069      8.497
REMARK SMILES CCCCNC(=O)[C@]1(C)CC[C@@](C)(C(=O)OCCOCCOCCOC(=O)c2ccc(-c3c4nc(c(-c5c(F)cccc5F)c5ccc([nH]5)c(-c5c(F)cccc5F)c5nc(c(-c6c(F)cccc6F)c6ccc3[nH]6)C=C5)C=C4)cc2)C1(C)C
REMARK SMILES IDX 20 1 19 2 18 3 17 4 16 5 14 6 15 7 12 8 8 9 10 10 82 11 9 12
REMARK SMILES IDX 11 13 83 14 84 15 13 16 6 17 5 18 7 20 4 21 3 22 2 23 1 24
REMARK SMILES IDX 21 25 22 26 23 27 24 28 25 29 26 30 27 31 28 32 29 33 81 34
REMARK SMILES IDX 30 35 80 36 31 37 32 38 33 39 74 40 34 41 79 42 73 43 75 44
REMARK SMILES IDX 35 45 78 46 72 47 71 48 36 50 62 51 45 52 61 53 46 54 49 55
REMARK SMILES IDX 60 56 76 57 47 58 48 59 59 61 77 62 50 63 37 64 38 65 43 66
REMARK SMILES IDX 39 67 40 68 42 69 44 70 41 71 63 72 64 73 69 74 65 75 66 76
REMARK SMILES IDX 68 77 70 78 67 79 51 80 52 81 57 82 53 83 54 84 56 85 58 86
REMARK SMILES IDX 55 87
REMARK H PARENT 5 19 75 49 49 60
REMARK Flexibility Score: inf
ROOT
ATOM      1  C   UNL A   1      33.168  20.595  25.613  1.00  0.00     0.188 C 
ENDROOT
BRANCH   1   2
ATOM      2  O   UNL A   1      33.492  20.569  26.991  1.00  0.00    -0.376 OA
BRANCH   2   3
ATOM      3  C   UNL A   1      33.722  21.806  27.654  1.00  0.00     0.202 C 
BRANCH   3   4
ATOM      4  C   UNL A   1      32.805  22.995  27.326  1.00  0.00     0.261 C 
BRANCH   4   5
ATOM      5  O   UNL A   1      33.330  23.965  26.384  1.00  0.00    -0.463 OA
BRANCH   5   6
ATOM      6  C   UNL A   1      32.424  24.481  25.518  1.00  0.00     0.312 C 
ATOM      7  O   UNL A   1      31.365  23.906  25.266  1.00  0.00    -0.252 OA
BRANCH   6   8
ATOM      8  C   UNL A   1      32.719  25.902  24.949  1.00  0.00     0.071 C 
ATOM      9  C   UNL A   1      30.748  27.442  24.318  1.00  0.00     0.053 C 
ATOM     10  C   UNL A   1      30.828  27.118  25.831  1.00  0.00     0.018 C 
ATOM     11  C   UNL A   1      31.931  26.541  23.685  1.00  0.00    -0.005 C 
ATOM     12  C   UNL A   1      29.327  27.038  23.895  1.00  0.00     0.022 C 
ATOM     13  C   UNL A   1      32.292  26.846  26.106  1.00  0.00     0.020 C 
ATOM     14  C   UNL A   1      31.373  25.540  22.647  1.00  0.00     0.013 C 
ATOM     15  C   UNL A   1      32.897  27.418  22.822  1.00  0.00     0.013 C 
ATOM     16  C   UNL A   1      34.265  25.982  24.847  1.00  0.00     0.024 C 
BRANCH   9  17
ATOM     17  C   UNL A   1      31.053  28.974  24.189  1.00  0.00     0.226 C 
ATOM     18  N   UNL A   1      30.899  29.717  23.070  1.00  0.00    -0.356 N 
ATOM     19  H   UNL A   1      31.550  30.452  22.998  1.00  0.00     0.163 HD
ATOM     20  O   UNL A   1      31.612  29.586  25.109  1.00  0.00    -0.274 OA
BRANCH  18  21
ATOM     21  C   UNL A   1      29.979  29.658  21.955  1.00  0.00     0.116 C 
BRANCH  21  22
ATOM     22  C   UNL A   1      29.186  30.963  21.853  1.00  0.00     0.021 C 
BRANCH  22  23
ATOM     23  C   UNL A   1      28.789  31.558  23.210  1.00  0.00    -0.002 C 
ATOM     24  C   UNL A   1      27.425  31.080  23.692  1.00  0.00     0.004 C 
ENDBRANCH  22  23
ENDBRANCH  21  22
ENDBRANCH  18  21
ENDBRANCH   9  17
ENDBRANCH   6   8
ENDBRANCH   5   6
ENDBRANCH   4   5
ENDBRANCH   3   4
ENDBRANCH   2   3
ENDBRANCH   1   2
BRANCH   1  25
ATOM     25  C   UNL A   1      34.300  20.671  24.584  1.00  0.00     0.188 C 
BRANCH  25  26
ATOM     26  O   UNL A   1      35.549  20.189  25.041  1.00  0.00    -0.376 OA
BRANCH  26  27
ATOM     27  C   UNL A   1      36.697  20.966  24.726  1.00  0.00     0.202 C 
BRANCH  27  28
ATOM     28  C   UNL A   1      36.982  22.021  25.805  1.00  0.00     0.261 C 
BRANCH  28  29
ATOM     29  O   UNL A   1      38.134  22.849  25.544  1.00  0.00    -0.460 OA
BRANCH  29  30
ATOM     30  C   UNL A   1      39.195  22.707  26.376  1.00  0.00     0.338 C 
ATOM     31  O   UNL A   1      39.890  21.713  26.510  1.00  0.00    -0.246 OA
BRANCH  30  32
ATOM     32  C   UNL A   1      39.555  24.053  26.895  1.00  0.00     0.060 A 
ATOM     33  C   UNL A   1      40.106  24.989  26.005  1.00  0.00     0.016 A 
ATOM     34  C   UNL A   1      39.275  24.423  28.212  1.00  0.00     0.016 A 
ATOM     35  C   UNL A   1      40.424  26.279  26.446  1.00  0.00     0.010 A 
ATOM     36  C   UNL A   1      39.604  25.708  28.655  1.00  0.00     0.010 A 
ATOM     37  C   UNL A   1      40.214  26.632  27.786  1.00  0.00    -0.014 A 
BRANCH  37  38
ATOM     38  C   UNL A   1      40.810  27.874  28.344  1.00  0.00     0.031 A 
ATOM     39  C   UNL A   1      39.875  28.941  28.848  1.00  0.00     0.074 A 
ATOM     40  C   UNL A   1      42.140  28.071  28.403  1.00  0.00     0.049 A 
ATOM     41  N   UNL A   1      40.139  30.146  29.282  1.00  0.00    -0.248 NA
ATOM     42  C   UNL A   1      38.443  28.600  28.852  1.00  0.00     0.031 C 
ATOM     43  C   UNL A   1      43.161  27.110  27.997  1.00  0.00     0.029 A 
ATOM     44  N   UNL A   1      42.855  29.169  28.820  1.00  0.00    -0.354 N 
ATOM     45  C   UNL A   1      38.909  30.710  29.598  1.00  0.00     0.074 A 
ATOM     46  C   UNL A   1      37.897  29.728  29.276  1.00  0.00     0.031 C 
ATOM     47  C   UNL A   1      44.374  27.667  28.170  1.00  0.00     0.029 A 
ATOM     48  C   UNL A   1      44.213  29.034  28.663  1.00  0.00     0.049 A 
ATOM     49  H   UNL A   1      42.433  29.974  29.197  1.00  0.00     0.167 HD
ATOM     50  C   UNL A   1      38.643  31.931  30.120  1.00  0.00     0.037 A 
ATOM     51  C   UNL A   1      45.207  29.924  28.866  1.00  0.00     0.037 A 
ATOM     52  C   UNL A   1      39.644  32.913  30.441  1.00  0.00     0.049 A 
ATOM     53  C   UNL A   1      44.881  31.311  29.363  1.00  0.00     0.074 A 
ATOM     54  C   UNL A   1      39.471  34.173  30.986  1.00  0.00     0.029 A 
ATOM     55  N   UNL A   1      41.006  32.748  30.237  1.00  0.00    -0.354 N 
ATOM     56  N   UNL A   1      43.717  31.828  29.678  1.00  0.00    -0.248 NA
ATOM     57  C   UNL A   1      46.009  32.239  29.533  1.00  0.00     0.031 C 
ATOM     58  C   UNL A   1      40.723  34.794  31.058  1.00  0.00     0.029 A 
ATOM     59  C   UNL A   1      41.682  33.896  30.619  1.00  0.00     0.049 A 
ATOM     60  H   UNL A   1      41.430  31.937  29.875  1.00  0.00     0.167 HD
ATOM     61  C   UNL A   1      43.979  33.123  30.115  1.00  0.00     0.074 A 
ATOM     62  C   UNL A   1      45.412  33.310  30.035  1.00  0.00     0.031 C 
ATOM     63  C   UNL A   1      43.110  34.070  30.548  1.00  0.00     0.037 A 
BRANCH  50  64
ATOM     64  C   UNL A   1      37.202  32.284  30.345  1.00  0.00     0.057 A 
ATOM     65  C   UNL A   1      36.530  31.943  31.526  1.00  0.00     0.134 A 
ATOM     66  C   UNL A   1      36.485  32.998  29.377  1.00  0.00     0.134 A 
ATOM     67  F   UNL A   1      37.153  31.245  32.487  1.00  0.00    -0.206 F 
ATOM     68  C   UNL A   1      35.188  32.276  31.725  1.00  0.00     0.040 A 
ATOM     69  C   UNL A   1      35.153  33.364  29.576  1.00  0.00     0.040 A 
ATOM     70  F   UNL A   1      37.069  33.359  28.224  1.00  0.00    -0.206 F 
ATOM     71  C   UNL A   1      34.499  32.996  30.750  1.00  0.00     0.006 A 
ENDBRANCH  50  64
BRANCH  51  72
ATOM     72  C   UNL A   1      46.617  29.549  28.580  1.00  0.00     0.057 A 
ATOM     73  C   UNL A   1      47.448  29.028  29.581  1.00  0.00     0.134 A 
ATOM     74  C   UNL A   1      47.183  29.745  27.314  1.00  0.00     0.134 A 
ATOM     75  F   UNL A   1      46.976  28.849  30.823  1.00  0.00    -0.206 F 
ATOM     76  C   UNL A   1      48.791  28.735  29.338  1.00  0.00     0.040 A 
ATOM     77  C   UNL A   1      48.517  29.428  27.050  1.00  0.00     0.040 A 
ATOM     78  F   UNL A   1      46.445  30.247  26.313  1.00  0.00    -0.206 F 
ATOM     79  C   UNL A   1      49.327  28.929  28.067  1.00  0.00     0.006 A 
ENDBRANCH  51  72
BRANCH  63  80
ATOM     80  C   UNL A   1      43.680  35.380  31.017  1.00  0.00     0.057 A 
ATOM     81  C   UNL A   1      44.107  35.580  32.336  1.00  0.00     0.134 A 
ATOM     82  C   UNL A   1      43.850  36.443  30.118  1.00  0.00     0.134 A 
ATOM     83  F   UNL A   1      43.966  34.607  33.250  1.00  0.00    -0.206 F 
ATOM     84  C   UNL A   1      44.658  36.794  32.750  1.00  0.00     0.040 A 
ATOM     85  C   UNL A   1      44.426  37.651  30.513  1.00  0.00     0.040 A 
ATOM     86  F   UNL A   1      43.475  36.318  28.836  1.00  0.00    -0.206 F 
ATOM     87  C   UNL A   1      44.826  37.832  31.834  1.00  0.00     0.006 A 
ENDBRANCH  63  80
ENDBRANCH  37  38
ENDBRANCH  30  32
ENDBRANCH  29  30
ENDBRANCH  28  29
ENDBRANCH  27  28
ENDBRANCH  26  27
ENDBRANCH  25  26
ENDBRANCH   1  25
TORSDOF 21
ENDMDL
