MODEL 1
REMARK VINA RESULT:     -12.6      0.000      0.000
REMARK SMILES Cc1ccc(NC(=O)N2CCCC[C@@H]2C(=O)OCCOCCOCCOC(=O)c2ccc(-c3c4nc(c(-c5c(F)cccc5F)c5ccc([nH]5)c(-c5c(F)cccc5F)c5nc(c(-c6c(F)cccc6F)c6ccc3[nH]6)C=C5)C=C4)cc2)cc1
REMARK SMILES IDX 21 1 20 2 19 3 18 4 17 5 15 6 16 7 14 8 9 9 10 10 11 11
REMARK SMILES IDX 13 12 12 13 7 14 6 15 8 17 5 18 1 19 2 20 3 21 84 22 4 23
REMARK SMILES IDX 83 24 22 25 23 26 24 27 25 28 26 29 27 30 28 31 29 32 30 33
REMARK SMILES IDX 82 34 31 35 81 36 32 37 33 38 34 39 75 40 35 41 80 42 74 43
REMARK SMILES IDX 76 44 36 45 79 46 73 47 72 48 37 50 63 51 46 52 62 53 47 54
REMARK SMILES IDX 50 55 61 56 77 57 48 58 49 59 60 61 78 62 51 63 38 64 39 65
REMARK SMILES IDX 44 66 40 67 41 68 43 69 45 70 42 71 64 72 65 73 70 74 66 75
REMARK SMILES IDX 67 76 69 77 71 78 68 79 52 80 53 81 58 82 54 83 55 84 57 85
REMARK SMILES IDX 59 86 56 87
REMARK H PARENT 6 16 76 49 50 60
REMARK Flexibility Score: inf
ROOT
ATOM      1  C   UNL A   1      40.035  21.179  26.356  1.00  0.00     0.188 C 
ENDROOT
BRANCH   1   2
ATOM      2  O   UNL A   1      38.926  21.529  25.505  1.00  0.00    -0.376 OA
BRANCH   2   3
ATOM      3  C   UNL A   1      37.654  22.138  25.814  1.00  0.00     0.202 C 
BRANCH   3   4
ATOM      4  C   UNL A   1      36.906  23.724  25.457  1.00  0.00     0.261 C 
BRANCH   4   5
ATOM      5  O   UNL A   1      35.333  24.447  25.658  1.00  0.00    -0.462 OA
BRANCH   5   6
ATOM      6  C   UNL A   1      34.316  25.088  24.846  1.00  0.00     0.329 C 
ATOM      7  O   UNL A   1      34.221  26.293  24.602  1.00  0.00    -0.250 OA
BRANCH   6   8
ATOM      8  C   UNL A   1      33.206  24.354  24.122  1.00  0.00     0.196 C 
ATOM      9  N   UNL A   1      32.024  24.019  25.064  1.00  0.00    -0.311 N 
ATOM     10  C   UNL A   1      31.111  22.946  24.721  1.00  0.00     0.122 C 
ATOM     11  C   UNL A   1      31.777  21.787  24.015  1.00  0.00     0.022 C 
ATOM     12  C   UNL A   1      33.760  23.139  23.415  1.00  0.00     0.037 C 
ATOM     13  C   UNL A   1      32.632  22.290  22.862  1.00  0.00     0.005 C 
BRANCH   9  14
ATOM     14  C   UNL A   1      31.646  24.694  26.206  1.00  0.00     0.322 C 
ATOM     15  N   UNL A   1      31.285  26.002  26.239  1.00  0.00    -0.308 N 
ATOM     16  H   UNL A   1      31.215  26.325  27.167  1.00  0.00     0.171 HD
ATOM     17  O   UNL A   1      31.495  24.057  27.259  1.00  0.00    -0.248 OA
BRANCH  15  18
ATOM     18  C   UNL A   1      30.984  27.025  25.325  1.00  0.00     0.042 A 
ATOM     19  C   UNL A   1      29.502  30.077  22.633  1.00  0.00     0.044 C 
ATOM     20  C   UNL A   1      30.093  28.994  23.489  1.00  0.00    -0.051 A 
ATOM     21  C   UNL A   1      31.053  29.291  24.464  1.00  0.00     0.005 A 
ATOM     22  C   UNL A   1      29.678  27.671  23.352  1.00  0.00     0.005 A 
ATOM     23  C   UNL A   1      31.504  28.310  25.364  1.00  0.00     0.026 A 
ATOM     24  C   UNL A   1      30.106  26.703  24.274  1.00  0.00     0.026 A 
ENDBRANCH  15  18
ENDBRANCH   9  14
ENDBRANCH   6   8
ENDBRANCH   5   6
ENDBRANCH   4   5
ENDBRANCH   3   4
ENDBRANCH   2   3
ENDBRANCH   1   2
BRANCH   1  25
ATOM     25  C   UNL A   1      40.725  19.821  26.404  1.00  0.00     0.188 C 
BRANCH  25  26
ATOM     26  O   UNL A   1      41.815  19.767  25.513  1.00  0.00    -0.376 OA
BRANCH  26  27
ATOM     27  C   UNL A   1      42.829  18.848  25.888  1.00  0.00     0.202 C 
BRANCH  27  28
ATOM     28  C   UNL A   1      44.165  19.002  25.119  1.00  0.00     0.261 C 
BRANCH  28  29
ATOM     29  O   UNL A   1      44.205  20.232  24.352  1.00  0.00    -0.460 OA
BRANCH  29  30
ATOM     30  C   UNL A   1      45.148  21.188  24.659  1.00  0.00     0.338 C 
ATOM     31  O   UNL A   1      46.269  20.953  25.085  1.00  0.00    -0.246 OA
BRANCH  30  32
ATOM     32  C   UNL A   1      44.500  22.550  24.673  1.00  0.00     0.060 A 
ATOM     33  C   UNL A   1      45.124  23.794  24.470  1.00  0.00     0.016 A 
ATOM     34  C   UNL A   1      43.363  22.599  25.388  1.00  0.00     0.016 A 
ATOM     35  C   UNL A   1      44.731  24.989  25.226  1.00  0.00     0.010 A 
ATOM     36  C   UNL A   1      43.350  23.607  26.338  1.00  0.00     0.010 A 
ATOM     37  C   UNL A   1      43.896  24.920  26.342  1.00  0.00    -0.014 A 
BRANCH  37  38
ATOM     38  C   UNL A   1      43.573  26.143  27.508  1.00  0.00     0.031 A 
ATOM     39  C   UNL A   1      42.208  27.208  27.763  1.00  0.00     0.074 A 
ATOM     40  C   UNL A   1      44.578  26.460  28.360  1.00  0.00     0.049 A 
ATOM     41  N   UNL A   1      42.279  28.364  28.403  1.00  0.00    -0.248 NA
ATOM     42  C   UNL A   1      40.789  27.158  27.220  1.00  0.00     0.031 C 
ATOM     43  C   UNL A   1      44.518  27.305  29.553  1.00  0.00     0.029 A 
ATOM     44  N   UNL A   1      45.935  26.116  28.284  1.00  0.00    -0.354 N 
ATOM     45  C   UNL A   1      41.011  28.953  28.431  1.00  0.00     0.074 A 
ATOM     46  C   UNL A   1      40.253  28.336  27.440  1.00  0.00     0.031 C 
ATOM     47  C   UNL A   1      45.759  27.697  29.874  1.00  0.00     0.029 A 
ATOM     48  C   UNL A   1      46.651  27.190  28.853  1.00  0.00     0.049 A 
ATOM     49  H   UNL A   1      46.313  25.289  27.909  1.00  0.00     0.167 HD
ATOM     50  C   UNL A   1      40.575  29.845  29.355  1.00  0.00     0.037 A 
ATOM     51  C   UNL A   1      47.510  27.910  28.087  1.00  0.00     0.037 A 
ATOM     52  C   UNL A   1      41.727  30.539  29.871  1.00  0.00     0.049 A 
ATOM     53  C   UNL A   1      47.034  29.343  27.876  1.00  0.00     0.074 A 
ATOM     54  C   UNL A   1      42.552  30.389  30.964  1.00  0.00     0.029 A 
ATOM     55  N   UNL A   1      42.429  31.295  28.949  1.00  0.00    -0.354 N 
ATOM     56  N   UNL A   1      46.036  29.904  28.508  1.00  0.00    -0.248 NA
ATOM     57  C   UNL A   1      47.617  30.241  26.875  1.00  0.00     0.031 C 
ATOM     58  C   UNL A   1      43.838  30.896  30.584  1.00  0.00     0.029 A 
ATOM     59  C   UNL A   1      43.760  31.401  29.295  1.00  0.00     0.049 A 
ATOM     60  H   UNL A   1      42.029  31.706  28.148  1.00  0.00     0.167 HD
ATOM     61  C   UNL A   1      45.767  31.127  27.953  1.00  0.00     0.074 A 
ATOM     62  C   UNL A   1      46.807  31.312  26.957  1.00  0.00     0.031 C 
ATOM     63  C   UNL A   1      44.697  31.901  28.295  1.00  0.00     0.037 A 
BRANCH  50  64
ATOM     64  C   UNL A   1      39.106  30.011  29.783  1.00  0.00     0.057 A 
ATOM     65  C   UNL A   1      38.454  28.942  30.422  1.00  0.00     0.134 A 
ATOM     66  C   UNL A   1      38.224  31.094  29.494  1.00  0.00     0.134 A 
ATOM     67  F   UNL A   1      39.114  27.816  30.727  1.00  0.00    -0.206 F 
ATOM     68  C   UNL A   1      37.079  28.947  30.739  1.00  0.00     0.040 A 
ATOM     69  C   UNL A   1      36.865  31.133  29.855  1.00  0.00     0.040 A 
ATOM     70  F   UNL A   1      38.568  32.167  28.775  1.00  0.00    -0.206 F 
ATOM     71  C   UNL A   1      36.280  30.047  30.467  1.00  0.00     0.006 A 
ENDBRANCH  50  64
BRANCH  51  72
ATOM     72  C   UNL A   1      48.213  27.037  27.097  1.00  0.00     0.057 A 
ATOM     73  C   UNL A   1      47.810  27.019  25.751  1.00  0.00     0.134 A 
ATOM     74  C   UNL A   1      49.499  26.580  27.348  1.00  0.00     0.134 A 
ATOM     75  F   UNL A   1      46.604  27.494  25.407  1.00  0.00    -0.206 F 
ATOM     76  C   UNL A   1      48.673  26.632  24.713  1.00  0.00     0.040 A 
ATOM     77  C   UNL A   1      50.362  26.152  26.327  1.00  0.00     0.040 A 
ATOM     78  F   UNL A   1      50.003  26.739  28.572  1.00  0.00    -0.206 F 
ATOM     79  C   UNL A   1      49.968  26.215  24.999  1.00  0.00     0.006 A 
ENDBRANCH  51  72
BRANCH  63  80
ATOM     80  C   UNL A   1      44.482  33.253  27.682  1.00  0.00     0.057 A 
ATOM     81  C   UNL A   1      44.668  34.415  28.441  1.00  0.00     0.134 A 
ATOM     82  C   UNL A   1      43.935  33.432  26.398  1.00  0.00     0.134 A 
ATOM     83  F   UNL A   1      45.181  34.347  29.678  1.00  0.00    -0.206 F 
ATOM     84  C   UNL A   1      44.315  35.679  27.958  1.00  0.00     0.040 A 
ATOM     85  C   UNL A   1      43.532  34.682  25.923  1.00  0.00     0.040 A 
ATOM     86  F   UNL A   1      43.772  32.396  25.561  1.00  0.00    -0.206 F 
ATOM     87  C   UNL A   1      43.721  35.812  26.707  1.00  0.00     0.006 A 
ENDBRANCH  63  80
ENDBRANCH  37  38
ENDBRANCH  30  32
ENDBRANCH  29  30
ENDBRANCH  28  29
ENDBRANCH  27  28
ENDBRANCH  26  27
ENDBRANCH  25  26
ENDBRANCH   1  25
TORSDOF 19
ENDMDL
MODEL 2
REMARK VINA RESULT:     -12.4      4.694     10.413
REMARK SMILES Cc1ccc(NC(=O)N2CCCC[C@@H]2C(=O)OCCOCCOCCOC(=O)c2ccc(-c3c4nc(c(-c5c(F)cccc5F)c5ccc([nH]5)c(-c5c(F)cccc5F)c5nc(c(-c6c(F)cccc6F)c6ccc3[nH]6)C=C5)C=C4)cc2)cc1
REMARK SMILES IDX 21 1 20 2 19 3 18 4 17 5 15 6 16 7 14 8 9 9 10 10 11 11
REMARK SMILES IDX 13 12 12 13 7 14 6 15 8 17 5 18 1 19 2 20 3 21 84 22 4 23
REMARK SMILES IDX 83 24 22 25 23 26 24 27 25 28 26 29 27 30 28 31 29 32 30 33
REMARK SMILES IDX 82 34 31 35 81 36 32 37 33 38 34 39 75 40 35 41 80 42 74 43
REMARK SMILES IDX 76 44 36 45 79 46 73 47 72 48 37 50 63 51 46 52 62 53 47 54
REMARK SMILES IDX 50 55 61 56 77 57 48 58 49 59 60 61 78 62 51 63 38 64 39 65
REMARK SMILES IDX 44 66 40 67 41 68 43 69 45 70 42 71 64 72 65 73 70 74 66 75
REMARK SMILES IDX 67 76 69 77 71 78 68 79 52 80 53 81 58 82 54 83 55 84 57 85
REMARK SMILES IDX 59 86 56 87
REMARK H PARENT 6 16 76 49 50 60
REMARK Flexibility Score: inf
ROOT
ATOM      1  C   UNL A   1      34.430  33.217  28.223  1.00  0.00     0.188 C 
ENDROOT
BRANCH   1   2
ATOM      2  O   UNL A   1      34.345  31.781  28.307  1.00  0.00    -0.376 OA
BRANCH   2   3
ATOM      3  C   UNL A   1      33.947  30.799  27.326  1.00  0.00     0.202 C 
BRANCH   3   4
ATOM      4  C   UNL A   1      33.818  29.014  27.323  1.00  0.00     0.261 C 
BRANCH   4   5
ATOM      5  O   UNL A   1      33.043  27.810  26.329  1.00  0.00    -0.462 OA
BRANCH   5   6
ATOM      6  C   UNL A   1      32.003  26.805  26.444  1.00  0.00     0.329 C 
ATOM      7  O   UNL A   1      30.927  26.926  27.032  1.00  0.00    -0.250 OA
BRANCH   6   8
ATOM      8  C   UNL A   1      32.062  25.431  25.810  1.00  0.00     0.196 C 
ATOM      9  N   UNL A   1      32.343  25.508  24.289  1.00  0.00    -0.311 N 
ATOM     10  C   UNL A   1      31.978  24.398  23.431  1.00  0.00     0.122 C 
ATOM     11  C   UNL A   1      30.712  23.691  23.861  1.00  0.00     0.022 C 
ATOM     12  C   UNL A   1      30.811  24.651  26.139  1.00  0.00     0.037 C 
ATOM     13  C   UNL A   1      30.768  23.360  25.344  1.00  0.00     0.005 C 
BRANCH   9  14
ATOM     14  C   UNL A   1      33.010  26.508  23.610  1.00  0.00     0.322 C 
ATOM     15  N   UNL A   1      32.420  27.630  23.127  1.00  0.00    -0.308 N 
ATOM     16  H   UNL A   1      33.034  28.126  22.538  1.00  0.00     0.171 HD
ATOM     17  O   UNL A   1      34.246  26.462  23.535  1.00  0.00    -0.248 OA
BRANCH  15  18
ATOM     18  C   UNL A   1      31.182  28.285  23.230  1.00  0.00     0.042 A 
ATOM     19  C   UNL A   1      27.624  30.754  23.293  1.00  0.00     0.044 C 
ATOM     20  C   UNL A   1      28.828  29.861  23.373  1.00  0.00    -0.051 A 
ATOM     21  C   UNL A   1      28.810  28.578  22.814  1.00  0.00     0.005 A 
ATOM     22  C   UNL A   1      30.003  30.300  23.980  1.00  0.00     0.005 A 
ATOM     23  C   UNL A   1      29.975  27.792  22.757  1.00  0.00     0.026 A 
ATOM     24  C   UNL A   1      31.171  29.527  23.891  1.00  0.00     0.026 A 
ENDBRANCH  15  18
ENDBRANCH   9  14
ENDBRANCH   6   8
ENDBRANCH   5   6
ENDBRANCH   4   5
ENDBRANCH   3   4
ENDBRANCH   2   3
ENDBRANCH   1   2
BRANCH   1  25
ATOM     25  C   UNL A   1      33.249  34.172  28.095  1.00  0.00     0.188 C 
BRANCH  25  26
ATOM     26  O   UNL A   1      32.719  34.505  29.357  1.00  0.00    -0.376 OA
BRANCH  26  27
ATOM     27  C   UNL A   1      32.945  35.850  29.747  1.00  0.00     0.202 C 
BRANCH  27  28
ATOM     28  C   UNL A   1      32.620  36.163  31.229  1.00  0.00     0.261 C 
BRANCH  28  29
ATOM     29  O   UNL A   1      32.910  35.035  32.092  1.00  0.00    -0.460 OA
BRANCH  29  30
ATOM     30  C   UNL A   1      34.023  35.074  32.901  1.00  0.00     0.338 C 
ATOM     31  O   UNL A   1      34.529  36.093  33.348  1.00  0.00    -0.246 OA
BRANCH  30  32
ATOM     32  C   UNL A   1      34.688  33.719  32.911  1.00  0.00     0.060 A 
ATOM     33  C   UNL A   1      35.518  33.182  33.911  1.00  0.00     0.016 A 
ATOM     34  C   UNL A   1      34.876  33.202  31.684  1.00  0.00     0.016 A 
ATOM     35  C   UNL A   1      36.686  32.356  33.587  1.00  0.00     0.010 A 
ATOM     36  C   UNL A   1      36.184  32.812  31.444  1.00  0.00     0.010 A 
ATOM     37  C   UNL A   1      37.180  32.247  32.286  1.00  0.00    -0.014 A 
BRANCH  37  38
ATOM     38  C   UNL A   1      38.680  31.583  31.769  1.00  0.00     0.031 A 
ATOM     39  C   UNL A   1      39.100  30.086  30.965  1.00  0.00     0.074 A 
ATOM     40  C   UNL A   1      39.803  32.259  32.115  1.00  0.00     0.049 A 
ATOM     41  N   UNL A   1      40.296  29.523  31.026  1.00  0.00    -0.248 NA
ATOM     42  C   UNL A   1      38.239  29.078  30.221  1.00  0.00     0.031 C 
ATOM     43  C   UNL A   1      41.171  32.033  31.649  1.00  0.00     0.029 A 
ATOM     44  N   UNL A   1      39.952  33.295  33.046  1.00  0.00    -0.354 N 
ATOM     45  C   UNL A   1      40.289  28.347  30.268  1.00  0.00     0.074 A 
ATOM     46  C   UNL A   1      38.957  27.986  30.087  1.00  0.00     0.031 C 
ATOM     47  C   UNL A   1      42.025  32.611  32.506  1.00  0.00     0.029 A 
ATOM     48  C   UNL A   1      41.242  33.155  33.596  1.00  0.00     0.049 A 
ATOM     49  H   UNL A   1      39.288  33.985  33.270  1.00  0.00     0.167 HD
ATOM     50  C   UNL A   1      41.375  27.767  29.701  1.00  0.00     0.037 A 
ATOM     51  C   UNL A   1      41.387  32.886  34.920  1.00  0.00     0.037 A 
ATOM     52  C   UNL A   1      42.529  28.143  30.477  1.00  0.00     0.049 A 
ATOM     53  C   UNL A   1      41.966  31.498  35.168  1.00  0.00     0.074 A 
ATOM     54  C   UNL A   1      43.487  29.130  30.394  1.00  0.00     0.029 A 
ATOM     55  N   UNL A   1      42.534  27.700  31.788  1.00  0.00    -0.354 N 
ATOM     56  N   UNL A   1      42.464  30.715  34.246  1.00  0.00    -0.248 NA
ATOM     57  C   UNL A   1      41.963  30.854  36.485  1.00  0.00     0.031 C 
ATOM     58  C   UNL A   1      43.913  29.407  31.734  1.00  0.00     0.029 A 
ATOM     59  C   UNL A   1      43.258  28.546  32.602  1.00  0.00     0.049 A 
ATOM     60  H   UNL A   1      42.079  26.884  32.100  1.00  0.00     0.167 HD
ATOM     61  C   UNL A   1      42.725  29.482  34.780  1.00  0.00     0.074 A 
ATOM     62  C   UNL A   1      42.430  29.627  36.194  1.00  0.00     0.031 C 
ATOM     63  C   UNL A   1      43.121  28.401  34.047  1.00  0.00     0.037 A 
BRANCH  50  64
ATOM     64  C   UNL A   1      41.341  26.914  28.420  1.00  0.00     0.057 A 
ATOM     65  C   UNL A   1      42.026  25.686  28.397  1.00  0.00     0.134 A 
ATOM     66  C   UNL A   1      40.802  27.262  27.146  1.00  0.00     0.134 A 
ATOM     67  F   UNL A   1      42.642  25.220  29.493  1.00  0.00    -0.206 F 
ATOM     68  C   UNL A   1      42.162  24.893  27.238  1.00  0.00     0.040 A 
ATOM     69  C   UNL A   1      40.883  26.453  25.999  1.00  0.00     0.040 A 
ATOM     70  F   UNL A   1      40.225  28.436  26.875  1.00  0.00    -0.206 F 
ATOM     71  C   UNL A   1      41.582  25.266  26.036  1.00  0.00     0.006 A 
ENDBRANCH  50  64
BRANCH  51  72
ATOM     72  C   UNL A   1      40.346  33.590  35.729  1.00  0.00     0.057 A 
ATOM     73  C   UNL A   1      39.243  32.885  36.238  1.00  0.00     0.134 A 
ATOM     74  C   UNL A   1      40.636  34.792  36.360  1.00  0.00     0.134 A 
ATOM     75  F   UNL A   1      38.921  31.687  35.729  1.00  0.00    -0.206 F 
ATOM     76  C   UNL A   1      38.519  33.326  37.357  1.00  0.00     0.040 A 
ATOM     77  C   UNL A   1      39.898  35.268  37.455  1.00  0.00     0.040 A 
ATOM     78  F   UNL A   1      41.771  35.418  36.046  1.00  0.00    -0.206 F 
ATOM     79  C   UNL A   1      38.861  34.517  37.986  1.00  0.00     0.006 A 
ENDBRANCH  51  72
BRANCH  63  80
ATOM     80  C   UNL A   1      43.436  27.086  34.697  1.00  0.00     0.057 A 
ATOM     81  C   UNL A   1      42.407  26.209  35.057  1.00  0.00     0.134 A 
ATOM     82  C   UNL A   1      44.729  26.736  35.125  1.00  0.00     0.134 A 
ATOM     83  F   UNL A   1      41.139  26.458  34.697  1.00  0.00    -0.206 F 
ATOM     84  C   UNL A   1      42.646  25.058  35.815  1.00  0.00     0.040 A 
ATOM     85  C   UNL A   1      44.975  25.617  35.925  1.00  0.00     0.040 A 
ATOM     86  F   UNL A   1      45.799  27.471  34.784  1.00  0.00    -0.206 F 
ATOM     87  C   UNL A   1      43.929  24.774  36.274  1.00  0.00     0.006 A 
ENDBRANCH  63  80
ENDBRANCH  37  38
ENDBRANCH  30  32
ENDBRANCH  29  30
ENDBRANCH  28  29
ENDBRANCH  27  28
ENDBRANCH  26  27
ENDBRANCH  25  26
ENDBRANCH   1  25
TORSDOF 19
ENDMDL
MODEL 3
REMARK VINA RESULT:     -12.1      1.080      3.054
REMARK SMILES Cc1ccc(NC(=O)N2CCCC[C@@H]2C(=O)OCCOCCOCCOC(=O)c2ccc(-c3c4nc(c(-c5c(F)cccc5F)c5ccc([nH]5)c(-c5c(F)cccc5F)c5nc(c(-c6c(F)cccc6F)c6ccc3[nH]6)C=C5)C=C4)cc2)cc1
REMARK SMILES IDX 21 1 20 2 19 3 18 4 17 5 15 6 16 7 14 8 9 9 10 10 11 11
REMARK SMILES IDX 13 12 12 13 7 14 6 15 8 17 5 18 1 19 2 20 3 21 84 22 4 23
REMARK SMILES IDX 83 24 22 25 23 26 24 27 25 28 26 29 27 30 28 31 29 32 30 33
REMARK SMILES IDX 82 34 31 35 81 36 32 37 33 38 34 39 75 40 35 41 80 42 74 43
REMARK SMILES IDX 76 44 36 45 79 46 73 47 72 48 37 50 63 51 46 52 62 53 47 54
REMARK SMILES IDX 50 55 61 56 77 57 48 58 49 59 60 61 78 62 51 63 38 64 39 65
REMARK SMILES IDX 44 66 40 67 41 68 43 69 45 70 42 71 64 72 65 73 70 74 66 75
REMARK SMILES IDX 67 76 69 77 71 78 68 79 52 80 53 81 58 82 54 83 55 84 57 85
REMARK SMILES IDX 59 86 56 87
REMARK H PARENT 6 16 76 49 50 60
REMARK Flexibility Score: inf
ROOT
ATOM      1  C   UNL A   1      39.349  21.281  25.937  1.00  0.00     0.188 C 
ENDROOT
BRANCH   1   2
ATOM      2  O   UNL A   1      38.152  21.507  25.167  1.00  0.00    -0.376 OA
BRANCH   2   3
ATOM      3  C   UNL A   1      37.411  22.718  24.907  1.00  0.00     0.202 C 
BRANCH   3   4
ATOM      4  C   UNL A   1      36.424  23.822  25.911  1.00  0.00     0.261 C 
BRANCH   4   5
ATOM      5  O   UNL A   1      34.725  24.150  26.123  1.00  0.00    -0.462 OA
BRANCH   5   6
ATOM      6  C   UNL A   1      33.775  25.209  25.838  1.00  0.00     0.329 C 
ATOM      7  O   UNL A   1      33.977  26.421  25.927  1.00  0.00    -0.250 OA
BRANCH   6   8
ATOM      8  C   UNL A   1      32.364  24.985  25.334  1.00  0.00     0.196 C 
ATOM      9  N   UNL A   1      32.312  24.877  23.791  1.00  0.00    -0.311 N 
ATOM     10  C   UNL A   1      31.068  25.136  23.092  1.00  0.00     0.122 C 
ATOM     11  C   UNL A   1      30.225  26.214  23.735  1.00  0.00     0.022 C 
ATOM     12  C   UNL A   1      31.440  26.047  25.883  1.00  0.00     0.037 C 
ATOM     13  C   UNL A   1      30.077  25.953  25.225  1.00  0.00     0.005 C 
BRANCH   9  14
ATOM     14  C   UNL A   1      33.320  24.461  22.945  1.00  0.00     0.322 C 
ATOM     15  N   UNL A   1      33.819  23.200  22.911  1.00  0.00    -0.308 N 
ATOM     16  H   UNL A   1      34.635  23.159  22.362  1.00  0.00     0.171 HD
ATOM     17  O   UNL A   1      33.724  25.235  22.065  1.00  0.00    -0.248 OA
BRANCH  15  18
ATOM     18  C   UNL A   1      33.501  21.937  23.437  1.00  0.00     0.042 A 
ATOM     19  C   UNL A   1      32.599  17.842  24.522  1.00  0.00     0.044 C 
ATOM     20  C   UNL A   1      32.830  19.294  24.215  1.00  0.00    -0.051 A 
ATOM     21  C   UNL A   1      33.804  20.028  24.901  1.00  0.00     0.005 A 
ATOM     22  C   UNL A   1      32.098  19.938  23.218  1.00  0.00     0.005 A 
ATOM     23  C   UNL A   1      34.125  21.343  24.523  1.00  0.00     0.026 A 
ATOM     24  C   UNL A   1      32.445  21.239  22.823  1.00  0.00     0.026 A 
ENDBRANCH  15  18
ENDBRANCH   9  14
ENDBRANCH   6   8
ENDBRANCH   5   6
ENDBRANCH   4   5
ENDBRANCH   3   4
ENDBRANCH   2   3
ENDBRANCH   1   2
BRANCH   1  25
ATOM     25  C   UNL A   1      40.054  19.941  26.112  1.00  0.00     0.188 C 
BRANCH  25  26
ATOM     26  O   UNL A   1      41.421  20.115  26.406  1.00  0.00    -0.376 OA
BRANCH  26  27
ATOM     27  C   UNL A   1      42.239  19.015  26.040  1.00  0.00     0.202 C 
BRANCH  27  28
ATOM     28  C   UNL A   1      43.700  19.382  25.676  1.00  0.00     0.261 C 
BRANCH  28  29
ATOM     29  O   UNL A   1      43.757  20.368  24.615  1.00  0.00    -0.460 OA
BRANCH  29  30
ATOM     30  C   UNL A   1      44.893  21.131  24.464  1.00  0.00     0.338 C 
ATOM     31  O   UNL A   1      46.037  20.707  24.543  1.00  0.00    -0.246 OA
BRANCH  30  32
ATOM     32  C   UNL A   1      44.525  22.594  24.481  1.00  0.00     0.060 A 
ATOM     33  C   UNL A   1      45.399  23.694  24.543  1.00  0.00     0.016 A 
ATOM     34  C   UNL A   1      43.284  22.832  24.940  1.00  0.00     0.016 A 
ATOM     35  C   UNL A   1      45.074  24.897  25.318  1.00  0.00     0.010 A 
ATOM     36  C   UNL A   1      43.244  23.764  25.965  1.00  0.00     0.010 A 
ATOM     37  C   UNL A   1      44.009  24.935  26.219  1.00  0.00    -0.014 A 
BRANCH  37  38
ATOM     38  C   UNL A   1      43.663  26.127  27.410  1.00  0.00     0.031 A 
ATOM     39  C   UNL A   1      42.304  27.201  27.653  1.00  0.00     0.074 A 
ATOM     40  C   UNL A   1      44.644  26.406  28.303  1.00  0.00     0.049 A 
ATOM     41  N   UNL A   1      42.368  28.337  28.329  1.00  0.00    -0.248 NA
ATOM     42  C   UNL A   1      40.902  27.186  27.063  1.00  0.00     0.031 C 
ATOM     43  C   UNL A   1      44.555  27.216  29.518  1.00  0.00     0.029 A 
ATOM     44  N   UNL A   1      45.998  26.047  28.261  1.00  0.00    -0.354 N 
ATOM     45  C   UNL A   1      41.106  28.941  28.334  1.00  0.00     0.074 A 
ATOM     46  C   UNL A   1      40.373  28.364  27.301  1.00  0.00     0.031 C 
ATOM     47  C   UNL A   1      45.790  27.582  29.891  1.00  0.00     0.029 A 
ATOM     48  C   UNL A   1      46.708  27.093  28.884  1.00  0.00     0.049 A 
ATOM     49  H   UNL A   1      46.378  25.226  27.874  1.00  0.00     0.167 HD
ATOM     50  C   UNL A   1      40.651  29.811  29.269  1.00  0.00     0.037 A 
ATOM     51  C   UNL A   1      47.600  27.825  28.168  1.00  0.00     0.037 A 
ATOM     52  C   UNL A   1      41.794  30.475  29.843  1.00  0.00     0.049 A 
ATOM     53  C   UNL A   1      47.149  29.270  27.986  1.00  0.00     0.074 A 
ATOM     54  C   UNL A   1      42.582  30.282  30.957  1.00  0.00     0.029 A 
ATOM     55  N   UNL A   1      42.535  31.249  28.967  1.00  0.00    -0.354 N 
ATOM     56  N   UNL A   1      46.137  29.825  28.601  1.00  0.00    -0.248 NA
ATOM     57  C   UNL A   1      47.775  30.189  27.031  1.00  0.00     0.031 C 
ATOM     58  C   UNL A   1      43.885  30.783  30.634  1.00  0.00     0.029 A 
ATOM     59  C   UNL A   1      43.855  31.327  29.359  1.00  0.00     0.049 A 
ATOM     60  H   UNL A   1      42.166  31.688  28.167  1.00  0.00     0.167 HD
ATOM     61  C   UNL A   1      45.902  31.066  28.075  1.00  0.00     0.074 A 
ATOM     62  C   UNL A   1      46.976  31.267  27.119  1.00  0.00     0.031 C 
ATOM     63  C   UNL A   1      44.830  31.845  28.405  1.00  0.00     0.037 A 
BRANCH  50  64
ATOM     64  C   UNL A   1      39.171  29.984  29.655  1.00  0.00     0.057 A 
ATOM     65  C   UNL A   1      38.664  31.280  29.860  1.00  0.00     0.134 A 
ATOM     66  C   UNL A   1      38.225  28.969  29.983  1.00  0.00     0.134 A 
ATOM     67  F   UNL A   1      39.430  32.360  29.652  1.00  0.00    -0.206 F 
ATOM     68  C   UNL A   1      37.362  31.538  30.338  1.00  0.00     0.040 A 
ATOM     69  C   UNL A   1      36.907  29.216  30.406  1.00  0.00     0.040 A 
ATOM     70  F   UNL A   1      38.506  27.663  30.002  1.00  0.00    -0.206 F 
ATOM     71  C   UNL A   1      36.472  30.508  30.602  1.00  0.00     0.006 A 
ENDBRANCH  50  64
BRANCH  51  72
ATOM     72  C   UNL A   1      48.324  26.972  27.176  1.00  0.00     0.057 A 
ATOM     73  C   UNL A   1      47.966  27.000  25.818  1.00  0.00     0.134 A 
ATOM     74  C   UNL A   1      49.596  26.491  27.454  1.00  0.00     0.134 A 
ATOM     75  F   UNL A   1      46.778  27.501  25.449  1.00  0.00    -0.206 F 
ATOM     76  C   UNL A   1      48.858  26.633  24.797  1.00  0.00     0.040 A 
ATOM     77  C   UNL A   1      50.487  26.082  26.450  1.00  0.00     0.040 A 
ATOM     78  F   UNL A   1      50.062  26.607  28.699  1.00  0.00    -0.206 F 
ATOM     79  C   UNL A   1      50.137  26.190  25.112  1.00  0.00     0.006 A 
ENDBRANCH  51  72
BRANCH  63  80
ATOM     80  C   UNL A   1      44.651  33.217  27.826  1.00  0.00     0.057 A 
ATOM     81  C   UNL A   1      44.905  34.353  28.603  1.00  0.00     0.134 A 
ATOM     82  C   UNL A   1      44.076  33.444  26.563  1.00  0.00     0.134 A 
ATOM     83  F   UNL A   1      45.451  34.239  29.822  1.00  0.00    -0.206 F 
ATOM     84  C   UNL A   1      44.589  35.640  28.156  1.00  0.00     0.040 A 
ATOM     85  C   UNL A   1      43.709  34.719  26.126  1.00  0.00     0.040 A 
ATOM     86  F   UNL A   1      43.847  32.433  25.710  1.00  0.00    -0.206 F 
ATOM     87  C   UNL A   1      43.965  35.824  26.926  1.00  0.00     0.006 A 
ENDBRANCH  63  80
ENDBRANCH  37  38
ENDBRANCH  30  32
ENDBRANCH  29  30
ENDBRANCH  28  29
ENDBRANCH  27  28
ENDBRANCH  26  27
ENDBRANCH  25  26
ENDBRANCH   1  25
TORSDOF 19
ENDMDL
