MODEL 1
REMARK VINA RESULT:     -11.7      0.000      0.000
REMARK SMILES O=C1C[C@H](c2cn[nH]c2C(=O)OCCOCCOCCOC(=O)c2ccc(-c3c4nc(c(-c5c(F)cccc5F)c5ccc([nH]5)c(-c5c(F)cccc5F)c5nc(c(-c6c(F)cccc6F)c6ccc3[nH]6)C=C5)C=C4)cc2)c2c(-c3cccs3)n[nH]c2N1
REMARK SMILES IDX 16 1 15 2 14 3 13 4 12 5 10 6 11 7 9 8 5 9 6 10 7 11 8 12
REMARK SMILES IDX 4 14 1 15 2 16 3 17 88 18 87 19 78 21 86 22 79 23 85 24
REMARK SMILES IDX 80 26 81 27 84 28 82 29 83 30 17 31 18 32 19 33 20 34 21 35
REMARK SMILES IDX 22 36 23 37 24 38 25 39 77 40 26 41 76 42 27 43 28 44 29 45
REMARK SMILES IDX 70 46 30 47 75 48 69 49 71 50 31 51 74 52 68 53 67 54 32 56
REMARK SMILES IDX 58 57 41 58 57 59 42 60 45 61 56 62 72 63 43 64 44 65 55 67
REMARK SMILES IDX 73 68 46 69 33 70 34 71 39 72 35 73 36 74 38 75 40 76 37 77
REMARK SMILES IDX 59 78 60 79 65 80 61 81 62 82 64 83 66 84 63 85 47 86 48 87
REMARK SMILES IDX 53 88 49 89 50 90 52 91 54 92 51 93
REMARK H PARENT 8 13 88 20 86 25 71 55 45 66
REMARK Flexibility Score: inf
ROOT
ATOM      1  C   UNL A   1      34.222  31.648  28.336  1.00  0.00     0.188 C 
ENDROOT
BRANCH   1   2
ATOM      2  O   UNL A   1      33.562  30.908  27.328  1.00  0.00    -0.376 OA
BRANCH   2   3
ATOM      3  C   UNL A   1      34.223  29.804  26.726  1.00  0.00     0.202 C 
BRANCH   3   4
ATOM      4  C   UNL A   1      33.472  28.768  25.877  1.00  0.00     0.261 C 
BRANCH   4   5
ATOM      5  O   UNL A   1      32.038  28.830  25.980  1.00  0.00    -0.459 OA
BRANCH   5   6
ATOM      6  C   UNL A   1      31.474  27.930  26.827  1.00  0.00     0.356 C 
ATOM      7  O   UNL A   1      31.141  28.182  27.978  1.00  0.00    -0.244 OA
BRANCH   6   8
ATOM      8  C   UNL A   1      31.101  26.700  26.170  1.00  0.00     0.147 A 
ATOM      9  C   UNL A   1      30.698  26.252  24.907  1.00  0.00     0.013 A 
ATOM     10  C   UNL A   1      30.543  24.843  25.103  1.00  0.00     0.140 A 
ATOM     11  N   UNL A   1      30.788  24.444  26.345  1.00  0.00    -0.183 NA
ATOM     12  N   UNL A   1      31.161  25.569  26.953  1.00  0.00    -0.271 N 
ATOM     13  H   UNL A   1      31.455  25.590  27.891  1.00  0.00     0.190 HD
BRANCH   9  14
ATOM     14  C   UNL A   1      30.538  26.875  23.524  1.00  0.00     0.069 C 
ATOM     15  O   UNL A   1      29.043  30.322  23.500  1.00  0.00    -0.275 OA
ATOM     16  C   UNL A   1      29.824  29.400  23.257  1.00  0.00     0.226 C 
ATOM     17  C   UNL A   1      29.417  27.947  23.471  1.00  0.00     0.114 C 
ATOM     18  N   UNL A   1      31.029  29.668  22.665  1.00  0.00    -0.311 N 
ATOM     19  C   UNL A   1      31.944  28.669  22.514  1.00  0.00     0.132 A 
ATOM     20  H   UNL A   1      31.233  30.578  22.351  1.00  0.00     0.171 HD
ATOM     21  C   UNL A   1      31.769  27.358  22.861  1.00  0.00     0.031 A 
ATOM     22  N   UNL A   1      33.226  28.797  22.080  1.00  0.00    -0.262 N 
ATOM     23  C   UNL A   1      32.978  26.729  22.472  1.00  0.00     0.108 A 
ATOM     24  N   UNL A   1      33.899  27.628  22.081  1.00  0.00    -0.173 NA
ATOM     25  H   UNL A   1      33.621  29.652  21.794  1.00  0.00     0.192 HD
BRANCH  23  26
ATOM     26  C   UNL A   1      33.276  25.269  22.596  1.00  0.00     0.055 A 
ATOM     27  C   UNL A   1      32.827  24.315  21.708  1.00  0.00     0.022 A 
ATOM     28  S   UNL A   1      34.271  24.596  23.809  1.00  0.00    -0.142 S 
ATOM     29  C   UNL A   1      33.407  23.038  21.967  1.00  0.00     0.012 A 
ATOM     30  C   UNL A   1      34.174  23.041  23.111  1.00  0.00     0.065 A 
ENDBRANCH  23  26
ENDBRANCH   9  14
ENDBRANCH   6   8
ENDBRANCH   5   6
ENDBRANCH   4   5
ENDBRANCH   3   4
ENDBRANCH   2   3
ENDBRANCH   1   2
BRANCH   1  31
ATOM     31  C   UNL A   1      34.805  33.043  28.023  1.00  0.00     0.188 C 
BRANCH  31  32
ATOM     32  O   UNL A   1      34.532  34.150  28.855  1.00  0.00    -0.376 OA
BRANCH  32  33
ATOM     33  C   UNL A   1      33.251  34.713  29.070  1.00  0.00     0.202 C 
BRANCH  33  34
ATOM     34  C   UNL A   1      32.931  35.875  29.989  1.00  0.00     0.261 C 
BRANCH  34  35
ATOM     35  O   UNL A   1      33.758  35.946  31.120  1.00  0.00    -0.460 OA
BRANCH  35  36
ATOM     36  C   UNL A   1      33.280  35.237  32.162  1.00  0.00     0.338 C 
ATOM     37  O   UNL A   1      32.136  35.204  32.581  1.00  0.00    -0.246 OA
BRANCH  36  38
ATOM     38  C   UNL A   1      34.395  34.535  32.783  1.00  0.00     0.060 A 
ATOM     39  C   UNL A   1      35.576  35.262  32.923  1.00  0.00     0.016 A 
ATOM     40  C   UNL A   1      34.339  33.138  32.907  1.00  0.00     0.016 A 
ATOM     41  C   UNL A   1      36.753  34.560  32.927  1.00  0.00     0.010 A 
ATOM     42  C   UNL A   1      35.515  32.439  32.894  1.00  0.00     0.010 A 
ATOM     43  C   UNL A   1      36.696  33.167  32.799  1.00  0.00    -0.014 A 
BRANCH  43  44
ATOM     44  C   UNL A   1      37.932  32.490  32.517  1.00  0.00     0.031 A 
ATOM     45  C   UNL A   1      38.853  32.420  33.660  1.00  0.00     0.074 A 
ATOM     46  C   UNL A   1      38.185  31.944  31.317  1.00  0.00     0.049 A 
ATOM     47  N   UNL A   1      39.984  33.022  33.796  1.00  0.00    -0.248 NA
ATOM     48  C   UNL A   1      38.392  31.693  34.851  1.00  0.00     0.031 C 
ATOM     49  C   UNL A   1      37.257  31.690  30.212  1.00  0.00     0.029 A 
ATOM     50  N   UNL A   1      39.352  31.411  30.879  1.00  0.00    -0.354 N 
ATOM     51  C   UNL A   1      40.476  32.605  35.023  1.00  0.00     0.074 A 
ATOM     52  C   UNL A   1      39.400  31.918  35.693  1.00  0.00     0.031 C 
ATOM     53  C   UNL A   1      37.853  30.859  29.324  1.00  0.00     0.029 A 
ATOM     54  C   UNL A   1      39.230  30.641  29.735  1.00  0.00     0.049 A 
ATOM     55  H   UNL A   1      40.211  31.557  31.335  1.00  0.00     0.167 HD
ATOM     56  C   UNL A   1      41.803  32.653  35.304  1.00  0.00     0.037 A 
ATOM     57  C   UNL A   1      40.186  29.826  29.232  1.00  0.00     0.037 A 
ATOM     58  C   UNL A   1      42.513  33.535  34.417  1.00  0.00     0.049 A 
ATOM     59  C   UNL A   1      41.491  30.249  29.804  1.00  0.00     0.074 A 
ATOM     60  C   UNL A   1      42.434  34.883  34.125  1.00  0.00     0.029 A 
ATOM     61  N   UNL A   1      43.240  32.975  33.396  1.00  0.00    -0.354 N 
ATOM     62  N   UNL A   1      42.101  31.360  29.500  1.00  0.00    -0.248 NA
ATOM     63  C   UNL A   1      41.927  29.624  31.047  1.00  0.00     0.031 C 
ATOM     64  C   UNL A   1      42.711  34.982  32.732  1.00  0.00     0.029 A 
ATOM     65  C   UNL A   1      42.971  33.695  32.260  1.00  0.00     0.049 A 
ATOM     66  H   UNL A   1      43.844  32.200  33.466  1.00  0.00     0.167 HD
ATOM     67  C   UNL A   1      42.675  31.790  30.688  1.00  0.00     0.074 A 
ATOM     68  C   UNL A   1      42.629  30.631  31.573  1.00  0.00     0.031 C 
ATOM     69  C   UNL A   1      42.877  33.117  30.938  1.00  0.00     0.037 A 
BRANCH  56  70
ATOM     70  C   UNL A   1      42.486  31.627  36.157  1.00  0.00     0.057 A 
ATOM     71  C   UNL A   1      43.265  32.039  37.247  1.00  0.00     0.134 A 
ATOM     72  C   UNL A   1      42.624  30.273  35.786  1.00  0.00     0.134 A 
ATOM     73  F   UNL A   1      43.245  33.314  37.662  1.00  0.00    -0.206 F 
ATOM     74  C   UNL A   1      44.149  31.172  37.899  1.00  0.00     0.040 A 
ATOM     75  C   UNL A   1      43.458  29.385  36.464  1.00  0.00     0.040 A 
ATOM     76  F   UNL A   1      42.038  29.769  34.691  1.00  0.00    -0.206 F 
ATOM     77  C   UNL A   1      44.246  29.840  37.509  1.00  0.00     0.006 A 
ENDBRANCH  56  70
BRANCH  57  78
ATOM     78  C   UNL A   1      40.005  28.534  28.538  1.00  0.00     0.057 A 
ATOM     79  C   UNL A   1      40.560  28.314  27.270  1.00  0.00     0.134 A 
ATOM     80  C   UNL A   1      39.518  27.396  29.206  1.00  0.00     0.134 A 
ATOM     81  F   UNL A   1      41.088  29.331  26.573  1.00  0.00    -0.206 F 
ATOM     82  C   UNL A   1      40.648  27.035  26.709  1.00  0.00     0.040 A 
ATOM     83  C   UNL A   1      39.590  26.115  28.653  1.00  0.00     0.040 A 
ATOM     84  F   UNL A   1      39.037  27.475  30.456  1.00  0.00    -0.206 F 
ATOM     85  C   UNL A   1      40.171  25.927  27.406  1.00  0.00     0.006 A 
ENDBRANCH  57  78
BRANCH  69  86
ATOM     86  C   UNL A   1      42.722  34.074  29.788  1.00  0.00     0.057 A 
ATOM     87  C   UNL A   1      43.730  34.339  28.850  1.00  0.00     0.134 A 
ATOM     88  C   UNL A   1      41.465  34.639  29.542  1.00  0.00     0.134 A 
ATOM     89  F   UNL A   1      44.934  33.758  28.943  1.00  0.00    -0.206 F 
ATOM     90  C   UNL A   1      43.512  35.172  27.748  1.00  0.00     0.040 A 
ATOM     91  C   UNL A   1      41.224  35.444  28.426  1.00  0.00     0.040 A 
ATOM     92  F   UNL A   1      40.434  34.381  30.363  1.00  0.00    -0.206 F 
ATOM     93  C   UNL A   1      42.253  35.724  27.531  1.00  0.00     0.006 A 
ENDBRANCH  69  86
ENDBRANCH  43  44
ENDBRANCH  36  38
ENDBRANCH  35  36
ENDBRANCH  34  35
ENDBRANCH  33  34
ENDBRANCH  32  33
ENDBRANCH  31  32
ENDBRANCH   1  31
TORSDOF 19
ENDMDL
MODEL 2
REMARK VINA RESULT:     -11.7      5.559     10.379
REMARK SMILES O=C1C[C@H](c2cn[nH]c2C(=O)OCCOCCOCCOC(=O)c2ccc(-c3c4nc(c(-c5c(F)cccc5F)c5ccc([nH]5)c(-c5c(F)cccc5F)c5nc(c(-c6c(F)cccc6F)c6ccc3[nH]6)C=C5)C=C4)cc2)c2c(-c3cccs3)n[nH]c2N1
REMARK SMILES IDX 16 1 15 2 14 3 13 4 12 5 10 6 11 7 9 8 5 9 6 10 7 11 8 12
REMARK SMILES IDX 4 14 1 15 2 16 3 17 88 18 87 19 78 21 86 22 79 23 85 24
REMARK SMILES IDX 80 26 81 27 84 28 82 29 83 30 17 31 18 32 19 33 20 34 21 35
REMARK SMILES IDX 22 36 23 37 24 38 25 39 77 40 26 41 76 42 27 43 28 44 29 45
REMARK SMILES IDX 70 46 30 47 75 48 69 49 71 50 31 51 74 52 68 53 67 54 32 56
REMARK SMILES IDX 58 57 41 58 57 59 42 60 45 61 56 62 72 63 43 64 44 65 55 67
REMARK SMILES IDX 73 68 46 69 33 70 34 71 39 72 35 73 36 74 38 75 40 76 37 77
REMARK SMILES IDX 59 78 60 79 65 80 61 81 62 82 64 83 66 84 63 85 47 86 48 87
REMARK SMILES IDX 53 88 49 89 50 90 52 91 54 92 51 93
REMARK H PARENT 8 13 88 20 86 25 71 55 45 66
REMARK Flexibility Score: inf
ROOT
ATOM      1  C   UNL A   1      39.938  21.488  26.256  1.00  0.00     0.188 C 
ENDROOT
BRANCH   1   2
ATOM      2  O   UNL A   1      38.727  22.206  26.383  1.00  0.00    -0.376 OA
BRANCH   2   3
ATOM      3  C   UNL A   1      37.749  22.116  25.355  1.00  0.00     0.202 C 
BRANCH   3   4
ATOM      4  C   UNL A   1      37.125  23.363  24.713  1.00  0.00     0.261 C 
BRANCH   4   5
ATOM      5  O   UNL A   1      35.754  23.208  24.304  1.00  0.00    -0.459 OA
BRANCH   5   6
ATOM      6  C   UNL A   1      34.922  24.226  24.650  1.00  0.00     0.356 C 
ATOM      7  O   UNL A   1      35.025  24.879  25.680  1.00  0.00    -0.244 OA
BRANCH   6   8
ATOM      8  C   UNL A   1      34.034  24.611  23.580  1.00  0.00     0.147 A 
ATOM      9  C   UNL A   1      32.755  24.303  23.101  1.00  0.00     0.013 A 
ATOM     10  C   UNL A   1      32.618  25.177  21.976  1.00  0.00     0.140 A 
ATOM     11  N   UNL A   1      33.687  25.930  21.748  1.00  0.00    -0.183 NA
ATOM     12  N   UNL A   1      34.503  25.601  22.748  1.00  0.00    -0.271 N 
ATOM     13  H   UNL A   1      35.378  26.032  22.880  1.00  0.00     0.190 HD
BRANCH   9  14
ATOM     14  C   UNL A   1      31.595  23.427  23.560  1.00  0.00     0.069 C 
ATOM     15  O   UNL A   1      32.556  19.958  24.638  1.00  0.00    -0.275 OA
ATOM     16  C   UNL A   1      32.038  21.076  24.671  1.00  0.00     0.226 C 
ATOM     17  C   UNL A   1      31.886  21.910  23.405  1.00  0.00     0.114 C 
ATOM     18  N   UNL A   1      31.474  21.529  25.833  1.00  0.00    -0.311 N 
ATOM     19  C   UNL A   1      31.017  22.812  25.907  1.00  0.00     0.132 A 
ATOM     20  H   UNL A   1      31.398  20.931  26.611  1.00  0.00     0.171 HD
ATOM     21  C   UNL A   1      31.016  23.725  24.890  1.00  0.00     0.031 A 
ATOM     22  N   UNL A   1      30.563  23.452  27.016  1.00  0.00    -0.262 N 
ATOM     23  C   UNL A   1      30.411  24.876  25.453  1.00  0.00     0.108 A 
ATOM     24  N   UNL A   1      30.221  24.735  26.777  1.00  0.00    -0.173 NA
ATOM     25  H   UNL A   1      30.490  23.025  27.900  1.00  0.00     0.192 HD
BRANCH  23  26
ATOM     26  C   UNL A   1      30.132  26.153  24.728  1.00  0.00     0.055 A 
ATOM     27  C   UNL A   1      31.010  27.214  24.674  1.00  0.00     0.022 A 
ATOM     28  S   UNL A   1      28.722  26.443  23.811  1.00  0.00    -0.142 S 
ATOM     29  C   UNL A   1      30.562  28.224  23.772  1.00  0.00     0.012 A 
ATOM     30  C   UNL A   1      29.309  27.952  23.270  1.00  0.00     0.065 A 
ENDBRANCH  23  26
ENDBRANCH   9  14
ENDBRANCH   6   8
ENDBRANCH   5   6
ENDBRANCH   4   5
ENDBRANCH   3   4
ENDBRANCH   2   3
ENDBRANCH   1   2
BRANCH   1  31
ATOM     31  C   UNL A   1      40.811  21.206  27.497  1.00  0.00     0.188 C 
BRANCH  31  32
ATOM     32  O   UNL A   1      41.796  20.196  27.481  1.00  0.00    -0.376 OA
BRANCH  32  33
ATOM     33  C   UNL A   1      41.938  19.212  26.473  1.00  0.00     0.202 C 
BRANCH  33  34
ATOM     34  C   UNL A   1      43.211  18.891  25.715  1.00  0.00     0.261 C 
BRANCH  34  35
ATOM     35  O   UNL A   1      43.433  19.721  24.605  1.00  0.00    -0.460 OA
BRANCH  35  36
ATOM     36  C   UNL A   1      44.741  19.879  24.325  1.00  0.00     0.338 C 
ATOM     37  O   UNL A   1      45.560  19.014  24.063  1.00  0.00    -0.246 OA
BRANCH  36  38
ATOM     38  C   UNL A   1      45.065  21.294  24.452  1.00  0.00     0.060 A 
ATOM     39  C   UNL A   1      46.029  21.620  25.403  1.00  0.00     0.016 A 
ATOM     40  C   UNL A   1      44.206  22.244  23.878  1.00  0.00     0.016 A 
ATOM     41  C   UNL A   1      45.957  22.863  25.976  1.00  0.00     0.010 A 
ATOM     42  C   UNL A   1      44.124  23.479  24.462  1.00  0.00     0.010 A 
ATOM     43  C   UNL A   1      44.932  23.723  25.567  1.00  0.00    -0.014 A 
BRANCH  43  44
ATOM     44  C   UNL A   1      44.703  24.890  26.375  1.00  0.00     0.031 A 
ATOM     45  C   UNL A   1      45.812  25.854  26.367  1.00  0.00     0.074 A 
ATOM     46  C   UNL A   1      43.553  25.078  27.042  1.00  0.00     0.049 A 
ATOM     47  N   UNL A   1      46.603  26.151  27.341  1.00  0.00    -0.248 NA
ATOM     48  C   UNL A   1      46.164  26.462  25.077  1.00  0.00     0.031 C 
ATOM     49  C   UNL A   1      42.284  24.357  26.901  1.00  0.00     0.029 A 
ATOM     50  N   UNL A   1      43.266  26.049  27.942  1.00  0.00    -0.354 N 
ATOM     51  C   UNL A   1      47.447  27.130  26.840  1.00  0.00     0.074 A 
ATOM     52  C   UNL A   1      47.239  27.174  25.415  1.00  0.00     0.031 C 
ATOM     53  C   UNL A   1      41.312  25.058  27.531  1.00  0.00     0.029 A 
ATOM     54  C   UNL A   1      41.917  26.187  28.219  1.00  0.00     0.049 A 
ATOM     55  H   UNL A   1      43.957  26.609  28.363  1.00  0.00     0.167 HD
ATOM     56  C   UNL A   1      48.090  27.995  27.665  1.00  0.00     0.037 A 
ATOM     57  C   UNL A   1      41.356  27.215  28.897  1.00  0.00     0.037 A 
ATOM     58  C   UNL A   1      48.134  27.518  29.021  1.00  0.00     0.049 A 
ATOM     59  C   UNL A   1      42.429  27.882  29.680  1.00  0.00     0.074 A 
ATOM     60  C   UNL A   1      48.661  26.399  29.637  1.00  0.00     0.029 A 
ATOM     61  N   UNL A   1      47.256  28.062  29.926  1.00  0.00    -0.354 N 
ATOM     62  N   UNL A   1      43.018  27.355  30.716  1.00  0.00    -0.248 NA
ATOM     63  C   UNL A   1      43.149  28.983  29.053  1.00  0.00     0.031 C 
ATOM     64  C   UNL A   1      47.740  26.073  30.674  1.00  0.00     0.029 A 
ATOM     65  C   UNL A   1      46.722  27.026  30.649  1.00  0.00     0.049 A 
ATOM     66  H   UNL A   1      47.048  29.019  30.034  1.00  0.00     0.167 HD
ATOM     67  C   UNL A   1      44.344  27.755  30.617  1.00  0.00     0.074 A 
ATOM     68  C   UNL A   1      44.340  28.840  29.641  1.00  0.00     0.031 C 
ATOM     69  C   UNL A   1      45.355  26.988  31.119  1.00  0.00     0.037 A 
BRANCH  56  70
ATOM     70  C   UNL A   1      48.359  29.421  27.290  1.00  0.00     0.057 A 
ATOM     71  C   UNL A   1      49.661  29.930  27.389  1.00  0.00     0.134 A 
ATOM     72  C   UNL A   1      47.342  30.379  27.094  1.00  0.00     0.134 A 
ATOM     73  F   UNL A   1      50.702  29.115  27.615  1.00  0.00    -0.206 F 
ATOM     74  C   UNL A   1      49.928  31.302  27.335  1.00  0.00     0.040 A 
ATOM     75  C   UNL A   1      47.602  31.744  26.981  1.00  0.00     0.040 A 
ATOM     76  F   UNL A   1      46.043  30.053  27.105  1.00  0.00    -0.206 F 
ATOM     77  C   UNL A   1      48.898  32.214  27.128  1.00  0.00     0.006 A 
ENDBRANCH  56  70
BRANCH  57  78
ATOM     78  C   UNL A   1      40.032  27.834  28.677  1.00  0.00     0.057 A 
ATOM     79  C   UNL A   1      39.060  27.833  29.686  1.00  0.00     0.134 A 
ATOM     80  C   UNL A   1      39.782  28.675  27.577  1.00  0.00     0.134 A 
ATOM     81  F   UNL A   1      39.230  27.095  30.793  1.00  0.00    -0.206 F 
ATOM     82  C   UNL A   1      37.917  28.638  29.618  1.00  0.00     0.040 A 
ATOM     83  C   UNL A   1      38.640  29.475  27.491  1.00  0.00     0.040 A 
ATOM     84  F   UNL A   1      40.679  28.816  26.590  1.00  0.00    -0.206 F 
ATOM     85  C   UNL A   1      37.709  29.471  28.522  1.00  0.00     0.006 A 
ENDBRANCH  57  78
BRANCH  69  86
ATOM     86  C   UNL A   1      44.980  25.846  32.024  1.00  0.00     0.057 A 
ATOM     87  C   UNL A   1      44.776  25.977  33.406  1.00  0.00     0.134 A 
ATOM     88  C   UNL A   1      44.680  24.602  31.455  1.00  0.00     0.134 A 
ATOM     89  F   UNL A   1      44.935  27.156  34.021  1.00  0.00    -0.206 F 
ATOM     90  C   UNL A   1      44.346  24.904  34.193  1.00  0.00     0.040 A 
ATOM     91  C   UNL A   1      44.215  23.533  32.225  1.00  0.00     0.040 A 
ATOM     92  F   UNL A   1      44.791  24.419  30.130  1.00  0.00    -0.206 F 
ATOM     93  C   UNL A   1      44.059  23.678  33.601  1.00  0.00     0.006 A 
ENDBRANCH  69  86
ENDBRANCH  43  44
ENDBRANCH  36  38
ENDBRANCH  35  36
ENDBRANCH  34  35
ENDBRANCH  33  34
ENDBRANCH  32  33
ENDBRANCH  31  32
ENDBRANCH   1  31
TORSDOF 19
ENDMDL
MODEL 3
REMARK VINA RESULT:     -11.6      5.584     10.242
REMARK SMILES O=C1C[C@H](c2cn[nH]c2C(=O)OCCOCCOCCOC(=O)c2ccc(-c3c4nc(c(-c5c(F)cccc5F)c5ccc([nH]5)c(-c5c(F)cccc5F)c5nc(c(-c6c(F)cccc6F)c6ccc3[nH]6)C=C5)C=C4)cc2)c2c(-c3cccs3)n[nH]c2N1
REMARK SMILES IDX 16 1 15 2 14 3 13 4 12 5 10 6 11 7 9 8 5 9 6 10 7 11 8 12
REMARK SMILES IDX 4 14 1 15 2 16 3 17 88 18 87 19 78 21 86 22 79 23 85 24
REMARK SMILES IDX 80 26 81 27 84 28 82 29 83 30 17 31 18 32 19 33 20 34 21 35
REMARK SMILES IDX 22 36 23 37 24 38 25 39 77 40 26 41 76 42 27 43 28 44 29 45
REMARK SMILES IDX 70 46 30 47 75 48 69 49 71 50 31 51 74 52 68 53 67 54 32 56
REMARK SMILES IDX 58 57 41 58 57 59 42 60 45 61 56 62 72 63 43 64 44 65 55 67
REMARK SMILES IDX 73 68 46 69 33 70 34 71 39 72 35 73 36 74 38 75 40 76 37 77
REMARK SMILES IDX 59 78 60 79 65 80 61 81 62 82 64 83 66 84 63 85 47 86 48 87
REMARK SMILES IDX 53 88 49 89 50 90 52 91 54 92 51 93
REMARK H PARENT 8 13 88 20 86 25 71 55 45 66
REMARK Flexibility Score: inf
ROOT
ATOM      1  C   UNL A   1      39.667  21.497  26.129  1.00  0.00     0.188 C 
ENDROOT
BRANCH   1   2
ATOM      2  O   UNL A   1      38.445  21.952  25.585  1.00  0.00    -0.376 OA
BRANCH   2   3
ATOM      3  C   UNL A   1      38.000  23.271  25.871  1.00  0.00     0.202 C 
BRANCH   3   4
ATOM      4  C   UNL A   1      36.522  23.673  25.768  1.00  0.00     0.261 C 
BRANCH   4   5
ATOM      5  O   UNL A   1      35.740  22.870  24.867  1.00  0.00    -0.459 OA
BRANCH   5   6
ATOM      6  C   UNL A   1      35.786  23.244  23.561  1.00  0.00     0.356 C 
ATOM      7  O   UNL A   1      36.658  22.897  22.776  1.00  0.00    -0.244 OA
BRANCH   6   8
ATOM      8  C   UNL A   1      34.584  23.916  23.128  1.00  0.00     0.147 A 
ATOM      9  C   UNL A   1      33.664  24.857  23.607  1.00  0.00     0.013 A 
ATOM     10  C   UNL A   1      32.753  24.996  22.513  1.00  0.00     0.140 A 
ATOM     11  N   UNL A   1      33.039  24.220  21.474  1.00  0.00    -0.183 NA
ATOM     12  N   UNL A   1      34.164  23.615  21.854  1.00  0.00    -0.271 N 
ATOM     13  H   UNL A   1      34.656  22.998  21.266  1.00  0.00     0.190 HD
BRANCH   9  14
ATOM     14  C   UNL A   1      33.537  25.730  24.850  1.00  0.00     0.069 C 
ATOM     15  O   UNL A   1      32.451  29.268  24.202  1.00  0.00    -0.275 OA
ATOM     16  C   UNL A   1      32.481  28.142  24.703  1.00  0.00     0.226 C 
ATOM     17  C   UNL A   1      33.701  27.243  24.545  1.00  0.00     0.114 C 
ATOM     18  N   UNL A   1      31.461  27.735  25.522  1.00  0.00    -0.311 N 
ATOM     19  C   UNL A   1      31.429  26.449  25.971  1.00  0.00     0.132 A 
ATOM     20  H   UNL A   1      30.756  28.369  25.784  1.00  0.00     0.171 HD
ATOM     21  C   UNL A   1      32.368  25.486  25.724  1.00  0.00     0.031 A 
ATOM     22  N   UNL A   1      30.425  25.854  26.668  1.00  0.00    -0.262 N 
ATOM     23  C   UNL A   1      31.901  24.352  26.434  1.00  0.00     0.108 A 
ATOM     24  N   UNL A   1      30.668  24.554  26.932  1.00  0.00    -0.173 NA
ATOM     25  H   UNL A   1      29.606  26.323  26.951  1.00  0.00     0.192 HD
BRANCH  23  26
ATOM     26  C   UNL A   1      32.602  23.034  26.523  1.00  0.00     0.055 A 
ATOM     27  C   UNL A   1      33.481  22.698  27.531  1.00  0.00     0.022 A 
ATOM     28  S   UNL A   1      32.355  21.744  25.433  1.00  0.00    -0.142 S 
ATOM     29  C   UNL A   1      33.860  21.325  27.464  1.00  0.00     0.012 A 
ATOM     30  C   UNL A   1      33.356  20.702  26.343  1.00  0.00     0.065 A 
ENDBRANCH  23  26
ENDBRANCH   9  14
ENDBRANCH   6   8
ENDBRANCH   5   6
ENDBRANCH   4   5
ENDBRANCH   3   4
ENDBRANCH   2   3
ENDBRANCH   1   2
BRANCH   1  31
ATOM     31  C   UNL A   1      40.020  19.994  26.105  1.00  0.00     0.188 C 
BRANCH  31  32
ATOM     32  O   UNL A   1      41.212  19.534  25.504  1.00  0.00    -0.376 OA
BRANCH  32  33
ATOM     33  C   UNL A   1      42.448  19.364  26.172  1.00  0.00     0.202 C 
BRANCH  33  34
ATOM     34  C   UNL A   1      43.643  18.590  25.652  1.00  0.00     0.261 C 
BRANCH  34  35
ATOM     35  O   UNL A   1      44.768  19.389  25.397  1.00  0.00    -0.460 OA
BRANCH  35  36
ATOM     36  C   UNL A   1      44.721  19.986  24.190  1.00  0.00     0.338 C 
ATOM     37  O   UNL A   1      44.490  19.473  23.110  1.00  0.00    -0.246 OA
BRANCH  36  38
ATOM     38  C   UNL A   1      45.069  21.391  24.366  1.00  0.00     0.060 A 
ATOM     39  C   UNL A   1      45.994  21.672  25.369  1.00  0.00     0.016 A 
ATOM     40  C   UNL A   1      44.260  22.373  23.775  1.00  0.00     0.016 A 
ATOM     41  C   UNL A   1      45.922  22.903  25.968  1.00  0.00     0.010 A 
ATOM     42  C   UNL A   1      44.177  23.596  24.385  1.00  0.00     0.010 A 
ATOM     43  C   UNL A   1      44.936  23.796  25.532  1.00  0.00    -0.014 A 
BRANCH  43  44
ATOM     44  C   UNL A   1      44.694  24.949  26.356  1.00  0.00     0.031 A 
ATOM     45  C   UNL A   1      45.802  25.915  26.379  1.00  0.00     0.074 A 
ATOM     46  C   UNL A   1      43.535  25.123  27.011  1.00  0.00     0.049 A 
ATOM     47  N   UNL A   1      46.579  26.197  27.368  1.00  0.00    -0.248 NA
ATOM     48  C   UNL A   1      46.169  26.545  25.104  1.00  0.00     0.031 C 
ATOM     49  C   UNL A   1      42.270  24.403  26.842  1.00  0.00     0.029 A 
ATOM     50  N   UNL A   1      43.235  26.079  27.924  1.00  0.00    -0.354 N 
ATOM     51  C   UNL A   1      47.428  27.185  26.895  1.00  0.00     0.074 A 
ATOM     52  C   UNL A   1      47.238  27.252  25.467  1.00  0.00     0.031 C 
ATOM     53  C   UNL A   1      41.289  25.092  27.471  1.00  0.00     0.029 A 
ATOM     54  C   UNL A   1      41.882  26.211  28.185  1.00  0.00     0.049 A 
ATOM     55  H   UNL A   1      43.919  26.633  28.363  1.00  0.00     0.167 HD
ATOM     56  C   UNL A   1      48.058  28.038  27.742  1.00  0.00     0.037 A 
ATOM     57  C   UNL A   1      41.310  27.226  28.873  1.00  0.00     0.037 A 
ATOM     58  C   UNL A   1      48.086  27.538  29.091  1.00  0.00     0.049 A 
ATOM     59  C   UNL A   1      42.371  27.882  29.681  1.00  0.00     0.074 A 
ATOM     60  C   UNL A   1      48.606  26.410  29.694  1.00  0.00     0.029 A 
ATOM     61  N   UNL A   1      47.194  28.066  29.992  1.00  0.00    -0.354 N 
ATOM     62  N   UNL A   1      42.948  27.338  30.715  1.00  0.00    -0.248 NA
ATOM     63  C   UNL A   1      43.098  28.994  29.081  1.00  0.00     0.031 C 
ATOM     64  C   UNL A   1      47.673  26.066  30.714  1.00  0.00     0.029 A 
ATOM     65  C   UNL A   1      46.653  27.018  30.692  1.00  0.00     0.049 A 
ATOM     66  H   UNL A   1      46.983  29.020  30.114  1.00  0.00     0.167 HD
ATOM     67  C   UNL A   1      44.274  27.743  30.640  1.00  0.00     0.074 A 
ATOM     68  C   UNL A   1      44.281  28.844  29.682  1.00  0.00     0.031 C 
ATOM     69  C   UNL A   1      45.280  26.969  31.143  1.00  0.00     0.037 A 
BRANCH  56  70
ATOM     70  C   UNL A   1      48.330  29.470  27.394  1.00  0.00     0.057 A 
ATOM     71  C   UNL A   1      49.632  29.977  27.507  1.00  0.00     0.134 A 
ATOM     72  C   UNL A   1      47.314  30.433  27.212  1.00  0.00     0.134 A 
ATOM     73  F   UNL A   1      50.671  29.157  27.722  1.00  0.00    -0.206 F 
ATOM     74  C   UNL A   1      49.900  31.350  27.479  1.00  0.00     0.040 A 
ATOM     75  C   UNL A   1      47.575  31.799  27.126  1.00  0.00     0.040 A 
ATOM     76  F   UNL A   1      46.014  30.108  27.213  1.00  0.00    -0.206 F 
ATOM     77  C   UNL A   1      48.871  32.265  27.286  1.00  0.00     0.006 A 
ENDBRANCH  56  70
BRANCH  57  78
ATOM     78  C   UNL A   1      39.988  27.847  28.645  1.00  0.00     0.057 A 
ATOM     79  C   UNL A   1      39.015  27.857  29.654  1.00  0.00     0.134 A 
ATOM     80  C   UNL A   1      39.741  28.677  27.537  1.00  0.00     0.134 A 
ATOM     81  F   UNL A   1      39.182  27.129  30.768  1.00  0.00    -0.206 F 
ATOM     82  C   UNL A   1      37.875  28.664  29.576  1.00  0.00     0.040 A 
ATOM     83  C   UNL A   1      38.601  29.479  27.442  1.00  0.00     0.040 A 
ATOM     84  F   UNL A   1      40.639  28.806  26.549  1.00  0.00    -0.206 F 
ATOM     85  C   UNL A   1      37.669  29.487  28.472  1.00  0.00     0.006 A 
ENDBRANCH  57  78
BRANCH  69  86
ATOM     86  C   UNL A   1      44.896  25.812  32.023  1.00  0.00     0.057 A 
ATOM     87  C   UNL A   1      44.561  24.538  31.540  1.00  0.00     0.134 A 
ATOM     88  C   UNL A   1      45.003  25.952  33.412  1.00  0.00     0.134 A 
ATOM     89  F   UNL A   1      44.537  24.280  30.225  1.00  0.00    -0.206 F 
ATOM     90  C   UNL A   1      44.292  23.469  32.399  1.00  0.00     0.040 A 
ATOM     91  C   UNL A   1      44.772  24.883  34.281  1.00  0.00     0.040 A 
ATOM     92  F   UNL A   1      45.379  27.125  33.947  1.00  0.00    -0.206 F 
ATOM     93  C   UNL A   1      44.403  23.639  33.777  1.00  0.00     0.006 A 
ENDBRANCH  69  86
ENDBRANCH  43  44
ENDBRANCH  36  38
ENDBRANCH  35  36
ENDBRANCH  34  35
ENDBRANCH  33  34
ENDBRANCH  32  33
ENDBRANCH  31  32
ENDBRANCH   1  31
TORSDOF 19
ENDMDL
