MODEL 1
REMARK VINA RESULT:     -12.0      0.000      0.000
REMARK SMILES Cc1ccccc1OCC(=O)N1C[C@@H](O)C[C@H]1C(=O)OCCOCCOCCOC(=O)c1ccc(-c2c3nc(c(-c4c(F)cccc4F)c4ccc([nH]4)c(-c4c(F)cccc4F)c4nc(c(-c5c(F)cccc5F)c5ccc2[nH]5)C=C4)C=C3)cc1
REMARK SMILES IDX 24 1 23 2 22 3 21 4 20 5 18 6 19 7 17 8 12 9 13 10 14 11
REMARK SMILES IDX 16 12 10 13 11 14 9 15 8 16 7 17 1 18 2 19 3 20 4 21 6 22
REMARK SMILES IDX 5 23 15 24 25 26 26 27 27 28 28 29 29 30 30 31 31 32 32 33
REMARK SMILES IDX 33 34 85 35 34 36 84 37 35 38 36 39 37 40 78 41 38 42 83 43
REMARK SMILES IDX 77 44 79 45 39 46 82 47 76 48 75 49 40 51 66 52 49 53 65 54
REMARK SMILES IDX 50 55 53 56 64 57 80 58 51 59 52 60 63 62 81 63 54 64 41 65
REMARK SMILES IDX 42 66 47 67 43 68 44 69 46 70 48 71 45 72 67 73 68 74 73 75
REMARK SMILES IDX 69 76 70 77 72 78 74 79 71 80 55 81 56 82 61 83 57 84 58 85
REMARK SMILES IDX 60 86 62 87 59 88
REMARK H PARENT 15 25 79 50 53 61
REMARK Flexibility Score: inf
ROOT
ATOM      1  C   UNL A   1      41.693  20.714  27.021  1.00  0.00     0.188 C 
ENDROOT
BRANCH   1   2
ATOM      2  O   UNL A   1      40.380  21.281  27.043  1.00  0.00    -0.376 OA
BRANCH   2   3
ATOM      3  C   UNL A   1      40.030  22.663  27.181  1.00  0.00     0.202 C 
BRANCH   3   4
ATOM      4  C   UNL A   1      38.812  23.660  26.479  1.00  0.00     0.261 C 
BRANCH   4   5
ATOM      5  O   UNL A   1      37.470  23.431  25.331  1.00  0.00    -0.462 OA
BRANCH   5   6
ATOM      6  C   UNL A   1      36.024  23.432  25.215  1.00  0.00     0.329 C 
ATOM      7  O   UNL A   1      35.194  23.972  25.967  1.00  0.00    -0.250 OA
BRANCH   6   8
ATOM      8  C   UNL A   1      35.230  22.834  24.080  1.00  0.00     0.198 C 
ATOM      9  N   UNL A   1      34.131  21.970  24.276  1.00  0.00    -0.323 N 
ATOM     10  C   UNL A   1      32.872  22.620  24.016  1.00  0.00     0.152 C 
ATOM     11  C   UNL A   1      33.195  23.729  23.015  1.00  0.00     0.136 C 
ATOM     12  C   UNL A   1      34.672  24.020  23.226  1.00  0.00     0.070 C 
BRANCH   9  13
ATOM     13  C   UNL A   1      34.350  20.855  25.018  1.00  0.00     0.261 C 
ATOM     14  O   UNL A   1      35.414  20.252  24.922  1.00  0.00    -0.271 OA
BRANCH  13  15
ATOM     15  C   UNL A   1      33.101  20.343  25.776  1.00  0.00     0.329 C 
BRANCH  15  16
ATOM     16  O   UNL A   1      32.082  19.587  25.121  1.00  0.00    -0.484 OA
BRANCH  16  17
ATOM     17  C   UNL A   1      32.563  18.359  24.750  1.00  0.00     0.122 A 
ATOM     18  C   UNL A   1      32.384  18.964  22.296  1.00  0.00     0.048 C 
ATOM     19  C   UNL A   1      32.857  18.084  23.410  1.00  0.00    -0.009 A 
ATOM     20  C   UNL A   1      33.598  16.931  23.119  1.00  0.00     0.007 A 
ATOM     21  C   UNL A   1      33.996  16.064  24.139  1.00  0.00     0.001 A 
ATOM     22  C   UNL A   1      32.886  17.455  25.766  1.00  0.00     0.047 A 
ATOM     23  C   UNL A   1      33.618  16.312  25.458  1.00  0.00     0.004 A 
ENDBRANCH  16  17
ENDBRANCH  15  16
ENDBRANCH  13  15
ENDBRANCH   9  13
BRANCH  11  24
ATOM     24  O   UNL A   1      32.400  24.889  23.225  1.00  0.00    -0.391 OA
ATOM     25  H   UNL A   1      32.172  25.282  22.368  1.00  0.00     0.211 HD
ENDBRANCH  11  24
ENDBRANCH   6   8
ENDBRANCH   5   6
ENDBRANCH   4   5
ENDBRANCH   3   4
ENDBRANCH   2   3
ENDBRANCH   1   2
BRANCH   1  26
ATOM     26  C   UNL A   1      41.978  19.360  26.417  1.00  0.00     0.188 C 
BRANCH  26  27
ATOM     27  O   UNL A   1      42.663  19.533  25.200  1.00  0.00    -0.376 OA
BRANCH  27  28
ATOM     28  C   UNL A   1      43.881  18.841  25.061  1.00  0.00     0.202 C 
BRANCH  28  29
ATOM     29  C   UNL A   1      44.751  19.344  23.889  1.00  0.00     0.261 C 
BRANCH  29  30
ATOM     30  O   UNL A   1      45.495  20.547  24.248  1.00  0.00    -0.460 OA
BRANCH  30  31
ATOM     31  C   UNL A   1      44.952  21.809  24.121  1.00  0.00     0.338 C 
ATOM     32  O   UNL A   1      44.225  22.164  23.229  1.00  0.00    -0.246 OA
BRANCH  31  33
ATOM     33  C   UNL A   1      45.592  22.732  25.141  1.00  0.00     0.060 A 
ATOM     34  C   UNL A   1      45.573  22.603  26.541  1.00  0.00     0.016 A 
ATOM     35  C   UNL A   1      45.777  23.984  24.692  1.00  0.00     0.016 A 
ATOM     36  C   UNL A   1      45.435  23.768  27.417  1.00  0.00     0.010 A 
ATOM     37  C   UNL A   1      45.219  24.947  25.504  1.00  0.00     0.010 A 
ATOM     38  C   UNL A   1      45.098  25.026  26.911  1.00  0.00    -0.014 A 
BRANCH  38  39
ATOM     39  C   UNL A   1      44.600  26.421  27.777  1.00  0.00     0.031 A 
ATOM     40  C   UNL A   1      43.035  27.248  27.918  1.00  0.00     0.074 A 
ATOM     41  C   UNL A   1      45.618  27.034  28.409  1.00  0.00     0.049 A 
ATOM     42  N   UNL A   1      42.879  28.556  27.916  1.00  0.00    -0.248 NA
ATOM     43  C   UNL A   1      41.562  26.726  27.805  1.00  0.00     0.031 C 
ATOM     44  C   UNL A   1      45.574  28.040  29.458  1.00  0.00     0.029 A 
ATOM     45  N   UNL A   1      46.987  26.810  28.221  1.00  0.00    -0.354 N 
ATOM     46  C   UNL A   1      41.488  28.800  28.042  1.00  0.00     0.074 A 
ATOM     47  C   UNL A   1      40.821  27.747  27.424  1.00  0.00     0.031 C 
ATOM     48  C   UNL A   1      46.810  28.557  29.603  1.00  0.00     0.029 A 
ATOM     49  C   UNL A   1      47.630  28.007  28.531  1.00  0.00     0.049 A 
ATOM     50  H   UNL A   1      47.412  25.971  27.928  1.00  0.00     0.167 HD
ATOM     51  C   UNL A   1      40.965  29.584  29.030  1.00  0.00     0.037 A 
ATOM     52  C   UNL A   1      48.234  28.695  27.523  1.00  0.00     0.037 A 
ATOM     53  C   UNL A   1      42.045  30.410  29.494  1.00  0.00     0.049 A 
ATOM     54  C   UNL A   1      47.531  30.020  27.346  1.00  0.00     0.074 A 
ATOM     55  C   UNL A   1      42.869  30.360  30.596  1.00  0.00     0.029 A 
ATOM     56  N   UNL A   1      42.698  31.147  28.523  1.00  0.00    -0.354 N 
ATOM     57  N   UNL A   1      46.281  30.239  27.669  1.00  0.00    -0.248 NA
ATOM     58  C   UNL A   1      48.224  31.234  26.938  1.00  0.00     0.031 C 
ATOM     59  C   UNL A   1      44.101  30.974  30.209  1.00  0.00     0.029 A 
ATOM     60  C   UNL A   1      43.991  31.418  28.898  1.00  0.00     0.049 A 
ATOM     61  H   UNL A   1      42.290  31.439  27.676  1.00  0.00     0.167 HD
ATOM     62  C   UNL A   1      46.019  31.577  27.597  1.00  0.00     0.074 A 
ATOM     63  C   UNL A   1      47.262  32.154  27.117  1.00  0.00     0.031 C 
ATOM     64  C   UNL A   1      44.829  32.145  27.958  1.00  0.00     0.037 A 
BRANCH  51  65
ATOM     65  C   UNL A   1      39.577  29.459  29.699  1.00  0.00     0.057 A 
ATOM     66  C   UNL A   1      39.471  28.707  30.885  1.00  0.00     0.134 A 
ATOM     67  C   UNL A   1      38.312  29.929  29.240  1.00  0.00     0.134 A 
ATOM     68  F   UNL A   1      40.557  28.168  31.456  1.00  0.00    -0.206 F 
ATOM     69  C   UNL A   1      38.253  28.448  31.545  1.00  0.00     0.040 A 
ATOM     70  C   UNL A   1      37.093  29.716  29.916  1.00  0.00     0.040 A 
ATOM     71  F   UNL A   1      38.135  30.572  28.082  1.00  0.00    -0.206 F 
ATOM     72  C   UNL A   1      37.056  28.962  31.071  1.00  0.00     0.006 A 
ENDBRANCH  51  65
BRANCH  52  73
ATOM     73  C   UNL A   1      48.862  27.798  26.489  1.00  0.00     0.057 A 
ATOM     74  C   UNL A   1      48.132  27.552  25.297  1.00  0.00     0.134 A 
ATOM     75  C   UNL A   1      50.216  27.458  26.448  1.00  0.00     0.134 A 
ATOM     76  F   UNL A   1      46.817  27.829  25.245  1.00  0.00    -0.206 F 
ATOM     77  C   UNL A   1      48.735  27.141  24.103  1.00  0.00     0.040 A 
ATOM     78  C   UNL A   1      50.828  26.999  25.261  1.00  0.00     0.040 A 
ATOM     79  F   UNL A   1      51.008  27.673  27.507  1.00  0.00    -0.206 F 
ATOM     80  C   UNL A   1      50.097  26.879  24.077  1.00  0.00     0.006 A 
ENDBRANCH  52  73
BRANCH  64  81
ATOM     81  C   UNL A   1      44.319  33.468  27.420  1.00  0.00     0.057 A 
ATOM     82  C   UNL A   1      43.922  33.662  26.090  1.00  0.00     0.134 A 
ATOM     83  C   UNL A   1      44.009  34.541  28.293  1.00  0.00     0.134 A 
ATOM     84  F   UNL A   1      44.005  32.691  25.173  1.00  0.00    -0.206 F 
ATOM     85  C   UNL A   1      43.351  34.858  25.644  1.00  0.00     0.040 A 
ATOM     86  C   UNL A   1      43.344  35.694  27.877  1.00  0.00     0.040 A 
ATOM     87  F   UNL A   1      44.297  34.509  29.602  1.00  0.00    -0.206 F 
ATOM     88  C   UNL A   1      43.042  35.872  26.539  1.00  0.00     0.006 A 
ENDBRANCH  64  81
ENDBRANCH  38  39
ENDBRANCH  31  33
ENDBRANCH  30  31
ENDBRANCH  29  30
ENDBRANCH  28  29
ENDBRANCH  27  28
ENDBRANCH  26  27
ENDBRANCH   1  26
TORSDOF 22
ENDMDL
MODEL 2
REMARK VINA RESULT:     -11.8      4.157      9.996
REMARK SMILES Cc1ccccc1OCC(=O)N1C[C@@H](O)C[C@H]1C(=O)OCCOCCOCCOC(=O)c1ccc(-c2c3nc(c(-c4c(F)cccc4F)c4ccc([nH]4)c(-c4c(F)cccc4F)c4nc(c(-c5c(F)cccc5F)c5ccc2[nH]5)C=C4)C=C3)cc1
REMARK SMILES IDX 24 1 23 2 22 3 21 4 20 5 18 6 19 7 17 8 12 9 13 10 14 11
REMARK SMILES IDX 16 12 10 13 11 14 9 15 8 16 7 17 1 18 2 19 3 20 4 21 6 22
REMARK SMILES IDX 5 23 15 24 25 26 26 27 27 28 28 29 29 30 30 31 31 32 32 33
REMARK SMILES IDX 33 34 85 35 34 36 84 37 35 38 36 39 37 40 78 41 38 42 83 43
REMARK SMILES IDX 77 44 79 45 39 46 82 47 76 48 75 49 40 51 66 52 49 53 65 54
REMARK SMILES IDX 50 55 53 56 64 57 80 58 51 59 52 60 63 62 81 63 54 64 41 65
REMARK SMILES IDX 42 66 47 67 43 68 44 69 46 70 48 71 45 72 67 73 68 74 73 75
REMARK SMILES IDX 69 76 70 77 72 78 74 79 71 80 55 81 56 82 61 83 57 84 58 85
REMARK SMILES IDX 60 86 62 87 59 88
REMARK H PARENT 15 25 79 50 53 61
REMARK Flexibility Score: inf
ROOT
ATOM      1  C   UNL A   1      31.998  29.653  25.821  1.00  0.00     0.188 C 
ENDROOT
BRANCH   1   2
ATOM      2  O   UNL A   1      32.616  29.182  24.620  1.00  0.00    -0.376 OA
BRANCH   2   3
ATOM      3  C   UNL A   1      32.898  27.824  24.260  1.00  0.00     0.202 C 
BRANCH   3   4
ATOM      4  C   UNL A   1      33.523  26.468  25.121  1.00  0.00     0.261 C 
BRANCH   4   5
ATOM      5  O   UNL A   1      32.848  25.165  26.130  1.00  0.00    -0.462 OA
BRANCH   5   6
ATOM      6  C   UNL A   1      32.503  23.756  26.135  1.00  0.00     0.329 C 
ATOM      7  O   UNL A   1      32.033  23.084  27.068  1.00  0.00    -0.250 OA
BRANCH   6   8
ATOM      8  C   UNL A   1      32.569  22.829  24.946  1.00  0.00     0.198 C 
ATOM      9  N   UNL A   1      33.775  22.274  24.465  1.00  0.00    -0.323 N 
ATOM     10  C   UNL A   1      33.907  20.879  24.798  1.00  0.00     0.152 C 
ATOM     11  C   UNL A   1      32.474  20.366  24.936  1.00  0.00     0.136 C 
ATOM     12  C   UNL A   1      31.650  21.602  25.260  1.00  0.00     0.070 C 
BRANCH   9  13
ATOM     13  C   UNL A   1      34.764  23.144  24.135  1.00  0.00     0.261 C 
ATOM     14  O   UNL A   1      34.797  23.642  23.014  1.00  0.00    -0.271 OA
BRANCH  13  15
ATOM     15  C   UNL A   1      35.891  23.251  25.191  1.00  0.00     0.329 C 
BRANCH  15  16
ATOM     16  O   UNL A   1      37.211  23.666  24.842  1.00  0.00    -0.484 OA
BRANCH  16  17
ATOM     17  C   UNL A   1      38.099  23.303  25.820  1.00  0.00     0.122 A 
ATOM     18  C   UNL A   1      38.094  20.900  25.018  1.00  0.00     0.048 C 
ATOM     19  C   UNL A   1      38.654  22.018  25.838  1.00  0.00    -0.009 A 
ATOM     20  C   UNL A   1      39.752  21.784  26.677  1.00  0.00     0.007 A 
ATOM     21  C   UNL A   1      40.250  22.798  27.497  1.00  0.00     0.001 A 
ATOM     22  C   UNL A   1      38.540  24.298  26.697  1.00  0.00     0.047 A 
ATOM     23  C   UNL A   1      39.629  24.046  27.527  1.00  0.00     0.004 A 
ENDBRANCH  16  17
ENDBRANCH  15  16
ENDBRANCH  13  15
ENDBRANCH   9  13
BRANCH  11  24
ATOM     24  O   UNL A   1      32.353  19.379  25.952  1.00  0.00    -0.391 OA
ATOM     25  H   UNL A   1      33.223  19.214  26.347  1.00  0.00     0.211 HD
ENDBRANCH  11  24
ENDBRANCH   6   8
ENDBRANCH   5   6
ENDBRANCH   4   5
ENDBRANCH   3   4
ENDBRANCH   2   3
ENDBRANCH   1   2
BRANCH   1  26
ATOM     26  C   UNL A   1      32.792  30.248  26.958  1.00  0.00     0.188 C 
BRANCH  26  27
ATOM     27  O   UNL A   1      34.102  29.736  26.923  1.00  0.00    -0.376 OA
BRANCH  27  28
ATOM     28  C   UNL A   1      35.030  30.321  27.806  1.00  0.00     0.202 C 
BRANCH  28  29
ATOM     29  C   UNL A   1      34.800  31.829  28.041  1.00  0.00     0.261 C 
BRANCH  29  30
ATOM     30  O   UNL A   1      34.384  32.103  29.412  1.00  0.00    -0.460 OA
BRANCH  30  31
ATOM     31  C   UNL A   1      34.544  33.346  29.992  1.00  0.00     0.338 C 
ATOM     32  O   UNL A   1      33.714  34.218  30.002  1.00  0.00    -0.246 OA
BRANCH  31  33
ATOM     33  C   UNL A   1      35.994  33.520  30.405  1.00  0.00     0.060 A 
ATOM     34  C   UNL A   1      37.067  33.948  29.604  1.00  0.00     0.016 A 
ATOM     35  C   UNL A   1      36.344  32.771  31.464  1.00  0.00     0.016 A 
ATOM     36  C   UNL A   1      38.400  33.356  29.726  1.00  0.00     0.010 A 
ATOM     37  C   UNL A   1      37.444  31.974  31.233  1.00  0.00     0.010 A 
ATOM     38  C   UNL A   1      38.619  32.200  30.480  1.00  0.00    -0.014 A 
BRANCH  38  39
ATOM     39  C   UNL A   1      40.010  31.196  30.504  1.00  0.00     0.031 A 
ATOM     40  C   UNL A   1      40.367  29.625  29.756  1.00  0.00     0.074 A 
ATOM     41  C   UNL A   1      40.981  31.669  31.307  1.00  0.00     0.049 A 
ATOM     42  N   UNL A   1      41.015  28.645  30.350  1.00  0.00    -0.248 NA
ATOM     43  C   UNL A   1      39.831  28.942  28.452  1.00  0.00     0.031 C 
ATOM     44  C   UNL A   1      42.383  31.288  31.373  1.00  0.00     0.029 A 
ATOM     45  N   UNL A   1      40.869  32.689  32.260  1.00  0.00    -0.354 N 
ATOM     46  C   UNL A   1      41.083  27.578  29.420  1.00  0.00     0.074 A 
ATOM     47  C   UNL A   1      39.939  27.640  28.628  1.00  0.00     0.031 C 
ATOM     48  C   UNL A   1      42.916  31.825  32.489  1.00  0.00     0.029 A 
ATOM     49  C   UNL A   1      41.820  32.419  33.242  1.00  0.00     0.049 A 
ATOM     50  H   UNL A   1      40.241  33.448  32.238  1.00  0.00     0.167 HD
ATOM     51  C   UNL A   1      42.262  27.002  29.044  1.00  0.00     0.037 A 
ATOM     52  C   UNL A   1      41.383  32.060  34.481  1.00  0.00     0.037 A 
ATOM     53  C   UNL A   1      43.207  27.324  30.078  1.00  0.00     0.049 A 
ATOM     54  C   UNL A   1      41.826  30.644  34.762  1.00  0.00     0.074 A 
ATOM     55  C   UNL A   1      44.217  28.254  30.181  1.00  0.00     0.029 A 
ATOM     56  N   UNL A   1      42.833  26.976  31.363  1.00  0.00    -0.354 N 
ATOM     57  N   UNL A   1      42.065  29.749  33.835  1.00  0.00    -0.248 NA
ATOM     58  C   UNL A   1      42.180  30.176  36.095  1.00  0.00     0.031 C 
ATOM     59  C   UNL A   1      44.346  28.560  31.572  1.00  0.00     0.029 A 
ATOM     60  C   UNL A   1      43.443  27.786  32.289  1.00  0.00     0.049 A 
ATOM     61  H   UNL A   1      42.212  26.245  31.585  1.00  0.00     0.167 HD
ATOM     62  C   UNL A   1      42.656  28.655  34.399  1.00  0.00     0.074 A 
ATOM     63  C   UNL A   1      42.689  28.964  35.818  1.00  0.00     0.031 C 
ATOM     64  C   UNL A   1      43.112  27.580  33.690  1.00  0.00     0.037 A 
BRANCH  51  65
ATOM     65  C   UNL A   1      42.604  26.350  27.685  1.00  0.00     0.057 A 
ATOM     66  C   UNL A   1      43.117  25.038  27.682  1.00  0.00     0.134 A 
ATOM     67  C   UNL A   1      42.568  26.922  26.380  1.00  0.00     0.134 A 
ATOM     68  F   UNL A   1      43.243  24.347  28.823  1.00  0.00    -0.206 F 
ATOM     69  C   UNL A   1      43.546  24.365  26.520  1.00  0.00     0.040 A 
ATOM     70  C   UNL A   1      42.950  26.241  25.205  1.00  0.00     0.040 A 
ATOM     71  F   UNL A   1      42.225  28.189  26.134  1.00  0.00    -0.206 F 
ATOM     72  C   UNL A   1      43.453  24.959  25.271  1.00  0.00     0.006 A 
ENDBRANCH  51  65
BRANCH  52  73
ATOM     73  C   UNL A   1      40.119  32.767  34.890  1.00  0.00     0.057 A 
ATOM     74  C   UNL A   1      38.897  32.053  34.783  1.00  0.00     0.134 A 
ATOM     75  C   UNL A   1      40.073  33.927  35.668  1.00  0.00     0.134 A 
ATOM     76  F   UNL A   1      38.836  30.934  34.040  1.00  0.00    -0.206 F 
ATOM     77  C   UNL A   1      37.752  32.383  35.517  1.00  0.00     0.040 A 
ATOM     78  C   UNL A   1      38.909  34.296  36.378  1.00  0.00     0.040 A 
ATOM     79  F   UNL A   1      41.175  34.665  35.862  1.00  0.00    -0.206 F 
ATOM     80  C   UNL A   1      37.761  33.502  36.336  1.00  0.00     0.006 A 
ENDBRANCH  52  73
BRANCH  64  81
ATOM     81  C   UNL A   1      43.270  26.185  34.264  1.00  0.00     0.057 A 
ATOM     82  C   UNL A   1      42.222  25.470  34.861  1.00  0.00     0.134 A 
ATOM     83  C   UNL A   1      44.447  25.430  34.037  1.00  0.00     0.134 A 
ATOM     84  F   UNL A   1      40.998  25.991  35.008  1.00  0.00    -0.206 F 
ATOM     85  C   UNL A   1      42.362  24.144  35.282  1.00  0.00     0.040 A 
ATOM     86  C   UNL A   1      44.559  24.077  34.358  1.00  0.00     0.040 A 
ATOM     87  F   UNL A   1      45.535  25.952  33.453  1.00  0.00    -0.206 F 
ATOM     88  C   UNL A   1      43.525  23.436  35.015  1.00  0.00     0.006 A 
ENDBRANCH  64  81
ENDBRANCH  38  39
ENDBRANCH  31  33
ENDBRANCH  30  31
ENDBRANCH  29  30
ENDBRANCH  28  29
ENDBRANCH  27  28
ENDBRANCH  26  27
ENDBRANCH   1  26
TORSDOF 22
ENDMDL
MODEL 3
REMARK VINA RESULT:     -11.4      1.664      3.579
REMARK SMILES Cc1ccccc1OCC(=O)N1C[C@@H](O)C[C@H]1C(=O)OCCOCCOCCOC(=O)c1ccc(-c2c3nc(c(-c4c(F)cccc4F)c4ccc([nH]4)c(-c4c(F)cccc4F)c4nc(c(-c5c(F)cccc5F)c5ccc2[nH]5)C=C4)C=C3)cc1
REMARK SMILES IDX 24 1 23 2 22 3 21 4 20 5 18 6 19 7 17 8 12 9 13 10 14 11
REMARK SMILES IDX 16 12 10 13 11 14 9 15 8 16 7 17 1 18 2 19 3 20 4 21 6 22
REMARK SMILES IDX 5 23 15 24 25 26 26 27 27 28 28 29 29 30 30 31 31 32 32 33
REMARK SMILES IDX 33 34 85 35 34 36 84 37 35 38 36 39 37 40 78 41 38 42 83 43
REMARK SMILES IDX 77 44 79 45 39 46 82 47 76 48 75 49 40 51 66 52 49 53 65 54
REMARK SMILES IDX 50 55 53 56 64 57 80 58 51 59 52 60 63 62 81 63 54 64 41 65
REMARK SMILES IDX 42 66 47 67 43 68 44 69 46 70 48 71 45 72 67 73 68 74 73 75
REMARK SMILES IDX 69 76 70 77 72 78 74 79 71 80 55 81 56 82 61 83 57 84 58 85
REMARK SMILES IDX 60 86 62 87 59 88
REMARK H PARENT 15 25 79 50 53 61
REMARK Flexibility Score: inf
ROOT
ATOM      1  C   UNL A   1      41.149  21.528  26.331  1.00  0.00     0.188 C 
ENDROOT
BRANCH   1   2
ATOM      2  O   UNL A   1      39.796  21.674  26.771  1.00  0.00    -0.376 OA
BRANCH   2   3
ATOM      3  C   UNL A   1      38.907  22.767  26.510  1.00  0.00     0.202 C 
BRANCH   3   4
ATOM      4  C   UNL A   1      37.678  23.048  25.335  1.00  0.00     0.261 C 
BRANCH   4   5
ATOM      5  O   UNL A   1      35.920  22.784  25.228  1.00  0.00    -0.462 OA
BRANCH   5   6
ATOM      6  C   UNL A   1      34.910  21.801  24.882  1.00  0.00     0.329 C 
ATOM      7  O   UNL A   1      35.067  20.594  24.631  1.00  0.00    -0.250 OA
BRANCH   6   8
ATOM      8  C   UNL A   1      33.422  22.044  24.845  1.00  0.00     0.198 C 
ATOM      9  N   UNL A   1      32.849  23.281  24.477  1.00  0.00    -0.323 N 
ATOM     10  C   UNL A   1      32.267  23.245  23.160  1.00  0.00     0.152 C 
ATOM     11  C   UNL A   1      31.889  21.782  22.932  1.00  0.00     0.136 C 
ATOM     12  C   UNL A   1      32.803  20.997  23.860  1.00  0.00     0.070 C 
BRANCH   9  13
ATOM     13  C   UNL A   1      33.244  24.374  25.179  1.00  0.00     0.261 C 
ATOM     14  O   UNL A   1      32.993  24.460  26.377  1.00  0.00    -0.271 OA
BRANCH  13  15
ATOM     15  C   UNL A   1      33.809  25.519  24.303  1.00  0.00     0.329 C 
BRANCH  15  16
ATOM     16  O   UNL A   1      33.022  26.656  23.953  1.00  0.00    -0.484 OA
BRANCH  16  17
ATOM     17  C   UNL A   1      32.749  27.408  25.066  1.00  0.00     0.122 A 
ATOM     18  C   UNL A   1      30.293  26.799  24.950  1.00  0.00     0.048 C 
ATOM     19  C   UNL A   1      31.480  27.378  25.653  1.00  0.00    -0.009 A 
ATOM     20  C   UNL A   1      31.328  27.934  26.931  1.00  0.00     0.007 A 
ATOM     21  C   UNL A   1      32.410  28.534  27.578  1.00  0.00     0.001 A 
ATOM     22  C   UNL A   1      33.815  28.078  25.673  1.00  0.00     0.047 A 
ATOM     23  C   UNL A   1      33.645  28.630  26.940  1.00  0.00     0.004 A 
ENDBRANCH  16  17
ENDBRANCH  15  16
ENDBRANCH  13  15
ENDBRANCH   9  13
BRANCH  11  24
ATOM     24  O   UNL A   1      32.061  21.388  21.577  1.00  0.00    -0.391 OA
ATOM     25  H   UNL A   1      32.172  22.177  21.023  1.00  0.00     0.211 HD
ENDBRANCH  11  24
ENDBRANCH   6   8
ENDBRANCH   5   6
ENDBRANCH   4   5
ENDBRANCH   3   4
ENDBRANCH   2   3
ENDBRANCH   1   2
BRANCH   1  26
ATOM     26  C   UNL A   1      41.840  20.187  26.274  1.00  0.00     0.188 C 
BRANCH  26  27
ATOM     27  O   UNL A   1      43.032  20.313  25.538  1.00  0.00    -0.376 OA
BRANCH  27  28
ATOM     28  C   UNL A   1      43.651  19.115  25.133  1.00  0.00     0.202 C 
BRANCH  28  29
ATOM     29  C   UNL A   1      44.682  19.300  23.999  1.00  0.00     0.261 C 
BRANCH  29  30
ATOM     30  O   UNL A   1      45.528  20.467  24.225  1.00  0.00    -0.460 OA
BRANCH  30  31
ATOM     31  C   UNL A   1      45.075  21.753  24.011  1.00  0.00     0.338 C 
ATOM     32  O   UNL A   1      44.461  22.119  23.042  1.00  0.00    -0.246 OA
BRANCH  31  33
ATOM     33  C   UNL A   1      45.663  22.671  25.067  1.00  0.00     0.060 A 
ATOM     34  C   UNL A   1      45.587  22.527  26.464  1.00  0.00     0.016 A 
ATOM     35  C   UNL A   1      45.855  23.929  24.639  1.00  0.00     0.016 A 
ATOM     36  C   UNL A   1      45.401  23.681  27.345  1.00  0.00     0.010 A 
ATOM     37  C   UNL A   1      45.254  24.878  25.437  1.00  0.00     0.010 A 
ATOM     38  C   UNL A   1      45.074  24.941  26.838  1.00  0.00    -0.014 A 
BRANCH  38  39
ATOM     39  C   UNL A   1      44.526  26.322  27.697  1.00  0.00     0.031 A 
ATOM     40  C   UNL A   1      42.950  27.137  27.776  1.00  0.00     0.074 A 
ATOM     41  C   UNL A   1      45.510  26.935  28.381  1.00  0.00     0.049 A 
ATOM     42  N   UNL A   1      42.785  28.444  27.782  1.00  0.00    -0.248 NA
ATOM     43  C   UNL A   1      41.488  26.606  27.591  1.00  0.00     0.031 C 
ATOM     44  C   UNL A   1      45.411  27.928  29.439  1.00  0.00     0.029 A 
ATOM     45  N   UNL A   1      46.888  26.723  28.253  1.00  0.00    -0.354 N 
ATOM     46  C   UNL A   1      41.389  28.678  27.848  1.00  0.00     0.074 A 
ATOM     47  C   UNL A   1      40.758  27.627  27.187  1.00  0.00     0.031 C 
ATOM     48  C   UNL A   1      46.636  28.451  29.646  1.00  0.00     0.029 A 
ATOM     49  C   UNL A   1      47.508  27.920  28.606  1.00  0.00     0.049 A 
ATOM     50  H   UNL A   1      47.331  25.890  27.970  1.00  0.00     0.167 HD
ATOM     51  C   UNL A   1      40.815  29.446  28.819  1.00  0.00     0.037 A 
ATOM     52  C   UNL A   1      48.152  28.624  27.634  1.00  0.00     0.037 A 
ATOM     53  C   UNL A   1      41.867  30.273  29.342  1.00  0.00     0.049 A 
ATOM     54  C   UNL A   1      47.448  29.946  27.441  1.00  0.00     0.074 A 
ATOM     55  C   UNL A   1      42.641  30.216  30.480  1.00  0.00     0.029 A 
ATOM     56  N   UNL A   1      42.558  31.026  28.410  1.00  0.00    -0.354 N 
ATOM     57  N   UNL A   1      46.183  30.152  27.710  1.00  0.00    -0.248 NA
ATOM     58  C   UNL A   1      48.150  31.170  27.079  1.00  0.00     0.031 C 
ATOM     59  C   UNL A   1      43.885  30.842  30.156  1.00  0.00     0.029 A 
ATOM     60  C   UNL A   1      43.831  31.301  28.847  1.00  0.00     0.049 A 
ATOM     61  H   UNL A   1      42.187  31.326  27.549  1.00  0.00     0.167 HD
ATOM     62  C   UNL A   1      45.914  31.490  27.642  1.00  0.00     0.074 A 
ATOM     63  C   UNL A   1      47.174  32.081  27.225  1.00  0.00     0.031 C 
ATOM     64  C   UNL A   1      44.706  32.045  27.954  1.00  0.00     0.037 A 
BRANCH  51  65
ATOM     65  C   UNL A   1      39.399  29.304  29.423  1.00  0.00     0.057 A 
ATOM     66  C   UNL A   1      38.292  29.635  28.618  1.00  0.00     0.134 A 
ATOM     67  C   UNL A   1      39.020  28.963  30.754  1.00  0.00     0.134 A 
ATOM     68  F   UNL A   1      38.457  30.000  27.339  1.00  0.00    -0.206 F 
ATOM     69  C   UNL A   1      36.959  29.628  29.076  1.00  0.00     0.040 A 
ATOM     70  C   UNL A   1      37.686  28.907  31.209  1.00  0.00     0.040 A 
ATOM     71  F   UNL A   1      39.893  28.716  31.734  1.00  0.00    -0.206 F 
ATOM     72  C   UNL A   1      36.646  29.252  30.372  1.00  0.00     0.006 A 
ENDBRANCH  51  65
BRANCH  52  73
ATOM     73  C   UNL A   1      48.832  27.743  26.620  1.00  0.00     0.057 A 
ATOM     74  C   UNL A   1      48.175  27.535  25.379  1.00  0.00     0.134 A 
ATOM     75  C   UNL A   1      50.183  27.387  26.654  1.00  0.00     0.134 A 
ATOM     76  F   UNL A   1      46.869  27.829  25.253  1.00  0.00    -0.206 F 
ATOM     77  C   UNL A   1      48.846  27.144  24.215  1.00  0.00     0.040 A 
ATOM     78  C   UNL A   1      50.861  26.948  25.496  1.00  0.00     0.040 A 
ATOM     79  F   UNL A   1      50.910  27.567  27.765  1.00  0.00    -0.206 F 
ATOM     80  C   UNL A   1      50.204  26.866  24.267  1.00  0.00     0.006 A 
ENDBRANCH  52  73
BRANCH  64  81
ATOM     81  C   UNL A   1      44.211  33.371  27.410  1.00  0.00     0.057 A 
ATOM     82  C   UNL A   1      43.909  33.589  26.058  1.00  0.00     0.134 A 
ATOM     83  C   UNL A   1      43.817  34.418  28.280  1.00  0.00     0.134 A 
ATOM     84  F   UNL A   1      44.078  32.641  25.129  1.00  0.00    -0.206 F 
ATOM     85  C   UNL A   1      43.349  34.785  25.597  1.00  0.00     0.040 A 
ATOM     86  C   UNL A   1      43.162  35.569  27.841  1.00  0.00     0.040 A 
ATOM     87  F   UNL A   1      44.009  34.361  29.606  1.00  0.00    -0.206 F 
ATOM     88  C   UNL A   1      42.956  35.772  26.489  1.00  0.00     0.006 A 
ENDBRANCH  64  81
ENDBRANCH  38  39
ENDBRANCH  31  33
ENDBRANCH  30  31
ENDBRANCH  29  30
ENDBRANCH  28  29
ENDBRANCH  27  28
ENDBRANCH  26  27
ENDBRANCH   1  26
TORSDOF 22
ENDMDL
