MODEL 1
REMARK VINA RESULT:     -10.4      0.000      0.000
REMARK SMILES CCC(CC)(NC(=O)N[C@@H](C)[C@@H]1CCCO1)C(=O)OCCOCCOCCOC(=O)c1ccc(-c2c3nc(c(-c4c(F)cccc4F)c4ccc([nH]4)c(-c4c(F)cccc4F)c4nc(c(-c5c(F)cccc5F)c5ccc2[nH]5)C=C4)C=C3)cc1
REMARK SMILES IDX 23 1 22 2 21 3 20 4 19 5 17 6 18 7 3 8 2 9 1 10 4 11 5 12
REMARK SMILES IDX 6 13 7 14 8 16 9 17 10 19 11 20 12 21 13 22 16 23 14 24
REMARK SMILES IDX 15 25 24 26 25 27 26 28 27 29 28 30 29 31 30 32 31 33 32 34
REMARK SMILES IDX 84 35 33 36 83 37 34 38 35 39 36 40 77 41 37 42 82 43 76 44
REMARK SMILES IDX 78 45 38 46 81 47 75 48 74 49 39 51 65 52 48 53 64 54 49 55
REMARK SMILES IDX 52 56 63 57 79 58 50 59 51 60 62 62 80 63 53 64 40 65 41 66
REMARK SMILES IDX 46 67 42 68 43 69 45 70 47 71 44 72 66 73 67 74 72 75 68 76
REMARK SMILES IDX 69 77 71 78 73 79 70 80 54 81 55 82 60 83 56 84 57 85 59 86
REMARK SMILES IDX 61 87 58 88
REMARK H PARENT 6 15 9 18 78 50 52 61
REMARK Flexibility Score: inf
ROOT
ATOM      1  C   UNL A   1      32.242  29.293  24.105  1.00  0.00     0.188 C 
ENDROOT
BRANCH   1   2
ATOM      2  O   UNL A   1      31.059  28.443  23.950  1.00  0.00    -0.376 OA
BRANCH   2   3
ATOM      3  C   UNL A   1      30.719  27.616  22.757  1.00  0.00     0.202 C 
BRANCH   3   4
ATOM      4  C   UNL A   1      31.521  26.146  22.079  1.00  0.00     0.261 C 
BRANCH   4   5
ATOM      5  O   UNL A   1      32.080  24.889  22.936  1.00  0.00    -0.461 OA
BRANCH   5   6
ATOM      6  C   UNL A   1      31.431  23.819  23.619  1.00  0.00     0.331 C 
ATOM      7  O   UNL A   1      30.736  23.026  22.988  1.00  0.00    -0.249 OA
BRANCH   6   8
ATOM      8  C   UNL A   1      31.637  23.687  25.417  1.00  0.00     0.139 C 
BRANCH   8   9
ATOM      9  C   UNL A   1      30.845  22.462  26.037  1.00  0.00     0.037 C 
ATOM     10  C   UNL A   1      29.696  22.634  26.992  1.00  0.00     0.007 C 
ENDBRANCH   8   9
BRANCH   8  11
ATOM     11  C   UNL A   1      31.043  25.039  25.926  1.00  0.00     0.037 C 
ATOM     12  C   UNL A   1      32.047  26.092  26.425  1.00  0.00     0.007 C 
ENDBRANCH   8  11
BRANCH   8  13
ATOM     13  N   UNL A   1      32.912  23.489  26.349  1.00  0.00    -0.322 N 
ATOM     14  C   UNL A   1      34.162  23.022  26.419  1.00  0.00     0.316 C 
ATOM     15  H   UNL A   1      32.689  23.862  27.232  1.00  0.00     0.166 HD
ATOM     16  O   UNL A   1      34.896  23.379  27.337  1.00  0.00    -0.249 OA
ATOM     17  N   UNL A   1      34.616  22.153  25.523  1.00  0.00    -0.333 N 
ATOM     18  H   UNL A   1      35.438  21.644  25.712  1.00  0.00     0.165 HD
BRANCH  17  19
ATOM     19  C   UNL A   1      33.932  21.950  24.301  1.00  0.00     0.109 C 
ATOM     20  C   UNL A   1      34.556  23.059  23.282  1.00  0.00     0.034 C 
BRANCH  19  21
ATOM     21  C   UNL A   1      32.973  20.446  24.185  1.00  0.00     0.140 C 
ATOM     22  C   UNL A   1      33.391  19.141  24.844  1.00  0.00     0.036 C 
ATOM     23  O   UNL A   1      32.292  20.015  22.974  1.00  0.00    -0.376 OA
ATOM     24  C   UNL A   1      32.336  18.174  24.324  1.00  0.00     0.031 C 
ATOM     25  C   UNL A   1      32.222  18.597  22.902  1.00  0.00     0.160 C 
ENDBRANCH  19  21
ENDBRANCH  17  19
ENDBRANCH   8  13
ENDBRANCH   6   8
ENDBRANCH   5   6
ENDBRANCH   4   5
ENDBRANCH   3   4
ENDBRANCH   2   3
ENDBRANCH   1   2
BRANCH   1  26
ATOM     26  C   UNL A   1      32.992  29.254  25.481  1.00  0.00     0.188 C 
BRANCH  26  27
ATOM     27  O   UNL A   1      32.454  29.938  26.594  1.00  0.00    -0.376 OA
BRANCH  27  28
ATOM     28  C   UNL A   1      31.529  30.962  26.295  1.00  0.00     0.202 C 
BRANCH  28  29
ATOM     29  C   UNL A   1      31.802  32.360  26.876  1.00  0.00     0.261 C 
BRANCH  29  30
ATOM     30  O   UNL A   1      33.035  32.517  27.620  1.00  0.00    -0.460 OA
BRANCH  30  31
ATOM     31  C   UNL A   1      33.200  33.707  28.254  1.00  0.00     0.338 C 
ATOM     32  O   UNL A   1      32.485  34.701  28.148  1.00  0.00    -0.246 OA
BRANCH  31  33
ATOM     33  C   UNL A   1      34.397  33.704  29.126  1.00  0.00     0.060 A 
ATOM     34  C   UNL A   1      35.578  34.332  28.703  1.00  0.00     0.016 A 
ATOM     35  C   UNL A   1      34.406  32.933  30.290  1.00  0.00     0.016 A 
ATOM     36  C   UNL A   1      36.776  34.168  29.425  1.00  0.00     0.010 A 
ATOM     37  C   UNL A   1      35.601  32.766  31.005  1.00  0.00     0.010 A 
ATOM     38  C   UNL A   1      36.807  33.347  30.561  1.00  0.00    -0.014 A 
BRANCH  38  39
ATOM     39  C   UNL A   1      38.080  32.848  31.169  1.00  0.00     0.031 A 
ATOM     40  C   UNL A   1      38.707  31.623  30.564  1.00  0.00     0.074 A 
ATOM     41  C   UNL A   1      38.614  33.354  32.296  1.00  0.00     0.049 A 
ATOM     42  N   UNL A   1      39.623  30.827  31.054  1.00  0.00    -0.248 NA
ATOM     43  C   UNL A   1      38.220  31.243  29.230  1.00  0.00     0.031 C 
ATOM     44  C   UNL A   1      38.196  34.582  32.946  1.00  0.00     0.029 A 
ATOM     45  N   UNL A   1      39.594  32.860  33.128  1.00  0.00    -0.354 N 
ATOM     46  C   UNL A   1      39.803  29.836  30.098  1.00  0.00     0.074 A 
ATOM     47  C   UNL A   1      38.885  30.120  29.015  1.00  0.00     0.031 C 
ATOM     48  C   UNL A   1      38.819  34.701  34.130  1.00  0.00     0.029 A 
ATOM     49  C   UNL A   1      39.695  33.548  34.317  1.00  0.00     0.049 A 
ATOM     50  H   UNL A   1      40.165  32.093  32.896  1.00  0.00     0.167 HD
ATOM     51  C   UNL A   1      40.655  28.784  30.121  1.00  0.00     0.037 A 
ATOM     52  C   UNL A   1      40.387  33.270  35.440  1.00  0.00     0.037 A 
ATOM     53  C   UNL A   1      41.565  28.498  31.196  1.00  0.00     0.049 A 
ATOM     54  C   UNL A   1      41.268  32.051  35.489  1.00  0.00     0.074 A 
ATOM     55  C   UNL A   1      42.493  27.476  31.290  1.00  0.00     0.029 A 
ATOM     56  N   UNL A   1      41.650  29.227  32.373  1.00  0.00    -0.354 N 
ATOM     57  N   UNL A   1      41.456  31.135  34.571  1.00  0.00    -0.248 NA
ATOM     58  C   UNL A   1      42.041  31.831  36.720  1.00  0.00     0.031 C 
ATOM     59  C   UNL A   1      43.099  27.551  32.548  1.00  0.00     0.029 A 
ATOM     60  C   UNL A   1      42.592  28.657  33.213  1.00  0.00     0.049 A 
ATOM     61  H   UNL A   1      41.121  30.030  32.581  1.00  0.00     0.167 HD
ATOM     62  C   UNL A   1      42.397  30.256  35.095  1.00  0.00     0.074 A 
ATOM     63  C   UNL A   1      42.735  30.742  36.415  1.00  0.00     0.031 C 
ATOM     64  C   UNL A   1      42.937  29.152  34.523  1.00  0.00     0.037 A 
BRANCH  51  65
ATOM     65  C   UNL A   1      40.595  27.840  28.957  1.00  0.00     0.057 A 
ATOM     66  C   UNL A   1      39.740  26.730  28.941  1.00  0.00     0.134 A 
ATOM     67  C   UNL A   1      41.422  28.036  27.843  1.00  0.00     0.134 A 
ATOM     68  F   UNL A   1      38.935  26.477  29.983  1.00  0.00    -0.206 F 
ATOM     69  C   UNL A   1      39.738  25.827  27.877  1.00  0.00     0.040 A 
ATOM     70  C   UNL A   1      41.407  27.158  26.760  1.00  0.00     0.040 A 
ATOM     71  F   UNL A   1      42.261  29.082  27.793  1.00  0.00    -0.206 F 
ATOM     72  C   UNL A   1      40.572  26.042  26.781  1.00  0.00     0.006 A 
ENDBRANCH  51  65
BRANCH  52  73
ATOM     73  C   UNL A   1      40.262  34.158  36.625  1.00  0.00     0.057 A 
ATOM     74  C   UNL A   1      39.258  33.961  37.581  1.00  0.00     0.134 A 
ATOM     75  C   UNL A   1      41.140  35.231  36.827  1.00  0.00     0.134 A 
ATOM     76  F   UNL A   1      38.372  32.967  37.432  1.00  0.00    -0.206 F 
ATOM     77  C   UNL A   1      39.126  34.803  38.688  1.00  0.00     0.040 A 
ATOM     78  C   UNL A   1      41.032  36.068  37.939  1.00  0.00     0.040 A 
ATOM     79  F   UNL A   1      42.123  35.475  35.947  1.00  0.00    -0.206 F 
ATOM     80  C   UNL A   1      40.018  35.857  38.872  1.00  0.00     0.006 A 
ENDBRANCH  52  73
BRANCH  64  81
ATOM     81  C   UNL A   1      43.991  28.408  35.289  1.00  0.00     0.057 A 
ATOM     82  C   UNL A   1      45.352  28.713  35.172  1.00  0.00     0.134 A 
ATOM     83  C   UNL A   1      43.626  27.429  36.224  1.00  0.00     0.134 A 
ATOM     84  F   UNL A   1      45.770  29.631  34.287  1.00  0.00    -0.206 F 
ATOM     85  C   UNL A   1      46.314  28.068  35.954  1.00  0.00     0.040 A 
ATOM     86  C   UNL A   1      44.575  26.797  37.029  1.00  0.00     0.040 A 
ATOM     87  F   UNL A   1      42.338  27.094  36.392  1.00  0.00    -0.206 F 
ATOM     88  C   UNL A   1      45.924  27.117  36.895  1.00  0.00     0.006 A 
ENDBRANCH  64  81
ENDBRANCH  38  39
ENDBRANCH  31  33
ENDBRANCH  30  31
ENDBRANCH  29  30
ENDBRANCH  28  29
ENDBRANCH  27  28
ENDBRANCH  26  27
ENDBRANCH   1  26
TORSDOF 22
ENDMDL
MODEL 2
REMARK VINA RESULT:     -10.4      4.509      7.693
REMARK SMILES CCC(CC)(NC(=O)N[C@@H](C)[C@@H]1CCCO1)C(=O)OCCOCCOCCOC(=O)c1ccc(-c2c3nc(c(-c4c(F)cccc4F)c4ccc([nH]4)c(-c4c(F)cccc4F)c4nc(c(-c5c(F)cccc5F)c5ccc2[nH]5)C=C4)C=C3)cc1
REMARK SMILES IDX 23 1 22 2 21 3 20 4 19 5 17 6 18 7 3 8 2 9 1 10 4 11 5 12
REMARK SMILES IDX 6 13 7 14 8 16 9 17 10 19 11 20 12 21 13 22 16 23 14 24
REMARK SMILES IDX 15 25 24 26 25 27 26 28 27 29 28 30 29 31 30 32 31 33 32 34
REMARK SMILES IDX 84 35 33 36 83 37 34 38 35 39 36 40 77 41 37 42 82 43 76 44
REMARK SMILES IDX 78 45 38 46 81 47 75 48 74 49 39 51 65 52 48 53 64 54 49 55
REMARK SMILES IDX 52 56 63 57 79 58 50 59 51 60 62 62 80 63 53 64 40 65 41 66
REMARK SMILES IDX 46 67 42 68 43 69 45 70 47 71 44 72 66 73 67 74 72 75 68 76
REMARK SMILES IDX 69 77 71 78 73 79 70 80 54 81 55 82 60 83 56 84 57 85 59 86
REMARK SMILES IDX 61 87 58 88
REMARK H PARENT 6 15 9 18 78 50 52 61
REMARK Flexibility Score: inf
ROOT
ATOM      1  C   UNL A   1      35.113  32.495  28.861  1.00  0.00     0.188 C 
ENDROOT
BRANCH   1   2
ATOM      2  O   UNL A   1      34.192  32.071  27.803  1.00  0.00    -0.376 OA
BRANCH   2   3
ATOM      3  C   UNL A   1      33.659  30.695  27.600  1.00  0.00     0.202 C 
BRANCH   3   4
ATOM      4  C   UNL A   1      34.440  29.222  26.903  1.00  0.00     0.261 C 
BRANCH   4   5
ATOM      5  O   UNL A   1      33.712  27.800  26.630  1.00  0.00    -0.461 OA
BRANCH   5   6
ATOM      6  C   UNL A   1      32.489  27.447  25.988  1.00  0.00     0.331 C 
ATOM      7  O   UNL A   1      31.482  28.123  26.184  1.00  0.00    -0.249 OA
BRANCH   6   8
ATOM      8  C   UNL A   1      32.462  25.981  24.919  1.00  0.00     0.139 C 
BRANCH   8   9
ATOM      9  C   UNL A   1      31.027  25.313  24.830  1.00  0.00     0.037 C 
ATOM     10  C   UNL A   1      30.613  24.421  23.692  1.00  0.00     0.007 C 
ENDBRANCH   8   9
BRANCH   8  11
ATOM     11  C   UNL A   1      33.470  25.024  25.632  1.00  0.00     0.037 C 
ATOM     12  C   UNL A   1      34.777  24.713  24.883  1.00  0.00     0.007 C 
ENDBRANCH   8  11
BRANCH   8  13
ATOM     13  N   UNL A   1      32.793  25.758  23.378  1.00  0.00    -0.322 N 
ATOM     14  C   UNL A   1      33.003  26.353  22.201  1.00  0.00     0.316 C 
ATOM     15  H   UNL A   1      32.879  24.788  23.235  1.00  0.00     0.166 HD
ATOM     16  O   UNL A   1      33.543  25.732  21.291  1.00  0.00    -0.249 OA
ATOM     17  N   UNL A   1      32.607  27.604  21.989  1.00  0.00    -0.333 N 
ATOM     18  H   UNL A   1      32.552  27.948  21.068  1.00  0.00     0.165 HD
BRANCH  17  19
ATOM     19  C   UNL A   1      32.266  28.448  23.073  1.00  0.00     0.109 C 
ATOM     20  C   UNL A   1      33.679  29.101  23.558  1.00  0.00     0.034 C 
BRANCH  19  21
ATOM     21  C   UNL A   1      30.521  28.773  23.288  1.00  0.00     0.140 C 
ATOM     22  C   UNL A   1      29.436  27.793  22.869  1.00  0.00     0.036 C 
ATOM     23  O   UNL A   1      29.910  30.074  23.068  1.00  0.00    -0.376 OA
ATOM     24  C   UNL A   1      28.169  28.599  23.127  1.00  0.00     0.031 C 
ATOM     25  C   UNL A   1      28.566  29.942  22.626  1.00  0.00     0.160 C 
ENDBRANCH  19  21
ENDBRANCH  17  19
ENDBRANCH   8  13
ENDBRANCH   6   8
ENDBRANCH   5   6
ENDBRANCH   4   5
ENDBRANCH   3   4
ENDBRANCH   2   3
ENDBRANCH   1   2
BRANCH   1  26
ATOM     26  C   UNL A   1      34.736  33.771  29.689  1.00  0.00     0.188 C 
BRANCH  26  27
ATOM     27  O   UNL A   1      35.169  33.892  31.029  1.00  0.00    -0.376 OA
BRANCH  27  28
ATOM     28  C   UNL A   1      34.483  33.094  31.970  1.00  0.00     0.202 C 
BRANCH  28  29
ATOM     29  C   UNL A   1      35.179  32.819  33.314  1.00  0.00     0.261 C 
BRANCH  29  30
ATOM     30  O   UNL A   1      36.615  33.005  33.343  1.00  0.00    -0.460 OA
BRANCH  30  31
ATOM     31  C   UNL A   1      37.336  31.987  33.881  1.00  0.00     0.338 C 
ATOM     32  O   UNL A   1      37.399  31.680  35.070  1.00  0.00    -0.246 OA
BRANCH  31  33
ATOM     33  C   UNL A   1      38.095  31.245  32.849  1.00  0.00     0.060 A 
ATOM     34  C   UNL A   1      39.189  30.447  33.217  1.00  0.00     0.016 A 
ATOM     35  C   UNL A   1      37.832  31.472  31.496  1.00  0.00     0.016 A 
ATOM     36  C   UNL A   1      40.039  29.899  32.236  1.00  0.00     0.010 A 
ATOM     37  C   UNL A   1      38.682  30.931  30.521  1.00  0.00     0.010 A 
ATOM     38  C   UNL A   1      39.816  30.172  30.879  1.00  0.00    -0.014 A 
BRANCH  38  39
ATOM     39  C   UNL A   1      40.847  29.928  29.821  1.00  0.00     0.031 A 
ATOM     40  C   UNL A   1      40.922  28.551  29.224  1.00  0.00     0.074 A 
ATOM     41  C   UNL A   1      41.784  30.830  29.476  1.00  0.00     0.049 A 
ATOM     42  N   UNL A   1      41.877  27.997  28.523  1.00  0.00    -0.248 NA
ATOM     43  C   UNL A   1      39.761  27.682  29.467  1.00  0.00     0.031 C 
ATOM     44  C   UNL A   1      41.798  32.224  29.878  1.00  0.00     0.029 A 
ATOM     45  N   UNL A   1      42.945  30.689  28.748  1.00  0.00    -0.354 N 
ATOM     46  C   UNL A   1      41.444  26.703  28.263  1.00  0.00     0.074 A 
ATOM     47  C   UNL A   1      40.153  26.551  28.902  1.00  0.00     0.031 C 
ATOM     48  C   UNL A   1      42.955  32.792  29.502  1.00  0.00     0.029 A 
ATOM     49  C   UNL A   1      43.768  31.791  28.817  1.00  0.00     0.049 A 
ATOM     50  H   UNL A   1      43.164  29.880  28.231  1.00  0.00     0.167 HD
ATOM     51  C   UNL A   1      42.065  25.729  27.558  1.00  0.00     0.037 A 
ATOM     52  C   UNL A   1      45.039  31.969  28.405  1.00  0.00     0.037 A 
ATOM     53  C   UNL A   1      43.347  25.877  26.925  1.00  0.00     0.049 A 
ATOM     54  C   UNL A   1      45.754  30.851  27.696  1.00  0.00     0.074 A 
ATOM     55  C   UNL A   1      44.039  24.957  26.156  1.00  0.00     0.029 A 
ATOM     56  N   UNL A   1      44.140  27.012  27.001  1.00  0.00    -0.354 N 
ATOM     57  N   UNL A   1      45.329  29.642  27.427  1.00  0.00    -0.248 NA
ATOM     58  C   UNL A   1      47.120  31.124  27.221  1.00  0.00     0.031 C 
ATOM     59  C   UNL A   1      45.276  25.514  25.816  1.00  0.00     0.029 A 
ATOM     60  C   UNL A   1      45.329  26.804  26.321  1.00  0.00     0.049 A 
ATOM     61  H   UNL A   1      43.895  27.842  27.468  1.00  0.00     0.167 HD
ATOM     62  C   UNL A   1      46.353  29.024  26.718  1.00  0.00     0.074 A 
ATOM     63  C   UNL A   1      47.425  29.989  26.605  1.00  0.00     0.031 C 
ATOM     64  C   UNL A   1      46.390  27.772  26.199  1.00  0.00     0.037 A 
BRANCH  51  65
ATOM     65  C   UNL A   1      41.373  24.401  27.483  1.00  0.00     0.057 A 
ATOM     66  C   UNL A   1      41.769  23.309  28.266  1.00  0.00     0.134 A 
ATOM     67  C   UNL A   1      40.303  24.209  26.598  1.00  0.00     0.134 A 
ATOM     68  F   UNL A   1      42.797  23.423  29.120  1.00  0.00    -0.206 F 
ATOM     69  C   UNL A   1      41.155  22.063  28.142  1.00  0.00     0.040 A 
ATOM     70  C   UNL A   1      39.661  22.976  26.488  1.00  0.00     0.040 A 
ATOM     71  F   UNL A   1      39.871  25.215  25.823  1.00  0.00    -0.206 F 
ATOM     72  C   UNL A   1      40.095  21.895  27.253  1.00  0.00     0.006 A 
ENDBRANCH  51  65
BRANCH  52  73
ATOM     73  C   UNL A   1      45.729  33.258  28.671  1.00  0.00     0.057 A 
ATOM     74  C   UNL A   1      45.618  34.339  27.789  1.00  0.00     0.134 A 
ATOM     75  C   UNL A   1      46.523  33.438  29.811  1.00  0.00     0.134 A 
ATOM     76  F   UNL A   1      44.893  34.222  26.667  1.00  0.00    -0.206 F 
ATOM     77  C   UNL A   1      46.278  35.547  28.025  1.00  0.00     0.040 A 
ATOM     78  C   UNL A   1      47.171  34.647  30.071  1.00  0.00     0.040 A 
ATOM     79  F   UNL A   1      46.671  32.440  30.696  1.00  0.00    -0.206 F 
ATOM     80  C   UNL A   1      47.053  35.705  29.172  1.00  0.00     0.006 A 
ENDBRANCH  52  73
BRANCH  64  81
ATOM     81  C   UNL A   1      47.605  27.373  25.414  1.00  0.00     0.057 A 
ATOM     82  C   UNL A   1      48.705  26.747  26.011  1.00  0.00     0.134 A 
ATOM     83  C   UNL A   1      47.634  27.542  24.023  1.00  0.00     0.134 A 
ATOM     84  F   UNL A   1      48.747  26.566  27.339  1.00  0.00    -0.206 F 
ATOM     85  C   UNL A   1      49.793  26.306  25.253  1.00  0.00     0.040 A 
ATOM     86  C   UNL A   1      48.703  27.083  23.252  1.00  0.00     0.040 A 
ATOM     87  F   UNL A   1      46.608  28.129  23.386  1.00  0.00    -0.206 F 
ATOM     88  C   UNL A   1      49.787  26.463  23.868  1.00  0.00     0.006 A 
ENDBRANCH  64  81
ENDBRANCH  38  39
ENDBRANCH  31  33
ENDBRANCH  30  31
ENDBRANCH  29  30
ENDBRANCH  28  29
ENDBRANCH  27  28
ENDBRANCH  26  27
ENDBRANCH   1  26
TORSDOF 22
ENDMDL
MODEL 3
REMARK VINA RESULT:     -10.3      1.090      2.470
REMARK SMILES CCC(CC)(NC(=O)N[C@@H](C)[C@@H]1CCCO1)C(=O)OCCOCCOCCOC(=O)c1ccc(-c2c3nc(c(-c4c(F)cccc4F)c4ccc([nH]4)c(-c4c(F)cccc4F)c4nc(c(-c5c(F)cccc5F)c5ccc2[nH]5)C=C4)C=C3)cc1
REMARK SMILES IDX 23 1 22 2 21 3 20 4 19 5 17 6 18 7 3 8 2 9 1 10 4 11 5 12
REMARK SMILES IDX 6 13 7 14 8 16 9 17 10 19 11 20 12 21 13 22 16 23 14 24
REMARK SMILES IDX 15 25 24 26 25 27 26 28 27 29 28 30 29 31 30 32 31 33 32 34
REMARK SMILES IDX 84 35 33 36 83 37 34 38 35 39 36 40 77 41 37 42 82 43 76 44
REMARK SMILES IDX 78 45 38 46 81 47 75 48 74 49 39 51 65 52 48 53 64 54 49 55
REMARK SMILES IDX 52 56 63 57 79 58 50 59 51 60 62 62 80 63 53 64 40 65 41 66
REMARK SMILES IDX 46 67 42 68 43 69 45 70 47 71 44 72 66 73 67 74 72 75 68 76
REMARK SMILES IDX 69 77 71 78 73 79 70 80 54 81 55 82 60 83 56 84 57 85 59 86
REMARK SMILES IDX 61 87 58 88
REMARK H PARENT 6 15 9 18 78 50 52 61
REMARK Flexibility Score: inf
ROOT
ATOM      1  C   UNL A   1      33.045  28.719  23.773  1.00  0.00     0.188 C 
ENDROOT
BRANCH   1   2
ATOM      2  O   UNL A   1      33.927  27.808  24.507  1.00  0.00    -0.376 OA
BRANCH   2   3
ATOM      3  C   UNL A   1      33.688  26.358  24.751  1.00  0.00     0.202 C 
BRANCH   3   4
ATOM      4  C   UNL A   1      32.571  25.527  25.903  1.00  0.00     0.261 C 
BRANCH   4   5
ATOM      5  O   UNL A   1      32.760  24.032  26.498  1.00  0.00    -0.461 OA
BRANCH   5   6
ATOM      6  C   UNL A   1      33.828  23.090  26.425  1.00  0.00     0.331 C 
ATOM      7  O   UNL A   1      34.172  22.482  27.436  1.00  0.00    -0.249 OA
BRANCH   6   8
ATOM      8  C   UNL A   1      34.662  22.847  24.832  1.00  0.00     0.139 C 
BRANCH   8   9
ATOM      9  C   UNL A   1      35.041  21.331  24.564  1.00  0.00     0.037 C 
ATOM     10  C   UNL A   1      36.228  20.663  25.202  1.00  0.00     0.007 C 
ENDBRANCH   8   9
BRANCH   8  11
ATOM     11  C   UNL A   1      35.951  23.716  24.989  1.00  0.00     0.037 C 
ATOM     12  C   UNL A   1      37.029  23.555  23.905  1.00  0.00     0.007 C 
ENDBRANCH   8  11
BRANCH   8  13
ATOM     13  N   UNL A   1      34.227  23.129  23.328  1.00  0.00    -0.322 N 
ATOM     14  C   UNL A   1      33.255  22.999  22.420  1.00  0.00     0.316 C 
ATOM     15  H   UNL A   1      34.979  23.586  22.887  1.00  0.00     0.166 HD
ATOM     16  O   UNL A   1      33.280  23.677  21.398  1.00  0.00    -0.249 OA
ATOM     17  N   UNL A   1      32.272  22.122  22.596  1.00  0.00    -0.333 N 
ATOM     18  H   UNL A   1      31.704  21.868  21.833  1.00  0.00     0.165 HD
BRANCH  17  19
ATOM     19  C   UNL A   1      32.032  21.549  23.868  1.00  0.00     0.109 C 
ATOM     20  C   UNL A   1      31.007  22.578  24.605  1.00  0.00     0.034 C 
BRANCH  19  21
ATOM     21  C   UNL A   1      32.585  19.862  24.079  1.00  0.00     0.140 C 
ATOM     22  C   UNL A   1      32.412  18.791  23.013  1.00  0.00     0.036 C 
ATOM     23  O   UNL A   1      32.467  19.124  25.327  1.00  0.00    -0.376 OA
ATOM     24  C   UNL A   1      32.901  17.544  23.737  1.00  0.00     0.031 C 
ATOM     25  C   UNL A   1      32.306  17.732  25.087  1.00  0.00     0.160 C 
ENDBRANCH  19  21
ENDBRANCH  17  19
ENDBRANCH   8  13
ENDBRANCH   6   8
ENDBRANCH   5   6
ENDBRANCH   4   5
ENDBRANCH   3   4
ENDBRANCH   2   3
ENDBRANCH   1   2
BRANCH   1  26
ATOM     26  C   UNL A   1      31.579  28.896  24.297  1.00  0.00     0.188 C 
BRANCH  26  27
ATOM     27  O   UNL A   1      31.230  30.051  25.032  1.00  0.00    -0.376 OA
BRANCH  27  28
ATOM     28  C   UNL A   1      31.911  30.228  26.256  1.00  0.00     0.202 C 
BRANCH  28  29
ATOM     29  C   UNL A   1      31.913  31.637  26.873  1.00  0.00     0.261 C 
BRANCH  29  30
ATOM     30  O   UNL A   1      33.208  32.179  27.232  1.00  0.00    -0.460 OA
BRANCH  30  31
ATOM     31  C   UNL A   1      33.190  33.308  27.988  1.00  0.00     0.338 C 
ATOM     32  O   UNL A   1      32.340  34.194  27.964  1.00  0.00    -0.246 OA
BRANCH  31  33
ATOM     33  C   UNL A   1      34.366  33.385  28.885  1.00  0.00     0.060 A 
ATOM     34  C   UNL A   1      35.544  34.010  28.450  1.00  0.00     0.016 A 
ATOM     35  C   UNL A   1      34.362  32.691  30.097  1.00  0.00     0.016 A 
ATOM     36  C   UNL A   1      36.727  33.918  29.208  1.00  0.00     0.010 A 
ATOM     37  C   UNL A   1      35.542  32.594  30.848  1.00  0.00     0.010 A 
ATOM     38  C   UNL A   1      36.747  33.172  30.396  1.00  0.00    -0.014 A 
BRANCH  38  39
ATOM     39  C   UNL A   1      38.014  32.739  31.063  1.00  0.00     0.031 A 
ATOM     40  C   UNL A   1      38.701  31.514  30.528  1.00  0.00     0.074 A 
ATOM     41  C   UNL A   1      38.494  33.305  32.186  1.00  0.00     0.049 A 
ATOM     42  N   UNL A   1      39.625  30.770  31.077  1.00  0.00    -0.248 NA
ATOM     43  C   UNL A   1      38.272  31.068  29.194  1.00  0.00     0.031 C 
ATOM     44  C   UNL A   1      38.014  34.542  32.774  1.00  0.00     0.029 A 
ATOM     45  N   UNL A   1      39.461  32.878  33.068  1.00  0.00    -0.354 N 
ATOM     46  C   UNL A   1      39.870  29.749  30.167  1.00  0.00     0.074 A 
ATOM     47  C   UNL A   1      38.980  29.960  29.044  1.00  0.00     0.031 C 
ATOM     48  C   UNL A   1      38.592  34.727  33.972  1.00  0.00     0.029 A 
ATOM     49  C   UNL A   1      39.499  33.613  34.232  1.00  0.00     0.049 A 
ATOM     50  H   UNL A   1      40.064  32.122  32.885  1.00  0.00     0.167 HD
ATOM     51  C   UNL A   1      40.754  28.728  30.258  1.00  0.00     0.037 A 
ATOM     52  C   UNL A   1      40.162  33.401  35.387  1.00  0.00     0.037 A 
ATOM     53  C   UNL A   1      41.636  28.515  31.373  1.00  0.00     0.049 A 
ATOM     54  C   UNL A   1      41.079  32.215  35.512  1.00  0.00     0.074 A 
ATOM     55  C   UNL A   1      42.594  27.529  31.537  1.00  0.00     0.029 A 
ATOM     56  N   UNL A   1      41.659  29.290  32.522  1.00  0.00    -0.354 N 
ATOM     57  N   UNL A   1      41.328  31.272  34.637  1.00  0.00    -0.248 NA
ATOM     58  C   UNL A   1      41.817  32.068  36.775  1.00  0.00     0.031 C 
ATOM     59  C   UNL A   1      43.154  27.672  32.810  1.00  0.00     0.029 A 
ATOM     60  C   UNL A   1      42.590  28.784  33.414  1.00  0.00     0.049 A 
ATOM     61  H   UNL A   1      41.097  30.082  32.681  1.00  0.00     0.167 HD
ATOM     62  C   UNL A   1      42.279  30.446  35.225  1.00  0.00     0.074 A 
ATOM     63  C   UNL A   1      42.556  30.993  36.535  1.00  0.00     0.031 C 
ATOM     64  C   UNL A   1      42.874  29.340  34.714  1.00  0.00     0.037 A 
BRANCH  51  65
ATOM     65  C   UNL A   1      40.764  27.739  29.131  1.00  0.00     0.057 A 
ATOM     66  C   UNL A   1      39.859  26.671  29.068  1.00  0.00     0.134 A 
ATOM     67  C   UNL A   1      41.709  27.848  28.101  1.00  0.00     0.134 A 
ATOM     68  F   UNL A   1      38.941  26.501  30.031  1.00  0.00    -0.206 F 
ATOM     69  C   UNL A   1      39.919  25.725  28.044  1.00  0.00     0.040 A 
ATOM     70  C   UNL A   1      41.759  26.927  27.056  1.00  0.00     0.040 A 
ATOM     71  F   UNL A   1      42.601  28.850  28.099  1.00  0.00    -0.206 F 
ATOM     72  C   UNL A   1      40.870  25.853  27.033  1.00  0.00     0.006 A 
ENDBRANCH  51  65
BRANCH  52  73
ATOM     73  C   UNL A   1      39.968  34.329  36.532  1.00  0.00     0.057 A 
ATOM     74  C   UNL A   1      40.684  35.527  36.628  1.00  0.00     0.134 A 
ATOM     75  C   UNL A   1      39.065  34.035  37.562  1.00  0.00     0.134 A 
ATOM     76  F   UNL A   1      41.581  35.854  35.687  1.00  0.00    -0.206 F 
ATOM     77  C   UNL A   1      40.518  36.394  37.711  1.00  0.00     0.040 A 
ATOM     78  C   UNL A   1      38.873  34.902  38.639  1.00  0.00     0.040 A 
ATOM     79  F   UNL A   1      38.348  32.901  37.530  1.00  0.00    -0.206 F 
ATOM     80  C   UNL A   1      39.605  36.085  38.717  1.00  0.00     0.006 A 
ENDBRANCH  52  73
BRANCH  64  81
ATOM     81  C   UNL A   1      43.925  28.662  35.542  1.00  0.00     0.057 A 
ATOM     82  C   UNL A   1      43.625  27.604  36.407  1.00  0.00     0.134 A 
ATOM     83  C   UNL A   1      45.273  29.020  35.404  1.00  0.00     0.134 A 
ATOM     84  F   UNL A   1      42.354  27.218  36.595  1.00  0.00    -0.206 F 
ATOM     85  C   UNL A   1      44.627  26.928  37.108  1.00  0.00     0.040 A 
ATOM     86  C   UNL A   1      46.285  28.336  36.079  1.00  0.00     0.040 A 
ATOM     87  F   UNL A   1      45.631  30.022  34.585  1.00  0.00    -0.206 F 
ATOM     88  C   UNL A   1      45.962  27.286  36.935  1.00  0.00     0.006 A 
ENDBRANCH  64  81
ENDBRANCH  38  39
ENDBRANCH  31  33
ENDBRANCH  30  31
ENDBRANCH  29  30
ENDBRANCH  28  29
ENDBRANCH  27  28
ENDBRANCH  26  27
ENDBRANCH   1  26
TORSDOF 22
ENDMDL
