MODEL 1
REMARK VINA RESULT:     -10.8      0.000      0.000
REMARK SMILES CCc1c(Cl)ccc2c1C=C(C(=O)OCCOCCOCCOC(=O)c1ccc(-c3c4nc(c(-c5c(F)cccc5F)c5ccc([nH]5)c(-c5c(F)cccc5F)c5nc(c(-c6c(F)cccc6F)c6ccc3[nH]6)C=C5)C=C4)cc1)[C@@H](C(F)(F)F)O2
REMARK SMILES IDX 19 1 18 2 17 3 16 4 15 5 14 6 12 7 13 8 11 9 3 10 4 11 9 12
REMARK SMILES IDX 5 13 6 14 8 15 10 16 7 17 85 18 80 19 2 20 1 21 81 22 82 23
REMARK SMILES IDX 83 24 84 25 20 26 21 27 22 28 23 29 24 30 25 31 26 32 27 33
REMARK SMILES IDX 79 34 28 35 78 36 29 37 30 38 31 39 72 40 32 41 77 42 71 43
REMARK SMILES IDX 73 44 33 45 76 46 70 47 69 48 34 50 60 51 43 52 59 53 44 54
REMARK SMILES IDX 47 55 58 56 74 57 45 58 46 59 57 61 75 62 48 63 35 64 36 65
REMARK SMILES IDX 41 66 37 67 38 68 40 69 42 70 39 71 61 72 62 73 67 74 63 75
REMARK SMILES IDX 64 76 66 77 68 78 65 79 49 80 50 81 55 82 51 83 52 84 54 85
REMARK SMILES IDX 56 86 53 87
REMARK H PARENT 73 49 47 60
REMARK Flexibility Score: inf
ROOT
ATOM      1  C   UNL A   1      41.980  20.974  26.745  1.00  0.00     0.188 C 
ENDROOT
BRANCH   1   2
ATOM      2  C   UNL A   1      40.443  21.035  26.624  1.00  0.00     0.188 C 
BRANCH   2   3
ATOM      3  O   UNL A   1      39.789  22.274  26.468  1.00  0.00    -0.376 OA
BRANCH   3   4
ATOM      4  C   UNL A   1      38.441  22.348  26.036  1.00  0.00     0.202 C 
BRANCH   4   5
ATOM      5  C   UNL A   1      37.597  23.631  26.050  1.00  0.00     0.261 C 
BRANCH   5   6
ATOM      6  O   UNL A   1      36.573  23.720  25.055  1.00  0.00    -0.460 OA
BRANCH   6   7
ATOM      7  C   UNL A   1      35.305  23.761  25.532  1.00  0.00     0.338 C 
ATOM      8  O   UNL A   1      34.916  23.356  26.614  1.00  0.00    -0.246 OA
BRANCH   7   9
ATOM      9  C   UNL A   1      34.458  24.533  24.598  1.00  0.00     0.087 C 
ATOM     10  C   UNL A   1      32.656  27.812  24.527  1.00  0.00    -0.019 A 
ATOM     11  C   UNL A   1      31.589  28.326  23.757  1.00  0.00     0.045 A 
ATOM     12  C   UNL A   1      33.174  26.537  24.149  1.00  0.00     0.022 A 
ATOM     13  Cl  UNL A   1      30.639  29.691  24.232  1.00  0.00    -0.084 Cl
ATOM     14  C   UNL A   1      31.177  27.699  22.576  1.00  0.00     0.024 A 
ATOM     15  C   UNL A   1      32.768  25.939  22.942  1.00  0.00     0.128 A 
ATOM     16  C   UNL A   1      34.062  25.747  25.006  1.00  0.00     0.027 C 
ATOM     17  C   UNL A   1      31.793  26.533  22.148  1.00  0.00     0.048 A 
ATOM     18  O   UNL A   1      33.263  24.769  22.442  1.00  0.00    -0.475 OA
ATOM     19  C   UNL A   1      34.100  23.931  23.273  1.00  0.00     0.316 C 
BRANCH  10  20
ATOM     20  C   UNL A   1      33.210  28.542  25.746  1.00  0.00     0.034 C 
ATOM     21  C   UNL A   1      32.684  28.132  27.123  1.00  0.00     0.009 C 
ENDBRANCH  10  20
BRANCH  19  22
ATOM     22  C   UNL A   1      33.427  22.560  23.419  1.00  0.00     0.430 C 
ATOM     23  F   UNL A   1      34.334  21.588  23.677  1.00  0.00    -0.167 F 
ATOM     24  F   UNL A   1      32.539  22.543  24.441  1.00  0.00    -0.167 F 
ATOM     25  F   UNL A   1      32.758  22.203  22.298  1.00  0.00    -0.167 F 
ENDBRANCH  19  22
ENDBRANCH   7   9
ENDBRANCH   6   7
ENDBRANCH   5   6
ENDBRANCH   4   5
ENDBRANCH   3   4
ENDBRANCH   2   3
ENDBRANCH   1   2
BRANCH   1  26
ATOM     26  O   UNL A   1      42.779  20.701  25.616  1.00  0.00    -0.376 OA
BRANCH  26  27
ATOM     27  C   UNL A   1      43.977  21.430  25.401  1.00  0.00     0.202 C 
BRANCH  27  28
ATOM     28  C   UNL A   1      44.145  22.488  24.297  1.00  0.00     0.261 C 
BRANCH  28  29
ATOM     29  O   UNL A   1      43.615  23.789  24.576  1.00  0.00    -0.460 OA
BRANCH  29  30
ATOM     30  C   UNL A   1      44.503  24.676  25.103  1.00  0.00     0.338 C 
ATOM     31  O   UNL A   1      45.605  24.954  24.689  1.00  0.00    -0.246 OA
BRANCH  30  32
ATOM     32  C   UNL A   1      43.819  25.432  26.175  1.00  0.00     0.060 A 
ATOM     33  C   UNL A   1      42.823  24.831  26.942  1.00  0.00     0.016 A 
ATOM     34  C   UNL A   1      44.186  26.766  26.398  1.00  0.00     0.016 A 
ATOM     35  C   UNL A   1      42.203  25.567  27.954  1.00  0.00     0.010 A 
ATOM     36  C   UNL A   1      43.554  27.505  27.399  1.00  0.00     0.010 A 
ATOM     37  C   UNL A   1      42.571  26.904  28.198  1.00  0.00    -0.014 A 
BRANCH  37  38
ATOM     38  C   UNL A   1      42.046  27.600  29.396  1.00  0.00     0.031 A 
ATOM     39  C   UNL A   1      42.713  27.502  30.735  1.00  0.00     0.074 A 
ATOM     40  C   UNL A   1      40.935  28.345  29.251  1.00  0.00     0.049 A 
ATOM     41  N   UNL A   1      42.430  28.144  31.841  1.00  0.00    -0.248 NA
ATOM     42  C   UNL A   1      43.830  26.556  30.853  1.00  0.00     0.031 C 
ATOM     43  C   UNL A   1      40.174  28.482  28.007  1.00  0.00     0.029 A 
ATOM     44  N   UNL A   1      40.260  29.135  30.146  1.00  0.00    -0.354 N 
ATOM     45  C   UNL A   1      43.352  27.708  32.782  1.00  0.00     0.074 A 
ATOM     46  C   UNL A   1      44.165  26.699  32.131  1.00  0.00     0.031 C 
ATOM     47  C   UNL A   1      39.155  29.331  28.209  1.00  0.00     0.029 A 
ATOM     48  C   UNL A   1      39.178  29.779  29.598  1.00  0.00     0.049 A 
ATOM     49  H   UNL A   1      40.526  29.230  31.089  1.00  0.00     0.167 HD
ATOM     50  C   UNL A   1      43.515  28.128  34.063  1.00  0.00     0.037 A 
ATOM     51  C   UNL A   1      38.305  30.639  30.152  1.00  0.00     0.037 A 
ATOM     52  C   UNL A   1      42.683  29.112  34.713  1.00  0.00     0.049 A 
ATOM     53  C   UNL A   1      38.477  31.041  31.590  1.00  0.00     0.074 A 
ATOM     54  C   UNL A   1      42.799  29.632  35.993  1.00  0.00     0.029 A 
ATOM     55  N   UNL A   1      41.566  29.709  34.146  1.00  0.00    -0.354 N 
ATOM     56  N   UNL A   1      39.415  30.699  32.439  1.00  0.00    -0.248 NA
ATOM     57  C   UNL A   1      37.469  31.955  32.141  1.00  0.00     0.031 C 
ATOM     58  C   UNL A   1      41.721  30.496  36.218  1.00  0.00     0.029 A 
ATOM     59  C   UNL A   1      40.964  30.561  35.060  1.00  0.00     0.049 A 
ATOM     60  H   UNL A   1      41.248  29.551  33.228  1.00  0.00     0.167 HD
ATOM     61  C   UNL A   1      39.123  31.374  33.617  1.00  0.00     0.074 A 
ATOM     62  C   UNL A   1      37.938  32.166  33.362  1.00  0.00     0.031 C 
ATOM     63  C   UNL A   1      39.776  31.336  34.806  1.00  0.00     0.037 A 
BRANCH  50  64
ATOM     64  C   UNL A   1      44.644  27.524  34.850  1.00  0.00     0.057 A 
ATOM     65  C   UNL A   1      45.924  28.094  34.827  1.00  0.00     0.134 A 
ATOM     66  C   UNL A   1      44.477  26.346  35.589  1.00  0.00     0.134 A 
ATOM     67  F   UNL A   1      46.161  29.214  34.128  1.00  0.00    -0.206 F 
ATOM     68  C   UNL A   1      46.994  27.514  35.513  1.00  0.00     0.040 A 
ATOM     69  C   UNL A   1      45.533  25.772  36.300  1.00  0.00     0.040 A 
ATOM     70  F   UNL A   1      43.278  25.748  35.653  1.00  0.00    -0.206 F 
ATOM     71  C   UNL A   1      46.798  26.354  36.259  1.00  0.00     0.006 A 
ENDBRANCH  50  64
BRANCH  51  72
ATOM     72  C   UNL A   1      37.195  31.199  29.341  1.00  0.00     0.057 A 
ATOM     73  C   UNL A   1      37.257  32.496  28.819  1.00  0.00     0.134 A 
ATOM     74  C   UNL A   1      36.061  30.435  29.043  1.00  0.00     0.134 A 
ATOM     75  F   UNL A   1      38.314  33.281  29.077  1.00  0.00    -0.206 F 
ATOM     76  C   UNL A   1      36.233  33.012  28.026  1.00  0.00     0.040 A 
ATOM     77  C   UNL A   1      35.043  30.928  28.226  1.00  0.00     0.040 A 
ATOM     78  F   UNL A   1      35.953  29.179  29.503  1.00  0.00    -0.206 F 
ATOM     79  C   UNL A   1      35.128  32.222  27.716  1.00  0.00     0.006 A 
ENDBRANCH  51  72
BRANCH  63  80
ATOM     80  C   UNL A   1      39.222  32.192  35.910  1.00  0.00     0.057 A 
ATOM     81  C   UNL A   1      39.618  33.529  36.049  1.00  0.00     0.134 A 
ATOM     82  C   UNL A   1      38.291  31.697  36.834  1.00  0.00     0.134 A 
ATOM     83  F   UNL A   1      40.510  34.068  35.204  1.00  0.00    -0.206 F 
ATOM     84  C   UNL A   1      39.106  34.342  37.062  1.00  0.00     0.040 A 
ATOM     85  C   UNL A   1      37.748  32.510  37.833  1.00  0.00     0.040 A 
ATOM     86  F   UNL A   1      37.855  30.432  36.749  1.00  0.00    -0.206 F 
ATOM     87  C   UNL A   1      38.160  33.835  37.951  1.00  0.00     0.006 A 
ENDBRANCH  63  80
ENDBRANCH  37  38
ENDBRANCH  30  32
ENDBRANCH  29  30
ENDBRANCH  28  29
ENDBRANCH  27  28
ENDBRANCH  26  27
ENDBRANCH   1  26
TORSDOF 19
ENDMDL
MODEL 2
REMARK VINA RESULT:     -10.8      4.730      9.831
REMARK SMILES CCc1c(Cl)ccc2c1C=C(C(=O)OCCOCCOCCOC(=O)c1ccc(-c3c4nc(c(-c5c(F)cccc5F)c5ccc([nH]5)c(-c5c(F)cccc5F)c5nc(c(-c6c(F)cccc6F)c6ccc3[nH]6)C=C5)C=C4)cc1)[C@@H](C(F)(F)F)O2
REMARK SMILES IDX 19 1 18 2 17 3 16 4 15 5 14 6 12 7 13 8 11 9 3 10 4 11 9 12
REMARK SMILES IDX 5 13 6 14 8 15 10 16 7 17 85 18 80 19 2 20 1 21 81 22 82 23
REMARK SMILES IDX 83 24 84 25 20 26 21 27 22 28 23 29 24 30 25 31 26 32 27 33
REMARK SMILES IDX 79 34 28 35 78 36 29 37 30 38 31 39 72 40 32 41 77 42 71 43
REMARK SMILES IDX 73 44 33 45 76 46 70 47 69 48 34 50 60 51 43 52 59 53 44 54
REMARK SMILES IDX 47 55 58 56 74 57 45 58 46 59 57 61 75 62 48 63 35 64 36 65
REMARK SMILES IDX 41 66 37 67 38 68 40 69 42 70 39 71 61 72 62 73 67 74 63 75
REMARK SMILES IDX 64 76 66 77 68 78 65 79 49 80 50 81 55 82 51 83 52 84 54 85
REMARK SMILES IDX 56 86 53 87
REMARK H PARENT 73 49 47 60
REMARK Flexibility Score: inf
ROOT
ATOM      1  C   UNL A   1      34.733  33.821  28.991  1.00  0.00     0.188 C 
ENDROOT
BRANCH   1   2
ATOM      2  C   UNL A   1      34.636  32.687  27.949  1.00  0.00     0.188 C 
BRANCH   2   3
ATOM      3  O   UNL A   1      35.606  31.665  27.915  1.00  0.00    -0.376 OA
BRANCH   3   4
ATOM      4  C   UNL A   1      35.236  30.297  27.878  1.00  0.00     0.202 C 
BRANCH   4   5
ATOM      5  C   UNL A   1      34.187  29.710  26.923  1.00  0.00     0.261 C 
BRANCH   5   6
ATOM      6  O   UNL A   1      34.053  28.286  26.934  1.00  0.00    -0.460 OA
BRANCH   6   7
ATOM      7  C   UNL A   1      33.794  27.720  25.730  1.00  0.00     0.338 C 
ATOM      8  O   UNL A   1      34.008  28.204  24.632  1.00  0.00    -0.246 OA
BRANCH   7   9
ATOM      9  C   UNL A   1      33.351  26.325  25.933  1.00  0.00     0.087 C 
ATOM     10  C   UNL A   1      34.753  22.872  25.587  1.00  0.00    -0.019 A 
ATOM     11  C   UNL A   1      34.175  21.590  25.457  1.00  0.00     0.045 A 
ATOM     12  C   UNL A   1      33.866  23.960  25.851  1.00  0.00     0.022 A 
ATOM     13  Cl  UNL A   1      35.029  20.215  24.846  1.00  0.00    -0.084 Cl
ATOM     14  C   UNL A   1      32.824  21.368  25.746  1.00  0.00     0.024 A 
ATOM     15  C   UNL A   1      32.519  23.711  26.170  1.00  0.00     0.128 A 
ATOM     16  C   UNL A   1      34.261  25.365  25.721  1.00  0.00     0.027 C 
ATOM     17  C   UNL A   1      32.010  22.418  26.143  1.00  0.00     0.048 A 
ATOM     18  O   UNL A   1      31.609  24.666  26.524  1.00  0.00    -0.475 OA
ATOM     19  C   UNL A   1      31.938  26.066  26.362  1.00  0.00     0.316 C 
BRANCH  10  20
ATOM     20  C   UNL A   1      36.246  23.119  25.403  1.00  0.00     0.034 C 
ATOM     21  C   UNL A   1      36.780  23.228  23.973  1.00  0.00     0.009 C 
ENDBRANCH  10  20
BRANCH  19  22
ATOM     22  C   UNL A   1      30.915  26.700  25.409  1.00  0.00     0.430 C 
ATOM     23  F   UNL A   1      31.237  26.470  24.113  1.00  0.00    -0.167 F 
ATOM     24  F   UNL A   1      29.673  26.192  25.595  1.00  0.00    -0.167 F 
ATOM     25  F   UNL A   1      30.832  28.039  25.575  1.00  0.00    -0.167 F 
ENDBRANCH  19  22
ENDBRANCH   7   9
ENDBRANCH   6   7
ENDBRANCH   5   6
ENDBRANCH   4   5
ENDBRANCH   3   4
ENDBRANCH   2   3
ENDBRANCH   1   2
BRANCH   1  26
ATOM     26  O   UNL A   1      33.898  33.825  30.128  1.00  0.00    -0.376 OA
BRANCH  26  27
ATOM     27  C   UNL A   1      34.373  34.353  31.357  1.00  0.00     0.202 C 
BRANCH  27  28
ATOM     28  C   UNL A   1      34.505  33.525  32.647  1.00  0.00     0.261 C 
BRANCH  28  29
ATOM     29  O   UNL A   1      35.212  32.285  32.538  1.00  0.00    -0.460 OA
BRANCH  29  30
ATOM     30  C   UNL A   1      36.348  32.198  33.283  1.00  0.00     0.338 C 
ATOM     31  O   UNL A   1      36.470  32.389  34.471  1.00  0.00    -0.246 OA
BRANCH  30  32
ATOM     32  C   UNL A   1      37.411  31.611  32.438  1.00  0.00     0.060 A 
ATOM     33  C   UNL A   1      37.241  31.502  31.059  1.00  0.00     0.016 A 
ATOM     34  C   UNL A   1      38.587  31.159  33.052  1.00  0.00     0.016 A 
ATOM     35  C   UNL A   1      38.267  30.953  30.287  1.00  0.00     0.010 A 
ATOM     36  C   UNL A   1      39.604  30.596  32.280  1.00  0.00     0.010 A 
ATOM     37  C   UNL A   1      39.459  30.507  30.889  1.00  0.00    -0.014 A 
BRANCH  37  38
ATOM     38  C   UNL A   1      40.607  30.114  30.036  1.00  0.00     0.031 A 
ATOM     39  C   UNL A   1      41.727  31.058  29.718  1.00  0.00     0.074 A 
ATOM     40  C   UNL A   1      40.624  28.860  29.548  1.00  0.00     0.049 A 
ATOM     41  N   UNL A   1      42.846  30.817  29.081  1.00  0.00    -0.248 NA
ATOM     42  C   UNL A   1      41.569  32.450  30.159  1.00  0.00     0.031 C 
ATOM     43  C   UNL A   1      39.568  27.866  29.755  1.00  0.00     0.029 A 
ATOM     44  N   UNL A   1      41.560  28.204  28.793  1.00  0.00    -0.354 N 
ATOM     45  C   UNL A   1      43.544  32.016  29.069  1.00  0.00     0.074 A 
ATOM     46  C   UNL A   1      42.693  32.999  29.711  1.00  0.00     0.031 C 
ATOM     47  C   UNL A   1      39.931  26.716  29.168  1.00  0.00     0.029 A 
ATOM     48  C   UNL A   1      41.229  26.898  28.527  1.00  0.00     0.049 A 
ATOM     49  H   UNL A   1      42.389  28.627  28.473  1.00  0.00     0.167 HD
ATOM     50  C   UNL A   1      44.788  32.264  28.586  1.00  0.00     0.037 A 
ATOM     51  C   UNL A   1      41.900  25.951  27.848  1.00  0.00     0.037 A 
ATOM     52  C   UNL A   1      45.617  31.287  27.922  1.00  0.00     0.049 A 
ATOM     53  C   UNL A   1      43.251  26.273  27.273  1.00  0.00     0.074 A 
ATOM     54  C   UNL A   1      46.908  31.435  27.437  1.00  0.00     0.029 A 
ATOM     55  N   UNL A   1      45.233  29.987  27.625  1.00  0.00    -0.354 N 
ATOM     56  N   UNL A   1      43.945  27.381  27.359  1.00  0.00    -0.248 NA
ATOM     57  C   UNL A   1      43.913  25.205  26.513  1.00  0.00     0.031 C 
ATOM     58  C   UNL A   1      47.280  30.246  26.798  1.00  0.00     0.029 A 
ATOM     59  C   UNL A   1      46.244  29.337  26.933  1.00  0.00     0.049 A 
ATOM     60  H   UNL A   1      44.368  29.586  27.871  1.00  0.00     0.167 HD
ATOM     61  C   UNL A   1      45.133  27.137  26.683  1.00  0.00     0.074 A 
ATOM     62  C   UNL A   1      45.077  25.766  26.220  1.00  0.00     0.031 C 
ATOM     63  C   UNL A   1      46.176  27.976  26.462  1.00  0.00     0.037 A 
BRANCH  50  64
ATOM     64  C   UNL A   1      45.333  33.654  28.760  1.00  0.00     0.057 A 
ATOM     65  C   UNL A   1      46.045  34.009  29.914  1.00  0.00     0.134 A 
ATOM     66  C   UNL A   1      45.106  34.658  27.809  1.00  0.00     0.134 A 
ATOM     67  F   UNL A   1      46.286  33.103  30.873  1.00  0.00    -0.206 F 
ATOM     68  C   UNL A   1      46.513  35.310  30.112  1.00  0.00     0.040 A 
ATOM     69  C   UNL A   1      45.592  35.955  27.984  1.00  0.00     0.040 A 
ATOM     70  F   UNL A   1      44.432  34.386  26.682  1.00  0.00    -0.206 F 
ATOM     71  C   UNL A   1      46.294  36.285  29.142  1.00  0.00     0.006 A 
ENDBRANCH  50  64
BRANCH  51  72
ATOM     72  C   UNL A   1      41.317  24.596  27.685  1.00  0.00     0.057 A 
ATOM     73  C   UNL A   1      40.319  24.342  26.736  1.00  0.00     0.134 A 
ATOM     74  C   UNL A   1      41.768  23.516  28.453  1.00  0.00     0.134 A 
ATOM     75  F   UNL A   1      39.838  25.337  25.976  1.00  0.00    -0.206 F 
ATOM     76  C   UNL A   1      39.794  23.063  26.554  1.00  0.00     0.040 A 
ATOM     77  C   UNL A   1      41.273  22.226  28.260  1.00  0.00     0.040 A 
ATOM     78  F   UNL A   1      42.734  23.695  29.367  1.00  0.00    -0.206 F 
ATOM     79  C   UNL A   1      40.282  21.998  27.308  1.00  0.00     0.006 A 
ENDBRANCH  51  72
BRANCH  63  80
ATOM     80  C   UNL A   1      47.343  27.418  25.697  1.00  0.00     0.057 A 
ATOM     81  C   UNL A   1      48.391  26.765  26.360  1.00  0.00     0.134 A 
ATOM     82  C   UNL A   1      47.431  27.520  24.302  1.00  0.00     0.134 A 
ATOM     83  F   UNL A   1      48.377  26.635  27.696  1.00  0.00    -0.206 F 
ATOM     84  C   UNL A   1      49.478  26.231  25.666  1.00  0.00     0.040 A 
ATOM     85  C   UNL A   1      48.498  26.963  23.592  1.00  0.00     0.040 A 
ATOM     86  F   UNL A   1      46.455  28.116  23.601  1.00  0.00    -0.206 F 
ATOM     87  C   UNL A   1      49.528  26.320  24.276  1.00  0.00     0.006 A 
ENDBRANCH  63  80
ENDBRANCH  37  38
ENDBRANCH  30  32
ENDBRANCH  29  30
ENDBRANCH  28  29
ENDBRANCH  27  28
ENDBRANCH  26  27
ENDBRANCH   1  26
TORSDOF 19
ENDMDL
MODEL 3
REMARK VINA RESULT:     -10.5      0.755      6.016
REMARK SMILES CCc1c(Cl)ccc2c1C=C(C(=O)OCCOCCOCCOC(=O)c1ccc(-c3c4nc(c(-c5c(F)cccc5F)c5ccc([nH]5)c(-c5c(F)cccc5F)c5nc(c(-c6c(F)cccc6F)c6ccc3[nH]6)C=C5)C=C4)cc1)[C@@H](C(F)(F)F)O2
REMARK SMILES IDX 19 1 18 2 17 3 16 4 15 5 14 6 12 7 13 8 11 9 3 10 4 11 9 12
REMARK SMILES IDX 5 13 6 14 8 15 10 16 7 17 85 18 80 19 2 20 1 21 81 22 82 23
REMARK SMILES IDX 83 24 84 25 20 26 21 27 22 28 23 29 24 30 25 31 26 32 27 33
REMARK SMILES IDX 79 34 28 35 78 36 29 37 30 38 31 39 72 40 32 41 77 42 71 43
REMARK SMILES IDX 73 44 33 45 76 46 70 47 69 48 34 50 60 51 43 52 59 53 44 54
REMARK SMILES IDX 47 55 58 56 74 57 45 58 46 59 57 61 75 62 48 63 35 64 36 65
REMARK SMILES IDX 41 66 37 67 38 68 40 69 42 70 39 71 61 72 62 73 67 74 63 75
REMARK SMILES IDX 64 76 66 77 68 78 65 79 49 80 50 81 55 82 51 83 52 84 54 85
REMARK SMILES IDX 56 86 53 87
REMARK H PARENT 73 49 47 60
REMARK Flexibility Score: inf
ROOT
ATOM      1  C   UNL A   1      40.976  20.106  26.123  1.00  0.00     0.188 C 
ENDROOT
BRANCH   1   2
ATOM      2  C   UNL A   1      40.180  21.290  26.711  1.00  0.00     0.188 C 
BRANCH   2   3
ATOM      3  O   UNL A   1      39.422  22.128  25.868  1.00  0.00    -0.376 OA
BRANCH   3   4
ATOM      4  C   UNL A   1      38.073  21.831  25.550  1.00  0.00     0.202 C 
BRANCH   4   5
ATOM      5  C   UNL A   1      37.143  22.766  24.765  1.00  0.00     0.261 C 
BRANCH   5   6
ATOM      6  O   UNL A   1      35.879  22.217  24.380  1.00  0.00    -0.460 OA
BRANCH   6   7
ATOM      7  C   UNL A   1      34.810  22.686  25.069  1.00  0.00     0.338 C 
ATOM      8  O   UNL A   1      34.569  22.514  26.252  1.00  0.00    -0.246 OA
BRANCH   7   9
ATOM      9  C   UNL A   1      34.034  23.598  24.203  1.00  0.00     0.087 C 
ATOM     10  C   UNL A   1      32.861  27.151  24.234  1.00  0.00    -0.019 A 
ATOM     11  C   UNL A   1      31.838  27.850  23.556  1.00  0.00     0.045 A 
ATOM     12  C   UNL A   1      33.100  25.801  23.835  1.00  0.00     0.022 A 
ATOM     13  Cl  UNL A   1      31.202  29.367  24.089  1.00  0.00    -0.084 Cl
ATOM     14  C   UNL A   1      31.208  27.305  22.431  1.00  0.00     0.024 A 
ATOM     15  C   UNL A   1      32.479  25.285  22.682  1.00  0.00     0.128 A 
ATOM     16  C   UNL A   1      33.906  24.864  24.621  1.00  0.00     0.027 C 
ATOM     17  C   UNL A   1      31.558  26.045  21.971  1.00  0.00     0.048 A 
ATOM     18  O   UNL A   1      32.703  24.042  22.163  1.00  0.00    -0.475 OA
ATOM     19  C   UNL A   1      33.449  23.068  22.929  1.00  0.00     0.316 C 
BRANCH  10  20
ATOM     20  C   UNL A   1      33.652  27.770  25.381  1.00  0.00     0.034 C 
ATOM     21  C   UNL A   1      33.013  27.766  26.771  1.00  0.00     0.009 C 
ENDBRANCH  10  20
BRANCH  19  22
ATOM     22  C   UNL A   1      32.553  21.843  23.164  1.00  0.00     0.430 C 
ATOM     23  F   UNL A   1      31.580  22.109  24.069  1.00  0.00    -0.167 F 
ATOM     24  F   UNL A   1      31.929  21.452  22.028  1.00  0.00    -0.167 F 
ATOM     25  F   UNL A   1      33.257  20.784  23.624  1.00  0.00    -0.167 F 
ENDBRANCH  19  22
ENDBRANCH   7   9
ENDBRANCH   6   7
ENDBRANCH   5   6
ENDBRANCH   4   5
ENDBRANCH   3   4
ENDBRANCH   2   3
ENDBRANCH   1   2
BRANCH   1  26
ATOM     26  O   UNL A   1      42.273  19.808  26.591  1.00  0.00    -0.376 OA
BRANCH  26  27
ATOM     27  C   UNL A   1      43.403  20.092  25.780  1.00  0.00     0.202 C 
BRANCH  27  28
ATOM     28  C   UNL A   1      43.787  21.508  25.318  1.00  0.00     0.261 C 
BRANCH  28  29
ATOM     29  O   UNL A   1      43.410  22.584  26.184  1.00  0.00    -0.460 OA
BRANCH  29  30
ATOM     30  C   UNL A   1      43.568  23.831  25.662  1.00  0.00     0.338 C 
ATOM     31  O   UNL A   1      43.936  24.126  24.548  1.00  0.00    -0.246 OA
BRANCH  30  32
ATOM     32  C   UNL A   1      43.006  24.807  26.620  1.00  0.00     0.060 A 
ATOM     33  C   UNL A   1      41.943  24.455  27.450  1.00  0.00     0.016 A 
ATOM     34  C   UNL A   1      43.557  26.095  26.672  1.00  0.00     0.016 A 
ATOM     35  C   UNL A   1      41.441  25.396  28.351  1.00  0.00     0.010 A 
ATOM     36  C   UNL A   1      43.043  27.038  27.562  1.00  0.00     0.010 A 
ATOM     37  C   UNL A   1      41.994  26.689  28.423  1.00  0.00    -0.014 A 
BRANCH  37  38
ATOM     38  C   UNL A   1      41.582  27.601  29.516  1.00  0.00     0.031 A 
ATOM     39  C   UNL A   1      40.431  28.551  29.375  1.00  0.00     0.074 A 
ATOM     40  C   UNL A   1      42.277  27.553  30.668  1.00  0.00     0.049 A 
ATOM     41  N   UNL A   1      39.890  29.325  30.283  1.00  0.00    -0.248 NA
ATOM     42  C   UNL A   1      39.815  28.656  28.046  1.00  0.00     0.031 C 
ATOM     43  C   UNL A   1      43.442  26.699  30.908  1.00  0.00     0.029 A 
ATOM     44  N   UNL A   1      42.100  28.221  31.852  1.00  0.00    -0.354 N 
ATOM     45  C   UNL A   1      38.850  29.988  29.649  1.00  0.00     0.074 A 
ATOM     46  C   UNL A   1      38.875  29.569  28.261  1.00  0.00     0.031 C 
ATOM     47  C   UNL A   1      43.857  26.872  32.172  1.00  0.00     0.029 A 
ATOM     48  C   UNL A   1      43.003  27.861  32.822  1.00  0.00     0.049 A 
ATOM     49  H   UNL A   1      41.394  28.892  31.993  1.00  0.00     0.167 HD
ATOM     50  C   UNL A   1      37.946  30.849  30.183  1.00  0.00     0.037 A 
ATOM     51  C   UNL A   1      43.126  28.278  34.094  1.00  0.00     0.037 A 
ATOM     52  C   UNL A   1      37.946  31.284  31.559  1.00  0.00     0.049 A 
ATOM     53  C   UNL A   1      42.146  29.277  34.640  1.00  0.00     0.074 A 
ATOM     54  C   UNL A   1      37.045  32.120  32.201  1.00  0.00     0.029 A 
ATOM     55  N   UNL A   1      38.903  30.940  32.503  1.00  0.00    -0.354 N 
ATOM     56  N   UNL A   1      41.104  29.818  34.060  1.00  0.00    -0.248 NA
ATOM     57  C   UNL A   1      42.359  29.716  36.026  1.00  0.00     0.031 C 
ATOM     58  C   UNL A   1      37.490  32.326  33.513  1.00  0.00     0.029 A 
ATOM     59  C   UNL A   1      38.637  31.574  33.707  1.00  0.00     0.049 A 
ATOM     60  H   UNL A   1      39.661  30.332  32.340  1.00  0.00     0.167 HD
ATOM     61  C   UNL A   1      40.524  30.644  35.014  1.00  0.00     0.074 A 
ATOM     62  C   UNL A   1      41.314  30.508  36.219  1.00  0.00     0.031 C 
ATOM     63  C   UNL A   1      39.436  31.446  34.900  1.00  0.00     0.037 A 
BRANCH  50  64
ATOM     64  C   UNL A   1      36.874  31.379  29.273  1.00  0.00     0.057 A 
ATOM     65  C   UNL A   1      36.917  32.697  28.800  1.00  0.00     0.134 A 
ATOM     66  C   UNL A   1      35.768  30.600  28.907  1.00  0.00     0.134 A 
ATOM     67  F   UNL A   1      37.938  33.505  29.122  1.00  0.00    -0.206 F 
ATOM     68  C   UNL A   1      35.901  33.218  27.995  1.00  0.00     0.040 A 
ATOM     69  C   UNL A   1      34.760  31.102  28.081  1.00  0.00     0.040 A 
ATOM     70  F   UNL A   1      35.664  29.329  29.325  1.00  0.00    -0.206 F 
ATOM     71  C   UNL A   1      34.823  32.417  27.627  1.00  0.00     0.006 A 
ENDBRANCH  50  64
BRANCH  51  72
ATOM     72  C   UNL A   1      44.211  27.740  34.953  1.00  0.00     0.057 A 
ATOM     73  C   UNL A   1      45.446  28.389  35.057  1.00  0.00     0.134 A 
ATOM     74  C   UNL A   1      44.023  26.582  35.716  1.00  0.00     0.134 A 
ATOM     75  F   UNL A   1      45.692  29.499  34.344  1.00  0.00    -0.206 F 
ATOM     76  C   UNL A   1      46.455  27.908  35.891  1.00  0.00     0.040 A 
ATOM     77  C   UNL A   1      45.012  26.106  36.577  1.00  0.00     0.040 A 
ATOM     78  F   UNL A   1      42.853  25.926  35.669  1.00  0.00    -0.206 F 
ATOM     79  C   UNL A   1      46.233  26.771  36.665  1.00  0.00     0.006 A 
ENDBRANCH  51  72
BRANCH  63  80
ATOM     80  C   UNL A   1      39.037  32.224  36.123  1.00  0.00     0.057 A 
ATOM     81  C   UNL A   1      39.514  33.524  36.334  1.00  0.00     0.134 A 
ATOM     82  C   UNL A   1      38.176  31.690  37.091  1.00  0.00     0.134 A 
ATOM     83  F   UNL A   1      40.347  34.097  35.451  1.00  0.00    -0.206 F 
ATOM     84  C   UNL A   1      39.146  34.265  37.458  1.00  0.00     0.040 A 
ATOM     85  C   UNL A   1      37.775  32.432  38.205  1.00  0.00     0.040 A 
ATOM     86  F   UNL A   1      37.667  30.457  36.944  1.00  0.00    -0.206 F 
ATOM     87  C   UNL A   1      38.265  33.723  38.392  1.00  0.00     0.006 A 
ENDBRANCH  63  80
ENDBRANCH  37  38
ENDBRANCH  30  32
ENDBRANCH  29  30
ENDBRANCH  28  29
ENDBRANCH  27  28
ENDBRANCH  26  27
ENDBRANCH   1  26
TORSDOF 19
ENDMDL
