MODEL 1
REMARK VINA RESULT:     -11.3      0.000      0.000
REMARK SMILES O=C(OCCOCCOCCOC(=O)[C@@H](Cc1ccccc1)N1C(=O)/C(=C/c2ccncc2)SC1=S)c1ccc(-c2c3nc(c(-c4c(F)cccc4F)c4ccc([nH]4)c(-c4c(F)cccc4F)c4nc(c(-c5c(F)cccc5F)c5ccc2[nH]5)C=C4)C=C3)cc1
REMARK SMILES IDX 7 1 6 2 5 3 4 4 3 5 2 6 1 7 37 8 38 9 90 10 39 11 89 12
REMARK SMILES IDX 40 13 41 14 42 15 83 16 43 17 88 18 82 19 84 20 44 21 87 22
REMARK SMILES IDX 81 23 80 24 45 26 71 27 54 28 70 29 55 30 58 31 69 32 85 33
REMARK SMILES IDX 56 34 57 35 68 37 86 38 59 39 46 40 47 41 52 42 48 43 49 44
REMARK SMILES IDX 51 45 53 46 50 47 72 48 73 49 78 50 74 51 75 52 77 53 79 54
REMARK SMILES IDX 76 55 60 56 61 57 66 58 62 59 63 60 65 61 67 62 64 63 8 64
REMARK SMILES IDX 9 65 10 66 11 67 12 68 13 69 14 70 15 71 16 72 17 73 18 74
REMARK SMILES IDX 22 75 19 76 21 77 20 78 23 79 24 80 35 81 25 82 26 83 34 84
REMARK SMILES IDX 36 85 27 86 28 87 29 88 33 89 30 90 32 91 31 92
REMARK H PARENT 84 25 58 36
REMARK Flexibility Score: inf
ROOT
ATOM      1  C   UNL A   1      34.313  22.245  26.100  1.00  0.00     0.188 C 
ENDROOT
BRANCH   1   2
ATOM      2  O   UNL A   1      35.403  23.055  25.631  1.00  0.00    -0.376 OA
BRANCH   2   3
ATOM      3  C   UNL A   1      35.790  22.752  24.285  1.00  0.00     0.202 C 
BRANCH   3   4
ATOM      4  C   UNL A   1      36.996  21.811  24.123  1.00  0.00     0.261 C 
BRANCH   4   5
ATOM      5  O   UNL A   1      37.535  21.331  25.364  1.00  0.00    -0.460 OA
BRANCH   5   6
ATOM      6  C   UNL A   1      38.778  21.466  25.886  1.00  0.00     0.338 C 
ATOM      7  O   UNL A   1      39.523  20.487  25.846  1.00  0.00    -0.246 OA
BRANCH   6   8
ATOM      8  C   UNL A   1      39.313  22.711  26.534  1.00  0.00     0.060 A 
ATOM      9  C   UNL A   1      38.822  24.002  26.356  1.00  0.00     0.016 A 
ATOM     10  C   UNL A   1      40.394  22.548  27.428  1.00  0.00     0.016 A 
ATOM     11  C   UNL A   1      39.413  25.096  26.986  1.00  0.00     0.010 A 
ATOM     12  C   UNL A   1      40.991  23.641  28.072  1.00  0.00     0.010 A 
ATOM     13  C   UNL A   1      40.515  24.926  27.825  1.00  0.00    -0.014 A 
BRANCH  13  14
ATOM     14  C   UNL A   1      41.239  26.151  28.219  1.00  0.00     0.031 A 
ATOM     15  C   UNL A   1      42.559  26.413  27.560  1.00  0.00     0.074 A 
ATOM     16  C   UNL A   1      40.655  27.078  28.997  1.00  0.00     0.049 A 
ATOM     17  N   UNL A   1      43.326  27.467  27.627  1.00  0.00    -0.248 NA
ATOM     18  C   UNL A   1      43.094  25.326  26.722  1.00  0.00     0.031 C 
ATOM     19  C   UNL A   1      39.383  26.919  29.692  1.00  0.00     0.029 A 
ATOM     20  N   UNL A   1      41.028  28.368  29.271  1.00  0.00    -0.354 N 
ATOM     21  C   UNL A   1      44.467  27.142  26.908  1.00  0.00     0.074 A 
ATOM     22  C   UNL A   1      44.267  25.820  26.359  1.00  0.00     0.031 C 
ATOM     23  C   UNL A   1      39.019  28.105  30.214  1.00  0.00     0.029 A 
ATOM     24  C   UNL A   1      40.051  29.089  29.916  1.00  0.00     0.049 A 
ATOM     25  H   UNL A   1      41.907  28.741  29.031  1.00  0.00     0.167 HD
ATOM     26  C   UNL A   1      45.604  27.863  26.777  1.00  0.00     0.037 A 
ATOM     27  C   UNL A   1      40.013  30.402  30.207  1.00  0.00     0.037 A 
ATOM     28  C   UNL A   1      45.789  29.167  27.355  1.00  0.00     0.049 A 
ATOM     29  C   UNL A   1      41.266  31.211  29.978  1.00  0.00     0.074 A 
ATOM     30  C   UNL A   1      46.924  29.957  27.372  1.00  0.00     0.029 A 
ATOM     31  N   UNL A   1      44.801  29.867  28.029  1.00  0.00    -0.354 N 
ATOM     32  N   UNL A   1      42.371  30.882  29.355  1.00  0.00    -0.248 NA
ATOM     33  C   UNL A   1      41.290  32.559  30.571  1.00  0.00     0.031 C 
ATOM     34  C   UNL A   1      46.633  31.116  28.100  1.00  0.00     0.029 A 
ATOM     35  C   UNL A   1      45.302  31.075  28.480  1.00  0.00     0.049 A 
ATOM     36  H   UNL A   1      43.878  29.552  28.167  1.00  0.00     0.167 HD
ATOM     37  C   UNL A   1      43.233  31.955  29.528  1.00  0.00     0.074 A 
ATOM     38  C   UNL A   1      42.496  32.982  30.230  1.00  0.00     0.031 C 
ATOM     39  C   UNL A   1      44.540  32.066  29.189  1.00  0.00     0.037 A 
BRANCH  26  40
ATOM     40  C   UNL A   1      46.758  27.177  26.111  1.00  0.00     0.057 A 
ATOM     41  C   UNL A   1      47.694  26.410  26.816  1.00  0.00     0.134 A 
ATOM     42  C   UNL A   1      46.971  27.358  24.737  1.00  0.00     0.134 A 
ATOM     43  F   UNL A   1      47.568  26.229  28.139  1.00  0.00    -0.206 F 
ATOM     44  C   UNL A   1      48.823  25.882  26.184  1.00  0.00     0.040 A 
ATOM     45  C   UNL A   1      48.077  26.811  24.091  1.00  0.00     0.040 A 
ATOM     46  F   UNL A   1      46.117  28.091  24.007  1.00  0.00    -0.206 F 
ATOM     47  C   UNL A   1      49.015  26.081  24.818  1.00  0.00     0.006 A 
ENDBRANCH  26  40
BRANCH  27  48
ATOM     48  C   UNL A   1      38.848  31.067  30.844  1.00  0.00     0.057 A 
ATOM     49  C   UNL A   1      38.646  30.962  32.230  1.00  0.00     0.134 A 
ATOM     50  C   UNL A   1      37.806  31.594  30.077  1.00  0.00     0.134 A 
ATOM     51  F   UNL A   1      39.611  30.464  33.017  1.00  0.00    -0.206 F 
ATOM     52  C   UNL A   1      37.410  31.252  32.809  1.00  0.00     0.040 A 
ATOM     53  C   UNL A   1      36.576  31.914  30.649  1.00  0.00     0.040 A 
ATOM     54  F   UNL A   1      37.945  31.746  28.753  1.00  0.00    -0.206 F 
ATOM     55  C   UNL A   1      36.361  31.696  32.009  1.00  0.00     0.006 A 
ENDBRANCH  27  48
BRANCH  39  56
ATOM     56  C   UNL A   1      45.232  33.332  29.594  1.00  0.00     0.057 A 
ATOM     57  C   UNL A   1      45.897  33.447  30.822  1.00  0.00     0.134 A 
ATOM     58  C   UNL A   1      45.248  34.440  28.740  1.00  0.00     0.134 A 
ATOM     59  F   UNL A   1      45.898  32.426  31.695  1.00  0.00    -0.206 F 
ATOM     60  C   UNL A   1      46.532  34.630  31.198  1.00  0.00     0.040 A 
ATOM     61  C   UNL A   1      45.904  35.619  29.092  1.00  0.00     0.040 A 
ATOM     62  F   UNL A   1      44.629  34.392  27.551  1.00  0.00    -0.206 F 
ATOM     63  C   UNL A   1      46.542  35.717  30.327  1.00  0.00     0.006 A 
ENDBRANCH  39  56
ENDBRANCH  13  14
ENDBRANCH   6   8
ENDBRANCH   5   6
ENDBRANCH   4   5
ENDBRANCH   3   4
ENDBRANCH   2   3
ENDBRANCH   1   2
BRANCH   1  64
ATOM     64  C   UNL A   1      32.971  22.976  26.072  1.00  0.00     0.188 C 
BRANCH  64  65
ATOM     65  O   UNL A   1      31.994  22.440  25.184  1.00  0.00    -0.376 OA
BRANCH  65  66
ATOM     66  C   UNL A   1      32.458  21.722  24.045  1.00  0.00     0.202 C 
BRANCH  66  67
ATOM     67  C   UNL A   1      32.498  22.504  22.737  1.00  0.00     0.261 C 
BRANCH  67  68
ATOM     68  O   UNL A   1      31.707  23.697  22.788  1.00  0.00    -0.462 OA
BRANCH  68  69
ATOM     69  C   UNL A   1      32.364  24.867  22.581  1.00  0.00     0.329 C 
ATOM     70  O   UNL A   1      33.102  25.110  21.632  1.00  0.00    -0.250 OA
BRANCH  69  71
ATOM     71  C   UNL A   1      32.155  25.846  23.729  1.00  0.00     0.206 C 
BRANCH  71  72
ATOM     72  C   UNL A   1      33.232  25.901  24.816  1.00  0.00     0.073 C 
BRANCH  72  73
ATOM     73  C   UNL A   1      33.120  26.917  25.924  1.00  0.00    -0.045 A 
ATOM     74  C   UNL A   1      31.966  26.975  26.712  1.00  0.00     0.004 A 
ATOM     75  C   UNL A   1      34.094  27.909  26.086  1.00  0.00     0.004 A 
ATOM     76  C   UNL A   1      31.752  28.045  27.582  1.00  0.00     0.000 A 
ATOM     77  C   UNL A   1      33.874  28.989  26.942  1.00  0.00     0.000 A 
ATOM     78  C   UNL A   1      32.695  29.064  27.677  1.00  0.00     0.000 A 
ENDBRANCH  72  73
ENDBRANCH  71  72
BRANCH  71  79
ATOM     79  N   UNL A   1      31.623  27.145  23.288  1.00  0.00    -0.278 N 
ATOM     80  C   UNL A   1      30.302  27.427  23.592  1.00  0.00     0.267 C 
ATOM     81  C   UNL A   1      32.352  28.179  22.729  1.00  0.00     0.149 C 
ATOM     82  O   UNL A   1      29.543  26.722  24.253  1.00  0.00    -0.268 OA
ATOM     83  C   UNL A   1      29.920  28.751  23.060  1.00  0.00     0.081 C 
ATOM     84  S   UNL A   1      31.278  29.504  22.328  1.00  0.00    -0.054 SA
ATOM     85  S   UNL A   1      33.978  28.306  22.387  1.00  0.00    -0.052 S 
ATOM     86  C   UNL A   1      28.679  29.248  23.135  1.00  0.00     0.029 C 
BRANCH  86  87
ATOM     87  C   UNL A   1      28.323  30.505  22.476  1.00  0.00    -0.021 A 
ATOM     88  C   UNL A   1      28.055  30.512  21.109  1.00  0.00     0.028 A 
ATOM     89  C   UNL A   1      28.408  31.715  23.155  1.00  0.00     0.028 A 
ATOM     90  C   UNL A   1      27.872  31.734  20.488  1.00  0.00     0.111 A 
ATOM     91  C   UNL A   1      28.185  32.886  22.453  1.00  0.00     0.111 A 
ATOM     92  N   UNL A   1      27.914  32.921  21.132  1.00  0.00    -0.265 NA
ENDBRANCH  86  87
ENDBRANCH  71  79
ENDBRANCH  69  71
ENDBRANCH  68  69
ENDBRANCH  67  68
ENDBRANCH  66  67
ENDBRANCH  65  66
ENDBRANCH  64  65
ENDBRANCH   1  64
TORSDOF 21
ENDMDL
MODEL 2
REMARK VINA RESULT:     -11.2      3.159      8.242
REMARK SMILES O=C(OCCOCCOCCOC(=O)[C@@H](Cc1ccccc1)N1C(=O)/C(=C/c2ccncc2)SC1=S)c1ccc(-c2c3nc(c(-c4c(F)cccc4F)c4ccc([nH]4)c(-c4c(F)cccc4F)c4nc(c(-c5c(F)cccc5F)c5ccc2[nH]5)C=C4)C=C3)cc1
REMARK SMILES IDX 7 1 6 2 5 3 4 4 3 5 2 6 1 7 37 8 38 9 90 10 39 11 89 12
REMARK SMILES IDX 40 13 41 14 42 15 83 16 43 17 88 18 82 19 84 20 44 21 87 22
REMARK SMILES IDX 81 23 80 24 45 26 71 27 54 28 70 29 55 30 58 31 69 32 85 33
REMARK SMILES IDX 56 34 57 35 68 37 86 38 59 39 46 40 47 41 52 42 48 43 49 44
REMARK SMILES IDX 51 45 53 46 50 47 72 48 73 49 78 50 74 51 75 52 77 53 79 54
REMARK SMILES IDX 76 55 60 56 61 57 66 58 62 59 63 60 65 61 67 62 64 63 8 64
REMARK SMILES IDX 9 65 10 66 11 67 12 68 13 69 14 70 15 71 16 72 17 73 18 74
REMARK SMILES IDX 22 75 19 76 21 77 20 78 23 79 24 80 35 81 25 82 26 83 34 84
REMARK SMILES IDX 36 85 27 86 28 87 29 88 33 89 30 90 32 91 31 92
REMARK H PARENT 84 25 58 36
REMARK Flexibility Score: inf
ROOT
ATOM      1  C   UNL A   1      35.025  34.119  29.551  1.00  0.00     0.188 C 
ENDROOT
BRANCH   1   2
ATOM      2  O   UNL A   1      34.273  34.830  30.546  1.00  0.00    -0.376 OA
BRANCH   2   3
ATOM      3  C   UNL A   1      34.731  34.583  31.881  1.00  0.00     0.202 C 
BRANCH   3   4
ATOM      4  C   UNL A   1      34.203  33.303  32.552  1.00  0.00     0.261 C 
BRANCH   4   5
ATOM      5  O   UNL A   1      35.043  32.154  32.364  1.00  0.00    -0.460 OA
BRANCH   5   6
ATOM      6  C   UNL A   1      36.254  31.862  32.896  1.00  0.00     0.338 C 
ATOM      7  O   UNL A   1      36.460  32.197  34.062  1.00  0.00    -0.246 OA
BRANCH   6   8
ATOM      8  C   UNL A   1      37.378  31.182  32.168  1.00  0.00     0.060 A 
ATOM      9  C   UNL A   1      38.345  30.360  32.740  1.00  0.00     0.016 A 
ATOM     10  C   UNL A   1      37.438  31.375  30.770  1.00  0.00     0.016 A 
ATOM     11  C   UNL A   1      39.366  29.800  31.975  1.00  0.00     0.010 A 
ATOM     12  C   UNL A   1      38.458  30.810  29.989  1.00  0.00     0.010 A 
ATOM     13  C   UNL A   1      39.444  30.042  30.603  1.00  0.00    -0.014 A 
BRANCH  13  14
ATOM     14  C   UNL A   1      40.698  29.646  29.933  1.00  0.00     0.031 A 
ATOM     15  C   UNL A   1      40.713  28.326  29.222  1.00  0.00     0.074 A 
ATOM     16  C   UNL A   1      41.719  30.510  29.811  1.00  0.00     0.049 A 
ATOM     17  N   UNL A   1      41.632  27.808  28.453  1.00  0.00    -0.248 NA
ATOM     18  C   UNL A   1      39.534  27.467  29.422  1.00  0.00     0.031 C 
ATOM     19  C   UNL A   1      41.809  31.810  30.467  1.00  0.00     0.029 A 
ATOM     20  N   UNL A   1      42.844  30.451  29.031  1.00  0.00    -0.354 N 
ATOM     21  C   UNL A   1      41.179  26.534  28.142  1.00  0.00     0.074 A 
ATOM     22  C   UNL A   1      39.877  26.379  28.750  1.00  0.00     0.031 C 
ATOM     23  C   UNL A   1      42.866  32.479  29.972  1.00  0.00     0.029 A 
ATOM     24  C   UNL A   1      43.540  31.637  28.992  1.00  0.00     0.049 A 
ATOM     25  H   UNL A   1      43.126  29.641  28.548  1.00  0.00     0.167 HD
ATOM     26  C   UNL A   1      41.828  25.559  27.463  1.00  0.00     0.037 A 
ATOM     27  C   UNL A   1      44.592  31.982  28.229  1.00  0.00     0.037 A 
ATOM     28  C   UNL A   1      43.136  25.728  26.889  1.00  0.00     0.049 A 
ATOM     29  C   UNL A   1      45.256  30.900  27.412  1.00  0.00     0.074 A 
ATOM     30  C   UNL A   1      43.936  24.793  26.260  1.00  0.00     0.029 A 
ATOM     31  N   UNL A   1      43.837  26.925  26.886  1.00  0.00    -0.354 N 
ATOM     32  N   UNL A   1      44.861  29.674  27.172  1.00  0.00    -0.248 NA
ATOM     33  C   UNL A   1      46.565  31.236  26.826  1.00  0.00     0.031 C 
ATOM     34  C   UNL A   1      45.143  25.414  25.919  1.00  0.00     0.029 A 
ATOM     35  C   UNL A   1      45.067  26.750  26.279  1.00  0.00     0.049 A 
ATOM     36  H   UNL A   1      43.508  27.774  27.261  1.00  0.00     0.167 HD
ATOM     37  C   UNL A   1      45.892  29.082  26.456  1.00  0.00     0.074 A 
ATOM     38  C   UNL A   1      46.886  30.105  26.218  1.00  0.00     0.031 C 
ATOM     39  C   UNL A   1      46.037  27.790  26.074  1.00  0.00     0.037 A 
BRANCH  26  40
ATOM     40  C   UNL A   1      41.184  24.207  27.452  1.00  0.00     0.057 A 
ATOM     41  C   UNL A   1      41.658  23.134  28.217  1.00  0.00     0.134 A 
ATOM     42  C   UNL A   1      40.103  23.963  26.593  1.00  0.00     0.134 A 
ATOM     43  F   UNL A   1      42.711  23.292  29.031  1.00  0.00    -0.206 F 
ATOM     44  C   UNL A   1      41.106  21.856  28.095  1.00  0.00     0.040 A 
ATOM     45  C   UNL A   1      39.525  22.700  26.485  1.00  0.00     0.040 A 
ATOM     46  F   UNL A   1      39.607  24.946  25.826  1.00  0.00    -0.206 F 
ATOM     47  C   UNL A   1      40.037  21.638  27.228  1.00  0.00     0.006 A 
ENDBRANCH  26  40
BRANCH  27  48
ATOM     48  C   UNL A   1      45.201  33.337  28.236  1.00  0.00     0.057 A 
ATOM     49  C   UNL A   1      46.147  33.680  29.215  1.00  0.00     0.134 A 
ATOM     50  C   UNL A   1      44.684  34.367  27.447  1.00  0.00     0.134 A 
ATOM     51  F   UNL A   1      46.679  32.734  30.002  1.00  0.00    -0.206 F 
ATOM     52  C   UNL A   1      46.469  35.012  29.480  1.00  0.00     0.040 A 
ATOM     53  C   UNL A   1      45.020  35.699  27.683  1.00  0.00     0.040 A 
ATOM     54  F   UNL A   1      43.798  34.102  26.477  1.00  0.00    -0.206 F 
ATOM     55  C   UNL A   1      45.875  36.027  28.734  1.00  0.00     0.006 A 
ENDBRANCH  27  48
BRANCH  39  56
ATOM     56  C   UNL A   1      47.318  27.435  25.383  1.00  0.00     0.057 A 
ATOM     57  C   UNL A   1      48.393  26.862  26.075  1.00  0.00     0.134 A 
ATOM     58  C   UNL A   1      47.471  27.654  24.010  1.00  0.00     0.134 A 
ATOM     59  F   UNL A   1      48.315  26.649  27.399  1.00  0.00    -0.206 F 
ATOM     60  C   UNL A   1      49.587  26.541  25.429  1.00  0.00     0.040 A 
ATOM     61  C   UNL A   1      48.649  27.311  23.347  1.00  0.00     0.040 A 
ATOM     62  F   UNL A   1      46.478  28.200  23.292  1.00  0.00    -0.206 F 
ATOM     63  C   UNL A   1      49.712  26.759  24.059  1.00  0.00     0.006 A 
ENDBRANCH  39  56
ENDBRANCH  13  14
ENDBRANCH   6   8
ENDBRANCH   5   6
ENDBRANCH   4   5
ENDBRANCH   3   4
ENDBRANCH   2   3
ENDBRANCH   1   2
BRANCH   1  64
ATOM     64  C   UNL A   1      34.165  33.169  28.719  1.00  0.00     0.188 C 
BRANCH  64  65
ATOM     65  O   UNL A   1      34.576  31.804  28.718  1.00  0.00    -0.376 OA
BRANCH  65  66
ATOM     66  C   UNL A   1      34.195  30.999  27.608  1.00  0.00     0.202 C 
BRANCH  66  67
ATOM     67  C   UNL A   1      32.717  31.032  27.238  1.00  0.00     0.261 C 
BRANCH  67  68
ATOM     68  O   UNL A   1      32.392  30.104  26.196  1.00  0.00    -0.462 OA
BRANCH  68  69
ATOM     69  C   UNL A   1      31.748  28.970  26.575  1.00  0.00     0.329 C 
ATOM     70  O   UNL A   1      31.539  28.624  27.733  1.00  0.00    -0.250 OA
BRANCH  69  71
ATOM     71  C   UNL A   1      31.378  28.100  25.380  1.00  0.00     0.206 C 
BRANCH  71  72
ATOM     72  C   UNL A   1      31.312  28.777  24.008  1.00  0.00     0.073 C 
BRANCH  72  73
ATOM     73  C   UNL A   1      30.027  29.423  23.558  1.00  0.00    -0.045 A 
ATOM     74  C   UNL A   1      29.758  30.756  23.883  1.00  0.00     0.004 A 
ATOM     75  C   UNL A   1      29.022  28.666  22.944  1.00  0.00     0.004 A 
ATOM     76  C   UNL A   1      28.489  31.297  23.675  1.00  0.00     0.000 A 
ATOM     77  C   UNL A   1      27.747  29.199  22.751  1.00  0.00     0.000 A 
ATOM     78  C   UNL A   1      27.477  30.510  23.132  1.00  0.00     0.000 A 
ENDBRANCH  72  73
ENDBRANCH  71  72
BRANCH  71  79
ATOM     79  N   UNL A   1      32.018  26.777  25.412  1.00  0.00    -0.278 N 
ATOM     80  C   UNL A   1      33.398  26.735  25.306  1.00  0.00     0.267 C 
ATOM     81  C   UNL A   1      31.393  25.574  25.690  1.00  0.00     0.149 C 
ATOM     82  O   UNL A   1      34.151  27.703  25.250  1.00  0.00    -0.268 OA
ATOM     83  C   UNL A   1      33.876  25.337  25.330  1.00  0.00     0.081 C 
ATOM     84  S   UNL A   1      32.554  24.267  25.569  1.00  0.00    -0.054 SA
ATOM     85  S   UNL A   1      29.805  25.231  26.061  1.00  0.00    -0.052 S 
ATOM     86  C   UNL A   1      35.159  24.991  25.162  1.00  0.00     0.029 C 
BRANCH  86  87
ATOM     87  C   UNL A   1      35.561  23.588  25.063  1.00  0.00    -0.021 A 
ATOM     88  C   UNL A   1      35.210  22.700  26.077  1.00  0.00     0.028 A 
ATOM     89  C   UNL A   1      36.425  23.162  24.060  1.00  0.00     0.028 A 
ATOM     90  C   UNL A   1      35.732  21.420  26.030  1.00  0.00     0.111 A 
ATOM     91  C   UNL A   1      36.876  21.855  24.084  1.00  0.00     0.111 A 
ATOM     92  N   UNL A   1      36.543  20.972  25.048  1.00  0.00    -0.265 NA
ENDBRANCH  86  87
ENDBRANCH  71  79
ENDBRANCH  69  71
ENDBRANCH  68  69
ENDBRANCH  67  68
ENDBRANCH  66  67
ENDBRANCH  65  66
ENDBRANCH  64  65
ENDBRANCH   1  64
TORSDOF 21
ENDMDL
MODEL 3
REMARK VINA RESULT:     -11.1      3.020      8.417
REMARK SMILES O=C(OCCOCCOCCOC(=O)[C@@H](Cc1ccccc1)N1C(=O)/C(=C/c2ccncc2)SC1=S)c1ccc(-c2c3nc(c(-c4c(F)cccc4F)c4ccc([nH]4)c(-c4c(F)cccc4F)c4nc(c(-c5c(F)cccc5F)c5ccc2[nH]5)C=C4)C=C3)cc1
REMARK SMILES IDX 7 1 6 2 5 3 4 4 3 5 2 6 1 7 37 8 38 9 90 10 39 11 89 12
REMARK SMILES IDX 40 13 41 14 42 15 83 16 43 17 88 18 82 19 84 20 44 21 87 22
REMARK SMILES IDX 81 23 80 24 45 26 71 27 54 28 70 29 55 30 58 31 69 32 85 33
REMARK SMILES IDX 56 34 57 35 68 37 86 38 59 39 46 40 47 41 52 42 48 43 49 44
REMARK SMILES IDX 51 45 53 46 50 47 72 48 73 49 78 50 74 51 75 52 77 53 79 54
REMARK SMILES IDX 76 55 60 56 61 57 66 58 62 59 63 60 65 61 67 62 64 63 8 64
REMARK SMILES IDX 9 65 10 66 11 67 12 68 13 69 14 70 15 71 16 72 17 73 18 74
REMARK SMILES IDX 22 75 19 76 21 77 20 78 23 79 24 80 35 81 25 82 26 83 34 84
REMARK SMILES IDX 36 85 27 86 28 87 29 88 33 89 30 90 32 91 31 92
REMARK H PARENT 84 25 58 36
REMARK Flexibility Score: inf
ROOT
ATOM      1  C   UNL A   1      34.612  34.090  29.685  1.00  0.00     0.188 C 
ENDROOT
BRANCH   1   2
ATOM      2  O   UNL A   1      33.653  34.348  30.722  1.00  0.00    -0.376 OA
BRANCH   2   3
ATOM      3  C   UNL A   1      34.256  34.755  31.956  1.00  0.00     0.202 C 
BRANCH   3   4
ATOM      4  C   UNL A   1      34.221  33.726  33.098  1.00  0.00     0.261 C 
BRANCH   4   5
ATOM      5  O   UNL A   1      34.951  32.520  32.823  1.00  0.00    -0.460 OA
BRANCH   5   6
ATOM      6  C   UNL A   1      36.187  32.137  33.225  1.00  0.00     0.338 C 
ATOM      7  O   UNL A   1      36.522  32.412  34.377  1.00  0.00    -0.246 OA
BRANCH   6   8
ATOM      8  C   UNL A   1      37.193  31.425  32.367  1.00  0.00     0.060 A 
ATOM      9  C   UNL A   1      38.206  30.584  32.821  1.00  0.00     0.016 A 
ATOM     10  C   UNL A   1      37.081  31.607  30.971  1.00  0.00     0.016 A 
ATOM     11  C   UNL A   1      39.108  29.993  31.939  1.00  0.00     0.010 A 
ATOM     12  C   UNL A   1      37.980  31.011  30.074  1.00  0.00     0.010 A 
ATOM     13  C   UNL A   1      39.018  30.224  30.566  1.00  0.00    -0.014 A 
BRANCH  13  14
ATOM     14  C   UNL A   1      40.168  29.792  29.747  1.00  0.00     0.031 A 
ATOM     15  C   UNL A   1      41.365  30.694  29.710  1.00  0.00     0.074 A 
ATOM     16  C   UNL A   1      40.209  28.562  29.208  1.00  0.00     0.049 A 
ATOM     17  N   UNL A   1      42.541  30.491  29.182  1.00  0.00    -0.248 NA
ATOM     18  C   UNL A   1      41.203  32.014  30.342  1.00  0.00     0.031 C 
ATOM     19  C   UNL A   1      39.102  27.614  29.180  1.00  0.00     0.029 A 
ATOM     20  N   UNL A   1      41.253  27.875  28.645  1.00  0.00    -0.354 N 
ATOM     21  C   UNL A   1      43.232  31.683  29.348  1.00  0.00     0.074 A 
ATOM     22  C   UNL A   1      42.370  32.582  30.081  1.00  0.00     0.031 C 
ATOM     23  C   UNL A   1      39.554  26.426  28.739  1.00  0.00     0.029 A 
ATOM     24  C   UNL A   1      40.972  26.547  28.425  1.00  0.00     0.049 A 
ATOM     25  H   UNL A   1      42.117  28.291  28.420  1.00  0.00     0.167 HD
ATOM     26  C   UNL A   1      44.454  32.013  28.870  1.00  0.00     0.037 A 
ATOM     27  C   UNL A   1      41.791  25.558  28.027  1.00  0.00     0.037 A 
ATOM     28  C   UNL A   1      45.284  31.109  28.120  1.00  0.00     0.049 A 
ATOM     29  C   UNL A   1      43.181  25.932  27.574  1.00  0.00     0.074 A 
ATOM     30  C   UNL A   1      46.497  31.351  27.503  1.00  0.00     0.029 A 
ATOM     31  N   UNL A   1      44.969  29.780  27.880  1.00  0.00    -0.354 N 
ATOM     32  N   UNL A   1      43.811  27.077  27.671  1.00  0.00    -0.248 NA
ATOM     33  C   UNL A   1      43.944  24.883  26.876  1.00  0.00     0.031 C 
ATOM     34  C   UNL A   1      46.893  30.179  26.849  1.00  0.00     0.029 A 
ATOM     35  C   UNL A   1      45.958  29.191  27.113  1.00  0.00     0.049 A 
ATOM     36  H   UNL A   1      44.161  29.322  28.208  1.00  0.00     0.167 HD
ATOM     37  C   UNL A   1      45.015  26.900  27.004  1.00  0.00     0.074 A 
ATOM     38  C   UNL A   1      45.071  25.515  26.589  1.00  0.00     0.031 C 
ATOM     39  C   UNL A   1      45.971  27.813  26.707  1.00  0.00     0.037 A 
BRANCH  26  40
ATOM     40  C   UNL A   1      44.870  33.444  29.025  1.00  0.00     0.057 A 
ATOM     41  C   UNL A   1      44.537  34.436  28.096  1.00  0.00     0.134 A 
ATOM     42  C   UNL A   1      45.690  33.812  30.101  1.00  0.00     0.134 A 
ATOM     43  F   UNL A   1      43.786  34.141  27.024  1.00  0.00    -0.206 F 
ATOM     44  C   UNL A   1      45.039  35.735  28.209  1.00  0.00     0.040 A 
ATOM     45  C   UNL A   1      46.172  35.112  30.241  1.00  0.00     0.040 A 
ATOM     46  F   UNL A   1      46.054  32.907  31.022  1.00  0.00    -0.206 F 
ATOM     47  C   UNL A   1      45.857  36.075  29.285  1.00  0.00     0.006 A 
ENDBRANCH  26  40
BRANCH  27  48
ATOM     48  C   UNL A   1      41.365  24.140  27.904  1.00  0.00     0.057 A 
ATOM     49  C   UNL A   1      41.993  23.145  28.671  1.00  0.00     0.134 A 
ATOM     50  C   UNL A   1      40.524  23.724  26.870  1.00  0.00     0.134 A 
ATOM     51  F   UNL A   1      42.812  23.484  29.678  1.00  0.00    -0.206 F 
ATOM     52  C   UNL A   1      41.885  21.794  28.339  1.00  0.00     0.040 A 
ATOM     53  C   UNL A   1      40.385  22.375  26.546  1.00  0.00     0.040 A 
ATOM     54  F   UNL A   1      39.874  24.623  26.118  1.00  0.00    -0.206 F 
ATOM     55  C   UNL A   1      41.106  21.411  27.250  1.00  0.00     0.006 A 
ENDBRANCH  27  48
BRANCH  39  56
ATOM     56  C   UNL A   1      47.129  27.329  25.888  1.00  0.00     0.057 A 
ATOM     57  C   UNL A   1      47.145  27.451  24.492  1.00  0.00     0.134 A 
ATOM     58  C   UNL A   1      48.244  26.750  26.503  1.00  0.00     0.134 A 
ATOM     59  F   UNL A   1      46.094  27.977  23.842  1.00  0.00    -0.206 F 
ATOM     60  C   UNL A   1      48.221  26.991  23.734  1.00  0.00     0.040 A 
ATOM     61  C   UNL A   1      49.338  26.312  25.758  1.00  0.00     0.040 A 
ATOM     62  F   UNL A   1      48.287  26.605  27.836  1.00  0.00    -0.206 F 
ATOM     63  C   UNL A   1      49.325  26.427  24.369  1.00  0.00     0.006 A 
ENDBRANCH  39  56
ENDBRANCH  13  14
ENDBRANCH   6   8
ENDBRANCH   5   6
ENDBRANCH   4   5
ENDBRANCH   3   4
ENDBRANCH   2   3
ENDBRANCH   1   2
BRANCH   1  64
ATOM     64  C   UNL A   1      34.074  33.168  28.590  1.00  0.00     0.188 C 
BRANCH  64  65
ATOM     65  O   UNL A   1      34.575  31.834  28.606  1.00  0.00    -0.376 OA
BRANCH  65  66
ATOM     66  C   UNL A   1      34.295  31.009  27.480  1.00  0.00     0.202 C 
BRANCH  66  67
ATOM     67  C   UNL A   1      32.820  30.801  27.158  1.00  0.00     0.261 C 
BRANCH  67  68
ATOM     68  O   UNL A   1      32.619  29.874  26.084  1.00  0.00    -0.462 OA
BRANCH  68  69
ATOM     69  C   UNL A   1      31.769  28.843  26.327  1.00  0.00     0.329 C 
ATOM     70  O   UNL A   1      31.489  28.398  27.435  1.00  0.00    -0.250 OA
BRANCH  69  71
ATOM     71  C   UNL A   1      31.252  28.218  25.038  1.00  0.00     0.206 C 
BRANCH  71  72
ATOM     72  C   UNL A   1      31.096  29.135  23.821  1.00  0.00     0.073 C 
BRANCH  72  73
ATOM     73  C   UNL A   1      29.772  29.803  23.557  1.00  0.00    -0.045 A 
ATOM     74  C   UNL A   1      28.819  29.181  22.743  1.00  0.00     0.004 A 
ATOM     75  C   UNL A   1      29.531  31.112  23.990  1.00  0.00     0.004 A 
ATOM     76  C   UNL A   1      27.693  29.877  22.305  1.00  0.00     0.000 A 
ATOM     77  C   UNL A   1      28.414  31.817  23.540  1.00  0.00     0.000 A 
ATOM     78  C   UNL A   1      27.504  31.204  22.684  1.00  0.00     0.000 A 
ENDBRANCH  72  73
ENDBRANCH  71  72
BRANCH  71  79
ATOM     79  N   UNL A   1      31.825  26.890  24.771  1.00  0.00    -0.278 N 
ATOM     80  C   UNL A   1      31.113  25.789  25.217  1.00  0.00     0.267 C 
ATOM     81  C   UNL A   1      32.932  26.622  23.985  1.00  0.00     0.149 C 
ATOM     82  O   UNL A   1      30.013  25.809  25.762  1.00  0.00    -0.268 OA
ATOM     83  C   UNL A   1      31.835  24.542  24.892  1.00  0.00     0.081 C 
ATOM     84  S   UNL A   1      33.258  24.900  24.001  1.00  0.00    -0.054 SA
ATOM     85  S   UNL A   1      33.931  27.640  23.125  1.00  0.00    -0.052 S 
ATOM     86  C   UNL A   1      31.421  23.327  25.277  1.00  0.00     0.029 C 
BRANCH  86  87
ATOM     87  C   UNL A   1      32.240  22.137  25.044  1.00  0.00    -0.021 A 
ATOM     88  C   UNL A   1      31.954  21.309  23.960  1.00  0.00     0.028 A 
ATOM     89  C   UNL A   1      33.188  21.730  25.975  1.00  0.00     0.028 A 
ATOM     90  C   UNL A   1      32.645  20.115  23.854  1.00  0.00     0.111 A 
ATOM     91  C   UNL A   1      33.845  20.530  25.770  1.00  0.00     0.111 A 
ATOM     92  N   UNL A   1      33.597  19.715  24.725  1.00  0.00    -0.265 NA
ENDBRANCH  86  87
ENDBRANCH  71  79
ENDBRANCH  69  71
ENDBRANCH  68  69
ENDBRANCH  67  68
ENDBRANCH  66  67
ENDBRANCH  65  66
ENDBRANCH  64  65
ENDBRANCH   1  64
TORSDOF 21
ENDMDL
