MODEL 1
REMARK VINA RESULT:     -10.7      0.000      0.000
REMARK SMILES O=C(OCCOCCOCCOC(=O)[C@H]1CCC(=O)N(C2CCCCC2)[C@H]1c1ccccc1)c1ccc(-c2c3nc(c(-c4c(F)cccc4F)c4ccc([nH]4)c(-c4c(F)cccc4F)c4nc(c(-c5c(F)cccc5F)c5ccc2[nH]5)C=C4)C=C3)cc1
REMARK SMILES IDX 7 1 6 2 5 3 4 4 3 5 2 6 1 7 34 8 35 9 87 10 36 11 86 12
REMARK SMILES IDX 37 13 38 14 39 15 80 16 40 17 85 18 79 19 81 20 41 21 84 22
REMARK SMILES IDX 78 23 77 24 42 26 68 27 51 28 67 29 52 30 55 31 66 32 82 33
REMARK SMILES IDX 53 34 54 35 65 37 83 38 56 39 43 40 44 41 49 42 45 43 46 44
REMARK SMILES IDX 48 45 50 46 47 47 69 48 70 49 75 50 71 51 72 52 74 53 76 54
REMARK SMILES IDX 73 55 57 56 58 57 63 58 59 59 60 60 62 61 64 62 61 63 8 64
REMARK SMILES IDX 9 65 10 66 11 67 12 68 13 69 14 70 15 71 16 72 27 73 17 74
REMARK SMILES IDX 20 75 18 76 19 77 28 78 29 79 33 80 30 81 32 82 31 83 21 84
REMARK SMILES IDX 22 85 26 86 23 87 25 88 24 89
REMARK H PARENT 81 25 55 36
REMARK Flexibility Score: inf
ROOT
ATOM      1  C   UNL A   1      34.409  32.930  29.153  1.00  0.00     0.188 C 
ENDROOT
BRANCH   1   2
ATOM      2  O   UNL A   1      34.425  34.351  29.139  1.00  0.00    -0.376 OA
BRANCH   2   3
ATOM      3  C   UNL A   1      33.154  34.990  29.083  1.00  0.00     0.202 C 
BRANCH   3   4
ATOM      4  C   UNL A   1      33.101  36.423  29.633  1.00  0.00     0.261 C 
BRANCH   4   5
ATOM      5  O   UNL A   1      32.567  36.557  30.971  1.00  0.00    -0.460 OA
BRANCH   5   6
ATOM      6  C   UNL A   1      32.522  35.669  31.996  1.00  0.00     0.338 C 
ATOM      7  O   UNL A   1      31.439  35.343  32.473  1.00  0.00    -0.246 OA
BRANCH   6   8
ATOM      8  C   UNL A   1      33.748  35.028  32.534  1.00  0.00     0.060 A 
ATOM      9  C   UNL A   1      34.965  35.684  32.592  1.00  0.00     0.016 A 
ATOM     10  C   UNL A   1      33.668  33.742  33.085  1.00  0.00     0.016 A 
ATOM     11  C   UNL A   1      36.127  35.026  32.931  1.00  0.00     0.010 A 
ATOM     12  C   UNL A   1      34.820  33.111  33.577  1.00  0.00     0.010 A 
ATOM     13  C   UNL A   1      36.068  33.733  33.437  1.00  0.00    -0.014 A 
BRANCH  13  14
ATOM     14  C   UNL A   1      37.354  33.055  33.701  1.00  0.00     0.031 A 
ATOM     15  C   UNL A   1      38.018  33.271  35.026  1.00  0.00     0.074 A 
ATOM     16  C   UNL A   1      37.798  32.114  32.845  1.00  0.00     0.049 A 
ATOM     17  N   UNL A   1      39.136  32.772  35.477  1.00  0.00    -0.248 NA
ATOM     18  C   UNL A   1      37.323  34.153  35.982  1.00  0.00     0.031 C 
ATOM     19  C   UNL A   1      37.137  31.742  31.590  1.00  0.00     0.029 A 
ATOM     20  N   UNL A   1      38.868  31.263  32.912  1.00  0.00    -0.354 N 
ATOM     21  C   UNL A   1      39.287  33.292  36.756  1.00  0.00     0.074 A 
ATOM     22  C   UNL A   1      38.164  34.164  37.004  1.00  0.00     0.031 C 
ATOM     23  C   UNL A   1      37.787  30.710  31.036  1.00  0.00     0.029 A 
ATOM     24  C   UNL A   1      38.966  30.420  31.831  1.00  0.00     0.049 A 
ATOM     25  H   UNL A   1      39.506  31.255  33.662  1.00  0.00     0.167 HD
ATOM     26  C   UNL A   1      40.280  33.050  37.641  1.00  0.00     0.037 A 
ATOM     27  C   UNL A   1      39.930  29.544  31.492  1.00  0.00     0.037 A 
ATOM     28  C   UNL A   1      41.385  32.175  37.364  1.00  0.00     0.049 A 
ATOM     29  C   UNL A   1      41.086  29.395  32.437  1.00  0.00     0.074 A 
ATOM     30  C   UNL A   1      42.498  31.912  38.141  1.00  0.00     0.029 A 
ATOM     31  N   UNL A   1      41.510  31.413  36.209  1.00  0.00    -0.354 N 
ATOM     32  N   UNL A   1      41.265  29.955  33.611  1.00  0.00    -0.248 NA
ATOM     33  C   UNL A   1      42.174  28.508  32.016  1.00  0.00     0.031 C 
ATOM     34  C   UNL A   1      43.318  31.025  37.434  1.00  0.00     0.029 A 
ATOM     35  C   UNL A   1      42.690  30.691  36.244  1.00  0.00     0.049 A 
ATOM     36  H   UNL A   1      40.856  31.391  35.474  1.00  0.00     0.167 HD
ATOM     37  C   UNL A   1      42.480  29.477  34.076  1.00  0.00     0.074 A 
ATOM     38  C   UNL A   1      42.972  28.554  33.071  1.00  0.00     0.031 C 
ATOM     39  C   UNL A   1      43.139  29.779  35.222  1.00  0.00     0.037 A 
BRANCH  26  40
ATOM     40  C   UNL A   1      40.228  33.792  38.942  1.00  0.00     0.057 A 
ATOM     41  C   UNL A   1      39.470  33.340  40.031  1.00  0.00     0.134 A 
ATOM     42  C   UNL A   1      40.931  34.994  39.100  1.00  0.00     0.134 A 
ATOM     43  F   UNL A   1      38.746  32.216  39.935  1.00  0.00    -0.206 F 
ATOM     44  C   UNL A   1      39.396  34.067  41.222  1.00  0.00     0.040 A 
ATOM     45  C   UNL A   1      40.885  35.716  40.293  1.00  0.00     0.040 A 
ATOM     46  F   UNL A   1      41.665  35.489  38.093  1.00  0.00    -0.206 F 
ATOM     47  C   UNL A   1      40.111  35.257  41.356  1.00  0.00     0.006 A 
ENDBRANCH  26  40
BRANCH  27  48
ATOM     48  C   UNL A   1      39.889  28.827  30.189  1.00  0.00     0.057 A 
ATOM     49  C   UNL A   1      40.471  29.358  29.032  1.00  0.00     0.134 A 
ATOM     50  C   UNL A   1      39.220  27.600  30.059  1.00  0.00     0.134 A 
ATOM     51  F   UNL A   1      41.118  30.531  29.079  1.00  0.00    -0.206 F 
ATOM     52  C   UNL A   1      40.361  28.717  27.794  1.00  0.00     0.040 A 
ATOM     53  C   UNL A   1      39.132  26.932  28.837  1.00  0.00     0.040 A 
ATOM     54  F   UNL A   1      38.646  27.025  31.126  1.00  0.00    -0.206 F 
ATOM     55  C   UNL A   1      39.690  27.499  27.695  1.00  0.00     0.006 A 
ENDBRANCH  27  48
BRANCH  39  56
ATOM     56  C   UNL A   1      44.439  29.069  35.445  1.00  0.00     0.057 A 
ATOM     57  C   UNL A   1      45.656  29.600  35.003  1.00  0.00     0.134 A 
ATOM     58  C   UNL A   1      44.467  27.842  36.121  1.00  0.00     0.134 A 
ATOM     59  F   UNL A   1      45.689  30.762  34.335  1.00  0.00    -0.206 F 
ATOM     60  C   UNL A   1      46.856  28.916  35.193  1.00  0.00     0.040 A 
ATOM     61  C   UNL A   1      45.665  27.166  36.346  1.00  0.00     0.040 A 
ATOM     62  F   UNL A   1      43.333  27.288  36.576  1.00  0.00    -0.206 F 
ATOM     63  C   UNL A   1      46.862  27.698  35.871  1.00  0.00     0.006 A 
ENDBRANCH  39  56
ENDBRANCH  13  14
ENDBRANCH   6   8
ENDBRANCH   5   6
ENDBRANCH   4   5
ENDBRANCH   3   4
ENDBRANCH   2   3
ENDBRANCH   1   2
BRANCH   1  64
ATOM     64  C   UNL A   1      35.415  32.298  28.181  1.00  0.00     0.188 C 
BRANCH  64  65
ATOM     65  O   UNL A   1      35.264  30.918  27.879  1.00  0.00    -0.376 OA
BRANCH  65  66
ATOM     66  C   UNL A   1      34.077  30.466  27.222  1.00  0.00     0.202 C 
BRANCH  66  67
ATOM     67  C   UNL A   1      33.958  28.988  26.791  1.00  0.00     0.261 C 
BRANCH  67  68
ATOM     68  O   UNL A   1      32.959  28.047  27.280  1.00  0.00    -0.463 OA
BRANCH  68  69
ATOM     69  C   UNL A   1      31.979  27.573  26.485  1.00  0.00     0.311 C 
ATOM     70  O   UNL A   1      31.198  28.253  25.849  1.00  0.00    -0.252 OA
BRANCH  69  71
ATOM     71  C   UNL A   1      31.828  26.070  26.433  1.00  0.00     0.127 C 
ATOM     72  C   UNL A   1      30.510  25.440  26.042  1.00  0.00     0.028 C 
ATOM     73  C   UNL A   1      32.951  25.450  25.573  1.00  0.00     0.130 C 
ATOM     74  C   UNL A   1      30.589  23.960  26.408  1.00  0.00     0.101 C 
ATOM     75  N   UNL A   1      33.022  23.988  25.792  1.00  0.00    -0.332 N 
ATOM     76  C   UNL A   1      31.893  23.231  26.085  1.00  0.00     0.223 C 
ATOM     77  O   UNL A   1      31.916  22.002  26.177  1.00  0.00    -0.275 OA
BRANCH  73  78
ATOM     78  C   UNL A   1      32.892  25.808  24.079  1.00  0.00    -0.025 A 
ATOM     79  C   UNL A   1      32.087  25.122  23.156  1.00  0.00     0.006 A 
ATOM     80  C   UNL A   1      33.687  26.854  23.584  1.00  0.00     0.006 A 
ATOM     81  C   UNL A   1      32.094  25.454  21.797  1.00  0.00     0.000 A 
ATOM     82  C   UNL A   1      33.644  27.234  22.239  1.00  0.00     0.000 A 
ATOM     83  C   UNL A   1      32.858  26.523  21.341  1.00  0.00     0.000 A 
ENDBRANCH  73  78
BRANCH  75  84
ATOM     84  C   UNL A   1      34.355  23.348  25.634  1.00  0.00     0.085 C 
ATOM     85  C   UNL A   1      34.443  22.525  24.337  1.00  0.00     0.025 C 
ATOM     86  C   UNL A   1      35.539  24.322  25.777  1.00  0.00     0.025 C 
ATOM     87  C   UNL A   1      35.805  21.849  24.181  1.00  0.00     0.002 C 
ATOM     88  C   UNL A   1      36.882  23.613  25.613  1.00  0.00     0.002 C 
ATOM     89  C   UNL A   1      36.950  22.850  24.296  1.00  0.00     0.000 C 
ENDBRANCH  75  84
ENDBRANCH  69  71
ENDBRANCH  68  69
ENDBRANCH  67  68
ENDBRANCH  66  67
ENDBRANCH  65  66
ENDBRANCH  64  65
ENDBRANCH   1  64
TORSDOF 19
ENDMDL
MODEL 2
REMARK VINA RESULT:     -10.6      4.430      6.979
REMARK SMILES O=C(OCCOCCOCCOC(=O)[C@H]1CCC(=O)N(C2CCCCC2)[C@H]1c1ccccc1)c1ccc(-c2c3nc(c(-c4c(F)cccc4F)c4ccc([nH]4)c(-c4c(F)cccc4F)c4nc(c(-c5c(F)cccc5F)c5ccc2[nH]5)C=C4)C=C3)cc1
REMARK SMILES IDX 7 1 6 2 5 3 4 4 3 5 2 6 1 7 34 8 35 9 87 10 36 11 86 12
REMARK SMILES IDX 37 13 38 14 39 15 80 16 40 17 85 18 79 19 81 20 41 21 84 22
REMARK SMILES IDX 78 23 77 24 42 26 68 27 51 28 67 29 52 30 55 31 66 32 82 33
REMARK SMILES IDX 53 34 54 35 65 37 83 38 56 39 43 40 44 41 49 42 45 43 46 44
REMARK SMILES IDX 48 45 50 46 47 47 69 48 70 49 75 50 71 51 72 52 74 53 76 54
REMARK SMILES IDX 73 55 57 56 58 57 63 58 59 59 60 60 62 61 64 62 61 63 8 64
REMARK SMILES IDX 9 65 10 66 11 67 12 68 13 69 14 70 15 71 16 72 27 73 17 74
REMARK SMILES IDX 20 75 18 76 19 77 28 78 29 79 33 80 30 81 32 82 31 83 21 84
REMARK SMILES IDX 22 85 26 86 23 87 25 88 24 89
REMARK H PARENT 81 25 55 36
REMARK Flexibility Score: inf
ROOT
ATOM      1  C   UNL A   1      34.797  34.007  29.063  1.00  0.00     0.188 C 
ENDROOT
BRANCH   1   2
ATOM      2  O   UNL A   1      33.957  33.821  30.195  1.00  0.00    -0.376 OA
BRANCH   2   3
ATOM      3  C   UNL A   1      34.240  34.639  31.325  1.00  0.00     0.202 C 
BRANCH   3   4
ATOM      4  C   UNL A   1      34.367  33.904  32.667  1.00  0.00     0.261 C 
BRANCH   4   5
ATOM      5  O   UNL A   1      34.998  32.603  32.608  1.00  0.00    -0.460 OA
BRANCH   5   6
ATOM      6  C   UNL A   1      36.192  32.180  33.092  1.00  0.00     0.338 C 
ATOM      7  O   UNL A   1      36.442  32.299  34.288  1.00  0.00    -0.246 OA
BRANCH   6   8
ATOM      8  C   UNL A   1      37.202  31.520  32.226  1.00  0.00     0.060 A 
ATOM      9  C   UNL A   1      38.161  30.657  32.729  1.00  0.00     0.016 A 
ATOM     10  C   UNL A   1      37.144  31.700  30.838  1.00  0.00     0.016 A 
ATOM     11  C   UNL A   1      39.195  30.189  31.947  1.00  0.00     0.010 A 
ATOM     12  C   UNL A   1      38.102  31.104  30.006  1.00  0.00     0.010 A 
ATOM     13  C   UNL A   1      39.173  30.399  30.573  1.00  0.00    -0.014 A 
BRANCH  13  14
ATOM     14  C   UNL A   1      40.351  29.945  29.805  1.00  0.00     0.031 A 
ATOM     15  C   UNL A   1      41.527  30.864  29.685  1.00  0.00     0.074 A 
ATOM     16  C   UNL A   1      40.428  28.661  29.405  1.00  0.00     0.049 A 
ATOM     17  N   UNL A   1      42.664  30.672  29.075  1.00  0.00    -0.248 NA
ATOM     18  C   UNL A   1      41.419  32.171  30.360  1.00  0.00     0.031 C 
ATOM     19  C   UNL A   1      39.378  27.655  29.602  1.00  0.00     0.029 A 
ATOM     20  N   UNL A   1      41.438  27.960  28.803  1.00  0.00    -0.354 N 
ATOM     21  C   UNL A   1      43.396  31.834  29.275  1.00  0.00     0.074 A 
ATOM     22  C   UNL A   1      42.571  32.739  30.039  1.00  0.00     0.031 C 
ATOM     23  C   UNL A   1      39.819  26.465  29.175  1.00  0.00     0.029 A 
ATOM     24  C   UNL A   1      41.131  26.639  28.577  1.00  0.00     0.049 A 
ATOM     25  H   UNL A   1      42.301  28.363  28.555  1.00  0.00     0.167 HD
ATOM     26  C   UNL A   1      44.651  32.110  28.855  1.00  0.00     0.037 A 
ATOM     27  C   UNL A   1      41.810  25.686  27.915  1.00  0.00     0.037 A 
ATOM     28  C   UNL A   1      45.447  31.187  28.095  1.00  0.00     0.049 A 
ATOM     29  C   UNL A   1      43.148  26.064  27.348  1.00  0.00     0.074 A 
ATOM     30  C   UNL A   1      46.698  31.377  27.538  1.00  0.00     0.029 A 
ATOM     31  N   UNL A   1      45.062  29.888  27.790  1.00  0.00    -0.354 N 
ATOM     32  N   UNL A   1      43.801  27.196  27.468  1.00  0.00    -0.248 NA
ATOM     33  C   UNL A   1      43.839  25.047  26.550  1.00  0.00     0.031 C 
ATOM     34  C   UNL A   1      47.049  30.205  26.857  1.00  0.00     0.029 A 
ATOM     35  C   UNL A   1      46.044  29.267  27.038  1.00  0.00     0.049 A 
ATOM     36  H   UNL A   1      44.215  29.470  28.068  1.00  0.00     0.167 HD
ATOM     37  C   UNL A   1      44.987  27.025  26.773  1.00  0.00     0.074 A 
ATOM     38  C   UNL A   1      44.975  25.665  26.267  1.00  0.00     0.031 C 
ATOM     39  C   UNL A   1      45.993  27.908  26.558  1.00  0.00     0.037 A 
BRANCH  26  40
ATOM     40  C   UNL A   1      45.187  33.476  29.161  1.00  0.00     0.057 A 
ATOM     41  C   UNL A   1      45.930  33.745  30.319  1.00  0.00     0.134 A 
ATOM     42  C   UNL A   1      44.934  34.547  28.294  1.00  0.00     0.134 A 
ATOM     43  F   UNL A   1      46.177  32.773  31.209  1.00  0.00    -0.206 F 
ATOM     44  C   UNL A   1      46.384  35.033  30.613  1.00  0.00     0.040 A 
ATOM     45  C   UNL A   1      45.404  35.833  28.564  1.00  0.00     0.040 A 
ATOM     46  F   UNL A   1      44.219  34.361  27.175  1.00  0.00    -0.206 F 
ATOM     47  C   UNL A   1      46.126  36.080  29.729  1.00  0.00     0.006 A 
ENDBRANCH  26  40
BRANCH  27  48
ATOM     48  C   UNL A   1      41.213  24.344  27.678  1.00  0.00     0.057 A 
ATOM     49  C   UNL A   1      41.635  23.210  28.382  1.00  0.00     0.134 A 
ATOM     50  C   UNL A   1      40.224  24.154  26.700  1.00  0.00     0.134 A 
ATOM     51  F   UNL A   1      42.582  23.314  29.324  1.00  0.00    -0.206 F 
ATOM     52  C   UNL A   1      41.125  21.939  28.100  1.00  0.00     0.040 A 
ATOM     53  C   UNL A   1      39.681  22.897  26.431  1.00  0.00     0.040 A 
ATOM     54  F   UNL A   1      39.762  25.196  25.992  1.00  0.00    -0.206 F 
ATOM     55  C   UNL A   1      40.144  21.780  27.122  1.00  0.00     0.006 A 
ENDBRANCH  27  48
BRANCH  39  56
ATOM     56  C   UNL A   1      47.164  27.403  25.774  1.00  0.00     0.057 A 
ATOM     57  C   UNL A   1      47.260  27.586  24.389  1.00  0.00     0.134 A 
ATOM     58  C   UNL A   1      48.210  26.733  26.420  1.00  0.00     0.134 A 
ATOM     59  F   UNL A   1      46.279  28.204  23.715  1.00  0.00    -0.206 F 
ATOM     60  C   UNL A   1      48.341  27.085  23.666  1.00  0.00     0.040 A 
ATOM     61  C   UNL A   1      49.313  26.259  25.711  1.00  0.00     0.040 A 
ATOM     62  F   UNL A   1      48.179  26.535  27.746  1.00  0.00    -0.206 F 
ATOM     63  C   UNL A   1      49.375  26.425  24.329  1.00  0.00     0.006 A 
ENDBRANCH  39  56
ENDBRANCH  13  14
ENDBRANCH   6   8
ENDBRANCH   5   6
ENDBRANCH   4   5
ENDBRANCH   3   4
ENDBRANCH   2   3
ENDBRANCH   1   2
BRANCH   1  64
ATOM     64  C   UNL A   1      34.851  32.784  28.137  1.00  0.00     0.188 C 
BRANCH  64  65
ATOM     65  O   UNL A   1      33.971  31.704  28.416  1.00  0.00    -0.376 OA
BRANCH  65  66
ATOM     66  C   UNL A   1      33.563  30.834  27.357  1.00  0.00     0.202 C 
BRANCH  66  67
ATOM     67  C   UNL A   1      34.243  29.458  27.193  1.00  0.00     0.261 C 
BRANCH  67  68
ATOM     68  O   UNL A   1      33.607  28.170  27.436  1.00  0.00    -0.463 OA
BRANCH  68  69
ATOM     69  C   UNL A   1      32.385  27.876  26.946  1.00  0.00     0.311 C 
ATOM     70  O   UNL A   1      31.442  28.641  26.902  1.00  0.00    -0.252 OA
BRANCH  69  71
ATOM     71  C   UNL A   1      32.184  26.459  26.459  1.00  0.00     0.127 C 
ATOM     72  C   UNL A   1      30.897  26.054  25.778  1.00  0.00     0.028 C 
ATOM     73  C   UNL A   1      33.374  26.024  25.575  1.00  0.00     0.130 C 
ATOM     74  C   UNL A   1      30.876  24.528  25.720  1.00  0.00     0.101 C 
ATOM     75  N   UNL A   1      33.362  24.557  25.380  1.00  0.00    -0.332 N 
ATOM     76  C   UNL A   1      32.179  23.828  25.335  1.00  0.00     0.223 C 
ATOM     77  O   UNL A   1      32.144  22.623  25.081  1.00  0.00    -0.275 OA
BRANCH  73  78
ATOM     78  C   UNL A   1      33.500  26.783  24.244  1.00  0.00    -0.025 A 
ATOM     79  C   UNL A   1      34.093  28.052  24.136  1.00  0.00     0.006 A 
ATOM     80  C   UNL A   1      32.988  26.212  23.068  1.00  0.00     0.006 A 
ATOM     81  C   UNL A   1      34.150  28.726  22.912  1.00  0.00     0.000 A 
ATOM     82  C   UNL A   1      33.106  26.853  21.831  1.00  0.00     0.000 A 
ATOM     83  C   UNL A   1      33.673  28.118  21.755  1.00  0.00     0.000 A 
ENDBRANCH  73  78
BRANCH  75  84
ATOM     84  C   UNL A   1      34.679  23.895  25.182  1.00  0.00     0.085 C 
ATOM     85  C   UNL A   1      34.889  22.737  26.173  1.00  0.00     0.025 C 
ATOM     86  C   UNL A   1      34.952  23.464  23.730  1.00  0.00     0.025 C 
ATOM     87  C   UNL A   1      36.251  22.066  25.987  1.00  0.00     0.002 C 
ATOM     88  C   UNL A   1      36.318  22.796  23.582  1.00  0.00     0.002 C 
ATOM     89  C   UNL A   1      36.470  21.624  24.544  1.00  0.00     0.000 C 
ENDBRANCH  75  84
ENDBRANCH  69  71
ENDBRANCH  68  69
ENDBRANCH  67  68
ENDBRANCH  66  67
ENDBRANCH  65  66
ENDBRANCH  64  65
ENDBRANCH   1  64
TORSDOF 19
ENDMDL
MODEL 3
REMARK VINA RESULT:     -10.6      5.752     10.334
REMARK SMILES O=C(OCCOCCOCCOC(=O)[C@H]1CCC(=O)N(C2CCCCC2)[C@H]1c1ccccc1)c1ccc(-c2c3nc(c(-c4c(F)cccc4F)c4ccc([nH]4)c(-c4c(F)cccc4F)c4nc(c(-c5c(F)cccc5F)c5ccc2[nH]5)C=C4)C=C3)cc1
REMARK SMILES IDX 7 1 6 2 5 3 4 4 3 5 2 6 1 7 34 8 35 9 87 10 36 11 86 12
REMARK SMILES IDX 37 13 38 14 39 15 80 16 40 17 85 18 79 19 81 20 41 21 84 22
REMARK SMILES IDX 78 23 77 24 42 26 68 27 51 28 67 29 52 30 55 31 66 32 82 33
REMARK SMILES IDX 53 34 54 35 65 37 83 38 56 39 43 40 44 41 49 42 45 43 46 44
REMARK SMILES IDX 48 45 50 46 47 47 69 48 70 49 75 50 71 51 72 52 74 53 76 54
REMARK SMILES IDX 73 55 57 56 58 57 63 58 59 59 60 60 62 61 64 62 61 63 8 64
REMARK SMILES IDX 9 65 10 66 11 67 12 68 13 69 14 70 15 71 16 72 27 73 17 74
REMARK SMILES IDX 20 75 18 76 19 77 28 78 29 79 33 80 30 81 32 82 31 83 21 84
REMARK SMILES IDX 22 85 26 86 23 87 25 88 24 89
REMARK H PARENT 81 25 55 36
REMARK Flexibility Score: inf
ROOT
ATOM      1  C   UNL A   1      36.699  21.863  25.386  1.00  0.00     0.188 C 
ENDROOT
BRANCH   1   2
ATOM      2  O   UNL A   1      38.021  21.443  25.078  1.00  0.00    -0.376 OA
BRANCH   2   3
ATOM      3  C   UNL A   1      38.185  20.060  24.778  1.00  0.00     0.202 C 
BRANCH   3   4
ATOM      4  C   UNL A   1      38.927  19.230  25.835  1.00  0.00     0.261 C 
BRANCH   4   5
ATOM      5  O   UNL A   1      40.300  18.900  25.516  1.00  0.00    -0.460 OA
BRANCH   5   6
ATOM      6  C   UNL A   1      41.457  19.258  26.127  1.00  0.00     0.338 C 
ATOM      7  O   UNL A   1      42.330  18.417  26.319  1.00  0.00    -0.246 OA
BRANCH   6   8
ATOM      8  C   UNL A   1      41.732  20.660  26.530  1.00  0.00     0.060 A 
ATOM      9  C   UNL A   1      41.640  21.719  25.643  1.00  0.00     0.016 A 
ATOM     10  C   UNL A   1      42.016  20.949  27.871  1.00  0.00     0.016 A 
ATOM     11  C   UNL A   1      42.064  22.986  25.981  1.00  0.00     0.010 A 
ATOM     12  C   UNL A   1      42.301  22.264  28.266  1.00  0.00     0.010 A 
ATOM     13  C   UNL A   1      42.391  23.277  27.301  1.00  0.00    -0.014 A 
BRANCH  13  14
ATOM     14  C   UNL A   1      42.917  24.629  27.581  1.00  0.00     0.031 A 
ATOM     15  C   UNL A   1      41.976  25.668  28.107  1.00  0.00     0.074 A 
ATOM     16  C   UNL A   1      44.246  24.845  27.550  1.00  0.00     0.049 A 
ATOM     17  N   UNL A   1      42.217  26.909  28.433  1.00  0.00    -0.248 NA
ATOM     18  C   UNL A   1      40.576  25.253  28.316  1.00  0.00     0.031 C 
ATOM     19  C   UNL A   1      45.251  23.844  27.178  1.00  0.00     0.029 A 
ATOM     20  N   UNL A   1      44.992  25.943  27.883  1.00  0.00    -0.354 N 
ATOM     21  C   UNL A   1      41.003  27.424  28.864  1.00  0.00     0.074 A 
ATOM     22  C   UNL A   1      40.018  26.376  28.738  1.00  0.00     0.031 C 
ATOM     23  C   UNL A   1      46.475  24.359  27.350  1.00  0.00     0.029 A 
ATOM     24  C   UNL A   1      46.345  25.753  27.737  1.00  0.00     0.049 A 
ATOM     25  H   UNL A   1      44.597  26.789  28.198  1.00  0.00     0.167 HD
ATOM     26  C   UNL A   1      40.744  28.667  29.329  1.00  0.00     0.037 A 
ATOM     27  C   UNL A   1      47.366  26.621  27.852  1.00  0.00     0.037 A 
ATOM     28  C   UNL A   1      41.747  29.689  29.443  1.00  0.00     0.049 A 
ATOM     29  C   UNL A   1      47.030  28.030  28.245  1.00  0.00     0.074 A 
ATOM     30  C   UNL A   1      41.598  31.011  29.818  1.00  0.00     0.029 A 
ATOM     31  N   UNL A   1      43.097  29.493  29.183  1.00  0.00    -0.354 N 
ATOM     32  N   UNL A   1      45.863  28.535  28.571  1.00  0.00    -0.248 NA
ATOM     33  C   UNL A   1      48.136  28.989  28.278  1.00  0.00     0.031 C 
ATOM     34  C   UNL A   1      42.853  31.625  29.741  1.00  0.00     0.029 A 
ATOM     35  C   UNL A   1      43.793  30.674  29.374  1.00  0.00     0.049 A 
ATOM     36  H   UNL A   1      43.501  28.639  28.904  1.00  0.00     0.167 HD
ATOM     37  C   UNL A   1      46.096  29.869  28.863  1.00  0.00     0.074 A 
ATOM     38  C   UNL A   1      47.523  30.081  28.709  1.00  0.00     0.031 C 
ATOM     39  C   UNL A   1      45.216  30.839  29.214  1.00  0.00     0.037 A 
BRANCH  26  40
ATOM     40  C   UNL A   1      39.320  28.982  29.677  1.00  0.00     0.057 A 
ATOM     41  C   UNL A   1      38.796  28.752  30.957  1.00  0.00     0.134 A 
ATOM     42  C   UNL A   1      38.452  29.500  28.708  1.00  0.00     0.134 A 
ATOM     43  F   UNL A   1      39.563  28.223  31.921  1.00  0.00    -0.206 F 
ATOM     44  C   UNL A   1      37.455  29.008  31.253  1.00  0.00     0.040 A 
ATOM     45  C   UNL A   1      37.118  29.784  28.999  1.00  0.00     0.040 A 
ATOM     46  F   UNL A   1      38.887  29.732  27.460  1.00  0.00    -0.206 F 
ATOM     47  C   UNL A   1      36.613  29.532  30.272  1.00  0.00     0.006 A 
ENDBRANCH  26  40
BRANCH  27  48
ATOM     48  C   UNL A   1      48.757  26.216  27.511  1.00  0.00     0.057 A 
ATOM     49  C   UNL A   1      49.649  25.739  28.478  1.00  0.00     0.134 A 
ATOM     50  C   UNL A   1      49.247  26.340  26.201  1.00  0.00     0.134 A 
ATOM     51  F   UNL A   1      49.254  25.604  29.752  1.00  0.00    -0.206 F 
ATOM     52  C   UNL A   1      50.977  25.436  28.167  1.00  0.00     0.040 A 
ATOM     53  C   UNL A   1      50.560  26.008  25.868  1.00  0.00     0.040 A 
ATOM     54  F   UNL A   1      48.447  26.780  25.218  1.00  0.00    -0.206 F 
ATOM     55  C   UNL A   1      51.436  25.568  26.857  1.00  0.00     0.006 A 
ENDBRANCH  27  48
BRANCH  39  56
ATOM     56  C   UNL A   1      45.795  32.193  29.485  1.00  0.00     0.057 A 
ATOM     57  C   UNL A   1      45.899  33.166  28.484  1.00  0.00     0.134 A 
ATOM     58  C   UNL A   1      46.243  32.525  30.769  1.00  0.00     0.134 A 
ATOM     59  F   UNL A   1      45.502  32.899  27.231  1.00  0.00    -0.206 F 
ATOM     60  C   UNL A   1      46.465  34.413  28.742  1.00  0.00     0.040 A 
ATOM     61  C   UNL A   1      46.779  33.781  31.047  1.00  0.00     0.040 A 
ATOM     62  F   UNL A   1      46.161  31.638  31.772  1.00  0.00    -0.206 F 
ATOM     63  C   UNL A   1      46.902  34.725  30.029  1.00  0.00     0.006 A 
ENDBRANCH  39  56
ENDBRANCH  13  14
ENDBRANCH   6   8
ENDBRANCH   5   6
ENDBRANCH   4   5
ENDBRANCH   3   4
ENDBRANCH   2   3
ENDBRANCH   1   2
BRANCH   1  64
ATOM     64  C   UNL A   1      35.620  20.882  24.908  1.00  0.00     0.188 C 
BRANCH  64  65
ATOM     65  O   UNL A   1      34.271  21.165  25.252  1.00  0.00    -0.376 OA
BRANCH  65  66
ATOM     66  C   UNL A   1      33.224  20.836  24.335  1.00  0.00     0.202 C 
BRANCH  66  67
ATOM     67  C   UNL A   1      32.719  21.900  23.338  1.00  0.00     0.261 C 
BRANCH  67  68
ATOM     68  O   UNL A   1      33.564  22.696  22.457  1.00  0.00    -0.463 OA
BRANCH  68  69
ATOM     69  C   UNL A   1      34.075  23.883  22.842  1.00  0.00     0.311 C 
ATOM     70  O   UNL A   1      35.188  24.055  23.298  1.00  0.00    -0.252 OA
BRANCH  69  71
ATOM     71  C   UNL A   1      33.153  25.075  22.730  1.00  0.00     0.127 C 
ATOM     72  C   UNL A   1      31.804  24.946  22.059  1.00  0.00     0.028 C 
ATOM     73  C   UNL A   1      32.959  25.733  24.114  1.00  0.00     0.130 C 
ATOM     74  C   UNL A   1      31.283  26.360  21.813  1.00  0.00     0.101 C 
ATOM     75  N   UNL A   1      32.353  27.075  23.968  1.00  0.00    -0.332 N 
ATOM     76  C   UNL A   1      31.463  27.374  22.942  1.00  0.00     0.223 C 
ATOM     77  O   UNL A   1      30.877  28.455  22.859  1.00  0.00    -0.275 OA
BRANCH  73  78
ATOM     78  C   UNL A   1      32.209  24.868  25.139  1.00  0.00    -0.025 A 
ATOM     79  C   UNL A   1      30.817  24.681  25.114  1.00  0.00     0.006 A 
ATOM     80  C   UNL A   1      32.921  24.241  26.174  1.00  0.00     0.006 A 
ATOM     81  C   UNL A   1      30.168  23.920  26.092  1.00  0.00     0.000 A 
ATOM     82  C   UNL A   1      32.284  23.422  27.111  1.00  0.00     0.000 A 
ATOM     83  C   UNL A   1      30.904  23.274  27.079  1.00  0.00     0.000 A 
ENDBRANCH  73  78
BRANCH  75  84
ATOM     84  C   UNL A   1      32.699  28.086  25.002  1.00  0.00     0.085 C 
ATOM     85  C   UNL A   1      31.629  28.163  26.105  1.00  0.00     0.025 C 
ATOM     86  C   UNL A   1      34.115  27.925  25.587  1.00  0.00     0.025 C 
ATOM     87  C   UNL A   1      31.971  29.215  27.160  1.00  0.00     0.002 C 
ATOM     88  C   UNL A   1      34.420  28.990  26.638  1.00  0.00     0.002 C 
ATOM     89  C   UNL A   1      33.366  29.003  27.738  1.00  0.00     0.000 C 
ENDBRANCH  75  84
ENDBRANCH  69  71
ENDBRANCH  68  69
ENDBRANCH  67  68
ENDBRANCH  66  67
ENDBRANCH  65  66
ENDBRANCH  64  65
ENDBRANCH   1  64
TORSDOF 19
ENDMDL
