MODEL 1
REMARK VINA RESULT:     -11.2      0.000      0.000
REMARK SMILES CC1=C(C)C[C@@H](C(=O)OCCOCCOCCOC(=O)c2ccc(-c3c4nc(c(-c5c(F)cccc5F)c5ccc([nH]5)c(-c5c(F)cccc5F)c5nc(c(-c6c(F)cccc6F)c6ccc3[nH]6)C=C5)C=C4)cc2)[C@H](C(=O)NCc2cccnc2)C1
REMARK SMILES IDX 13 1 12 2 11 3 10 4 9 5 7 6 8 7 6 8 1 9 2 10 3 11 86 12 4 13
REMARK SMILES IDX 5 14 75 15 76 16 77 17 78 18 79 20 80 21 81 22 85 23 82 24
REMARK SMILES IDX 84 25 83 26 14 27 15 28 16 29 17 30 18 31 19 32 20 33 21 34
REMARK SMILES IDX 22 35 74 36 23 37 73 38 24 39 25 40 26 41 67 42 27 43 72 44
REMARK SMILES IDX 66 45 68 46 28 47 71 48 65 49 64 50 29 52 55 53 38 54 54 55
REMARK SMILES IDX 39 56 42 57 53 58 69 59 40 60 41 61 52 63 70 64 43 65 30 66
REMARK SMILES IDX 31 67 36 68 32 69 33 70 35 71 37 72 34 73 56 74 57 75 62 76
REMARK SMILES IDX 58 77 59 78 61 79 63 80 60 81 44 82 45 83 50 84 46 85 47 86
REMARK SMILES IDX 49 87 51 88 48 89
REMARK H PARENT 78 19 68 51 42 62
REMARK Flexibility Score: inf
ROOT
ATOM      1  C   UNL A   1      39.260  21.004  26.085  1.00  0.00     0.188 C 
ENDROOT
BRANCH   1   2
ATOM      2  O   UNL A   1      39.492  22.400  26.224  1.00  0.00    -0.376 OA
BRANCH   2   3
ATOM      3  C   UNL A   1      38.353  23.247  26.328  1.00  0.00     0.202 C 
BRANCH   3   4
ATOM      4  C   UNL A   1      37.149  22.950  25.418  1.00  0.00     0.261 C 
BRANCH   4   5
ATOM      5  O   UNL A   1      36.353  24.084  25.016  1.00  0.00    -0.463 OA
BRANCH   5   6
ATOM      6  C   UNL A   1      35.415  23.808  24.074  1.00  0.00     0.310 C 
ATOM      7  O   UNL A   1      35.643  23.191  23.035  1.00  0.00    -0.252 OA
BRANCH   6   8
ATOM      8  C   UNL A   1      34.021  24.350  24.363  1.00  0.00     0.116 C 
ATOM      9  C   UNL A   1      33.469  28.714  25.166  1.00  0.00     0.039 C 
ATOM     10  C   UNL A   1      33.608  27.257  24.804  1.00  0.00    -0.074 C 
ATOM     11  C   UNL A   1      33.647  26.784  23.543  1.00  0.00    -0.073 C 
ATOM     12  C   UNL A   1      33.683  26.357  26.014  1.00  0.00     0.045 C 
ATOM     13  C   UNL A   1      33.581  27.624  22.292  1.00  0.00     0.039 C 
ATOM     14  C   UNL A   1      33.740  25.319  23.221  1.00  0.00     0.046 C 
ATOM     15  C   UNL A   1      33.722  24.846  25.782  1.00  0.00     0.097 C 
BRANCH  15  16
ATOM     16  C   UNL A   1      32.505  24.161  26.417  1.00  0.00     0.224 C 
ATOM     17  O   UNL A   1      31.531  24.844  26.754  1.00  0.00    -0.275 OA
ATOM     18  N   UNL A   1      32.393  22.830  26.636  1.00  0.00    -0.352 N 
ATOM     19  H   UNL A   1      31.498  22.556  26.942  1.00  0.00     0.163 HD
BRANCH  18  20
ATOM     20  C   UNL A   1      33.323  21.726  26.510  1.00  0.00     0.153 C 
BRANCH  20  21
ATOM     21  C   UNL A   1      32.936  20.756  25.427  1.00  0.00    -0.010 A 
ATOM     22  C   UNL A   1      32.736  21.131  24.094  1.00  0.00     0.009 A 
ATOM     23  C   UNL A   1      32.804  19.401  25.724  1.00  0.00     0.116 A 
ATOM     24  C   UNL A   1      32.352  20.177  23.154  1.00  0.00     0.020 A 
ATOM     25  N   UNL A   1      32.424  18.455  24.837  1.00  0.00    -0.264 NA
ATOM     26  C   UNL A   1      32.195  18.867  23.574  1.00  0.00     0.111 A 
ENDBRANCH  20  21
ENDBRANCH  18  20
ENDBRANCH  15  16
ENDBRANCH   6   8
ENDBRANCH   5   6
ENDBRANCH   4   5
ENDBRANCH   3   4
ENDBRANCH   2   3
ENDBRANCH   1   2
BRANCH   1  27
ATOM     27  C   UNL A   1      40.477  20.086  26.136  1.00  0.00     0.188 C 
BRANCH  27  28
ATOM     28  O   UNL A   1      41.688  20.642  26.624  1.00  0.00    -0.376 OA
BRANCH  28  29
ATOM     29  C   UNL A   1      42.877  20.223  25.947  1.00  0.00     0.202 C 
BRANCH  29  30
ATOM     30  C   UNL A   1      43.783  21.325  25.341  1.00  0.00     0.261 C 
BRANCH  30  31
ATOM     31  O   UNL A   1      43.139  22.557  24.937  1.00  0.00    -0.460 OA
BRANCH  31  32
ATOM     32  C   UNL A   1      43.867  23.701  25.012  1.00  0.00     0.338 C 
ATOM     33  O   UNL A   1      44.790  24.003  24.291  1.00  0.00    -0.246 OA
BRANCH  32  34
ATOM     34  C   UNL A   1      43.180  24.650  25.950  1.00  0.00     0.060 A 
ATOM     35  C   UNL A   1      43.617  25.982  25.961  1.00  0.00     0.016 A 
ATOM     36  C   UNL A   1      42.092  24.287  26.749  1.00  0.00     0.016 A 
ATOM     37  C   UNL A   1      43.004  26.940  26.780  1.00  0.00     0.010 A 
ATOM     38  C   UNL A   1      41.497  25.239  27.599  1.00  0.00     0.010 A 
ATOM     39  C   UNL A   1      41.970  26.566  27.645  1.00  0.00    -0.014 A 
BRANCH  39  40
ATOM     40  C   UNL A   1      41.558  27.481  28.749  1.00  0.00     0.031 A 
ATOM     41  C   UNL A   1      42.334  27.421  30.041  1.00  0.00     0.074 A 
ATOM     42  C   UNL A   1      40.557  28.374  28.631  1.00  0.00     0.049 A 
ATOM     43  N   UNL A   1      42.128  28.045  31.174  1.00  0.00    -0.248 NA
ATOM     44  C   UNL A   1      43.503  26.528  30.051  1.00  0.00     0.031 C 
ATOM     45  C   UNL A   1      39.759  28.605  27.430  1.00  0.00     0.029 A 
ATOM     46  N   UNL A   1      40.034  29.252  29.555  1.00  0.00    -0.354 N 
ATOM     47  C   UNL A   1      43.128  27.605  32.034  1.00  0.00     0.074 A 
ATOM     48  C   UNL A   1      43.926  26.648  31.299  1.00  0.00     0.031 C 
ATOM     49  C   UNL A   1      38.831  29.543  27.697  1.00  0.00     0.029 A 
ATOM     50  C   UNL A   1      38.945  29.955  29.097  1.00  0.00     0.049 A 
ATOM     51  H   UNL A   1      40.405  29.365  30.459  1.00  0.00     0.167 HD
ATOM     52  C   UNL A   1      43.368  27.965  33.317  1.00  0.00     0.037 A 
ATOM     53  C   UNL A   1      38.115  30.806  29.739  1.00  0.00     0.037 A 
ATOM     54  C   UNL A   1      42.586  28.921  34.057  1.00  0.00     0.049 A 
ATOM     55  C   UNL A   1      38.346  31.127  31.197  1.00  0.00     0.074 A 
ATOM     56  C   UNL A   1      42.767  29.358  35.357  1.00  0.00     0.029 A 
ATOM     57  N   UNL A   1      41.470  29.578  33.566  1.00  0.00    -0.354 N 
ATOM     58  N   UNL A   1      39.298  30.715  31.997  1.00  0.00    -0.248 NA
ATOM     59  C   UNL A   1      37.381  32.034  31.841  1.00  0.00     0.031 C 
ATOM     60  C   UNL A   1      41.724  30.235  35.673  1.00  0.00     0.029 A 
ATOM     61  C   UNL A   1      40.934  30.395  34.548  1.00  0.00     0.049 A 
ATOM     62  H   UNL A   1      41.111  29.481  32.654  1.00  0.00     0.167 HD
ATOM     63  C   UNL A   1      39.066  31.333  33.223  1.00  0.00     0.074 A 
ATOM     64  C   UNL A   1      37.890  32.160  33.059  1.00  0.00     0.031 C 
ATOM     65  C   UNL A   1      39.768  31.227  34.379  1.00  0.00     0.037 A 
BRANCH  52  66
ATOM     66  C   UNL A   1      44.505  27.283  34.023  1.00  0.00     0.057 A 
ATOM     67  C   UNL A   1      45.783  27.851  34.102  1.00  0.00     0.134 A 
ATOM     68  C   UNL A   1      44.308  26.045  34.650  1.00  0.00     0.134 A 
ATOM     69  F   UNL A   1      46.043  29.027  33.510  1.00  0.00    -0.206 F 
ATOM     70  C   UNL A   1      46.832  27.200  34.754  1.00  0.00     0.040 A 
ATOM     71  C   UNL A   1      45.340  25.399  35.331  1.00  0.00     0.040 A 
ATOM     72  F   UNL A   1      43.108  25.449  34.617  1.00  0.00    -0.206 F 
ATOM     73  C   UNL A   1      46.610  25.972  35.377  1.00  0.00     0.006 A 
ENDBRANCH  52  66
BRANCH  53  74
ATOM     74  C   UNL A   1      36.951  31.397  29.025  1.00  0.00     0.057 A 
ATOM     75  C   UNL A   1      36.953  32.732  28.601  1.00  0.00     0.134 A 
ATOM     76  C   UNL A   1      35.786  30.653  28.793  1.00  0.00     0.134 A 
ATOM     77  F   UNL A   1      38.022  33.510  28.825  1.00  0.00    -0.206 F 
ATOM     78  C   UNL A   1      35.838  33.309  27.988  1.00  0.00     0.040 A 
ATOM     79  C   UNL A   1      34.676  31.208  28.155  1.00  0.00     0.040 A 
ATOM     80  F   UNL A   1      35.712  29.373  29.187  1.00  0.00    -0.206 F 
ATOM     81  C   UNL A   1      34.697  32.543  27.757  1.00  0.00     0.006 A 
ENDBRANCH  53  74
BRANCH  65  82
ATOM     82  C   UNL A   1      39.319  32.055  35.551  1.00  0.00     0.057 A 
ATOM     83  C   UNL A   1      39.740  33.378  35.735  1.00  0.00     0.134 A 
ATOM     84  C   UNL A   1      38.409  31.534  36.482  1.00  0.00     0.134 A 
ATOM     85  F   UNL A   1      40.617  33.937  34.888  1.00  0.00    -0.206 F 
ATOM     86  C   UNL A   1      39.292  34.143  36.815  1.00  0.00     0.040 A 
ATOM     87  C   UNL A   1      37.930  32.299  37.547  1.00  0.00     0.040 A 
ATOM     88  F   UNL A   1      37.953  30.278  36.360  1.00  0.00    -0.206 F 
ATOM     89  C   UNL A   1      38.378  33.606  37.720  1.00  0.00     0.006 A 
ENDBRANCH  65  82
ENDBRANCH  39  40
ENDBRANCH  32  34
ENDBRANCH  31  32
ENDBRANCH  30  31
ENDBRANCH  29  30
ENDBRANCH  28  29
ENDBRANCH  27  28
ENDBRANCH   1  27
TORSDOF 20
ENDMDL
MODEL 2
REMARK VINA RESULT:     -11.2      1.062      1.918
REMARK SMILES CC1=C(C)C[C@@H](C(=O)OCCOCCOCCOC(=O)c2ccc(-c3c4nc(c(-c5c(F)cccc5F)c5ccc([nH]5)c(-c5c(F)cccc5F)c5nc(c(-c6c(F)cccc6F)c6ccc3[nH]6)C=C5)C=C4)cc2)[C@H](C(=O)NCc2cccnc2)C1
REMARK SMILES IDX 13 1 12 2 11 3 10 4 9 5 7 6 8 7 6 8 1 9 2 10 3 11 86 12 4 13
REMARK SMILES IDX 5 14 75 15 76 16 77 17 78 18 79 20 80 21 81 22 85 23 82 24
REMARK SMILES IDX 84 25 83 26 14 27 15 28 16 29 17 30 18 31 19 32 20 33 21 34
REMARK SMILES IDX 22 35 74 36 23 37 73 38 24 39 25 40 26 41 67 42 27 43 72 44
REMARK SMILES IDX 66 45 68 46 28 47 71 48 65 49 64 50 29 52 55 53 38 54 54 55
REMARK SMILES IDX 39 56 42 57 53 58 69 59 40 60 41 61 52 63 70 64 43 65 30 66
REMARK SMILES IDX 31 67 36 68 32 69 33 70 35 71 37 72 34 73 56 74 57 75 62 76
REMARK SMILES IDX 58 77 59 78 61 79 63 80 60 81 44 82 45 83 50 84 46 85 47 86
REMARK SMILES IDX 49 87 51 88 48 89
REMARK H PARENT 78 19 68 51 42 62
REMARK Flexibility Score: inf
ROOT
ATOM      1  C   UNL A   1      40.275  21.022  26.442  1.00  0.00     0.188 C 
ENDROOT
BRANCH   1   2
ATOM      2  O   UNL A   1      38.945  21.310  26.032  1.00  0.00    -0.376 OA
BRANCH   2   3
ATOM      3  C   UNL A   1      38.523  22.669  26.073  1.00  0.00     0.202 C 
BRANCH   3   4
ATOM      4  C   UNL A   1      37.180  23.025  25.414  1.00  0.00     0.261 C 
BRANCH   4   5
ATOM      5  O   UNL A   1      36.319  23.917  26.153  1.00  0.00    -0.463 OA
BRANCH   5   6
ATOM      6  C   UNL A   1      35.032  23.499  26.257  1.00  0.00     0.310 C 
ATOM      7  O   UNL A   1      34.600  22.825  27.191  1.00  0.00    -0.252 OA
BRANCH   6   8
ATOM      8  C   UNL A   1      34.124  23.890  25.098  1.00  0.00     0.116 C 
ATOM      9  C   UNL A   1      30.711  26.690  25.813  1.00  0.00     0.039 C 
ATOM     10  C   UNL A   1      31.909  25.822  25.520  1.00  0.00    -0.074 C 
ATOM     11  C   UNL A   1      33.151  26.289  25.286  1.00  0.00    -0.073 C 
ATOM     12  C   UNL A   1      31.574  24.351  25.496  1.00  0.00     0.045 C 
ATOM     13  C   UNL A   1      33.556  27.742  25.297  1.00  0.00     0.039 C 
ATOM     14  C   UNL A   1      34.312  25.395  24.951  1.00  0.00     0.046 C 
ATOM     15  C   UNL A   1      32.682  23.369  25.108  1.00  0.00     0.097 C 
BRANCH  15  16
ATOM     16  C   UNL A   1      32.310  22.596  23.837  1.00  0.00     0.224 C 
ATOM     17  O   UNL A   1      32.094  23.216  22.791  1.00  0.00    -0.275 OA
ATOM     18  N   UNL A   1      32.208  21.249  23.753  1.00  0.00    -0.352 N 
ATOM     19  H   UNL A   1      32.076  20.921  22.834  1.00  0.00     0.163 HD
BRANCH  18  20
ATOM     20  C   UNL A   1      32.254  20.191  24.743  1.00  0.00     0.153 C 
BRANCH  20  21
ATOM     21  C   UNL A   1      32.899  18.934  24.225  1.00  0.00    -0.010 A 
ATOM     22  C   UNL A   1      33.840  18.197  24.952  1.00  0.00     0.009 A 
ATOM     23  C   UNL A   1      32.530  18.426  22.981  1.00  0.00     0.116 A 
ATOM     24  C   UNL A   1      34.412  17.057  24.393  1.00  0.00     0.020 A 
ATOM     25  N   UNL A   1      33.073  17.328  22.409  1.00  0.00    -0.264 NA
ATOM     26  C   UNL A   1      34.011  16.675  23.124  1.00  0.00     0.111 A 
ENDBRANCH  20  21
ENDBRANCH  18  20
ENDBRANCH  15  16
ENDBRANCH   6   8
ENDBRANCH   5   6
ENDBRANCH   4   5
ENDBRANCH   3   4
ENDBRANCH   2   3
ENDBRANCH   1   2
BRANCH   1  27
ATOM     27  C   UNL A   1      40.822  19.636  26.118  1.00  0.00     0.188 C 
BRANCH  27  28
ATOM     28  O   UNL A   1      42.043  19.573  25.400  1.00  0.00    -0.376 OA
BRANCH  28  29
ATOM     29  C   UNL A   1      43.164  20.203  26.028  1.00  0.00     0.202 C 
BRANCH  29  30
ATOM     30  C   UNL A   1      43.848  21.370  25.271  1.00  0.00     0.261 C 
BRANCH  30  31
ATOM     31  O   UNL A   1      43.065  22.570  25.067  1.00  0.00    -0.460 OA
BRANCH  31  32
ATOM     32  C   UNL A   1      43.727  23.757  25.044  1.00  0.00     0.338 C 
ATOM     33  O   UNL A   1      44.583  24.076  24.252  1.00  0.00    -0.246 OA
BRANCH  32  34
ATOM     34  C   UNL A   1      43.043  24.708  25.982  1.00  0.00     0.060 A 
ATOM     35  C   UNL A   1      43.538  26.018  26.051  1.00  0.00     0.016 A 
ATOM     36  C   UNL A   1      41.908  24.372  26.726  1.00  0.00     0.016 A 
ATOM     37  C   UNL A   1      42.935  26.979  26.874  1.00  0.00     0.010 A 
ATOM     38  C   UNL A   1      41.322  25.326  27.580  1.00  0.00     0.010 A 
ATOM     39  C   UNL A   1      41.850  26.628  27.685  1.00  0.00    -0.014 A 
BRANCH  39  40
ATOM     40  C   UNL A   1      41.434  27.528  28.799  1.00  0.00     0.031 A 
ATOM     41  C   UNL A   1      42.205  27.452  30.093  1.00  0.00     0.074 A 
ATOM     42  C   UNL A   1      40.433  28.423  28.688  1.00  0.00     0.049 A 
ATOM     43  N   UNL A   1      41.995  28.062  31.233  1.00  0.00    -0.248 NA
ATOM     44  C   UNL A   1      43.375  26.560  30.096  1.00  0.00     0.031 C 
ATOM     45  C   UNL A   1      39.639  28.669  27.487  1.00  0.00     0.029 A 
ATOM     46  N   UNL A   1      39.906  29.289  29.621  1.00  0.00    -0.354 N 
ATOM     47  C   UNL A   1      42.991  27.612  32.091  1.00  0.00     0.074 A 
ATOM     48  C   UNL A   1      43.792  26.664  31.347  1.00  0.00     0.031 C 
ATOM     49  C   UNL A   1      38.710  29.603  27.762  1.00  0.00     0.029 A 
ATOM     50  C   UNL A   1      38.818  29.997  29.168  1.00  0.00     0.049 A 
ATOM     51  H   UNL A   1      40.274  29.390  30.528  1.00  0.00     0.167 HD
ATOM     52  C   UNL A   1      43.226  27.955  33.380  1.00  0.00     0.037 A 
ATOM     53  C   UNL A   1      37.986  30.839  29.818  1.00  0.00     0.037 A 
ATOM     54  C   UNL A   1      42.441  28.901  34.128  1.00  0.00     0.049 A 
ATOM     55  C   UNL A   1      38.211  31.142  31.281  1.00  0.00     0.074 A 
ATOM     56  C   UNL A   1      42.617  29.322  35.435  1.00  0.00     0.029 A 
ATOM     57  N   UNL A   1      41.326  29.564  33.642  1.00  0.00    -0.354 N 
ATOM     58  N   UNL A   1      39.160  30.720  32.080  1.00  0.00    -0.248 NA
ATOM     59  C   UNL A   1      37.243  32.040  31.932  1.00  0.00     0.031 C 
ATOM     60  C   UNL A   1      41.573  30.194  35.758  1.00  0.00     0.029 A 
ATOM     61  C   UNL A   1      40.786  30.368  34.632  1.00  0.00     0.049 A 
ATOM     62  H   UNL A   1      40.971  29.479  32.727  1.00  0.00     0.167 HD
ATOM     63  C   UNL A   1      38.923  31.322  33.312  1.00  0.00     0.074 A 
ATOM     64  C   UNL A   1      37.748  32.151  33.154  1.00  0.00     0.031 C 
ATOM     65  C   UNL A   1      39.621  31.202  34.469  1.00  0.00     0.037 A 
BRANCH  52  66
ATOM     66  C   UNL A   1      44.361  27.264  34.081  1.00  0.00     0.057 A 
ATOM     67  C   UNL A   1      44.194  26.042  34.745  1.00  0.00     0.134 A 
ATOM     68  C   UNL A   1      45.645  27.824  34.071  1.00  0.00     0.134 A 
ATOM     69  F   UNL A   1      42.986  25.459  34.805  1.00  0.00    -0.206 F 
ATOM     70  C   UNL A   1      45.257  25.416  35.399  1.00  0.00     0.040 A 
ATOM     71  C   UNL A   1      46.722  27.193  34.695  1.00  0.00     0.040 A 
ATOM     72  F   UNL A   1      45.876  28.989  33.448  1.00  0.00    -0.206 F 
ATOM     73  C   UNL A   1      46.528  25.989  35.369  1.00  0.00     0.006 A 
ENDBRANCH  52  66
BRANCH  53  74
ATOM     74  C   UNL A   1      36.824  31.440  29.107  1.00  0.00     0.057 A 
ATOM     75  C   UNL A   1      35.695  30.679  28.777  1.00  0.00     0.134 A 
ATOM     76  C   UNL A   1      36.837  32.780  28.697  1.00  0.00     0.134 A 
ATOM     77  F   UNL A   1      35.636  29.381  29.107  1.00  0.00    -0.206 F 
ATOM     78  C   UNL A   1      34.630  31.223  28.053  1.00  0.00     0.040 A 
ATOM     79  C   UNL A   1      35.767  33.344  28.001  1.00  0.00     0.040 A 
ATOM     80  F   UNL A   1      37.893  33.560  28.969  1.00  0.00    -0.206 F 
ATOM     81  C   UNL A   1      34.662  32.562  27.670  1.00  0.00     0.006 A 
ENDBRANCH  53  74
BRANCH  65  82
ATOM     82  C   UNL A   1      39.168  32.015  35.650  1.00  0.00     0.057 A 
ATOM     83  C   UNL A   1      39.583  33.338  35.849  1.00  0.00     0.134 A 
ATOM     84  C   UNL A   1      38.258  31.480  36.574  1.00  0.00     0.134 A 
ATOM     85  F   UNL A   1      40.457  33.911  35.009  1.00  0.00    -0.206 F 
ATOM     86  C   UNL A   1      39.130  34.089  36.937  1.00  0.00     0.040 A 
ATOM     87  C   UNL A   1      37.776  32.231  37.647  1.00  0.00     0.040 A 
ATOM     88  F   UNL A   1      37.808  30.223  36.438  1.00  0.00    -0.206 F 
ATOM     89  C   UNL A   1      38.218  33.538  37.835  1.00  0.00     0.006 A 
ENDBRANCH  65  82
ENDBRANCH  39  40
ENDBRANCH  32  34
ENDBRANCH  31  32
ENDBRANCH  30  31
ENDBRANCH  29  30
ENDBRANCH  28  29
ENDBRANCH  27  28
ENDBRANCH   1  27
TORSDOF 20
ENDMDL
MODEL 3
REMARK VINA RESULT:     -10.9      1.339      3.448
REMARK SMILES CC1=C(C)C[C@@H](C(=O)OCCOCCOCCOC(=O)c2ccc(-c3c4nc(c(-c5c(F)cccc5F)c5ccc([nH]5)c(-c5c(F)cccc5F)c5nc(c(-c6c(F)cccc6F)c6ccc3[nH]6)C=C5)C=C4)cc2)[C@H](C(=O)NCc2cccnc2)C1
REMARK SMILES IDX 13 1 12 2 11 3 10 4 9 5 7 6 8 7 6 8 1 9 2 10 3 11 86 12 4 13
REMARK SMILES IDX 5 14 75 15 76 16 77 17 78 18 79 20 80 21 81 22 85 23 82 24
REMARK SMILES IDX 84 25 83 26 14 27 15 28 16 29 17 30 18 31 19 32 20 33 21 34
REMARK SMILES IDX 22 35 74 36 23 37 73 38 24 39 25 40 26 41 67 42 27 43 72 44
REMARK SMILES IDX 66 45 68 46 28 47 71 48 65 49 64 50 29 52 55 53 38 54 54 55
REMARK SMILES IDX 39 56 42 57 53 58 69 59 40 60 41 61 52 63 70 64 43 65 30 66
REMARK SMILES IDX 31 67 36 68 32 69 33 70 35 71 37 72 34 73 56 74 57 75 62 76
REMARK SMILES IDX 58 77 59 78 61 79 63 80 60 81 44 82 45 83 50 84 46 85 47 86
REMARK SMILES IDX 49 87 51 88 48 89
REMARK H PARENT 78 19 68 51 42 62
REMARK Flexibility Score: inf
ROOT
ATOM      1  C   UNL A   1      39.697  21.132  25.861  1.00  0.00     0.188 C 
ENDROOT
BRANCH   1   2
ATOM      2  O   UNL A   1      38.296  20.950  25.703  1.00  0.00    -0.376 OA
BRANCH   2   3
ATOM      3  C   UNL A   1      37.475  22.113  25.721  1.00  0.00     0.202 C 
BRANCH   3   4
ATOM      4  C   UNL A   1      36.094  22.029  25.050  1.00  0.00     0.261 C 
BRANCH   4   5
ATOM      5  O   UNL A   1      35.078  22.920  25.557  1.00  0.00    -0.463 OA
BRANCH   5   6
ATOM      6  C   UNL A   1      34.314  22.395  26.548  1.00  0.00     0.310 C 
ATOM      7  O   UNL A   1      34.721  22.166  27.685  1.00  0.00    -0.252 OA
BRANCH   6   8
ATOM      8  C   UNL A   1      32.880  22.058  26.157  1.00  0.00     0.116 C 
ATOM      9  C   UNL A   1      31.941  20.984  21.919  1.00  0.00     0.039 C 
ATOM     10  C   UNL A   1      32.241  21.246  23.373  1.00  0.00    -0.074 C 
ATOM     11  C   UNL A   1      32.694  20.319  24.238  1.00  0.00    -0.073 C 
ATOM     12  C   UNL A   1      31.964  22.674  23.779  1.00  0.00     0.045 C 
ATOM     13  C   UNL A   1      32.994  18.880  23.900  1.00  0.00     0.039 C 
ATOM     14  C   UNL A   1      32.938  20.607  25.693  1.00  0.00     0.046 C 
ATOM     15  C   UNL A   1      32.131  23.045  25.254  1.00  0.00     0.097 C 
BRANCH  15  16
ATOM     16  C   UNL A   1      30.802  23.521  25.854  1.00  0.00     0.224 C 
ATOM     17  O   UNL A   1      30.200  22.794  26.651  1.00  0.00    -0.275 OA
ATOM     18  N   UNL A   1      30.218  24.714  25.590  1.00  0.00    -0.352 N 
ATOM     19  H   UNL A   1      29.431  24.899  26.152  1.00  0.00     0.163 HD
BRANCH  18  20
ATOM     20  C   UNL A   1      30.517  25.773  24.647  1.00  0.00     0.153 C 
BRANCH  20  21
ATOM     21  C   UNL A   1      31.013  27.027  25.315  1.00  0.00    -0.010 A 
ATOM     22  C   UNL A   1      31.510  27.056  26.623  1.00  0.00     0.009 A 
ATOM     23  C   UNL A   1      31.034  28.228  24.610  1.00  0.00     0.116 A 
ATOM     24  C   UNL A   1      31.927  28.262  27.181  1.00  0.00     0.020 A 
ATOM     25  N   UNL A   1      31.424  29.414  25.127  1.00  0.00    -0.264 NA
ATOM     26  C   UNL A   1      31.850  29.406  26.406  1.00  0.00     0.111 A 
ENDBRANCH  20  21
ENDBRANCH  18  20
ENDBRANCH  15  16
ENDBRANCH   6   8
ENDBRANCH   5   6
ENDBRANCH   4   5
ENDBRANCH   3   4
ENDBRANCH   2   3
ENDBRANCH   1   2
BRANCH   1  27
ATOM     27  C   UNL A   1      40.533  19.894  26.164  1.00  0.00     0.188 C 
BRANCH  27  28
ATOM     28  O   UNL A   1      41.765  19.759  25.475  1.00  0.00    -0.376 OA
BRANCH  28  29
ATOM     29  C   UNL A   1      42.880  20.439  26.062  1.00  0.00     0.202 C 
BRANCH  29  30
ATOM     30  C   UNL A   1      43.690  21.402  25.157  1.00  0.00     0.261 C 
BRANCH  30  31
ATOM     31  O   UNL A   1      43.070  22.668  24.823  1.00  0.00    -0.460 OA
BRANCH  31  32
ATOM     32  C   UNL A   1      43.820  23.792  24.964  1.00  0.00     0.338 C 
ATOM     33  O   UNL A   1      44.766  24.104  24.277  1.00  0.00    -0.246 OA
BRANCH  32  34
ATOM     34  C   UNL A   1      43.130  24.715  25.925  1.00  0.00     0.060 A 
ATOM     35  C   UNL A   1      43.492  26.069  25.897  1.00  0.00     0.016 A 
ATOM     36  C   UNL A   1      42.107  24.305  26.785  1.00  0.00     0.016 A 
ATOM     37  C   UNL A   1      42.870  27.004  26.736  1.00  0.00     0.010 A 
ATOM     38  C   UNL A   1      41.506  25.235  27.653  1.00  0.00     0.010 A 
ATOM     39  C   UNL A   1      41.905  26.587  27.658  1.00  0.00    -0.014 A 
BRANCH  39  40
ATOM     40  C   UNL A   1      41.501  27.494  28.771  1.00  0.00     0.031 A 
ATOM     41  C   UNL A   1      42.288  27.428  30.056  1.00  0.00     0.074 A 
ATOM     42  C   UNL A   1      40.496  28.385  28.667  1.00  0.00     0.049 A 
ATOM     43  N   UNL A   1      42.091  28.046  31.194  1.00  0.00    -0.248 NA
ATOM     44  C   UNL A   1      43.460  26.539  30.050  1.00  0.00     0.031 C 
ATOM     45  C   UNL A   1      39.686  28.621  27.475  1.00  0.00     0.029 A 
ATOM     46  N   UNL A   1      39.979  29.256  29.602  1.00  0.00    -0.354 N 
ATOM     47  C   UNL A   1      43.100  27.604  32.043  1.00  0.00     0.074 A 
ATOM     48  C   UNL A   1      43.894  26.653  31.295  1.00  0.00     0.031 C 
ATOM     49  C   UNL A   1      38.758  29.554  27.756  1.00  0.00     0.029 A 
ATOM     50  C   UNL A   1      38.883  29.959  29.158  1.00  0.00     0.049 A 
ATOM     51  H   UNL A   1      40.358  29.364  30.503  1.00  0.00     0.167 HD
ATOM     52  C   UNL A   1      43.351  27.957  33.326  1.00  0.00     0.037 A 
ATOM     53  C   UNL A   1      38.058  30.803  29.812  1.00  0.00     0.037 A 
ATOM     54  C   UNL A   1      42.573  28.906  34.078  1.00  0.00     0.049 A 
ATOM     55  C   UNL A   1      38.300  31.116  31.270  1.00  0.00     0.074 A 
ATOM     56  C   UNL A   1      42.765  29.336  35.379  1.00  0.00     0.029 A 
ATOM     57  N   UNL A   1      41.450  29.563  33.601  1.00  0.00    -0.354 N 
ATOM     58  N   UNL A   1      39.261  30.702  32.059  1.00  0.00    -0.248 NA
ATOM     59  C   UNL A   1      37.338  32.016  31.928  1.00  0.00     0.031 C 
ATOM     60  C   UNL A   1      41.722  30.208  35.710  1.00  0.00     0.029 A 
ATOM     61  C   UNL A   1      40.921  30.372  34.593  1.00  0.00     0.049 A 
ATOM     62  H   UNL A   1      41.083  29.470  32.692  1.00  0.00     0.167 HD
ATOM     63  C   UNL A   1      39.038  31.312  33.290  1.00  0.00     0.074 A 
ATOM     64  C   UNL A   1      37.859  32.137  33.142  1.00  0.00     0.031 C 
ATOM     65  C   UNL A   1      39.751  31.201  34.439  1.00  0.00     0.037 A 
BRANCH  52  66
ATOM     66  C   UNL A   1      44.496  27.273  34.017  1.00  0.00     0.057 A 
ATOM     67  C   UNL A   1      45.774  27.844  34.084  1.00  0.00     0.134 A 
ATOM     68  C   UNL A   1      44.308  26.034  34.642  1.00  0.00     0.134 A 
ATOM     69  F   UNL A   1      46.027  29.022  33.493  1.00  0.00    -0.206 F 
ATOM     70  C   UNL A   1      46.831  27.191  34.723  1.00  0.00     0.040 A 
ATOM     71  C   UNL A   1      45.348  25.387  35.310  1.00  0.00     0.040 A 
ATOM     72  F   UNL A   1      43.108  25.436  34.621  1.00  0.00    -0.206 F 
ATOM     73  C   UNL A   1      46.617  25.962  35.344  1.00  0.00     0.006 A 
ENDBRANCH  52  66
BRANCH  53  74
ATOM     74  C   UNL A   1      36.885  31.395  29.112  1.00  0.00     0.057 A 
ATOM     75  C   UNL A   1      35.735  30.642  28.845  1.00  0.00     0.134 A 
ATOM     76  C   UNL A   1      36.907  32.718  28.650  1.00  0.00     0.134 A 
ATOM     77  F   UNL A   1      35.664  29.359  29.228  1.00  0.00    -0.206 F 
ATOM     78  C   UNL A   1      34.658  31.176  28.132  1.00  0.00     0.040 A 
ATOM     79  C   UNL A   1      35.826  33.273  27.963  1.00  0.00     0.040 A 
ATOM     80  F   UNL A   1      37.983  33.490  28.861  1.00  0.00    -0.206 F 
ATOM     81  C   UNL A   1      34.700  32.498  27.695  1.00  0.00     0.006 A 
ENDBRANCH  53  74
BRANCH  65  82
ATOM     82  C   UNL A   1      39.311  32.022  35.620  1.00  0.00     0.057 A 
ATOM     83  C   UNL A   1      38.454  31.514  36.604  1.00  0.00     0.134 A 
ATOM     84  C   UNL A   1      39.796  33.325  35.800  1.00  0.00     0.134 A 
ATOM     85  F   UNL A   1      37.946  30.278  36.492  1.00  0.00    -0.206 F 
ATOM     86  C   UNL A   1      38.076  32.280  37.711  1.00  0.00     0.040 A 
ATOM     87  C   UNL A   1      39.450  34.089  36.916  1.00  0.00     0.040 A 
ATOM     88  F   UNL A   1      40.631  33.871  34.903  1.00  0.00    -0.206 F 
ATOM     89  C   UNL A   1      38.582  33.569  37.872  1.00  0.00     0.006 A 
ENDBRANCH  65  82
ENDBRANCH  39  40
ENDBRANCH  32  34
ENDBRANCH  31  32
ENDBRANCH  30  31
ENDBRANCH  29  30
ENDBRANCH  28  29
ENDBRANCH  27  28
ENDBRANCH   1  27
TORSDOF 20
ENDMDL
