MODEL 1
REMARK VINA RESULT:     -10.4      0.000      0.000
REMARK SMILES Cc1ccccc1-c1nc(CC(=O)OCCOCCOCCOC(=O)c2ccc(-c3c4nc(c(-c5c(F)cccc5F)c5ccc([nH]5)c(-c5c(F)cccc5F)c5nc(c(-c6c(F)cccc6F)c6ccc3[nH]6)C=C5)C=C4)cc2)cs1
REMARK SMILES IDX 18 1 17 2 16 3 15 4 14 5 12 6 13 7 11 8 10 9 8 10 9 11 81 12
REMARK SMILES IDX 80 13 7 14 1 15 2 16 3 17 4 18 6 19 5 20 19 21 20 22 21 23
REMARK SMILES IDX 22 24 23 25 24 26 25 27 26 28 27 29 79 30 28 31 78 32 29 33
REMARK SMILES IDX 30 34 31 35 72 36 32 37 77 38 71 39 73 40 33 41 76 42 70 43
REMARK SMILES IDX 69 44 34 46 60 47 43 48 59 49 44 50 47 51 58 52 74 53 45 54
REMARK SMILES IDX 46 55 57 57 75 58 48 59 35 60 36 61 41 62 37 63 38 64 40 65
REMARK SMILES IDX 42 66 39 67 61 68 62 69 67 70 63 71 64 72 66 73 68 74 65 75
REMARK SMILES IDX 49 76 50 77 55 78 51 79 52 80 54 81 56 82 53 83
REMARK H PARENT 73 45 47 56
REMARK Flexibility Score: inf
ROOT
ATOM      1  C   UNL A   1      34.275  33.241  27.991  1.00  0.00     0.188 C 
ENDROOT
BRANCH   1   2
ATOM      2  O   UNL A   1      34.375  31.844  27.715  1.00  0.00    -0.376 OA
BRANCH   2   3
ATOM      3  C   UNL A   1      33.213  31.061  27.427  1.00  0.00     0.202 C 
BRANCH   3   4
ATOM      4  C   UNL A   1      33.314  29.899  26.398  1.00  0.00     0.261 C 
BRANCH   4   5
ATOM      5  O   UNL A   1      32.349  29.806  25.304  1.00  0.00    -0.463 OA
BRANCH   5   6
ATOM      6  C   UNL A   1      32.183  28.896  24.272  1.00  0.00     0.311 C 
ATOM      7  O   UNL A   1      31.787  29.219  23.158  1.00  0.00    -0.252 OA
BRANCH   6   8
ATOM      8  C   UNL A   1      32.753  27.501  24.694  1.00  0.00     0.179 C 
BRANCH   8   9
ATOM      9  C   UNL A   1      32.878  26.302  23.836  1.00  0.00     0.063 A 
ATOM     10  C   UNL A   1      33.860  24.392  23.635  1.00  0.00     0.123 A 
ATOM     11  N   UNL A   1      34.066  25.667  23.878  1.00  0.00    -0.240 NA
ATOM     12  S   UNL A   1      32.470  24.048  22.707  1.00  0.00    -0.122 S 
ATOM     13  C   UNL A   1      31.846  25.539  23.279  1.00  0.00     0.091 A 
BRANCH  10  14
ATOM     14  C   UNL A   1      34.751  23.410  24.211  1.00  0.00     0.013 A 
ATOM     15  C   UNL A   1      33.742  23.458  26.597  1.00  0.00     0.045 C 
ATOM     16  C   UNL A   1      34.743  23.010  25.562  1.00  0.00    -0.041 A 
ATOM     17  C   UNL A   1      35.789  22.185  26.003  1.00  0.00     0.004 A 
ATOM     18  C   UNL A   1      36.859  21.858  25.164  1.00  0.00     0.000 A 
ATOM     19  C   UNL A   1      35.845  23.082  23.386  1.00  0.00     0.011 A 
ATOM     20  C   UNL A   1      36.901  22.328  23.860  1.00  0.00     0.001 A 
ENDBRANCH  10  14
ENDBRANCH   8   9
ENDBRANCH   6   8
ENDBRANCH   5   6
ENDBRANCH   4   5
ENDBRANCH   3   4
ENDBRANCH   2   3
ENDBRANCH   1   2
BRANCH   1  21
ATOM     21  C   UNL A   1      32.910  33.928  28.045  1.00  0.00     0.188 C 
BRANCH  21  22
ATOM     22  O   UNL A   1      32.747  34.492  29.340  1.00  0.00    -0.376 OA
BRANCH  22  23
ATOM     23  C   UNL A   1      33.017  35.881  29.458  1.00  0.00     0.202 C 
BRANCH  23  24
ATOM     24  C   UNL A   1      33.055  36.383  30.917  1.00  0.00     0.261 C 
BRANCH  24  25
ATOM     25  O   UNL A   1      33.229  35.275  31.840  1.00  0.00    -0.460 OA
BRANCH  25  26
ATOM     26  C   UNL A   1      34.459  35.096  32.421  1.00  0.00     0.338 C 
ATOM     27  O   UNL A   1      35.127  35.977  32.931  1.00  0.00    -0.246 OA
BRANCH  26  28
ATOM     28  C   UNL A   1      34.985  33.717  32.105  1.00  0.00     0.060 A 
ATOM     29  C   UNL A   1      35.219  32.676  33.020  1.00  0.00     0.016 A 
ATOM     30  C   UNL A   1      35.647  33.620  30.923  1.00  0.00     0.016 A 
ATOM     31  C   UNL A   1      36.196  31.627  32.754  1.00  0.00     0.010 A 
ATOM     32  C   UNL A   1      36.783  32.821  30.915  1.00  0.00     0.010 A 
ATOM     33  C   UNL A   1      37.077  31.692  31.666  1.00  0.00    -0.014 A 
BRANCH  33  34
ATOM     34  C   UNL A   1      38.451  31.010  31.463  1.00  0.00     0.031 A 
ATOM     35  C   UNL A   1      38.920  29.690  30.749  1.00  0.00     0.074 A 
ATOM     36  C   UNL A   1      39.485  31.758  31.891  1.00  0.00     0.049 A 
ATOM     37  N   UNL A   1      39.856  28.855  31.152  1.00  0.00    -0.248 NA
ATOM     38  C   UNL A   1      38.381  29.112  29.517  1.00  0.00     0.031 C 
ATOM     39  C   UNL A   1      40.886  31.647  31.529  1.00  0.00     0.029 A 
ATOM     40  N   UNL A   1      39.461  32.728  32.873  1.00  0.00    -0.354 N 
ATOM     41  C   UNL A   1      40.033  27.931  30.091  1.00  0.00     0.074 A 
ATOM     42  C   UNL A   1      38.749  27.840  29.507  1.00  0.00     0.031 C 
ATOM     43  C   UNL A   1      41.610  32.358  32.407  1.00  0.00     0.029 A 
ATOM     44  C   UNL A   1      40.720  32.806  33.462  1.00  0.00     0.049 A 
ATOM     45  H   UNL A   1      38.680  33.276  33.118  1.00  0.00     0.167 HD
ATOM     46  C   UNL A   1      41.246  27.678  29.481  1.00  0.00     0.037 A 
ATOM     47  C   UNL A   1      40.806  32.524  34.795  1.00  0.00     0.037 A 
ATOM     48  C   UNL A   1      42.302  28.278  30.279  1.00  0.00     0.049 A 
ATOM     49  C   UNL A   1      41.527  31.206  35.040  1.00  0.00     0.074 A 
ATOM     50  C   UNL A   1      43.259  29.268  30.151  1.00  0.00     0.029 A 
ATOM     51  N   UNL A   1      42.283  27.960  31.609  1.00  0.00    -0.354 N 
ATOM     52  N   UNL A   1      42.244  30.585  34.138  1.00  0.00    -0.248 NA
ATOM     53  C   UNL A   1      41.444  30.435  36.281  1.00  0.00     0.031 C 
ATOM     54  C   UNL A   1      43.791  29.530  31.461  1.00  0.00     0.029 A 
ATOM     55  C   UNL A   1      43.176  28.671  32.355  1.00  0.00     0.049 A 
ATOM     56  H   UNL A   1      41.681  27.281  31.991  1.00  0.00     0.167 HD
ATOM     57  C   UNL A   1      42.569  29.331  34.580  1.00  0.00     0.074 A 
ATOM     58  C   UNL A   1      42.088  29.302  35.950  1.00  0.00     0.031 C 
ATOM     59  C   UNL A   1      43.127  28.376  33.775  1.00  0.00     0.037 A 
BRANCH  46  60
ATOM     60  C   UNL A   1      41.515  27.062  28.068  1.00  0.00     0.057 A 
ATOM     61  C   UNL A   1      42.069  25.764  27.962  1.00  0.00     0.134 A 
ATOM     62  C   UNL A   1      41.294  27.637  26.790  1.00  0.00     0.134 A 
ATOM     63  F   UNL A   1      42.255  24.992  29.040  1.00  0.00    -0.206 F 
ATOM     64  C   UNL A   1      42.443  25.155  26.744  1.00  0.00     0.040 A 
ATOM     65  C   UNL A   1      41.690  27.053  25.567  1.00  0.00     0.040 A 
ATOM     66  F   UNL A   1      40.615  28.766  26.596  1.00  0.00    -0.206 F 
ATOM     67  C   UNL A   1      42.278  25.808  25.537  1.00  0.00     0.006 A 
ENDBRANCH  46  60
BRANCH  47  68
ATOM     68  C   UNL A   1      39.643  33.132  35.533  1.00  0.00     0.057 A 
ATOM     69  C   UNL A   1      38.566  32.264  35.842  1.00  0.00     0.134 A 
ATOM     70  C   UNL A   1      39.716  34.308  36.287  1.00  0.00     0.134 A 
ATOM     71  F   UNL A   1      38.433  31.099  35.186  1.00  0.00    -0.206 F 
ATOM     72  C   UNL A   1      37.710  32.477  36.929  1.00  0.00     0.040 A 
ATOM     73  C   UNL A   1      38.827  34.556  37.351  1.00  0.00     0.040 A 
ATOM     74  F   UNL A   1      40.723  35.175  36.114  1.00  0.00    -0.206 F 
ATOM     75  C   UNL A   1      37.854  33.620  37.702  1.00  0.00     0.006 A 
ENDBRANCH  47  68
BRANCH  59  76
ATOM     76  C   UNL A   1      43.494  26.987  34.255  1.00  0.00     0.057 A 
ATOM     77  C   UNL A   1      44.810  26.526  34.182  1.00  0.00     0.134 A 
ATOM     78  C   UNL A   1      42.552  26.026  34.706  1.00  0.00     0.134 A 
ATOM     79  F   UNL A   1      45.780  27.297  33.669  1.00  0.00    -0.206 F 
ATOM     80  C   UNL A   1      45.181  25.246  34.614  1.00  0.00     0.040 A 
ATOM     81  C   UNL A   1      42.902  24.732  35.094  1.00  0.00     0.040 A 
ATOM     82  F   UNL A   1      41.243  26.281  34.824  1.00  0.00    -0.206 F 
ATOM     83  C   UNL A   1      44.227  24.345  35.074  1.00  0.00     0.006 A 
ENDBRANCH  59  76
ENDBRANCH  33  34
ENDBRANCH  26  28
ENDBRANCH  25  26
ENDBRANCH  24  25
ENDBRANCH  23  24
ENDBRANCH  22  23
ENDBRANCH  21  22
ENDBRANCH   1  21
TORSDOF 19
ENDMDL
MODEL 2
REMARK VINA RESULT:     -10.4      1.737      2.467
REMARK SMILES Cc1ccccc1-c1nc(CC(=O)OCCOCCOCCOC(=O)c2ccc(-c3c4nc(c(-c5c(F)cccc5F)c5ccc([nH]5)c(-c5c(F)cccc5F)c5nc(c(-c6c(F)cccc6F)c6ccc3[nH]6)C=C5)C=C4)cc2)cs1
REMARK SMILES IDX 18 1 17 2 16 3 15 4 14 5 12 6 13 7 11 8 10 9 8 10 9 11 81 12
REMARK SMILES IDX 80 13 7 14 1 15 2 16 3 17 4 18 6 19 5 20 19 21 20 22 21 23
REMARK SMILES IDX 22 24 23 25 24 26 25 27 26 28 27 29 79 30 28 31 78 32 29 33
REMARK SMILES IDX 30 34 31 35 72 36 32 37 77 38 71 39 73 40 33 41 76 42 70 43
REMARK SMILES IDX 69 44 34 46 60 47 43 48 59 49 44 50 47 51 58 52 74 53 45 54
REMARK SMILES IDX 46 55 57 57 75 58 48 59 35 60 36 61 41 62 37 63 38 64 40 65
REMARK SMILES IDX 42 66 39 67 61 68 62 69 67 70 63 71 64 72 66 73 68 74 65 75
REMARK SMILES IDX 49 76 50 77 55 78 51 79 52 80 54 81 56 82 53 83
REMARK H PARENT 73 45 47 56
REMARK Flexibility Score: inf
ROOT
ATOM      1  C   UNL A   1      33.731  34.819  28.510  1.00  0.00     0.188 C 
ENDROOT
BRANCH   1   2
ATOM      2  O   UNL A   1      34.996  34.392  28.006  1.00  0.00    -0.376 OA
BRANCH   2   3
ATOM      3  C   UNL A   1      35.344  33.005  27.957  1.00  0.00     0.202 C 
BRANCH   3   4
ATOM      4  C   UNL A   1      34.429  31.966  28.669  1.00  0.00     0.261 C 
BRANCH   4   5
ATOM      5  O   UNL A   1      33.967  30.783  27.946  1.00  0.00    -0.463 OA
BRANCH   5   6
ATOM      6  C   UNL A   1      34.633  29.701  27.391  1.00  0.00     0.311 C 
ATOM      7  O   UNL A   1      35.805  29.442  27.641  1.00  0.00    -0.252 OA
BRANCH   6   8
ATOM      8  C   UNL A   1      33.624  28.805  26.598  1.00  0.00     0.179 C 
BRANCH   8   9
ATOM      9  C   UNL A   1      33.698  28.452  25.163  1.00  0.00     0.063 A 
ATOM     10  C   UNL A   1      33.209  26.935  23.710  1.00  0.00     0.123 A 
ATOM     11  N   UNL A   1      33.768  27.135  24.881  1.00  0.00    -0.240 NA
ATOM     12  S   UNL A   1      33.229  28.279  22.658  1.00  0.00    -0.122 S 
ATOM     13  C   UNL A   1      33.345  29.248  24.068  1.00  0.00     0.091 A 
BRANCH  10  14
ATOM     14  C   UNL A   1      32.577  25.663  23.437  1.00  0.00     0.013 A 
ATOM     15  C   UNL A   1      30.223  26.310  24.306  1.00  0.00     0.045 C 
ATOM     16  C   UNL A   1      31.239  25.346  23.744  1.00  0.00    -0.041 A 
ATOM     17  C   UNL A   1      30.831  24.013  23.584  1.00  0.00     0.004 A 
ATOM     18  C   UNL A   1      31.744  23.012  23.235  1.00  0.00     0.000 A 
ATOM     19  C   UNL A   1      33.483  24.638  23.101  1.00  0.00     0.011 A 
ATOM     20  C   UNL A   1      33.079  23.320  23.019  1.00  0.00     0.001 A 
ENDBRANCH  10  14
ENDBRANCH   8   9
ENDBRANCH   6   8
ENDBRANCH   5   6
ENDBRANCH   4   5
ENDBRANCH   3   4
ENDBRANCH   2   3
ENDBRANCH   1   2
BRANCH   1  21
ATOM     21  C   UNL A   1      33.452  36.301  28.759  1.00  0.00     0.188 C 
BRANCH  21  22
ATOM     22  O   UNL A   1      32.472  36.403  29.784  1.00  0.00    -0.376 OA
BRANCH  22  23
ATOM     23  C   UNL A   1      32.945  36.783  31.068  1.00  0.00     0.202 C 
BRANCH  23  24
ATOM     24  C   UNL A   1      32.764  35.690  32.143  1.00  0.00     0.261 C 
BRANCH  24  25
ATOM     25  O   UNL A   1      33.348  34.434  31.706  1.00  0.00    -0.460 OA
BRANCH  25  26
ATOM     26  C   UNL A   1      33.811  33.562  32.658  1.00  0.00     0.338 C 
ATOM     27  O   UNL A   1      33.123  33.017  33.502  1.00  0.00    -0.246 OA
BRANCH  26  28
ATOM     28  C   UNL A   1      35.320  33.580  32.686  1.00  0.00     0.060 A 
ATOM     29  C   UNL A   1      36.173  34.062  31.677  1.00  0.00     0.016 A 
ATOM     30  C   UNL A   1      35.882  32.711  33.566  1.00  0.00     0.016 A 
ATOM     31  C   UNL A   1      37.537  33.568  31.527  1.00  0.00     0.010 A 
ATOM     32  C   UNL A   1      37.025  32.051  33.136  1.00  0.00     0.010 A 
ATOM     33  C   UNL A   1      38.014  32.470  32.257  1.00  0.00    -0.014 A 
BRANCH  33  34
ATOM     34  C   UNL A   1      39.176  31.499  31.938  1.00  0.00     0.031 A 
ATOM     35  C   UNL A   1      39.274  30.127  31.177  1.00  0.00     0.074 A 
ATOM     36  C   UNL A   1      40.382  31.980  32.288  1.00  0.00     0.049 A 
ATOM     37  N   UNL A   1      40.022  29.091  31.496  1.00  0.00    -0.248 NA
ATOM     38  C   UNL A   1      38.525  29.720  29.987  1.00  0.00     0.031 C 
ATOM     39  C   UNL A   1      41.689  31.563  31.813  1.00  0.00     0.029 A 
ATOM     40  N   UNL A   1      40.657  32.903  33.277  1.00  0.00    -0.354 N 
ATOM     41  C   UNL A   1      39.901  28.179  30.416  1.00  0.00     0.074 A 
ATOM     42  C   UNL A   1      38.590  28.398  29.937  1.00  0.00     0.031 C 
ATOM     43  C   UNL A   1      42.622  32.067  32.636  1.00  0.00     0.029 A 
ATOM     44  C   UNL A   1      41.942  32.677  33.763  1.00  0.00     0.049 A 
ATOM     45  H   UNL A   1      40.043  33.608  33.589  1.00  0.00     0.167 HD
ATOM     46  C   UNL A   1      40.974  27.673  29.708  1.00  0.00     0.037 A 
ATOM     47  C   UNL A   1      42.063  32.347  35.083  1.00  0.00     0.037 A 
ATOM     48  C   UNL A   1      42.197  27.996  30.423  1.00  0.00     0.049 A 
ATOM     49  C   UNL A   1      42.479  30.894  35.257  1.00  0.00     0.074 A 
ATOM     50  C   UNL A   1      43.342  28.745  30.228  1.00  0.00     0.029 A 
ATOM     51  N   UNL A   1      42.207  27.655  31.748  1.00  0.00    -0.354 N 
ATOM     52  N   UNL A   1      42.964  30.150  34.295  1.00  0.00    -0.248 NA
ATOM     53  C   UNL A   1      42.317  30.129  36.494  1.00  0.00     0.031 C 
ATOM     54  C   UNL A   1      44.019  28.843  31.493  1.00  0.00     0.029 A 
ATOM     55  C   UNL A   1      43.294  28.124  32.426  1.00  0.00     0.049 A 
ATOM     56  H   UNL A   1      41.497  27.120  32.171  1.00  0.00     0.167 HD
ATOM     57  C   UNL A   1      43.026  28.843  34.698  1.00  0.00     0.074 A 
ATOM     58  C   UNL A   1      42.657  28.888  36.102  1.00  0.00     0.031 C 
ATOM     59  C   UNL A   1      43.287  27.809  33.842  1.00  0.00     0.037 A 
BRANCH  46  60
ATOM     60  C   UNL A   1      40.985  27.051  28.272  1.00  0.00     0.057 A 
ATOM     61  C   UNL A   1      40.273  25.854  28.020  1.00  0.00     0.134 A 
ATOM     62  C   UNL A   1      41.651  27.512  27.108  1.00  0.00     0.134 A 
ATOM     63  F   UNL A   1      39.481  25.302  28.948  1.00  0.00    -0.206 F 
ATOM     64  C   UNL A   1      40.297  25.156  26.793  1.00  0.00     0.040 A 
ATOM     65  C   UNL A   1      41.709  26.810  25.885  1.00  0.00     0.040 A 
ATOM     66  F   UNL A   1      42.237  28.704  27.016  1.00  0.00    -0.206 F 
ATOM     67  C   UNL A   1      41.037  25.618  25.722  1.00  0.00     0.006 A 
ENDBRANCH  46  60
BRANCH  47  68
ATOM     68  C   UNL A   1      41.129  33.183  35.917  1.00  0.00     0.057 A 
ATOM     69  C   UNL A   1      41.528  34.520  36.167  1.00  0.00     0.134 A 
ATOM     70  C   UNL A   1      39.768  32.909  36.091  1.00  0.00     0.134 A 
ATOM     71  F   UNL A   1      42.812  34.879  35.999  1.00  0.00    -0.206 F 
ATOM     72  C   UNL A   1      40.614  35.548  36.422  1.00  0.00     0.040 A 
ATOM     73  C   UNL A   1      38.846  33.929  36.399  1.00  0.00     0.040 A 
ATOM     74  F   UNL A   1      39.273  31.692  35.832  1.00  0.00    -0.206 F 
ATOM     75  C   UNL A   1      39.261  35.255  36.518  1.00  0.00     0.006 A 
ENDBRANCH  47  68
BRANCH  59  76
ATOM     76  C   UNL A   1      43.362  26.360  34.279  1.00  0.00     0.057 A 
ATOM     77  C   UNL A   1      44.519  25.607  34.072  1.00  0.00     0.134 A 
ATOM     78  C   UNL A   1      42.269  25.635  34.820  1.00  0.00     0.134 A 
ATOM     79  F   UNL A   1      45.589  26.142  33.466  1.00  0.00    -0.206 F 
ATOM     80  C   UNL A   1      44.619  24.264  34.460  1.00  0.00     0.040 A 
ATOM     81  C   UNL A   1      42.341  24.285  35.167  1.00  0.00     0.040 A 
ATOM     82  F   UNL A   1      41.074  26.185  35.070  1.00  0.00    -0.206 F 
ATOM     83  C   UNL A   1      43.529  23.600  35.012  1.00  0.00     0.006 A 
ENDBRANCH  59  76
ENDBRANCH  33  34
ENDBRANCH  26  28
ENDBRANCH  25  26
ENDBRANCH  24  25
ENDBRANCH  23  24
ENDBRANCH  22  23
ENDBRANCH  21  22
ENDBRANCH   1  21
TORSDOF 19
ENDMDL
MODEL 3
REMARK VINA RESULT:     -10.3      3.832      9.206
REMARK SMILES Cc1ccccc1-c1nc(CC(=O)OCCOCCOCCOC(=O)c2ccc(-c3c4nc(c(-c5c(F)cccc5F)c5ccc([nH]5)c(-c5c(F)cccc5F)c5nc(c(-c6c(F)cccc6F)c6ccc3[nH]6)C=C5)C=C4)cc2)cs1
REMARK SMILES IDX 18 1 17 2 16 3 15 4 14 5 12 6 13 7 11 8 10 9 8 10 9 11 81 12
REMARK SMILES IDX 80 13 7 14 1 15 2 16 3 17 4 18 6 19 5 20 19 21 20 22 21 23
REMARK SMILES IDX 22 24 23 25 24 26 25 27 26 28 27 29 79 30 28 31 78 32 29 33
REMARK SMILES IDX 30 34 31 35 72 36 32 37 77 38 71 39 73 40 33 41 76 42 70 43
REMARK SMILES IDX 69 44 34 46 60 47 43 48 59 49 44 50 47 51 58 52 74 53 45 54
REMARK SMILES IDX 46 55 57 57 75 58 48 59 35 60 36 61 41 62 37 63 38 64 40 65
REMARK SMILES IDX 42 66 39 67 61 68 62 69 67 70 63 71 64 72 66 73 68 74 65 75
REMARK SMILES IDX 49 76 50 77 55 78 51 79 52 80 54 81 56 82 53 83
REMARK H PARENT 73 45 47 56
REMARK Flexibility Score: inf
ROOT
ATOM      1  C   UNL A   1      35.451  22.280  24.419  1.00  0.00     0.188 C 
ENDROOT
BRANCH   1   2
ATOM      2  O   UNL A   1      34.174  22.721  23.960  1.00  0.00    -0.376 OA
BRANCH   2   3
ATOM      3  C   UNL A   1      33.083  21.807  23.814  1.00  0.00     0.202 C 
BRANCH   3   4
ATOM      4  C   UNL A   1      31.947  21.802  24.877  1.00  0.00     0.261 C 
BRANCH   4   5
ATOM      5  O   UNL A   1      31.345  23.062  25.309  1.00  0.00    -0.463 OA
BRANCH   5   6
ATOM      6  C   UNL A   1      31.520  23.851  26.434  1.00  0.00     0.311 C 
ATOM      7  O   UNL A   1      31.171  23.499  27.555  1.00  0.00    -0.252 OA
BRANCH   6   8
ATOM      8  C   UNL A   1      32.378  25.110  26.074  1.00  0.00     0.179 C 
BRANCH   8   9
ATOM      9  C   UNL A   1      32.483  25.756  24.747  1.00  0.00     0.063 A 
ATOM     10  C   UNL A   1      31.746  27.376  23.528  1.00  0.00     0.123 A 
ATOM     11  N   UNL A   1      31.375  26.384  24.306  1.00  0.00    -0.240 NA
ATOM     12  S   UNL A   1      33.261  27.174  22.771  1.00  0.00    -0.122 S 
ATOM     13  C   UNL A   1      33.649  26.114  24.062  1.00  0.00     0.091 A 
BRANCH  10  14
ATOM     14  C   UNL A   1      30.908  28.551  23.435  1.00  0.00     0.013 A 
ATOM     15  C   UNL A   1      31.871  29.765  25.512  1.00  0.00     0.045 C 
ATOM     16  C   UNL A   1      30.917  29.621  24.351  1.00  0.00    -0.041 A 
ATOM     17  C   UNL A   1      29.918  30.598  24.223  1.00  0.00     0.004 A 
ATOM     18  C   UNL A   1      28.886  30.461  23.289  1.00  0.00     0.000 A 
ATOM     19  C   UNL A   1      29.852  28.424  22.511  1.00  0.00     0.011 A 
ATOM     20  C   UNL A   1      28.837  29.359  22.448  1.00  0.00     0.001 A 
ENDBRANCH  10  14
ENDBRANCH   8   9
ENDBRANCH   6   8
ENDBRANCH   5   6
ENDBRANCH   4   5
ENDBRANCH   3   4
ENDBRANCH   2   3
ENDBRANCH   1   2
BRANCH   1  21
ATOM     21  C   UNL A   1      36.735  22.857  23.823  1.00  0.00     0.188 C 
BRANCH  21  22
ATOM     22  O   UNL A   1      37.722  22.895  24.845  1.00  0.00    -0.376 OA
BRANCH  22  23
ATOM     23  C   UNL A   1      37.799  21.752  25.685  1.00  0.00     0.202 C 
BRANCH  23  24
ATOM     24  C   UNL A   1      39.241  21.259  25.930  1.00  0.00     0.261 C 
BRANCH  24  25
ATOM     25  O   UNL A   1      39.875  22.024  26.989  1.00  0.00    -0.460 OA
BRANCH  25  26
ATOM     26  C   UNL A   1      40.871  22.905  26.653  1.00  0.00     0.338 C 
ATOM     27  O   UNL A   1      42.048  22.617  26.526  1.00  0.00    -0.246 OA
BRANCH  26  28
ATOM     28  C   UNL A   1      40.355  24.322  26.726  1.00  0.00     0.060 A 
ATOM     29  C   UNL A   1      40.978  25.470  26.206  1.00  0.00     0.016 A 
ATOM     30  C   UNL A   1      39.436  24.541  27.701  1.00  0.00     0.016 A 
ATOM     31  C   UNL A   1      40.730  26.795  26.764  1.00  0.00     0.010 A 
ATOM     32  C   UNL A   1      39.540  25.745  28.387  1.00  0.00     0.010 A 
ATOM     33  C   UNL A   1      40.004  26.977  27.949  1.00  0.00    -0.014 A 
BRANCH  33  34
ATOM     34  C   UNL A   1      40.029  28.154  28.953  1.00  0.00     0.031 A 
ATOM     35  C   UNL A   1      39.190  29.474  29.110  1.00  0.00     0.074 A 
ATOM     36  C   UNL A   1      40.875  27.959  29.981  1.00  0.00     0.049 A 
ATOM     37  N   UNL A   1      39.630  30.660  29.474  1.00  0.00    -0.248 NA
ATOM     38  C   UNL A   1      37.761  29.649  28.844  1.00  0.00     0.031 C 
ATOM     39  C   UNL A   1      40.886  28.617  31.275  1.00  0.00     0.029 A 
ATOM     40  N   UNL A   1      42.007  27.168  29.990  1.00  0.00    -0.354 N 
ATOM     41  C   UNL A   1      38.476  31.467  29.641  1.00  0.00     0.074 A 
ATOM     42  C   UNL A   1      37.564  30.951  28.693  1.00  0.00     0.031 C 
ATOM     43  C   UNL A   1      42.063  28.366  31.870  1.00  0.00     0.029 A 
ATOM     44  C   UNL A   1      42.914  27.686  30.911  1.00  0.00     0.049 A 
ATOM     45  H   UNL A   1      42.150  26.367  29.436  1.00  0.00     0.167 HD
ATOM     46  C   UNL A   1      38.173  32.151  30.803  1.00  0.00     0.037 A 
ATOM     47  C   UNL A   1      44.122  28.103  30.432  1.00  0.00     0.037 A 
ATOM     48  C   UNL A   1      39.338  32.133  31.671  1.00  0.00     0.049 A 
ATOM     49  C   UNL A   1      44.249  29.619  30.484  1.00  0.00     0.074 A 
ATOM     50  C   UNL A   1      39.698  31.635  32.909  1.00  0.00     0.029 A 
ATOM     51  N   UNL A   1      40.508  32.538  31.088  1.00  0.00    -0.354 N 
ATOM     52  N   UNL A   1      43.457  30.397  31.178  1.00  0.00    -0.248 NA
ATOM     53  C   UNL A   1      45.216  30.396  29.708  1.00  0.00     0.031 C 
ATOM     54  C   UNL A   1      41.127  31.748  33.026  1.00  0.00     0.029 A 
ATOM     55  C   UNL A   1      41.606  32.346  31.874  1.00  0.00     0.049 A 
ATOM     56  H   UNL A   1      40.552  32.931  30.187  1.00  0.00     0.167 HD
ATOM     57  C   UNL A   1      43.676  31.706  30.845  1.00  0.00     0.074 A 
ATOM     58  C   UNL A   1      44.824  31.658  29.957  1.00  0.00     0.031 C 
ATOM     59  C   UNL A   1      42.857  32.726  31.244  1.00  0.00     0.037 A 
BRANCH  46  60
ATOM     60  C   UNL A   1      36.783  32.685  31.282  1.00  0.00     0.057 A 
ATOM     61  C   UNL A   1      36.184  33.781  30.616  1.00  0.00     0.134 A 
ATOM     62  C   UNL A   1      35.978  32.231  32.358  1.00  0.00     0.134 A 
ATOM     63  F   UNL A   1      36.716  34.298  29.501  1.00  0.00    -0.206 F 
ATOM     64  C   UNL A   1      34.985  34.404  31.026  1.00  0.00     0.040 A 
ATOM     65  C   UNL A   1      34.794  32.862  32.798  1.00  0.00     0.040 A 
ATOM     66  F   UNL A   1      36.211  31.106  33.031  1.00  0.00    -0.206 F 
ATOM     67  C   UNL A   1      34.293  33.963  32.138  1.00  0.00     0.006 A 
ENDBRANCH  46  60
BRANCH  47  68
ATOM     68  C   UNL A   1      44.638  27.133  29.403  1.00  0.00     0.057 A 
ATOM     69  C   UNL A   1      45.149  25.904  29.890  1.00  0.00     0.134 A 
ATOM     70  C   UNL A   1      44.275  27.152  28.051  1.00  0.00     0.134 A 
ATOM     71  F   UNL A   1      45.497  25.788  31.182  1.00  0.00    -0.206 F 
ATOM     72  C   UNL A   1      45.154  24.731  29.127  1.00  0.00     0.040 A 
ATOM     73  C   UNL A   1      44.326  25.987  27.260  1.00  0.00     0.040 A 
ATOM     74  F   UNL A   1      43.733  28.245  27.499  1.00  0.00    -0.206 F 
ATOM     75  C   UNL A   1      44.720  24.767  27.810  1.00  0.00     0.006 A 
ENDBRANCH  47  68
BRANCH  59  76
ATOM     76  C   UNL A   1      43.093  34.179  30.884  1.00  0.00     0.057 A 
ATOM     77  C   UNL A   1      42.961  34.622  29.566  1.00  0.00     0.134 A 
ATOM     78  C   UNL A   1      43.555  35.160  31.799  1.00  0.00     0.134 A 
ATOM     79  F   UNL A   1      42.639  33.769  28.583  1.00  0.00    -0.206 F 
ATOM     80  C   UNL A   1      43.175  35.957  29.200  1.00  0.00     0.040 A 
ATOM     81  C   UNL A   1      43.818  36.482  31.437  1.00  0.00     0.040 A 
ATOM     82  F   UNL A   1      43.758  34.915  33.099  1.00  0.00    -0.206 F 
ATOM     83  C   UNL A   1      43.603  36.892  30.136  1.00  0.00     0.006 A 
ENDBRANCH  59  76
ENDBRANCH  33  34
ENDBRANCH  26  28
ENDBRANCH  25  26
ENDBRANCH  24  25
ENDBRANCH  23  24
ENDBRANCH  22  23
ENDBRANCH  21  22
ENDBRANCH   1  21
TORSDOF 19
ENDMDL
