MODEL 1
REMARK VINA RESULT:     -10.9      0.000      0.000
REMARK SMILES COc1ccc([C@H]2CC(c3ccc(S(C)(=O)=O)cc3)=NN2c2ccc(C(=O)OCCOCCOCCOC(=O)c3ccc(-c4c5nc(c(-c6c(F)cccc6F)c6ccc([nH]6)c(-c6c(F)cccc6F)c6nc(c(-c7c(F)cccc7F)c7ccc4[nH]7)C=C6)C=C5)cc3)cc2)cc1
REMARK SMILES IDX 32 1 31 2 30 3 29 4 28 5 26 6 27 7 25 8 22 9 23 10 95 11
REMARK SMILES IDX 24 12 94 13 21 14 7 15 8 16 9 17 20 18 6 19 3 20 4 21 97 22
REMARK SMILES IDX 5 23 96 24 2 25 1 26 10 27 11 28 19 29 12 30 18 31 13 32
REMARK SMILES IDX 14 33 15 34 16 35 17 36 33 37 34 38 35 39 36 40 37 41 38 42
REMARK SMILES IDX 39 43 40 44 41 45 93 46 42 47 92 48 43 49 44 50 45 51 86 52
REMARK SMILES IDX 46 53 91 54 85 55 87 56 47 57 90 58 84 59 83 60 48 62 74 63
REMARK SMILES IDX 57 64 73 65 58 66 61 67 72 68 88 69 59 70 60 71 71 73 89 74
REMARK SMILES IDX 62 75 49 76 50 77 55 78 51 79 52 80 54 81 56 82 53 83 75 84
REMARK SMILES IDX 76 85 81 86 77 87 78 88 80 89 82 90 79 91 63 92 64 93 69 94
REMARK SMILES IDX 65 95 66 96 68 97 70 98 67 99
REMARK H PARENT 87 61 61 72
REMARK Flexibility Score: inf
ROOT
ATOM      1  C   UNL A   1      43.042  22.714  28.149  1.00  0.00     0.188 C 
ENDROOT
BRANCH   1   2
ATOM      2  O   UNL A   1      41.670  23.021  28.014  1.00  0.00    -0.376 OA
BRANCH   2   3
ATOM      3  C   UNL A   1      41.181  23.636  26.833  1.00  0.00     0.202 C 
BRANCH   3   4
ATOM      4  C   UNL A   1      39.702  23.990  26.611  1.00  0.00     0.261 C 
BRANCH   4   5
ATOM      5  O   UNL A   1      38.750  22.955  26.887  1.00  0.00    -0.460 OA
BRANCH   5   6
ATOM      6  C   UNL A   1      38.334  22.254  25.803  1.00  0.00     0.338 C 
ATOM      7  O   UNL A   1      38.694  21.136  25.474  1.00  0.00    -0.246 OA
BRANCH   6   8
ATOM      8  C   UNL A   1      37.214  22.957  25.141  1.00  0.00     0.060 A 
ATOM      9  C   UNL A   1      34.946  24.189  24.029  1.00  0.00     0.060 A 
ATOM     10  C   UNL A   1      35.310  24.440  25.357  1.00  0.00     0.029 A 
ATOM     11  C   UNL A   1      35.793  23.389  23.244  1.00  0.00     0.029 A 
ATOM     12  C   UNL A   1      36.416  23.801  25.921  1.00  0.00     0.018 A 
ATOM     13  C   UNL A   1      36.935  22.788  23.786  1.00  0.00     0.018 A 
BRANCH   9  14
ATOM     14  N   UNL A   1      33.718  24.622  23.537  1.00  0.00    -0.257 N 
ATOM     15  C   UNL A   1      32.815  23.723  22.812  1.00  0.00     0.144 C 
ATOM     16  C   UNL A   1      31.548  24.566  22.661  1.00  0.00     0.091 C 
ATOM     17  C   UNL A   1      31.971  25.820  23.377  1.00  0.00     0.071 C 
ATOM     18  N   UNL A   1      33.166  25.817  23.884  1.00  0.00    -0.176 NA
BRANCH  15  19
ATOM     19  C   UNL A   1      32.572  22.410  23.546  1.00  0.00    -0.023 A 
ATOM     20  C   UNL A   1      32.158  19.943  24.863  1.00  0.00     0.118 A 
ATOM     21  C   UNL A   1      32.472  19.978  23.504  1.00  0.00     0.047 A 
ATOM     22  C   UNL A   1      32.081  21.138  25.575  1.00  0.00     0.047 A 
ATOM     23  C   UNL A   1      32.669  21.197  22.848  1.00  0.00     0.010 A 
ATOM     24  C   UNL A   1      32.294  22.361  24.923  1.00  0.00     0.010 A 
BRANCH  20  25
ATOM     25  O   UNL A   1      31.999  18.688  25.385  1.00  0.00    -0.497 OA
ATOM     26  C   UNL A   1      32.916  17.699  24.932  1.00  0.00     0.278 C 
ENDBRANCH  20  25
ENDBRANCH  15  19
BRANCH  17  27
ATOM     27  C   UNL A   1      31.066  26.977  23.412  1.00  0.00    -0.002 A 
ATOM     28  C   UNL A   1      31.609  28.254  23.587  1.00  0.00     0.011 A 
ATOM     29  C   UNL A   1      29.695  26.807  23.201  1.00  0.00     0.011 A 
ATOM     30  C   UNL A   1      30.777  29.375  23.532  1.00  0.00     0.021 A 
ATOM     31  C   UNL A   1      28.857  27.924  23.172  1.00  0.00     0.021 A 
ATOM     32  C   UNL A   1      29.402  29.202  23.337  1.00  0.00     0.067 A 
BRANCH  32  33
ATOM     33  S   UNL A   1      28.349  30.635  23.247  1.00  0.00     0.175 S 
ATOM     34  C   UNL A   1      28.297  31.037  21.520  1.00  0.00     0.163 C 
ATOM     35  O   UNL A   1      27.026  30.205  23.659  1.00  0.00    -0.224 OA
ATOM     36  O   UNL A   1      29.027  31.721  23.929  1.00  0.00    -0.224 OA
ENDBRANCH  32  33
ENDBRANCH  17  27
ENDBRANCH   9  14
ENDBRANCH   6   8
ENDBRANCH   5   6
ENDBRANCH   4   5
ENDBRANCH   3   4
ENDBRANCH   2   3
ENDBRANCH   1   2
BRANCH   1  37
ATOM     37  C   UNL A   1      43.888  22.349  26.911  1.00  0.00     0.188 C 
BRANCH  37  38
ATOM     38  O   UNL A   1      45.290  22.345  27.033  1.00  0.00    -0.376 OA
BRANCH  38  39
ATOM     39  C   UNL A   1      46.098  23.150  26.193  1.00  0.00     0.202 C 
BRANCH  39  40
ATOM     40  C   UNL A   1      45.745  23.623  24.770  1.00  0.00     0.261 C 
BRANCH  40  41
ATOM     41  O   UNL A   1      44.977  24.818  24.627  1.00  0.00    -0.460 OA
BRANCH  41  42
ATOM     42  C   UNL A   1      45.599  25.957  25.022  1.00  0.00     0.338 C 
ATOM     43  O   UNL A   1      46.644  26.418  24.605  1.00  0.00    -0.246 OA
BRANCH  42  44
ATOM     44  C   UNL A   1      44.718  26.672  25.962  1.00  0.00     0.060 A 
ATOM     45  C   UNL A   1      44.823  28.065  26.060  1.00  0.00     0.016 A 
ATOM     46  C   UNL A   1      43.825  25.964  26.767  1.00  0.00     0.016 A 
ATOM     47  C   UNL A   1      44.042  28.757  26.984  1.00  0.00     0.010 A 
ATOM     48  C   UNL A   1      43.060  26.657  27.707  1.00  0.00     0.010 A 
ATOM     49  C   UNL A   1      43.184  28.053  27.839  1.00  0.00    -0.014 A 
BRANCH  49  50
ATOM     50  C   UNL A   1      42.547  28.744  28.984  1.00  0.00     0.031 A 
ATOM     51  C   UNL A   1      43.287  28.806  30.290  1.00  0.00     0.074 A 
ATOM     52  C   UNL A   1      41.337  29.314  28.867  1.00  0.00     0.049 A 
ATOM     53  N   UNL A   1      42.910  29.306  31.439  1.00  0.00    -0.248 NA
ATOM     54  C   UNL A   1      44.636  28.218  30.300  1.00  0.00     0.031 C 
ATOM     55  C   UNL A   1      40.540  29.366  27.644  1.00  0.00     0.029 A 
ATOM     56  N   UNL A   1      40.564  29.955  29.803  1.00  0.00    -0.354 N 
ATOM     57  C   UNL A   1      43.971  29.089  32.309  1.00  0.00     0.074 A 
ATOM     58  C   UNL A   1      44.989  28.378  31.566  1.00  0.00     0.031 C 
ATOM     59  C   UNL A   1      39.385  30.002  27.905  1.00  0.00     0.029 A 
ATOM     60  C   UNL A   1      39.348  30.369  29.321  1.00  0.00     0.049 A 
ATOM     61  H   UNL A   1      40.855  30.103  30.732  1.00  0.00     0.167 HD
ATOM     62  C   UNL A   1      44.093  29.458  33.607  1.00  0.00     0.037 A 
ATOM     63  C   UNL A   1      38.317  30.958  29.958  1.00  0.00     0.037 A 
ATOM     64  C   UNL A   1      43.070  30.147  34.350  1.00  0.00     0.049 A 
ATOM     65  C   UNL A   1      38.430  31.262  31.429  1.00  0.00     0.074 A 
ATOM     66  C   UNL A   1      43.095  30.569  35.667  1.00  0.00     0.029 A 
ATOM     67  N   UNL A   1      41.827  30.500  33.842  1.00  0.00    -0.354 N 
ATOM     68  N   UNL A   1      39.442  31.076  32.240  1.00  0.00    -0.248 NA
ATOM     69  C   UNL A   1      37.249  31.858  32.073  1.00  0.00     0.031 C 
ATOM     70  C   UNL A   1      41.848  31.123  35.973  1.00  0.00     0.029 A 
ATOM     71  C   UNL A   1      41.066  31.106  34.829  1.00  0.00     0.049 A 
ATOM     72  H   UNL A   1      41.530  30.342  32.916  1.00  0.00     0.167 HD
ATOM     73  C   UNL A   1      39.037  31.563  33.478  1.00  0.00     0.074 A 
ATOM     74  C   UNL A   1      37.687  32.059  33.308  1.00  0.00     0.031 C 
ATOM     75  C   UNL A   1      39.723  31.601  34.647  1.00  0.00     0.037 A 
BRANCH  62  76
ATOM     76  C   UNL A   1      45.367  29.081  34.306  1.00  0.00     0.057 A 
ATOM     77  C   UNL A   1      45.496  27.881  35.021  1.00  0.00     0.134 A 
ATOM     78  C   UNL A   1      46.477  29.934  34.278  1.00  0.00     0.134 A 
ATOM     79  F   UNL A   1      44.467  27.023  35.101  1.00  0.00    -0.206 F 
ATOM     80  C   UNL A   1      46.665  27.567  35.717  1.00  0.00     0.040 A 
ATOM     81  C   UNL A   1      47.662  29.615  34.943  1.00  0.00     0.040 A 
ATOM     82  F   UNL A   1      46.426  31.096  33.608  1.00  0.00    -0.206 F 
ATOM     83  C   UNL A   1      47.754  28.434  35.676  1.00  0.00     0.006 A 
ENDBRANCH  62  76
BRANCH  63  84
ATOM     84  C   UNL A   1      37.086  31.310  29.206  1.00  0.00     0.057 A 
ATOM     85  C   UNL A   1      36.879  32.611  28.735  1.00  0.00     0.134 A 
ATOM     86  C   UNL A   1      36.087  30.363  28.948  1.00  0.00     0.134 A 
ATOM     87  F   UNL A   1      37.787  33.568  28.973  1.00  0.00    -0.206 F 
ATOM     88  C   UNL A   1      35.718  32.961  28.042  1.00  0.00     0.040 A 
ATOM     89  C   UNL A   1      34.935  30.693  28.234  1.00  0.00     0.040 A 
ATOM     90  F   UNL A   1      36.224  29.100  29.377  1.00  0.00    -0.206 F 
ATOM     91  C   UNL A   1      34.745  31.998  27.784  1.00  0.00     0.006 A 
ENDBRANCH  63  84
BRANCH  75  92
ATOM     92  C   UNL A   1      39.047  32.243  35.827  1.00  0.00     0.057 A 
ATOM     93  C   UNL A   1      39.141  33.617  36.084  1.00  0.00     0.134 A 
ATOM     94  C   UNL A   1      38.256  31.478  36.695  1.00  0.00     0.134 A 
ATOM     95  F   UNL A   1      39.890  34.406  35.300  1.00  0.00    -0.206 F 
ATOM     96  C   UNL A   1      38.494  34.201  37.175  1.00  0.00     0.040 A 
ATOM     97  C   UNL A   1      37.580  32.056  37.771  1.00  0.00     0.040 A 
ATOM     98  F   UNL A   1      38.114  30.157  36.503  1.00  0.00    -0.206 F 
ATOM     99  C   UNL A   1      37.704  33.421  38.019  1.00  0.00     0.006 A 
ENDBRANCH  75  92
ENDBRANCH  49  50
ENDBRANCH  42  44
ENDBRANCH  41  42
ENDBRANCH  40  41
ENDBRANCH  39  40
ENDBRANCH  38  39
ENDBRANCH  37  38
ENDBRANCH   1  37
TORSDOF 22
ENDMDL
MODEL 2
REMARK VINA RESULT:     -10.2      1.904      6.377
REMARK SMILES COc1ccc([C@H]2CC(c3ccc(S(C)(=O)=O)cc3)=NN2c2ccc(C(=O)OCCOCCOCCOC(=O)c3ccc(-c4c5nc(c(-c6c(F)cccc6F)c6ccc([nH]6)c(-c6c(F)cccc6F)c6nc(c(-c7c(F)cccc7F)c7ccc4[nH]7)C=C6)C=C5)cc3)cc2)cc1
REMARK SMILES IDX 32 1 31 2 30 3 29 4 28 5 26 6 27 7 25 8 22 9 23 10 95 11
REMARK SMILES IDX 24 12 94 13 21 14 7 15 8 16 9 17 20 18 6 19 3 20 4 21 97 22
REMARK SMILES IDX 5 23 96 24 2 25 1 26 10 27 11 28 19 29 12 30 18 31 13 32
REMARK SMILES IDX 14 33 15 34 16 35 17 36 33 37 34 38 35 39 36 40 37 41 38 42
REMARK SMILES IDX 39 43 40 44 41 45 93 46 42 47 92 48 43 49 44 50 45 51 86 52
REMARK SMILES IDX 46 53 91 54 85 55 87 56 47 57 90 58 84 59 83 60 48 62 74 63
REMARK SMILES IDX 57 64 73 65 58 66 61 67 72 68 88 69 59 70 60 71 71 73 89 74
REMARK SMILES IDX 62 75 49 76 50 77 55 78 51 79 52 80 54 81 56 82 53 83 75 84
REMARK SMILES IDX 76 85 81 86 77 87 78 88 80 89 82 90 79 91 63 92 64 93 69 94
REMARK SMILES IDX 65 95 66 96 68 97 70 98 67 99
REMARK H PARENT 87 61 61 72
REMARK Flexibility Score: inf
ROOT
ATOM      1  C   UNL A   1      40.456  25.750  27.664  1.00  0.00     0.188 C 
ENDROOT
BRANCH   1   2
ATOM      2  O   UNL A   1      41.343  24.749  28.118  1.00  0.00    -0.376 OA
BRANCH   2   3
ATOM      3  C   UNL A   1      41.009  23.377  27.989  1.00  0.00     0.202 C 
BRANCH   3   4
ATOM      4  C   UNL A   1      40.396  22.768  26.718  1.00  0.00     0.261 C 
BRANCH   4   5
ATOM      5  O   UNL A   1      38.988  22.960  26.535  1.00  0.00    -0.460 OA
BRANCH   5   6
ATOM      6  C   UNL A   1      38.394  22.078  25.692  1.00  0.00     0.338 C 
ATOM      7  O   UNL A   1      38.625  20.883  25.604  1.00  0.00    -0.246 OA
BRANCH   6   8
ATOM      8  C   UNL A   1      37.264  22.724  24.991  1.00  0.00     0.060 A 
ATOM      9  C   UNL A   1      34.977  23.861  23.816  1.00  0.00     0.060 A 
ATOM     10  C   UNL A   1      35.360  24.218  25.114  1.00  0.00     0.029 A 
ATOM     11  C   UNL A   1      35.815  23.001  23.086  1.00  0.00     0.029 A 
ATOM     12  C   UNL A   1      36.475  23.628  25.712  1.00  0.00     0.018 A 
ATOM     13  C   UNL A   1      36.966  22.447  23.658  1.00  0.00     0.018 A 
BRANCH   9  14
ATOM     14  N   UNL A   1      33.742  24.252  23.308  1.00  0.00    -0.257 N 
ATOM     15  C   UNL A   1      32.876  23.321  22.578  1.00  0.00     0.144 C 
ATOM     16  C   UNL A   1      31.585  24.122  22.408  1.00  0.00     0.091 C 
ATOM     17  C   UNL A   1      31.959  25.391  23.123  1.00  0.00     0.071 C 
ATOM     18  N   UNL A   1      33.148  25.430  23.644  1.00  0.00    -0.176 NA
BRANCH  15  19
ATOM     19  C   UNL A   1      32.669  22.004  23.314  1.00  0.00    -0.023 A 
ATOM     20  C   UNL A   1      32.262  19.592  24.733  1.00  0.00     0.118 A 
ATOM     21  C   UNL A   1      32.439  20.796  25.415  1.00  0.00     0.047 A 
ATOM     22  C   UNL A   1      32.257  19.594  23.340  1.00  0.00     0.047 A 
ATOM     23  C   UNL A   1      32.648  21.989  24.717  1.00  0.00     0.010 A 
ATOM     24  C   UNL A   1      32.451  20.791  22.636  1.00  0.00     0.010 A 
BRANCH  20  25
ATOM     25  O   UNL A   1      32.057  18.501  25.532  1.00  0.00    -0.497 OA
ATOM     26  C   UNL A   1      32.665  17.288  25.108  1.00  0.00     0.278 C 
ENDBRANCH  20  25
ENDBRANCH  15  19
BRANCH  17  27
ATOM     27  C   UNL A   1      31.017  26.519  23.144  1.00  0.00    -0.002 A 
ATOM     28  C   UNL A   1      31.207  27.575  22.247  1.00  0.00     0.011 A 
ATOM     29  C   UNL A   1      29.908  26.496  23.995  1.00  0.00     0.011 A 
ATOM     30  C   UNL A   1      30.273  28.612  22.187  1.00  0.00     0.021 A 
ATOM     31  C   UNL A   1      28.986  27.545  23.955  1.00  0.00     0.021 A 
ATOM     32  C   UNL A   1      29.172  28.596  23.051  1.00  0.00     0.067 A 
BRANCH  32  33
ATOM     33  S   UNL A   1      27.972  29.908  22.956  1.00  0.00     0.175 S 
ATOM     34  C   UNL A   1      28.092  30.498  21.287  1.00  0.00     0.163 C 
ATOM     35  O   UNL A   1      26.670  29.294  23.134  1.00  0.00    -0.224 OA
ATOM     36  O   UNL A   1      28.419  30.975  23.832  1.00  0.00    -0.224 OA
ENDBRANCH  32  33
ENDBRANCH  17  27
ENDBRANCH   9  14
ENDBRANCH   6   8
ENDBRANCH   5   6
ENDBRANCH   4   5
ENDBRANCH   3   4
ENDBRANCH   2   3
ENDBRANCH   1   2
BRANCH   1  37
ATOM     37  C   UNL A   1      40.761  26.539  26.374  1.00  0.00     0.188 C 
BRANCH  37  38
ATOM     38  O   UNL A   1      41.468  25.894  25.342  1.00  0.00    -0.376 OA
BRANCH  38  39
ATOM     39  C   UNL A   1      42.867  26.061  25.202  1.00  0.00     0.202 C 
BRANCH  39  40
ATOM     40  C   UNL A   1      43.918  25.931  26.322  1.00  0.00     0.261 C 
BRANCH  40  41
ATOM     41  O   UNL A   1      44.680  27.087  26.670  1.00  0.00    -0.460 OA
BRANCH  41  42
ATOM     42  C   UNL A   1      44.014  28.266  26.590  1.00  0.00     0.338 C 
ATOM     43  O   UNL A   1      43.582  28.810  25.592  1.00  0.00    -0.246 OA
BRANCH  42  44
ATOM     44  C   UNL A   1      43.742  28.746  27.956  1.00  0.00     0.060 A 
ATOM     45  C   UNL A   1      43.157  27.868  28.876  1.00  0.00     0.016 A 
ATOM     46  C   UNL A   1      44.027  30.065  28.308  1.00  0.00     0.016 A 
ATOM     47  C   UNL A   1      42.836  28.316  30.157  1.00  0.00     0.010 A 
ATOM     48  C   UNL A   1      43.684  30.518  29.584  1.00  0.00     0.010 A 
ATOM     49  C   UNL A   1      43.063  29.653  30.504  1.00  0.00    -0.014 A 
BRANCH  49  50
ATOM     50  C   UNL A   1      42.497  30.198  31.762  1.00  0.00     0.031 A 
ATOM     51  C   UNL A   1      41.127  30.813  31.728  1.00  0.00     0.074 A 
ATOM     52  C   UNL A   1      43.183  30.143  32.914  1.00  0.00     0.049 A 
ATOM     53  N   UNL A   1      40.452  31.399  32.683  1.00  0.00    -0.248 NA
ATOM     54  C   UNL A   1      40.424  30.761  30.435  1.00  0.00     0.031 C 
ATOM     55  C   UNL A   1      44.498  29.530  33.089  1.00  0.00     0.029 A 
ATOM     56  N   UNL A   1      42.864  30.621  34.160  1.00  0.00    -0.354 N 
ATOM     57  C   UNL A   1      39.250  31.790  32.108  1.00  0.00     0.074 A 
ATOM     58  C   UNL A   1      39.305  31.410  30.713  1.00  0.00     0.031 C 
ATOM     59  C   UNL A   1      44.876  29.674  34.371  1.00  0.00     0.029 A 
ATOM     60  C   UNL A   1      43.847  30.419  35.096  1.00  0.00     0.049 A 
ATOM     61  H   UNL A   1      42.009  31.068  34.364  1.00  0.00     0.167 HD
ATOM     62  C   UNL A   1      38.191  32.402  32.691  1.00  0.00     0.037 A 
ATOM     63  C   UNL A   1      43.914  30.810  36.383  1.00  0.00     0.037 A 
ATOM     64  C   UNL A   1      38.148  32.799  34.074  1.00  0.00     0.049 A 
ATOM     65  C   UNL A   1      42.770  31.585  36.983  1.00  0.00     0.074 A 
ATOM     66  C   UNL A   1      37.121  33.420  34.763  1.00  0.00     0.029 A 
ATOM     67  N   UNL A   1      39.187  32.627  34.977  1.00  0.00    -0.354 N 
ATOM     68  N   UNL A   1      41.628  31.932  36.443  1.00  0.00    -0.248 NA
ATOM     69  C   UNL A   1      42.930  32.025  38.378  1.00  0.00     0.031 C 
ATOM     70  C   UNL A   1      37.561  33.677  36.066  1.00  0.00     0.029 A 
ATOM     71  C   UNL A   1      38.838  33.159  36.209  1.00  0.00     0.049 A 
ATOM     72  H   UNL A   1      40.047  32.191  34.773  1.00  0.00     0.167 HD
ATOM     73  C   UNL A   1      40.919  32.598  37.437  1.00  0.00     0.074 A 
ATOM     74  C   UNL A   1      41.760  32.600  38.616  1.00  0.00     0.031 C 
ATOM     75  C   UNL A   1      39.682  33.151  37.379  1.00  0.00     0.037 A 
BRANCH  62  76
ATOM     76  C   UNL A   1      37.013  32.711  31.811  1.00  0.00     0.057 A 
ATOM     77  C   UNL A   1      36.946  33.883  31.043  1.00  0.00     0.134 A 
ATOM     78  C   UNL A   1      35.925  31.833  31.741  1.00  0.00     0.134 A 
ATOM     79  F   UNL A   1      37.948  34.774  31.074  1.00  0.00    -0.206 F 
ATOM     80  C   UNL A   1      35.821  34.189  30.274  1.00  0.00     0.040 A 
ATOM     81  C   UNL A   1      34.809  32.113  30.950  1.00  0.00     0.040 A 
ATOM     82  F   UNL A   1      35.924  30.690  32.444  1.00  0.00    -0.206 F 
ATOM     83  C   UNL A   1      34.750  33.301  30.224  1.00  0.00     0.006 A 
ENDBRANCH  62  76
BRANCH  63  84
ATOM     84  C   UNL A   1      45.105  30.468  37.200  1.00  0.00     0.057 A 
ATOM     85  C   UNL A   1      45.225  29.212  37.806  1.00  0.00     0.134 A 
ATOM     86  C   UNL A   1      46.145  31.384  37.402  1.00  0.00     0.134 A 
ATOM     87  F   UNL A   1      44.250  28.302  37.670  1.00  0.00    -0.206 F 
ATOM     88  C   UNL A   1      46.331  28.882  38.592  1.00  0.00     0.040 A 
ATOM     89  C   UNL A   1      47.268  31.058  38.163  1.00  0.00     0.040 A 
ATOM     90  F   UNL A   1      46.088  32.605  36.852  1.00  0.00    -0.206 F 
ATOM     91  C   UNL A   1      47.360  29.805  38.766  1.00  0.00     0.006 A 
ENDBRANCH  63  84
BRANCH  75  92
ATOM     92  C   UNL A   1      39.138  33.765  38.639  1.00  0.00     0.057 A 
ATOM     93  C   UNL A   1      38.325  33.048  39.527  1.00  0.00     0.134 A 
ATOM     94  C   UNL A   1      39.469  35.082  38.989  1.00  0.00     0.134 A 
ATOM     95  F   UNL A   1      37.960  31.788  39.250  1.00  0.00    -0.206 F 
ATOM     96  C   UNL A   1      37.840  33.628  40.702  1.00  0.00     0.040 A 
ATOM     97  C   UNL A   1      39.015  35.660  40.175  1.00  0.00     0.040 A 
ATOM     98  F   UNL A   1      40.251  35.823  38.190  1.00  0.00    -0.206 F 
ATOM     99  C   UNL A   1      38.191  34.935  41.033  1.00  0.00     0.006 A 
ENDBRANCH  75  92
ENDBRANCH  49  50
ENDBRANCH  42  44
ENDBRANCH  41  42
ENDBRANCH  40  41
ENDBRANCH  39  40
ENDBRANCH  38  39
ENDBRANCH  37  38
ENDBRANCH   1  37
TORSDOF 22
ENDMDL
MODEL 3
REMARK VINA RESULT:      -9.7      5.076     11.116
REMARK SMILES COc1ccc([C@H]2CC(c3ccc(S(C)(=O)=O)cc3)=NN2c2ccc(C(=O)OCCOCCOCCOC(=O)c3ccc(-c4c5nc(c(-c6c(F)cccc6F)c6ccc([nH]6)c(-c6c(F)cccc6F)c6nc(c(-c7c(F)cccc7F)c7ccc4[nH]7)C=C6)C=C5)cc3)cc2)cc1
REMARK SMILES IDX 32 1 31 2 30 3 29 4 28 5 26 6 27 7 25 8 22 9 23 10 95 11
REMARK SMILES IDX 24 12 94 13 21 14 7 15 8 16 9 17 20 18 6 19 3 20 4 21 97 22
REMARK SMILES IDX 5 23 96 24 2 25 1 26 10 27 11 28 19 29 12 30 18 31 13 32
REMARK SMILES IDX 14 33 15 34 16 35 17 36 33 37 34 38 35 39 36 40 37 41 38 42
REMARK SMILES IDX 39 43 40 44 41 45 93 46 42 47 92 48 43 49 44 50 45 51 86 52
REMARK SMILES IDX 46 53 91 54 85 55 87 56 47 57 90 58 84 59 83 60 48 62 74 63
REMARK SMILES IDX 57 64 73 65 58 66 61 67 72 68 88 69 59 70 60 71 71 73 89 74
REMARK SMILES IDX 62 75 49 76 50 77 55 78 51 79 52 80 54 81 56 82 53 83 75 84
REMARK SMILES IDX 76 85 81 86 77 87 78 88 80 89 82 90 79 91 63 92 64 93 69 94
REMARK SMILES IDX 65 95 66 96 68 97 70 98 67 99
REMARK H PARENT 87 61 61 72
REMARK Flexibility Score: inf
ROOT
ATOM      1  C   UNL A   1      35.187  33.573  28.267  1.00  0.00     0.188 C 
ENDROOT
BRANCH   1   2
ATOM      2  O   UNL A   1      34.539  32.546  27.546  1.00  0.00    -0.376 OA
BRANCH   2   3
ATOM      3  C   UNL A   1      34.763  31.184  27.871  1.00  0.00     0.202 C 
BRANCH   3   4
ATOM      4  C   UNL A   1      35.871  30.710  28.825  1.00  0.00     0.261 C 
BRANCH   4   5
ATOM      5  O   UNL A   1      37.028  30.123  28.217  1.00  0.00    -0.460 OA
BRANCH   5   6
ATOM      6  C   UNL A   1      38.210  30.459  28.790  1.00  0.00     0.338 C 
ATOM      7  O   UNL A   1      38.398  31.340  29.614  1.00  0.00    -0.246 OA
BRANCH   6   8
ATOM      8  C   UNL A   1      39.253  29.478  28.423  1.00  0.00     0.060 A 
ATOM      9  C   UNL A   1      41.383  27.736  27.848  1.00  0.00     0.060 A 
ATOM     10  C   UNL A   1      40.947  27.912  29.166  1.00  0.00     0.029 A 
ATOM     11  C   UNL A   1      40.669  28.372  26.818  1.00  0.00     0.029 A 
ATOM     12  C   UNL A   1      39.913  28.803  29.457  1.00  0.00     0.018 A 
ATOM     13  C   UNL A   1      39.595  29.225  27.095  1.00  0.00     0.018 A 
BRANCH   9  14
ATOM     14  N   UNL A   1      42.561  27.047  27.577  1.00  0.00    -0.257 N 
ATOM     15  C   UNL A   1      42.732  25.636  27.937  1.00  0.00     0.144 C 
ATOM     16  C   UNL A   1      44.061  25.275  27.273  1.00  0.00     0.091 C 
ATOM     17  C   UNL A   1      44.396  26.585  26.612  1.00  0.00     0.071 C 
ATOM     18  N   UNL A   1      43.534  27.544  26.765  1.00  0.00    -0.176 NA
BRANCH  15  19
ATOM     19  C   UNL A   1      41.575  24.761  27.469  1.00  0.00    -0.023 A 
ATOM     20  C   UNL A   1      39.439  23.100  26.651  1.00  0.00     0.118 A 
ATOM     21  C   UNL A   1      40.449  22.603  27.476  1.00  0.00     0.047 A 
ATOM     22  C   UNL A   1      39.477  24.436  26.257  1.00  0.00     0.047 A 
ATOM     23  C   UNL A   1      41.510  23.421  27.875  1.00  0.00     0.010 A 
ATOM     24  C   UNL A   1      40.532  25.261  26.669  1.00  0.00     0.010 A 
BRANCH  20  25
ATOM     25  O   UNL A   1      38.454  22.202  26.342  1.00  0.00    -0.497 OA
ATOM     26  C   UNL A   1      38.871  21.016  25.677  1.00  0.00     0.278 C 
ENDBRANCH  20  25
ENDBRANCH  15  19
BRANCH  17  27
ATOM     27  C   UNL A   1      45.673  26.734  25.900  1.00  0.00    -0.002 A 
ATOM     28  C   UNL A   1      46.331  25.586  25.446  1.00  0.00     0.011 A 
ATOM     29  C   UNL A   1      46.181  28.006  25.620  1.00  0.00     0.011 A 
ATOM     30  C   UNL A   1      47.498  25.710  24.688  1.00  0.00     0.021 A 
ATOM     31  C   UNL A   1      47.362  28.131  24.886  1.00  0.00     0.021 A 
ATOM     32  C   UNL A   1      48.014  26.983  24.423  1.00  0.00     0.067 A 
BRANCH  32  33
ATOM     33  S   UNL A   1      49.490  27.137  23.439  1.00  0.00     0.175 S 
ATOM     34  C   UNL A   1      50.621  25.971  24.152  1.00  0.00     0.163 C 
ATOM     35  O   UNL A   1      49.148  26.688  22.103  1.00  0.00    -0.224 OA
ATOM     36  O   UNL A   1      50.030  28.465  23.664  1.00  0.00    -0.224 OA
ENDBRANCH  32  33
ENDBRANCH  17  27
ENDBRANCH   9  14
ENDBRANCH   6   8
ENDBRANCH   5   6
ENDBRANCH   4   5
ENDBRANCH   3   4
ENDBRANCH   2   3
ENDBRANCH   1   2
BRANCH   1  37
ATOM     37  C   UNL A   1      34.688  33.980  29.669  1.00  0.00     0.188 C 
BRANCH  37  38
ATOM     38  O   UNL A   1      35.583  33.899  30.751  1.00  0.00    -0.376 OA
BRANCH  38  39
ATOM     39  C   UNL A   1      35.161  34.195  32.071  1.00  0.00     0.202 C 
BRANCH  39  40
ATOM     40  C   UNL A   1      34.879  33.172  33.188  1.00  0.00     0.261 C 
BRANCH  40  41
ATOM     41  O   UNL A   1      35.830  32.130  33.405  1.00  0.00    -0.460 OA
BRANCH  41  42
ATOM     42  C   UNL A   1      36.785  32.400  34.329  1.00  0.00     0.338 C 
ATOM     43  O   UNL A   1      36.650  32.973  35.394  1.00  0.00    -0.246 OA
BRANCH  42  44
ATOM     44  C   UNL A   1      38.038  31.743  33.917  1.00  0.00     0.060 A 
ATOM     45  C   UNL A   1      39.258  32.311  34.305  1.00  0.00     0.016 A 
ATOM     46  C   UNL A   1      38.004  30.600  33.119  1.00  0.00     0.016 A 
ATOM     47  C   UNL A   1      40.456  31.741  33.877  1.00  0.00     0.010 A 
ATOM     48  C   UNL A   1      39.205  30.043  32.674  1.00  0.00     0.010 A 
ATOM     49  C   UNL A   1      40.435  30.627  33.029  1.00  0.00    -0.014 A 
BRANCH  49  50
ATOM     50  C   UNL A   1      41.683  30.174  32.370  1.00  0.00     0.031 A 
ATOM     51  C   UNL A   1      42.380  28.956  32.907  1.00  0.00     0.074 A 
ATOM     52  C   UNL A   1      42.186  30.825  31.309  1.00  0.00     0.049 A 
ATOM     53  N   UNL A   1      43.506  28.407  32.532  1.00  0.00    -0.248 NA
ATOM     54  C   UNL A   1      41.714  28.268  34.025  1.00  0.00     0.031 C 
ATOM     55  C   UNL A   1      41.580  31.988  30.664  1.00  0.00     0.029 A 
ATOM     56  N   UNL A   1      43.334  30.599  30.592  1.00  0.00    -0.354 N 
ATOM     57  C   UNL A   1      43.687  27.313  33.369  1.00  0.00     0.074 A 
ATOM     58  C   UNL A   1      42.575  27.300  34.295  1.00  0.00     0.031 C 
ATOM     59  C   UNL A   1      42.366  32.377  29.645  1.00  0.00     0.029 A 
ATOM     60  C   UNL A   1      43.546  31.514  29.592  1.00  0.00     0.049 A 
ATOM     61  H   UNL A   1      43.947  29.851  30.778  1.00  0.00     0.167 HD
ATOM     62  C   UNL A   1      44.683  26.394  33.360  1.00  0.00     0.037 A 
ATOM     63  C   UNL A   1      44.585  31.648  28.744  1.00  0.00     0.037 A 
ATOM     64  C   UNL A   1      45.799  26.422  32.451  1.00  0.00     0.049 A 
ATOM     65  C   UNL A   1      45.736  30.681  28.824  1.00  0.00     0.074 A 
ATOM     66  C   UNL A   1      46.859  25.537  32.357  1.00  0.00     0.029 A 
ATOM     67  N   UNL A   1      46.009  27.398  31.487  1.00  0.00    -0.354 N 
ATOM     68  N   UNL A   1      45.892  29.636  29.600  1.00  0.00    -0.248 NA
ATOM     69  C   UNL A   1      46.861  30.915  27.905  1.00  0.00     0.031 C 
ATOM     70  C   UNL A   1      47.738  26.009  31.378  1.00  0.00     0.029 A 
ATOM     71  C   UNL A   1      47.196  27.154  30.815  1.00  0.00     0.049 A 
ATOM     72  H   UNL A   1      45.402  28.153  31.308  1.00  0.00     0.167 HD
ATOM     73  C   UNL A   1      47.110  29.068  29.241  1.00  0.00     0.074 A 
ATOM     74  C   UNL A   1      47.648  29.883  28.172  1.00  0.00     0.031 C 
ATOM     75  C   UNL A   1      47.722  27.969  29.748  1.00  0.00     0.037 A 
BRANCH  62  76
ATOM     76  C   UNL A   1      44.620  25.311  34.398  1.00  0.00     0.057 A 
ATOM     77  C   UNL A   1      44.180  24.014  34.094  1.00  0.00     0.134 A 
ATOM     78  C   UNL A   1      44.988  25.569  35.724  1.00  0.00     0.134 A 
ATOM     79  F   UNL A   1      43.800  23.701  32.845  1.00  0.00    -0.206 F 
ATOM     80  C   UNL A   1      44.069  23.029  35.077  1.00  0.00     0.040 A 
ATOM     81  C   UNL A   1      44.911  24.584  36.710  1.00  0.00     0.040 A 
ATOM     82  F   UNL A   1      45.422  26.786  36.086  1.00  0.00    -0.206 F 
ATOM     83  C   UNL A   1      44.438  23.313  36.390  1.00  0.00     0.006 A 
ENDBRANCH  62  76
BRANCH  63  84
ATOM     84  C   UNL A   1      44.583  32.740  27.738  1.00  0.00     0.057 A 
ATOM     85  C   UNL A   1      45.011  34.029  28.074  1.00  0.00     0.134 A 
ATOM     86  C   UNL A   1      44.149  32.526  26.423  1.00  0.00     0.134 A 
ATOM     87  F   UNL A   1      45.414  34.301  29.324  1.00  0.00    -0.206 F 
ATOM     88  C   UNL A   1      44.998  35.069  27.143  1.00  0.00     0.040 A 
ATOM     89  C   UNL A   1      44.156  33.550  25.476  1.00  0.00     0.040 A 
ATOM     90  F   UNL A   1      43.722  31.314  26.040  1.00  0.00    -0.206 F 
ATOM     91  C   UNL A   1      44.576  34.829  25.837  1.00  0.00     0.006 A 
ENDBRANCH  63  84
BRANCH  75  92
ATOM     92  C   UNL A   1      49.023  27.551  29.122  1.00  0.00     0.057 A 
ATOM     93  C   UNL A   1      49.108  26.479  28.223  1.00  0.00     0.134 A 
ATOM     94  C   UNL A   1      50.202  28.260  29.392  1.00  0.00     0.134 A 
ATOM     95  F   UNL A   1      48.022  25.751  27.929  1.00  0.00    -0.206 F 
ATOM     96  C   UNL A   1      50.322  26.112  27.638  1.00  0.00     0.040 A 
ATOM     97  C   UNL A   1      51.415  27.921  28.789  1.00  0.00     0.040 A 
ATOM     98  F   UNL A   1      50.192  29.304  30.235  1.00  0.00    -0.206 F 
ATOM     99  C   UNL A   1      51.479  26.839  27.914  1.00  0.00     0.006 A 
ENDBRANCH  75  92
ENDBRANCH  49  50
ENDBRANCH  42  44
ENDBRANCH  41  42
ENDBRANCH  40  41
ENDBRANCH  39  40
ENDBRANCH  38  39
ENDBRANCH  37  38
ENDBRANCH   1  37
TORSDOF 22
ENDMDL
