MODEL 1
REMARK VINA RESULT:     -11.1      0.000      0.000
REMARK SMILES O=C(OCCOCCOCCOC(=O)c1ccc(-c2c3nc(c(-c4c(F)cccc4F)c4ccc([nH]4)c(-c4c(F)cccc4F)c4nc(c(-c5c(F)cccc5F)c5ccc2[nH]5)C=C4)C=C3)cc1)C1=Cc2cc(Cl)cc(Cl)c2O[C@@H]1C(F)(F)F
REMARK SMILES IDX 8 1 7 2 6 3 5 4 4 5 3 6 2 7 1 8 69 9 70 10 80 11 71 12 79 13
REMARK SMILES IDX 72 14 78 15 73 16 76 17 74 18 75 19 77 20 81 21 82 22 83 23
REMARK SMILES IDX 84 24 9 25 10 26 11 27 12 28 13 29 14 30 15 31 16 32 68 33
REMARK SMILES IDX 17 34 67 35 18 36 19 37 20 38 61 39 21 40 66 41 60 42 62 43
REMARK SMILES IDX 22 44 65 45 59 46 58 47 23 49 49 50 32 51 48 52 33 53 36 54
REMARK SMILES IDX 47 55 63 56 34 57 35 58 46 60 64 61 37 62 24 63 25 64 30 65
REMARK SMILES IDX 26 66 27 67 29 68 31 69 28 70 50 71 51 72 56 73 52 74 53 75
REMARK SMILES IDX 55 76 57 77 54 78 38 79 39 80 44 81 40 82 41 83 43 84 45 85
REMARK SMILES IDX 42 86
REMARK H PARENT 62 48 36 59
REMARK Flexibility Score: inf
ROOT
ATOM      1  C   UNL A   1      41.510  21.261  26.366  1.00  0.00     0.188 C 
ENDROOT
BRANCH   1   2
ATOM      2  C   UNL A   1      40.171  20.605  26.036  1.00  0.00     0.188 C 
BRANCH   2   3
ATOM      3  O   UNL A   1      39.073  21.498  26.167  1.00  0.00    -0.376 OA
BRANCH   3   4
ATOM      4  C   UNL A   1      39.399  22.811  26.631  1.00  0.00     0.202 C 
BRANCH   4   5
ATOM      5  C   UNL A   1      38.407  23.898  26.199  1.00  0.00     0.261 C 
BRANCH   5   6
ATOM      6  O   UNL A   1      37.046  23.407  26.198  1.00  0.00    -0.460 OA
BRANCH   6   7
ATOM      7  C   UNL A   1      36.381  23.283  25.029  1.00  0.00     0.338 C 
ATOM      8  O   UNL A   1      36.938  23.401  23.946  1.00  0.00    -0.246 OA
BRANCH   7   9
ATOM      9  C   UNL A   1      34.901  23.222  25.147  1.00  0.00     0.087 C 
ATOM     10  C   UNL A   1      34.358  24.156  25.953  1.00  0.00     0.027 C 
ATOM     11  C   UNL A   1      34.102  22.723  23.976  1.00  0.00     0.316 C 
ATOM     12  C   UNL A   1      33.842  25.280  25.141  1.00  0.00     0.020 A 
ATOM     13  O   UNL A   1      33.422  23.800  23.267  1.00  0.00    -0.474 OA
ATOM     14  C   UNL A   1      33.765  26.560  25.697  1.00  0.00     0.032 A 
ATOM     15  C   UNL A   1      33.507  25.070  23.795  1.00  0.00     0.146 A 
ATOM     16  C   UNL A   1      33.464  27.646  24.879  1.00  0.00     0.043 A 
ATOM     17  C   UNL A   1      33.261  26.181  22.974  1.00  0.00     0.085 A 
ATOM     18  Cl  UNL A   1      33.359  29.222  25.558  1.00  0.00    -0.084 Cl
ATOM     19  C   UNL A   1      33.266  27.470  23.511  1.00  0.00     0.045 A 
ATOM     20  Cl  UNL A   1      33.022  26.018  21.271  1.00  0.00    -0.080 Cl
BRANCH  11  21
ATOM     21  C   UNL A   1      33.168  21.563  24.321  1.00  0.00     0.430 C 
ATOM     22  F   UNL A   1      33.786  20.652  25.109  1.00  0.00    -0.167 F 
ATOM     23  F   UNL A   1      32.083  21.999  25.009  1.00  0.00    -0.167 F 
ATOM     24  F   UNL A   1      32.720  20.922  23.220  1.00  0.00    -0.167 F 
ENDBRANCH  11  21
ENDBRANCH   7   9
ENDBRANCH   6   7
ENDBRANCH   5   6
ENDBRANCH   4   5
ENDBRANCH   3   4
ENDBRANCH   2   3
ENDBRANCH   1   2
BRANCH   1  25
ATOM     25  O   UNL A   1      42.559  20.701  25.585  1.00  0.00    -0.376 OA
BRANCH  25  26
ATOM     26  C   UNL A   1      43.820  21.359  25.723  1.00  0.00     0.202 C 
BRANCH  26  27
ATOM     27  C   UNL A   1      44.328  22.239  24.557  1.00  0.00     0.261 C 
BRANCH  27  28
ATOM     28  O   UNL A   1      43.781  23.564  24.434  1.00  0.00    -0.460 OA
BRANCH  28  29
ATOM     29  C   UNL A   1      44.504  24.584  24.938  1.00  0.00     0.338 C 
ATOM     30  O   UNL A   1      45.661  24.860  24.679  1.00  0.00    -0.246 OA
BRANCH  29  31
ATOM     31  C   UNL A   1      43.629  25.417  25.791  1.00  0.00     0.060 A 
ATOM     32  C   UNL A   1      44.036  26.718  26.102  1.00  0.00     0.016 A 
ATOM     33  C   UNL A   1      42.478  24.883  26.376  1.00  0.00     0.016 A 
ATOM     34  C   UNL A   1      43.314  27.475  27.026  1.00  0.00     0.010 A 
ATOM     35  C   UNL A   1      41.762  25.638  27.318  1.00  0.00     0.010 A 
ATOM     36  C   UNL A   1      42.201  26.924  27.677  1.00  0.00    -0.014 A 
BRANCH  36  37
ATOM     37  C   UNL A   1      41.650  27.637  28.861  1.00  0.00     0.031 A 
ATOM     38  C   UNL A   1      42.361  27.501  30.182  1.00  0.00     0.074 A 
ATOM     39  C   UNL A   1      40.601  28.471  28.749  1.00  0.00     0.049 A 
ATOM     40  N   UNL A   1      42.136  28.115  31.317  1.00  0.00    -0.248 NA
ATOM     41  C   UNL A   1      43.485  26.553  30.225  1.00  0.00     0.031 C 
ATOM     42  C   UNL A   1      39.841  28.715  27.526  1.00  0.00     0.029 A 
ATOM     43  N   UNL A   1      40.003  29.279  29.686  1.00  0.00    -0.354 N 
ATOM     44  C   UNL A   1      43.105  27.650  32.198  1.00  0.00     0.074 A 
ATOM     45  C   UNL A   1      43.887  26.664  31.483  1.00  0.00     0.031 C 
ATOM     46  C   UNL A   1      38.870  29.609  27.788  1.00  0.00     0.029 A 
ATOM     47  C   UNL A   1      38.934  29.991  29.199  1.00  0.00     0.049 A 
ATOM     48  H   UNL A   1      40.311  29.341  30.619  1.00  0.00     0.167 HD
ATOM     49  C   UNL A   1      43.340  28.023  33.478  1.00  0.00     0.037 A 
ATOM     50  C   UNL A   1      38.101  30.847  29.823  1.00  0.00     0.037 A 
ATOM     51  C   UNL A   1      42.546  28.979  34.206  1.00  0.00     0.049 A 
ATOM     52  C   UNL A   1      38.332  31.185  31.275  1.00  0.00     0.074 A 
ATOM     53  C   UNL A   1      42.696  29.411  35.512  1.00  0.00     0.029 A 
ATOM     54  N   UNL A   1      41.443  29.643  33.691  1.00  0.00    -0.354 N 
ATOM     55  N   UNL A   1      39.276  30.769  32.085  1.00  0.00    -0.248 NA
ATOM     56  C   UNL A   1      37.389  32.127  31.893  1.00  0.00     0.031 C 
ATOM     57  C   UNL A   1      41.654  30.298  35.804  1.00  0.00     0.029 A 
ATOM     58  C   UNL A   1      40.889  30.465  34.662  1.00  0.00     0.049 A 
ATOM     59  H   UNL A   1      41.103  29.545  32.773  1.00  0.00     0.167 HD
ATOM     60  C   UNL A   1      39.056  31.417  33.296  1.00  0.00     0.074 A 
ATOM     61  C   UNL A   1      37.906  32.275  33.105  1.00  0.00     0.031 C 
ATOM     62  C   UNL A   1      39.740  31.311  34.462  1.00  0.00     0.037 A 
BRANCH  49  63
ATOM     63  C   UNL A   1      44.501  27.379  34.182  1.00  0.00     0.057 A 
ATOM     64  C   UNL A   1      44.369  26.154  34.850  1.00  0.00     0.134 A 
ATOM     65  C   UNL A   1      45.770  27.972  34.167  1.00  0.00     0.134 A 
ATOM     66  F   UNL A   1      43.177  25.540  34.916  1.00  0.00    -0.206 F 
ATOM     67  C   UNL A   1      45.451  25.552  35.495  1.00  0.00     0.040 A 
ATOM     68  C   UNL A   1      46.866  27.366  34.783  1.00  0.00     0.040 A 
ATOM     69  F   UNL A   1      45.967  29.142  33.542  1.00  0.00    -0.206 F 
ATOM     70  C   UNL A   1      46.707  26.155  35.455  1.00  0.00     0.006 A 
ENDBRANCH  49  63
BRANCH  50  71
ATOM     71  C   UNL A   1      36.951  31.440  29.089  1.00  0.00     0.057 A 
ATOM     72  C   UNL A   1      36.971  32.765  28.637  1.00  0.00     0.134 A 
ATOM     73  C   UNL A   1      35.778  30.706  28.872  1.00  0.00     0.134 A 
ATOM     74  F   UNL A   1      38.053  33.532  28.839  1.00  0.00    -0.206 F 
ATOM     75  C   UNL A   1      35.861  33.346  28.020  1.00  0.00     0.040 A 
ATOM     76  C   UNL A   1      34.672  31.264  28.230  1.00  0.00     0.040 A 
ATOM     77  F   UNL A   1      35.690  29.433  29.285  1.00  0.00    -0.206 F 
ATOM     78  C   UNL A   1      34.707  32.592  27.812  1.00  0.00     0.006 A 
ENDBRANCH  50  71
BRANCH  62  79
ATOM     79  C   UNL A   1      39.278  32.165  35.611  1.00  0.00     0.057 A 
ATOM     80  C   UNL A   1      39.706  33.490  35.772  1.00  0.00     0.134 A 
ATOM     81  C   UNL A   1      38.387  31.657  36.566  1.00  0.00     0.134 A 
ATOM     82  F   UNL A   1      40.566  34.038  34.900  1.00  0.00    -0.206 F 
ATOM     83  C   UNL A   1      39.300  34.262  36.862  1.00  0.00     0.040 A 
ATOM     84  C   UNL A   1      37.947  32.431  37.642  1.00  0.00     0.040 A 
ATOM     85  F   UNL A   1      37.923  30.401  36.467  1.00  0.00    -0.206 F 
ATOM     86  C   UNL A   1      38.415  33.733  37.799  1.00  0.00     0.006 A 
ENDBRANCH  62  79
ENDBRANCH  36  37
ENDBRANCH  29  31
ENDBRANCH  28  29
ENDBRANCH  27  28
ENDBRANCH  26  27
ENDBRANCH  25  26
ENDBRANCH   1  25
TORSDOF 18
ENDMDL
MODEL 2
REMARK VINA RESULT:     -10.8      3.699      6.468
REMARK SMILES O=C(OCCOCCOCCOC(=O)c1ccc(-c2c3nc(c(-c4c(F)cccc4F)c4ccc([nH]4)c(-c4c(F)cccc4F)c4nc(c(-c5c(F)cccc5F)c5ccc2[nH]5)C=C4)C=C3)cc1)C1=Cc2cc(Cl)cc(Cl)c2O[C@@H]1C(F)(F)F
REMARK SMILES IDX 8 1 7 2 6 3 5 4 4 5 3 6 2 7 1 8 69 9 70 10 80 11 71 12 79 13
REMARK SMILES IDX 72 14 78 15 73 16 76 17 74 18 75 19 77 20 81 21 82 22 83 23
REMARK SMILES IDX 84 24 9 25 10 26 11 27 12 28 13 29 14 30 15 31 16 32 68 33
REMARK SMILES IDX 17 34 67 35 18 36 19 37 20 38 61 39 21 40 66 41 60 42 62 43
REMARK SMILES IDX 22 44 65 45 59 46 58 47 23 49 49 50 32 51 48 52 33 53 36 54
REMARK SMILES IDX 47 55 63 56 34 57 35 58 46 60 64 61 37 62 24 63 25 64 30 65
REMARK SMILES IDX 26 66 27 67 29 68 31 69 28 70 50 71 51 72 56 73 52 74 53 75
REMARK SMILES IDX 55 76 57 77 54 78 38 79 39 80 44 81 40 82 41 83 43 84 45 85
REMARK SMILES IDX 42 86
REMARK H PARENT 62 48 36 59
REMARK Flexibility Score: inf
ROOT
ATOM      1  C   UNL A   1      33.930  23.023  25.160  1.00  0.00     0.188 C 
ENDROOT
BRANCH   1   2
ATOM      2  C   UNL A   1      34.179  23.448  23.715  1.00  0.00     0.188 C 
BRANCH   2   3
ATOM      3  O   UNL A   1      32.978  23.611  22.973  1.00  0.00    -0.376 OA
BRANCH   3   4
ATOM      4  C   UNL A   1      33.147  23.958  21.597  1.00  0.00     0.202 C 
BRANCH   4   5
ATOM      5  C   UNL A   1      32.782  25.409  21.262  1.00  0.00     0.261 C 
BRANCH   5   6
ATOM      6  O   UNL A   1      33.727  26.342  21.834  1.00  0.00    -0.460 OA
BRANCH   6   7
ATOM      7  C   UNL A   1      33.278  27.397  22.548  1.00  0.00     0.338 C 
ATOM      8  O   UNL A   1      33.677  28.537  22.347  1.00  0.00    -0.246 OA
BRANCH   7   9
ATOM      9  C   UNL A   1      32.448  27.053  23.731  1.00  0.00     0.087 C 
ATOM     10  C   UNL A   1      33.145  26.781  24.852  1.00  0.00     0.027 C 
ATOM     11  C   UNL A   1      31.081  27.665  23.858  1.00  0.00     0.316 C 
ATOM     12  C   UNL A   1      33.174  27.974  25.727  1.00  0.00     0.020 A 
ATOM     13  O   UNL A   1      31.038  28.724  24.860  1.00  0.00    -0.474 OA
ATOM     14  C   UNL A   1      34.239  28.160  26.612  1.00  0.00     0.032 A 
ATOM     15  C   UNL A   1      32.175  28.952  25.605  1.00  0.00     0.146 A 
ATOM     16  C   UNL A   1      34.364  29.370  27.290  1.00  0.00     0.043 A 
ATOM     17  C   UNL A   1      32.346  30.185  26.251  1.00  0.00     0.085 A 
ATOM     18  Cl  UNL A   1      35.667  29.601  28.389  1.00  0.00    -0.084 Cl
ATOM     19  C   UNL A   1      33.455  30.403  27.073  1.00  0.00     0.045 A 
ATOM     20  Cl  UNL A   1      31.255  31.500  26.005  1.00  0.00    -0.080 Cl
BRANCH  11  21
ATOM     21  C   UNL A   1      29.963  26.638  24.038  1.00  0.00     0.430 C 
ATOM     22  F   UNL A   1      30.249  25.483  23.393  1.00  0.00    -0.167 F 
ATOM     23  F   UNL A   1      29.799  26.322  25.347  1.00  0.00    -0.167 F 
ATOM     24  F   UNL A   1      28.777  27.088  23.577  1.00  0.00    -0.167 F 
ENDBRANCH  11  21
ENDBRANCH   7   9
ENDBRANCH   6   7
ENDBRANCH   5   6
ENDBRANCH   4   5
ENDBRANCH   3   4
ENDBRANCH   2   3
ENDBRANCH   1   2
BRANCH   1  25
ATOM     25  O   UNL A   1      35.156  22.837  25.858  1.00  0.00    -0.376 OA
BRANCH  25  26
ATOM     26  C   UNL A   1      35.546  21.472  26.021  1.00  0.00     0.202 C 
BRANCH  26  27
ATOM     27  C   UNL A   1      36.687  20.917  25.137  1.00  0.00     0.261 C 
BRANCH  27  28
ATOM     28  O   UNL A   1      37.890  21.700  25.033  1.00  0.00    -0.460 OA
BRANCH  28  29
ATOM     29  C   UNL A   1      38.937  21.336  25.800  1.00  0.00     0.338 C 
ATOM     30  O   UNL A   1      39.505  20.260  25.800  1.00  0.00    -0.246 OA
BRANCH  29  31
ATOM     31  C   UNL A   1      39.385  22.505  26.587  1.00  0.00     0.060 A 
ATOM     32  C   UNL A   1      38.805  23.750  26.329  1.00  0.00     0.016 A 
ATOM     33  C   UNL A   1      40.449  22.399  27.488  1.00  0.00     0.016 A 
ATOM     34  C   UNL A   1      39.309  24.899  26.941  1.00  0.00     0.010 A 
ATOM     35  C   UNL A   1      40.967  23.556  28.091  1.00  0.00     0.010 A 
ATOM     36  C   UNL A   1      40.424  24.817  27.788  1.00  0.00    -0.014 A 
BRANCH  36  37
ATOM     37  C   UNL A   1      41.113  26.078  28.172  1.00  0.00     0.031 A 
ATOM     38  C   UNL A   1      42.538  26.288  27.731  1.00  0.00     0.074 A 
ATOM     39  C   UNL A   1      40.459  27.065  28.812  1.00  0.00     0.049 A 
ATOM     40  N   UNL A   1      43.300  27.346  27.847  1.00  0.00    -0.248 NA
ATOM     41  C   UNL A   1      43.187  25.152  27.057  1.00  0.00     0.031 C 
ATOM     42  C   UNL A   1      39.074  27.003  29.271  1.00  0.00     0.029 A 
ATOM     43  N   UNL A   1      40.881  28.321  29.174  1.00  0.00    -0.354 N 
ATOM     44  C   UNL A   1      44.504  27.016  27.237  1.00  0.00     0.074 A 
ATOM     45  C   UNL A   1      44.391  25.640  26.799  1.00  0.00     0.031 C 
ATOM     46  C   UNL A   1      38.760  28.171  29.861  1.00  0.00     0.029 A 
ATOM     47  C   UNL A   1      39.925  29.056  29.832  1.00  0.00     0.049 A 
ATOM     48  H   UNL A   1      41.784  28.663  28.982  1.00  0.00     0.167 HD
ATOM     49  C   UNL A   1      45.598  27.789  27.038  1.00  0.00     0.037 A 
ATOM     50  C   UNL A   1      39.986  30.297  30.354  1.00  0.00     0.037 A 
ATOM     51  C   UNL A   1      45.729  29.147  27.499  1.00  0.00     0.049 A 
ATOM     52  C   UNL A   1      41.245  31.111  30.192  1.00  0.00     0.074 A 
ATOM     53  C   UNL A   1      46.804  30.007  27.360  1.00  0.00     0.029 A 
ATOM     54  N   UNL A   1      44.755  29.839  28.203  1.00  0.00    -0.354 N 
ATOM     55  N   UNL A   1      42.362  30.801  29.578  1.00  0.00    -0.248 NA
ATOM     56  C   UNL A   1      41.243  32.457  30.783  1.00  0.00     0.031 C 
ATOM     57  C   UNL A   1      46.500  31.201  28.022  1.00  0.00     0.029 A 
ATOM     58  C   UNL A   1      45.213  31.108  28.523  1.00  0.00     0.049 A 
ATOM     59  H   UNL A   1      43.868  29.481  28.440  1.00  0.00     0.167 HD
ATOM     60  C   UNL A   1      43.182  31.919  29.687  1.00  0.00     0.074 A 
ATOM     61  C   UNL A   1      42.423  32.924  30.400  1.00  0.00     0.031 C 
ATOM     62  C   UNL A   1      44.450  32.099  29.239  1.00  0.00     0.037 A 
BRANCH  49  63
ATOM     63  C   UNL A   1      46.751  27.174  26.297  1.00  0.00     0.057 A 
ATOM     64  C   UNL A   1      47.761  26.468  26.964  1.00  0.00     0.134 A 
ATOM     65  C   UNL A   1      46.839  27.263  24.901  1.00  0.00     0.134 A 
ATOM     66  F   UNL A   1      47.746  26.358  28.301  1.00  0.00    -0.206 F 
ATOM     67  C   UNL A   1      48.827  25.888  26.272  1.00  0.00     0.040 A 
ATOM     68  C   UNL A   1      47.884  26.664  24.197  1.00  0.00     0.040 A 
ATOM     69  F   UNL A   1      45.904  27.921  24.201  1.00  0.00    -0.206 F 
ATOM     70  C   UNL A   1      48.886  25.979  24.883  1.00  0.00     0.006 A 
ENDBRANCH  49  63
BRANCH  50  71
ATOM     71  C   UNL A   1      38.825  30.852  31.100  1.00  0.00     0.057 A 
ATOM     72  C   UNL A   1      38.617  30.572  32.456  1.00  0.00     0.134 A 
ATOM     73  C   UNL A   1      37.862  31.638  30.452  1.00  0.00     0.134 A 
ATOM     74  F   UNL A   1      39.486  29.801  33.127  1.00  0.00    -0.206 F 
ATOM     75  C   UNL A   1      37.484  31.028  33.133  1.00  0.00     0.040 A 
ATOM     76  C   UNL A   1      36.741  32.126  31.124  1.00  0.00     0.040 A 
ATOM     77  F   UNL A   1      37.998  31.941  29.152  1.00  0.00    -0.206 F 
ATOM     78  C   UNL A   1      36.543  31.811  32.467  1.00  0.00     0.006 A 
ENDBRANCH  50  71
BRANCH  62  79
ATOM     79  C   UNL A   1      45.082  33.441  29.486  1.00  0.00     0.057 A 
ATOM     80  C   UNL A   1      44.939  34.507  28.587  1.00  0.00     0.134 A 
ATOM     81  C   UNL A   1      45.840  33.673  30.641  1.00  0.00     0.134 A 
ATOM     82  F   UNL A   1      44.234  34.352  27.456  1.00  0.00    -0.206 F 
ATOM     83  C   UNL A   1      45.561  35.737  28.807  1.00  0.00     0.040 A 
ATOM     84  C   UNL A   1      46.438  34.910  30.889  1.00  0.00     0.040 A 
ATOM     85  F   UNL A   1      46.007  32.703  31.554  1.00  0.00    -0.206 F 
ATOM     86  C   UNL A   1      46.310  35.942  29.963  1.00  0.00     0.006 A 
ENDBRANCH  62  79
ENDBRANCH  36  37
ENDBRANCH  29  31
ENDBRANCH  28  29
ENDBRANCH  27  28
ENDBRANCH  26  27
ENDBRANCH  25  26
ENDBRANCH   1  25
TORSDOF 18
ENDMDL
MODEL 3
REMARK VINA RESULT:     -10.6      3.783      7.835
REMARK SMILES O=C(OCCOCCOCCOC(=O)c1ccc(-c2c3nc(c(-c4c(F)cccc4F)c4ccc([nH]4)c(-c4c(F)cccc4F)c4nc(c(-c5c(F)cccc5F)c5ccc2[nH]5)C=C4)C=C3)cc1)C1=Cc2cc(Cl)cc(Cl)c2O[C@@H]1C(F)(F)F
REMARK SMILES IDX 8 1 7 2 6 3 5 4 4 5 3 6 2 7 1 8 69 9 70 10 80 11 71 12 79 13
REMARK SMILES IDX 72 14 78 15 73 16 76 17 74 18 75 19 77 20 81 21 82 22 83 23
REMARK SMILES IDX 84 24 9 25 10 26 11 27 12 28 13 29 14 30 15 31 16 32 68 33
REMARK SMILES IDX 17 34 67 35 18 36 19 37 20 38 61 39 21 40 66 41 60 42 62 43
REMARK SMILES IDX 22 44 65 45 59 46 58 47 23 49 49 50 32 51 48 52 33 53 36 54
REMARK SMILES IDX 47 55 63 56 34 57 35 58 46 60 64 61 37 62 24 63 25 64 30 65
REMARK SMILES IDX 26 66 27 67 29 68 31 69 28 70 50 71 51 72 56 73 52 74 53 75
REMARK SMILES IDX 55 76 57 77 54 78 38 79 39 80 44 81 40 82 41 83 43 84 45 85
REMARK SMILES IDX 42 86
REMARK H PARENT 62 48 36 59
REMARK Flexibility Score: inf
ROOT
ATOM      1  C   UNL A   1      33.860  23.058  25.234  1.00  0.00     0.188 C 
ENDROOT
BRANCH   1   2
ATOM      2  C   UNL A   1      34.088  23.409  23.766  1.00  0.00     0.188 C 
BRANCH   2   3
ATOM      3  O   UNL A   1      32.890  23.780  23.096  1.00  0.00    -0.376 OA
BRANCH   3   4
ATOM      4  C   UNL A   1      33.024  24.039  21.696  1.00  0.00     0.202 C 
BRANCH   4   5
ATOM      5  C   UNL A   1      32.691  25.479  21.285  1.00  0.00     0.261 C 
BRANCH   5   6
ATOM      6  O   UNL A   1      33.654  26.419  21.814  1.00  0.00    -0.460 OA
BRANCH   6   7
ATOM      7  C   UNL A   1      33.230  27.462  22.562  1.00  0.00     0.338 C 
ATOM      8  O   UNL A   1      33.628  28.604  22.372  1.00  0.00    -0.246 OA
BRANCH   7   9
ATOM      9  C   UNL A   1      32.433  27.098  23.761  1.00  0.00     0.087 C 
ATOM     10  C   UNL A   1      33.160  26.824  24.862  1.00  0.00     0.027 C 
ATOM     11  C   UNL A   1      31.063  27.692  23.927  1.00  0.00     0.316 C 
ATOM     12  C   UNL A   1      33.196  28.010  25.747  1.00  0.00     0.020 A 
ATOM     13  O   UNL A   1      31.031  28.742  24.938  1.00  0.00    -0.474 OA
ATOM     14  C   UNL A   1      34.280  28.201  26.608  1.00  0.00     0.032 A 
ATOM     15  C   UNL A   1      32.183  28.977  25.658  1.00  0.00     0.146 A 
ATOM     16  C   UNL A   1      34.407  29.406  27.294  1.00  0.00     0.043 A 
ATOM     17  C   UNL A   1      32.355  30.206  26.311  1.00  0.00     0.085 A 
ATOM     18  Cl  UNL A   1      35.733  29.643  28.363  1.00  0.00    -0.084 Cl
ATOM     19  C   UNL A   1      33.480  30.430  27.107  1.00  0.00     0.045 A 
ATOM     20  Cl  UNL A   1      31.243  31.510  26.103  1.00  0.00    -0.080 Cl
BRANCH  11  21
ATOM     21  C   UNL A   1      29.962  26.650  24.124  1.00  0.00     0.430 C 
ATOM     22  F   UNL A   1      30.248  25.502  23.466  1.00  0.00    -0.167 F 
ATOM     23  F   UNL A   1      29.829  26.324  25.435  1.00  0.00    -0.167 F 
ATOM     24  F   UNL A   1      28.760  27.088  23.691  1.00  0.00    -0.167 F 
ENDBRANCH  11  21
ENDBRANCH   7   9
ENDBRANCH   6   7
ENDBRANCH   5   6
ENDBRANCH   4   5
ENDBRANCH   3   4
ENDBRANCH   2   3
ENDBRANCH   1   2
BRANCH   1  25
ATOM     25  O   UNL A   1      35.095  22.830  25.903  1.00  0.00    -0.376 OA
BRANCH  25  26
ATOM     26  C   UNL A   1      35.414  21.452  26.110  1.00  0.00     0.202 C 
BRANCH  26  27
ATOM     27  C   UNL A   1      36.461  20.788  25.186  1.00  0.00     0.261 C 
BRANCH  27  28
ATOM     28  O   UNL A   1      37.700  21.487  24.972  1.00  0.00    -0.460 OA
BRANCH  28  29
ATOM     29  C   UNL A   1      38.748  21.150  25.751  1.00  0.00     0.338 C 
ATOM     30  O   UNL A   1      39.256  20.049  25.857  1.00  0.00    -0.246 OA
BRANCH  29  31
ATOM     31  C   UNL A   1      39.282  22.370  26.392  1.00  0.00     0.060 A 
ATOM     32  C   UNL A   1      38.742  23.609  26.033  1.00  0.00     0.016 A 
ATOM     33  C   UNL A   1      40.383  22.307  27.251  1.00  0.00     0.016 A 
ATOM     34  C   UNL A   1      39.324  24.789  26.500  1.00  0.00     0.010 A 
ATOM     35  C   UNL A   1      40.978  23.494  27.708  1.00  0.00     0.010 A 
ATOM     36  C   UNL A   1      40.474  24.742  27.301  1.00  0.00    -0.014 A 
BRANCH  36  37
ATOM     37  C   UNL A   1      41.233  26.001  27.522  1.00  0.00     0.031 A 
ATOM     38  C   UNL A   1      40.588  27.104  28.319  1.00  0.00     0.074 A 
ATOM     39  C   UNL A   1      42.509  26.130  27.114  1.00  0.00     0.049 A 
ATOM     40  N   UNL A   1      41.093  28.238  28.737  1.00  0.00    -0.248 NA
ATOM     41  C   UNL A   1      39.184  26.893  28.708  1.00  0.00     0.031 C 
ATOM     42  C   UNL A   1      43.261  25.131  26.359  1.00  0.00     0.029 A 
ATOM     43  N   UNL A   1      43.400  27.160  27.294  1.00  0.00    -0.354 N 
ATOM     44  C   UNL A   1      40.082  28.860  29.459  1.00  0.00     0.074 A 
ATOM     45  C   UNL A   1      38.918  28.004  29.379  1.00  0.00     0.031 C 
ATOM     46  C   UNL A   1      44.502  25.600  26.134  1.00  0.00     0.029 A 
ATOM     47  C   UNL A   1      44.627  26.936  26.718  1.00  0.00     0.049 A 
ATOM     48  H   UNL A   1      43.180  27.983  27.789  1.00  0.00     0.167 HD
ATOM     49  C   UNL A   1      40.122  30.027  30.146  1.00  0.00     0.037 A 
ATOM     50  C   UNL A   1      45.720  27.721  26.664  1.00  0.00     0.037 A 
ATOM     51  C   UNL A   1      41.266  30.899  30.202  1.00  0.00     0.049 A 
ATOM     52  C   UNL A   1      45.714  29.056  27.368  1.00  0.00     0.074 A 
ATOM     53  C   UNL A   1      41.399  32.110  30.859  1.00  0.00     0.029 A 
ATOM     54  N   UNL A   1      42.474  30.658  29.566  1.00  0.00    -0.354 N 
ATOM     55  N   UNL A   1      44.766  29.614  28.082  1.00  0.00    -0.248 NA
ATOM     56  C   UNL A   1      46.940  29.860  27.272  1.00  0.00     0.031 C 
ATOM     57  C   UNL A   1      42.668  32.626  30.580  1.00  0.00     0.029 A 
ATOM     58  C   UNL A   1      43.350  31.708  29.797  1.00  0.00     0.049 A 
ATOM     59  H   UNL A   1      42.680  29.859  29.029  1.00  0.00     0.167 HD
ATOM     60  C   UNL A   1      45.289  30.819  28.539  1.00  0.00     0.074 A 
ATOM     61  C   UNL A   1      46.648  30.896  28.046  1.00  0.00     0.031 C 
ATOM     62  C   UNL A   1      44.699  31.777  29.296  1.00  0.00     0.037 A 
BRANCH  49  63
ATOM     63  C   UNL A   1      38.878  30.435  30.883  1.00  0.00     0.057 A 
ATOM     64  C   UNL A   1      38.576  29.927  32.154  1.00  0.00     0.134 A 
ATOM     65  C   UNL A   1      37.989  31.368  30.334  1.00  0.00     0.134 A 
ATOM     66  F   UNL A   1      39.378  29.019  32.732  1.00  0.00    -0.206 F 
ATOM     67  C   UNL A   1      37.426  30.316  32.843  1.00  0.00     0.040 A 
ATOM     68  C   UNL A   1      36.851  31.786  31.024  1.00  0.00     0.040 A 
ATOM     69  F   UNL A   1      38.220  31.897  29.123  1.00  0.00    -0.206 F 
ATOM     70  C   UNL A   1      36.563  31.255  32.280  1.00  0.00     0.006 A 
ENDBRANCH  49  63
BRANCH  50  71
ATOM     71  C   UNL A   1      46.920  27.282  25.902  1.00  0.00     0.057 A 
ATOM     72  C   UNL A   1      47.053  27.532  24.530  1.00  0.00     0.134 A 
ATOM     73  C   UNL A   1      47.940  26.550  26.523  1.00  0.00     0.134 A 
ATOM     74  F   UNL A   1      46.098  28.203  23.869  1.00  0.00    -0.206 F 
ATOM     75  C   UNL A   1      48.142  27.049  23.800  1.00  0.00     0.040 A 
ATOM     76  C   UNL A   1      49.048  26.087  25.812  1.00  0.00     0.040 A 
ATOM     77  F   UNL A   1      47.872  26.271  27.833  1.00  0.00    -0.206 F 
ATOM     78  C   UNL A   1      49.145  26.326  24.443  1.00  0.00     0.006 A 
ENDBRANCH  50  71
BRANCH  62  79
ATOM     79  C   UNL A   1      45.532  32.976  29.658  1.00  0.00     0.057 A 
ATOM     80  C   UNL A   1      46.335  33.005  30.806  1.00  0.00     0.134 A 
ATOM     81  C   UNL A   1      45.534  34.117  28.845  1.00  0.00     0.134 A 
ATOM     82  F   UNL A   1      46.374  31.950  31.635  1.00  0.00    -0.206 F 
ATOM     83  C   UNL A   1      47.076  34.136  31.153  1.00  0.00     0.040 A 
ATOM     84  C   UNL A   1      46.297  35.242  29.163  1.00  0.00     0.040 A 
ATOM     85  F   UNL A   1      44.800  34.156  27.722  1.00  0.00    -0.206 F 
ATOM     86  C   UNL A   1      47.060  35.258  30.328  1.00  0.00     0.006 A 
ENDBRANCH  62  79
ENDBRANCH  36  37
ENDBRANCH  29  31
ENDBRANCH  28  29
ENDBRANCH  27  28
ENDBRANCH  26  27
ENDBRANCH  25  26
ENDBRANCH   1  25
TORSDOF 18
ENDMDL
