MODEL 1
REMARK VINA RESULT:     -10.1      0.000      0.000
REMARK SMILES CCC(C)(C)c1ccc(O[C@H](F)C(=O)OCCOCCOCCOC(=O)c2ccc(-c3c4nc(c(-c5c(F)cccc5F)c5ccc([nH]5)c(-c5c(F)cccc5F)c5nc(c(-c6c(F)cccc6F)c6ccc3[nH]6)C=C5)C=C4)cc2)cc1
REMARK SMILES IDX 19 1 18 2 17 3 16 4 15 5 13 6 14 7 11 8 12 9 10 10 9 11 6 12
REMARK SMILES IDX 7 13 82 14 8 15 81 16 3 17 4 18 5 19 2 20 1 21 20 22 21 23
REMARK SMILES IDX 22 24 23 25 24 26 25 27 26 28 27 29 28 30 80 31 29 32 79 33
REMARK SMILES IDX 30 34 31 35 32 36 73 37 33 38 78 39 72 40 74 41 34 42 77 43
REMARK SMILES IDX 71 44 70 45 35 47 61 48 44 49 60 50 45 51 48 52 59 53 75 54
REMARK SMILES IDX 46 55 47 56 58 58 76 59 49 60 36 61 37 62 42 63 38 64 39 65
REMARK SMILES IDX 41 66 43 67 40 68 62 69 63 70 68 71 64 72 65 73 67 74 69 75
REMARK SMILES IDX 66 76 50 77 51 78 56 79 52 80 53 81 55 82 57 83 54 84
REMARK H PARENT 74 46 48 57
REMARK Flexibility Score: inf
ROOT
ATOM      1  C   UNL A   1      37.989  21.610  25.739  1.00  0.00     0.188 C 
ENDROOT
BRANCH   1   2
ATOM      2  O   UNL A   1      37.292  22.415  24.793  1.00  0.00    -0.376 OA
BRANCH   2   3
ATOM      3  C   UNL A   1      36.830  23.711  25.169  1.00  0.00     0.202 C 
BRANCH   3   4
ATOM      4  C   UNL A   1      35.387  23.854  25.669  1.00  0.00     0.261 C 
BRANCH   4   5
ATOM      5  O   UNL A   1      34.486  24.242  24.626  1.00  0.00    -0.458 OA
BRANCH   5   6
ATOM      6  C   UNL A   1      33.844  25.440  24.760  1.00  0.00     0.381 C 
ATOM      7  O   UNL A   1      33.753  26.072  25.806  1.00  0.00    -0.244 OA
BRANCH   6   8
ATOM      8  C   UNL A   1      33.378  25.936  23.388  1.00  0.00     0.461 C 
ATOM      9  F   UNL A   1      34.210  25.512  22.390  1.00  0.00    -0.189 F 
BRANCH   8  10
ATOM     10  O   UNL A   1      32.051  25.509  23.130  1.00  0.00    -0.451 OA
BRANCH  10  11
ATOM     11  C   UNL A   1      31.120  26.502  23.138  1.00  0.00     0.123 A 
ATOM     12  C   UNL A   1      29.358  28.707  22.989  1.00  0.00    -0.042 A 
ATOM     13  C   UNL A   1      28.937  27.473  23.516  1.00  0.00     0.008 A 
ATOM     14  C   UNL A   1      30.705  28.805  22.596  1.00  0.00     0.008 A 
ATOM     15  C   UNL A   1      29.808  26.378  23.590  1.00  0.00     0.047 A 
ATOM     16  C   UNL A   1      31.563  27.712  22.632  1.00  0.00     0.047 A 
BRANCH  12  17
ATOM     17  C   UNL A   1      28.420  29.916  22.822  1.00  0.00    -0.011 C 
ATOM     18  C   UNL A   1      26.995  29.533  23.279  1.00  0.00     0.016 C 
ATOM     19  C   UNL A   1      28.292  30.374  21.342  1.00  0.00     0.016 C 
BRANCH  17  20
ATOM     20  C   UNL A   1      28.953  31.169  23.595  1.00  0.00     0.008 C 
ATOM     21  C   UNL A   1      28.705  32.555  23.008  1.00  0.00     0.005 C 
ENDBRANCH  17  20
ENDBRANCH  12  17
ENDBRANCH  10  11
ENDBRANCH   8  10
ENDBRANCH   6   8
ENDBRANCH   5   6
ENDBRANCH   4   5
ENDBRANCH   3   4
ENDBRANCH   2   3
ENDBRANCH   1   2
BRANCH   1  22
ATOM     22  C   UNL A   1      39.438  21.967  26.137  1.00  0.00     0.188 C 
BRANCH  22  23
ATOM     23  O   UNL A   1      40.366  20.941  25.863  1.00  0.00    -0.376 OA
BRANCH  23  24
ATOM     24  C   UNL A   1      41.635  21.045  26.490  1.00  0.00     0.202 C 
BRANCH  24  25
ATOM     25  C   UNL A   1      42.844  21.501  25.650  1.00  0.00     0.261 C 
BRANCH  25  26
ATOM     26  O   UNL A   1      42.733  22.773  24.987  1.00  0.00    -0.460 OA
BRANCH  26  27
ATOM     27  C   UNL A   1      43.659  23.712  25.268  1.00  0.00     0.338 C 
ATOM     28  O   UNL A   1      44.764  23.837  24.749  1.00  0.00    -0.246 OA
BRANCH  27  29
ATOM     29  C   UNL A   1      43.054  24.703  26.182  1.00  0.00     0.060 A 
ATOM     30  C   UNL A   1      43.451  26.045  26.096  1.00  0.00     0.016 A 
ATOM     31  C   UNL A   1      42.100  24.312  27.124  1.00  0.00     0.016 A 
ATOM     32  C   UNL A   1      42.909  26.996  26.966  1.00  0.00     0.010 A 
ATOM     33  C   UNL A   1      41.576  25.261  28.009  1.00  0.00     0.010 A 
ATOM     34  C   UNL A   1      41.996  26.602  27.953  1.00  0.00    -0.014 A 
BRANCH  34  35
ATOM     35  C   UNL A   1      41.613  27.544  29.037  1.00  0.00     0.031 A 
ATOM     36  C   UNL A   1      42.375  27.495  30.333  1.00  0.00     0.074 A 
ATOM     37  C   UNL A   1      40.607  28.422  28.886  1.00  0.00     0.049 A 
ATOM     38  N   UNL A   1      42.172  28.153  31.445  1.00  0.00    -0.248 NA
ATOM     39  C   UNL A   1      43.517  26.569  30.379  1.00  0.00     0.031 C 
ATOM     40  C   UNL A   1      39.810  28.595  27.675  1.00  0.00     0.029 A 
ATOM     41  N   UNL A   1      40.071  29.321  29.775  1.00  0.00    -0.354 N 
ATOM     42  C   UNL A   1      43.154  27.716  32.325  1.00  0.00     0.074 A 
ATOM     43  C   UNL A   1      43.931  26.714  31.628  1.00  0.00     0.031 C 
ATOM     44  C   UNL A   1      38.866  29.524  27.905  1.00  0.00     0.029 A 
ATOM     45  C   UNL A   1      38.972  29.986  29.289  1.00  0.00     0.049 A 
ATOM     46  H   UNL A   1      40.439  29.475  30.676  1.00  0.00     0.167 HD
ATOM     47  C   UNL A   1      43.392  28.117  33.597  1.00  0.00     0.037 A 
ATOM     48  C   UNL A   1      38.130  30.843  29.900  1.00  0.00     0.037 A 
ATOM     49  C   UNL A   1      42.611  29.103  34.297  1.00  0.00     0.049 A 
ATOM     50  C   UNL A   1      38.367  31.223  31.340  1.00  0.00     0.074 A 
ATOM     51  C   UNL A   1      42.784  29.588  35.581  1.00  0.00     0.029 A 
ATOM     52  N   UNL A   1      41.498  29.744  33.774  1.00  0.00    -0.354 N 
ATOM     53  N   UNL A   1      39.315  30.828  32.155  1.00  0.00    -0.248 NA
ATOM     54  C   UNL A   1      37.417  32.171  31.942  1.00  0.00     0.031 C 
ATOM     55  C   UNL A   1      41.742  30.481  35.855  1.00  0.00     0.029 A 
ATOM     56  C   UNL A   1      40.956  30.599  34.720  1.00  0.00     0.049 A 
ATOM     57  H   UNL A   1      41.145  29.612  32.864  1.00  0.00     0.167 HD
ATOM     58  C   UNL A   1      39.094  31.497  33.354  1.00  0.00     0.074 A 
ATOM     59  C   UNL A   1      37.928  32.333  33.156  1.00  0.00     0.031 C 
ATOM     60  C   UNL A   1      39.795  31.428  34.512  1.00  0.00     0.037 A 
BRANCH  47  61
ATOM     61  C   UNL A   1      44.530  27.455  34.321  1.00  0.00     0.057 A 
ATOM     62  C   UNL A   1      44.370  26.242  35.006  1.00  0.00     0.134 A 
ATOM     63  C   UNL A   1      45.803  28.039  34.333  1.00  0.00     0.134 A 
ATOM     64  F   UNL A   1      43.174  25.637  35.047  1.00  0.00    -0.206 F 
ATOM     65  C   UNL A   1      45.425  25.654  35.706  1.00  0.00     0.040 A 
ATOM     66  C   UNL A   1      46.874  27.444  35.003  1.00  0.00     0.040 A 
ATOM     67  F   UNL A   1      46.028  29.197  33.695  1.00  0.00    -0.206 F 
ATOM     68  C   UNL A   1      46.683  26.254  35.701  1.00  0.00     0.006 A 
ENDBRANCH  47  61
BRANCH  48  69
ATOM     69  C   UNL A   1      36.961  31.384  29.159  1.00  0.00     0.057 A 
ATOM     70  C   UNL A   1      35.821  30.607  28.927  1.00  0.00     0.134 A 
ATOM     71  C   UNL A   1      36.963  32.691  28.656  1.00  0.00     0.134 A 
ATOM     72  F   UNL A   1      35.770  29.338  29.360  1.00  0.00    -0.206 F 
ATOM     73  C   UNL A   1      34.729  31.105  28.214  1.00  0.00     0.040 A 
ATOM     74  C   UNL A   1      35.868  33.211  27.964  1.00  0.00     0.040 A 
ATOM     75  F   UNL A   1      38.027  33.486  28.841  1.00  0.00    -0.206 F 
ATOM     76  C   UNL A   1      34.748  32.414  27.737  1.00  0.00     0.006 A 
ENDBRANCH  48  69
BRANCH  60  77
ATOM     77  C   UNL A   1      39.346  32.303  35.649  1.00  0.00     0.057 A 
ATOM     78  C   UNL A   1      39.797  33.621  35.797  1.00  0.00     0.134 A 
ATOM     79  C   UNL A   1      38.412  31.833  36.582  1.00  0.00     0.134 A 
ATOM     80  F   UNL A   1      40.699  34.131  34.945  1.00  0.00    -0.206 F 
ATOM     81  C   UNL A   1      39.354  34.431  36.845  1.00  0.00     0.040 A 
ATOM     82  C   UNL A   1      37.940  32.643  37.617  1.00  0.00     0.040 A 
ATOM     83  F   UNL A   1      37.930  30.584  36.494  1.00  0.00    -0.206 F 
ATOM     84  C   UNL A   1      38.415  33.943  37.754  1.00  0.00     0.006 A 
ENDBRANCH  60  77
ENDBRANCH  34  35
ENDBRANCH  27  29
ENDBRANCH  26  27
ENDBRANCH  25  26
ENDBRANCH  24  25
ENDBRANCH  23  24
ENDBRANCH  22  23
ENDBRANCH   1  22
TORSDOF 21
ENDMDL
MODEL 2
REMARK VINA RESULT:      -9.7      5.153      7.953
REMARK SMILES CCC(C)(C)c1ccc(O[C@H](F)C(=O)OCCOCCOCCOC(=O)c2ccc(-c3c4nc(c(-c5c(F)cccc5F)c5ccc([nH]5)c(-c5c(F)cccc5F)c5nc(c(-c6c(F)cccc6F)c6ccc3[nH]6)C=C5)C=C4)cc2)cc1
REMARK SMILES IDX 19 1 18 2 17 3 16 4 15 5 13 6 14 7 11 8 12 9 10 10 9 11 6 12
REMARK SMILES IDX 7 13 82 14 8 15 81 16 3 17 4 18 5 19 2 20 1 21 20 22 21 23
REMARK SMILES IDX 22 24 23 25 24 26 25 27 26 28 27 29 28 30 80 31 29 32 79 33
REMARK SMILES IDX 30 34 31 35 32 36 73 37 33 38 78 39 72 40 74 41 34 42 77 43
REMARK SMILES IDX 71 44 70 45 35 47 61 48 44 49 60 50 45 51 48 52 59 53 75 54
REMARK SMILES IDX 46 55 47 56 58 58 76 59 49 60 36 61 37 62 42 63 38 64 39 65
REMARK SMILES IDX 41 66 43 67 40 68 62 69 63 70 68 71 64 72 65 73 67 74 69 75
REMARK SMILES IDX 66 76 50 77 51 78 56 79 52 80 53 81 55 82 57 83 54 84
REMARK H PARENT 74 46 48 57
REMARK Flexibility Score: inf
ROOT
ATOM      1  C   UNL A   1      38.167  21.455  25.739  1.00  0.00     0.188 C 
ENDROOT
BRANCH   1   2
ATOM      2  O   UNL A   1      37.603  22.519  24.978  1.00  0.00    -0.376 OA
BRANCH   2   3
ATOM      3  C   UNL A   1      37.160  23.705  25.635  1.00  0.00     0.202 C 
BRANCH   3   4
ATOM      4  C   UNL A   1      35.650  23.931  25.789  1.00  0.00     0.261 C 
BRANCH   4   5
ATOM      5  O   UNL A   1      35.131  24.823  24.795  1.00  0.00    -0.458 OA
BRANCH   5   6
ATOM      6  C   UNL A   1      34.003  25.526  25.106  1.00  0.00     0.381 C 
ATOM      7  O   UNL A   1      33.795  26.692  24.790  1.00  0.00    -0.244 OA
BRANCH   6   8
ATOM      8  C   UNL A   1      32.985  24.602  25.782  1.00  0.00     0.461 C 
ATOM      9  F   UNL A   1      32.288  25.253  26.761  1.00  0.00    -0.189 F 
BRANCH   8  10
ATOM     10  O   UNL A   1      32.092  24.061  24.824  1.00  0.00    -0.451 OA
BRANCH  10  11
ATOM     11  C   UNL A   1      32.301  22.750  24.524  1.00  0.00     0.123 A 
ATOM     12  C   UNL A   1      32.723  19.977  24.173  1.00  0.00    -0.042 A 
ATOM     13  C   UNL A   1      32.427  20.813  23.081  1.00  0.00     0.008 A 
ATOM     14  C   UNL A   1      32.854  20.595  25.430  1.00  0.00     0.008 A 
ATOM     15  C   UNL A   1      32.216  22.188  23.252  1.00  0.00     0.047 A 
ATOM     16  C   UNL A   1      32.609  21.952  25.612  1.00  0.00     0.047 A 
BRANCH  12  17
ATOM     17  C   UNL A   1      32.892  18.453  24.045  1.00  0.00    -0.011 C 
ATOM     18  C   UNL A   1      32.316  17.979  22.693  1.00  0.00     0.016 C 
ATOM     19  C   UNL A   1      32.118  17.671  25.143  1.00  0.00     0.016 C 
BRANCH  17  20
ATOM     20  C   UNL A   1      34.388  18.025  24.213  1.00  0.00     0.008 C 
ATOM     21  C   UNL A   1      34.776  16.578  23.921  1.00  0.00     0.005 C 
ENDBRANCH  17  20
ENDBRANCH  12  17
ENDBRANCH  10  11
ENDBRANCH   8  10
ENDBRANCH   6   8
ENDBRANCH   5   6
ENDBRANCH   4   5
ENDBRANCH   3   4
ENDBRANCH   2   3
ENDBRANCH   1   2
BRANCH   1  22
ATOM     22  C   UNL A   1      39.645  21.521  26.182  1.00  0.00     0.188 C 
BRANCH  22  23
ATOM     23  O   UNL A   1      40.400  20.395  25.794  1.00  0.00    -0.376 OA
BRANCH  23  24
ATOM     24  C   UNL A   1      41.651  20.215  26.438  1.00  0.00     0.202 C 
BRANCH  24  25
ATOM     25  C   UNL A   1      42.628  19.161  25.880  1.00  0.00     0.261 C 
BRANCH  25  26
ATOM     26  O   UNL A   1      43.190  19.418  24.581  1.00  0.00    -0.460 OA
BRANCH  26  27
ATOM     27  C   UNL A   1      44.528  19.571  24.493  1.00  0.00     0.338 C 
ATOM     28  O   UNL A   1      45.337  18.752  24.070  1.00  0.00    -0.246 OA
BRANCH  27  29
ATOM     29  C   UNL A   1      44.856  20.976  24.812  1.00  0.00     0.060 A 
ATOM     30  C   UNL A   1      45.377  21.287  26.075  1.00  0.00     0.016 A 
ATOM     31  C   UNL A   1      44.646  21.986  23.871  1.00  0.00     0.016 A 
ATOM     32  C   UNL A   1      45.672  22.612  26.408  1.00  0.00     0.010 A 
ATOM     33  C   UNL A   1      44.920  23.315  24.213  1.00  0.00     0.010 A 
ATOM     34  C   UNL A   1      45.410  23.639  25.492  1.00  0.00    -0.014 A 
BRANCH  34  35
ATOM     35  C   UNL A   1      45.476  25.060  25.921  1.00  0.00     0.031 A 
ATOM     36  C   UNL A   1      46.805  25.762  25.882  1.00  0.00     0.074 A 
ATOM     37  C   UNL A   1      44.384  25.721  26.345  1.00  0.00     0.049 A 
ATOM     38  N   UNL A   1      47.126  26.965  26.284  1.00  0.00    -0.248 NA
ATOM     39  C   UNL A   1      47.927  24.994  25.320  1.00  0.00     0.031 C 
ATOM     40  C   UNL A   1      43.032  25.171  26.402  1.00  0.00     0.029 A 
ATOM     41  N   UNL A   1      44.251  26.999  26.830  1.00  0.00    -0.354 N 
ATOM     42  C   UNL A   1      48.485  27.096  26.030  1.00  0.00     0.074 A 
ATOM     43  C   UNL A   1      48.935  25.839  25.472  1.00  0.00     0.031 C 
ATOM     44  C   UNL A   1      42.208  26.098  26.922  1.00  0.00     0.029 A 
ATOM     45  C   UNL A   1      42.981  27.292  27.263  1.00  0.00     0.049 A 
ATOM     46  H   UNL A   1      44.994  27.644  26.863  1.00  0.00     0.167 HD
ATOM     47  C   UNL A   1      49.288  28.167  26.238  1.00  0.00     0.037 A 
ATOM     48  C   UNL A   1      42.505  28.385  27.893  1.00  0.00     0.037 A 
ATOM     49  C   UNL A   1      48.846  29.413  26.808  1.00  0.00     0.049 A 
ATOM     50  C   UNL A   1      43.428  29.540  28.183  1.00  0.00     0.074 A 
ATOM     51  C   UNL A   1      49.579  30.563  27.043  1.00  0.00     0.029 A 
ATOM     52  N   UNL A   1      47.554  29.666  27.246  1.00  0.00    -0.354 N 
ATOM     53  N   UNL A   1      44.705  29.668  27.913  1.00  0.00    -0.248 NA
ATOM     54  C   UNL A   1      42.842  30.706  28.862  1.00  0.00     0.031 C 
ATOM     55  C   UNL A   1      48.745  31.492  27.675  1.00  0.00     0.029 A 
ATOM     56  C   UNL A   1      47.477  30.944  27.778  1.00  0.00     0.049 A 
ATOM     57  H   UNL A   1      46.803  29.032  27.189  1.00  0.00     0.167 HD
ATOM     58  C   UNL A   1      45.069  30.933  28.363  1.00  0.00     0.074 A 
ATOM     59  C   UNL A   1      43.874  31.539  28.912  1.00  0.00     0.031 C 
ATOM     60  C   UNL A   1      46.281  31.538  28.321  1.00  0.00     0.037 A 
BRANCH  47  61
ATOM     61  C   UNL A   1      50.738  28.017  25.875  1.00  0.00     0.057 A 
ATOM     62  C   UNL A   1      51.191  28.149  24.555  1.00  0.00     0.134 A 
ATOM     63  C   UNL A   1      51.693  27.736  26.860  1.00  0.00     0.134 A 
ATOM     64  F   UNL A   1      50.327  28.402  23.562  1.00  0.00    -0.206 F 
ATOM     65  C   UNL A   1      52.535  27.972  24.224  1.00  0.00     0.040 A 
ATOM     66  C   UNL A   1      53.045  27.587  26.545  1.00  0.00     0.040 A 
ATOM     67  F   UNL A   1      51.329  27.601  28.144  1.00  0.00    -0.206 F 
ATOM     68  C   UNL A   1      53.468  27.695  25.222  1.00  0.00     0.006 A 
ENDBRANCH  47  61
BRANCH  48  69
ATOM     69  C   UNL A   1      41.083  28.429  28.320  1.00  0.00     0.057 A 
ATOM     70  C   UNL A   1      40.688  27.995  29.590  1.00  0.00     0.134 A 
ATOM     71  C   UNL A   1      40.082  28.899  27.460  1.00  0.00     0.134 A 
ATOM     72  F   UNL A   1      41.595  27.508  30.449  1.00  0.00    -0.206 F 
ATOM     73  C   UNL A   1      39.349  28.017  29.987  1.00  0.00     0.040 A 
ATOM     74  C   UNL A   1      38.743  28.952  27.852  1.00  0.00     0.040 A 
ATOM     75  F   UNL A   1      40.393  29.327  26.228  1.00  0.00    -0.206 F 
ATOM     76  C   UNL A   1      38.373  28.504  29.120  1.00  0.00     0.006 A 
ENDBRANCH  48  69
BRANCH  60  77
ATOM     77  C   UNL A   1      46.375  32.941  28.852  1.00  0.00     0.057 A 
ATOM     78  C   UNL A   1      46.720  33.212  30.182  1.00  0.00     0.134 A 
ATOM     79  C   UNL A   1      46.161  34.037  28.006  1.00  0.00     0.134 A 
ATOM     80  F   UNL A   1      46.929  32.210  31.050  1.00  0.00    -0.206 F 
ATOM     81  C   UNL A   1      46.827  34.522  30.657  1.00  0.00     0.040 A 
ATOM     82  C   UNL A   1      46.293  35.351  28.462  1.00  0.00     0.040 A 
ATOM     83  F   UNL A   1      45.838  33.852  26.718  1.00  0.00    -0.206 F 
ATOM     84  C   UNL A   1      46.621  35.596  29.792  1.00  0.00     0.006 A 
ENDBRANCH  60  77
ENDBRANCH  34  35
ENDBRANCH  27  29
ENDBRANCH  26  27
ENDBRANCH  25  26
ENDBRANCH  24  25
ENDBRANCH  23  24
ENDBRANCH  22  23
ENDBRANCH   1  22
TORSDOF 21
ENDMDL
MODEL 3
REMARK VINA RESULT:      -9.5      4.763     10.224
REMARK SMILES CCC(C)(C)c1ccc(O[C@H](F)C(=O)OCCOCCOCCOC(=O)c2ccc(-c3c4nc(c(-c5c(F)cccc5F)c5ccc([nH]5)c(-c5c(F)cccc5F)c5nc(c(-c6c(F)cccc6F)c6ccc3[nH]6)C=C5)C=C4)cc2)cc1
REMARK SMILES IDX 19 1 18 2 17 3 16 4 15 5 13 6 14 7 11 8 12 9 10 10 9 11 6 12
REMARK SMILES IDX 7 13 82 14 8 15 81 16 3 17 4 18 5 19 2 20 1 21 20 22 21 23
REMARK SMILES IDX 22 24 23 25 24 26 25 27 26 28 27 29 28 30 80 31 29 32 79 33
REMARK SMILES IDX 30 34 31 35 32 36 73 37 33 38 78 39 72 40 74 41 34 42 77 43
REMARK SMILES IDX 71 44 70 45 35 47 61 48 44 49 60 50 45 51 48 52 59 53 75 54
REMARK SMILES IDX 46 55 47 56 58 58 76 59 49 60 36 61 37 62 42 63 38 64 39 65
REMARK SMILES IDX 41 66 43 67 40 68 62 69 63 70 68 71 64 72 65 73 67 74 69 75
REMARK SMILES IDX 66 76 50 77 51 78 56 79 52 80 53 81 55 82 57 83 54 84
REMARK H PARENT 74 46 48 57
REMARK Flexibility Score: inf
ROOT
ATOM      1  C   UNL A   1      34.263  31.810  27.882  1.00  0.00     0.188 C 
ENDROOT
BRANCH   1   2
ATOM      2  O   UNL A   1      33.103  31.025  27.620  1.00  0.00    -0.376 OA
BRANCH   2   3
ATOM      3  C   UNL A   1      33.095  30.117  26.520  1.00  0.00     0.202 C 
BRANCH   3   4
ATOM      4  C   UNL A   1      31.743  29.601  26.011  1.00  0.00     0.261 C 
BRANCH   4   5
ATOM      5  O   UNL A   1      31.531  29.907  24.627  1.00  0.00    -0.458 OA
BRANCH   5   6
ATOM      6  C   UNL A   1      30.565  29.205  23.967  1.00  0.00     0.381 C 
ATOM      7  O   UNL A   1      29.520  29.685  23.539  1.00  0.00    -0.244 OA
BRANCH   6   8
ATOM      8  C   UNL A   1      31.041  27.771  23.720  1.00  0.00     0.461 C 
ATOM      9  F   UNL A   1      30.134  27.058  22.987  1.00  0.00    -0.189 F 
BRANCH   8  10
ATOM     10  O   UNL A   1      32.301  27.771  23.072  1.00  0.00    -0.451 OA
BRANCH  10  11
ATOM     11  C   UNL A   1      33.068  26.672  23.313  1.00  0.00     0.123 A 
ATOM     12  C   UNL A   1      34.640  24.454  24.085  1.00  0.00    -0.042 A 
ATOM     13  C   UNL A   1      34.146  24.576  22.774  1.00  0.00     0.008 A 
ATOM     14  C   UNL A   1      34.364  25.512  24.970  1.00  0.00     0.008 A 
ATOM     15  C   UNL A   1      33.365  25.674  22.388  1.00  0.00     0.047 A 
ATOM     16  C   UNL A   1      33.558  26.585  24.605  1.00  0.00     0.047 A 
BRANCH  12  17
ATOM     17  C   UNL A   1      35.441  23.233  24.574  1.00  0.00    -0.011 C 
ATOM     18  C   UNL A   1      36.302  23.633  25.792  1.00  0.00     0.016 C 
ATOM     19  C   UNL A   1      36.430  22.699  23.501  1.00  0.00     0.016 C 
BRANCH  17  20
ATOM     20  C   UNL A   1      34.502  22.025  24.905  1.00  0.00     0.008 C 
ATOM     21  C   UNL A   1      35.117  20.637  25.055  1.00  0.00     0.005 C 
ENDBRANCH  17  20
ENDBRANCH  12  17
ENDBRANCH  10  11
ENDBRANCH   8  10
ENDBRANCH   6   8
ENDBRANCH   5   6
ENDBRANCH   4   5
ENDBRANCH   3   4
ENDBRANCH   2   3
ENDBRANCH   1   2
BRANCH   1  22
ATOM     22  C   UNL A   1      34.135  33.337  28.071  1.00  0.00     0.188 C 
BRANCH  22  23
ATOM     23  O   UNL A   1      35.071  33.872  28.980  1.00  0.00    -0.376 OA
BRANCH  23  24
ATOM     24  C   UNL A   1      34.767  33.741  30.359  1.00  0.00     0.202 C 
BRANCH  24  25
ATOM     25  C   UNL A   1      35.705  32.903  31.251  1.00  0.00     0.261 C 
BRANCH  25  26
ATOM     26  O   UNL A   1      36.586  31.982  30.583  1.00  0.00    -0.460 OA
BRANCH  26  27
ATOM     27  C   UNL A   1      36.802  30.784  31.165  1.00  0.00     0.338 C 
ATOM     28  O   UNL A   1      36.047  30.188  31.927  1.00  0.00    -0.246 OA
BRANCH  27  29
ATOM     29  C   UNL A   1      38.028  30.200  30.584  1.00  0.00     0.060 A 
ATOM     30  C   UNL A   1      38.976  29.613  31.435  1.00  0.00     0.016 A 
ATOM     31  C   UNL A   1      38.247  30.233  29.206  1.00  0.00     0.016 A 
ATOM     32  C   UNL A   1      40.155  29.076  30.910  1.00  0.00     0.010 A 
ATOM     33  C   UNL A   1      39.439  29.717  28.684  1.00  0.00     0.010 A 
ATOM     34  C   UNL A   1      40.411  29.158  29.535  1.00  0.00    -0.014 A 
BRANCH  34  35
ATOM     35  C   UNL A   1      41.758  28.828  29.002  1.00  0.00     0.031 A 
ATOM     36  C   UNL A   1      42.020  27.423  28.534  1.00  0.00     0.074 A 
ATOM     37  C   UNL A   1      42.737  29.747  28.940  1.00  0.00     0.049 A 
ATOM     38  N   UNL A   1      43.132  26.879  28.111  1.00  0.00    -0.248 NA
ATOM     39  C   UNL A   1      40.869  26.508  28.553  1.00  0.00     0.031 C 
ATOM     40  C   UNL A   1      42.608  31.148  29.331  1.00  0.00     0.029 A 
ATOM     41  N   UNL A   1      44.046  29.626  28.541  1.00  0.00    -0.354 N 
ATOM     42  C   UNL A   1      42.817  25.557  27.822  1.00  0.00     0.074 A 
ATOM     43  C   UNL A   1      41.419  25.374  28.148  1.00  0.00     0.031 C 
ATOM     44  C   UNL A   1      43.799  31.753  29.179  1.00  0.00     0.029 A 
ATOM     45  C   UNL A   1      44.781  30.774  28.712  1.00  0.00     0.049 A 
ATOM     46  H   UNL A   1      44.421  28.796  28.167  1.00  0.00     0.167 HD
ATOM     47  C   UNL A   1      43.617  24.583  27.325  1.00  0.00     0.037 A 
ATOM     48  C   UNL A   1      46.098  30.998  28.543  1.00  0.00     0.037 A 
ATOM     49  C   UNL A   1      45.012  24.760  27.014  1.00  0.00     0.049 A 
ATOM     50  C   UNL A   1      46.990  29.883  28.058  1.00  0.00     0.074 A 
ATOM     51  C   UNL A   1      45.902  23.838  26.491  1.00  0.00     0.029 A 
ATOM     52  N   UNL A   1      45.723  25.934  27.214  1.00  0.00    -0.354 N 
ATOM     53  N   UNL A   1      46.678  28.645  27.758  1.00  0.00    -0.248 NA
ATOM     54  C   UNL A   1      48.415  30.200  27.884  1.00  0.00     0.031 C 
ATOM     55  C   UNL A   1      47.165  24.439  26.427  1.00  0.00     0.029 A 
ATOM     56  C   UNL A   1      47.048  25.753  26.851  1.00  0.00     0.049 A 
ATOM     57  H   UNL A   1      45.342  26.773  27.562  1.00  0.00     0.167 HD
ATOM     58  C   UNL A   1      47.859  28.043  27.337  1.00  0.00     0.074 A 
ATOM     59  C   UNL A   1      48.891  29.057  27.407  1.00  0.00     0.031 C 
ATOM     60  C   UNL A   1      48.068  26.769  26.925  1.00  0.00     0.037 A 
BRANCH  47  61
ATOM     61  C   UNL A   1      43.001  23.229  27.120  1.00  0.00     0.057 A 
ATOM     62  C   UNL A   1      42.618  22.770  25.852  1.00  0.00     0.134 A 
ATOM     63  C   UNL A   1      42.787  22.372  28.208  1.00  0.00     0.134 A 
ATOM     64  F   UNL A   1      42.780  23.546  24.771  1.00  0.00    -0.206 F 
ATOM     65  C   UNL A   1      42.013  21.524  25.679  1.00  0.00     0.040 A 
ATOM     66  C   UNL A   1      42.212  21.111  28.042  1.00  0.00     0.040 A 
ATOM     67  F   UNL A   1      43.134  22.746  29.449  1.00  0.00    -0.206 F 
ATOM     68  C   UNL A   1      41.813  20.688  26.776  1.00  0.00     0.006 A 
ENDBRANCH  47  61
BRANCH  48  69
ATOM     69  C   UNL A   1      46.666  32.334  28.862  1.00  0.00     0.057 A 
ATOM     70  C   UNL A   1      46.856  33.302  27.871  1.00  0.00     0.134 A 
ATOM     71  C   UNL A   1      47.042  32.668  30.170  1.00  0.00     0.134 A 
ATOM     72  F   UNL A   1      46.542  33.033  26.595  1.00  0.00    -0.206 F 
ATOM     73  C   UNL A   1      47.408  34.551  28.164  1.00  0.00     0.040 A 
ATOM     74  C   UNL A   1      47.570  33.922  30.483  1.00  0.00     0.040 A 
ATOM     75  F   UNL A   1      46.888  31.784  31.165  1.00  0.00    -0.206 F 
ATOM     76  C   UNL A   1      47.759  34.867  29.475  1.00  0.00     0.006 A 
ENDBRANCH  48  69
BRANCH  60  77
ATOM     77  C   UNL A   1      49.457  26.401  26.484  1.00  0.00     0.057 A 
ATOM     78  C   UNL A   1      50.359  25.748  27.334  1.00  0.00     0.134 A 
ATOM     79  C   UNL A   1      49.880  26.662  25.174  1.00  0.00     0.134 A 
ATOM     80  F   UNL A   1      50.023  25.476  28.604  1.00  0.00    -0.206 F 
ATOM     81  C   UNL A   1      51.639  25.390  26.904  1.00  0.00     0.040 A 
ATOM     82  C   UNL A   1      51.146  26.284  24.724  1.00  0.00     0.040 A 
ATOM     83  F   UNL A   1      49.064  27.275  24.303  1.00  0.00    -0.206 F 
ATOM     84  C   UNL A   1      52.032  25.652  25.591  1.00  0.00     0.006 A 
ENDBRANCH  60  77
ENDBRANCH  34  35
ENDBRANCH  27  29
ENDBRANCH  26  27
ENDBRANCH  25  26
ENDBRANCH  24  25
ENDBRANCH  23  24
ENDBRANCH  22  23
ENDBRANCH   1  22
TORSDOF 21
ENDMDL
