MODEL 1
REMARK VINA RESULT:     -10.7      0.000      0.000
REMARK SMILES Cc1ccc2nc(CC3(CC(=O)OCCOCCOCCOC(=O)c4ccc(-c5c6nc(c(-c7c(F)cccc7F)c7ccc([nH]7)c(-c7c(F)cccc7F)c7nc(c(-c8c(F)cccc8F)c8ccc5[nH]8)C=C7)C=C6)cc4)CCCCC3)sc2c1
REMARK SMILES IDX 17 1 16 2 15 3 14 4 13 5 11 6 12 7 10 8 9 9 79 10 83 11
REMARK SMILES IDX 80 12 82 13 81 14 8 15 7 16 1 17 2 18 3 19 86 20 4 21 85 22
REMARK SMILES IDX 5 23 84 24 6 25 18 26 19 27 20 28 21 29 22 30 23 31 24 32
REMARK SMILES IDX 25 33 26 34 78 35 27 36 77 37 28 38 29 39 30 40 71 41 31 42
REMARK SMILES IDX 76 43 70 44 72 45 32 46 75 47 69 48 68 49 33 51 59 52 42 53
REMARK SMILES IDX 58 54 43 55 46 56 57 57 73 58 44 59 45 60 56 62 74 63 47 64
REMARK SMILES IDX 34 65 35 66 40 67 36 68 37 69 39 70 41 71 38 72 60 73 61 74
REMARK SMILES IDX 66 75 62 76 63 77 65 78 67 79 64 80 48 81 49 82 54 83 50 84
REMARK SMILES IDX 51 85 53 86 55 87 52 88
REMARK H PARENT 72 50 46 61
REMARK Flexibility Score: inf
ROOT
ATOM      1  C   UNL A   1      40.075  20.092  25.906  1.00  0.00     0.188 C 
ENDROOT
BRANCH   1   2
ATOM      2  O   UNL A   1      39.245  19.047  25.412  1.00  0.00    -0.376 OA
BRANCH   2   3
ATOM      3  C   UNL A   1      37.941  19.433  24.985  1.00  0.00     0.202 C 
BRANCH   3   4
ATOM      4  C   UNL A   1      37.664  20.941  24.939  1.00  0.00     0.261 C 
BRANCH   4   5
ATOM      5  O   UNL A   1      36.326  21.292  24.525  1.00  0.00    -0.463 OA
BRANCH   5   6
ATOM      6  C   UNL A   1      36.152  22.575  24.127  1.00  0.00     0.306 C 
ATOM      7  O   UNL A   1      36.800  23.118  23.237  1.00  0.00    -0.252 OA
BRANCH   6   8
ATOM      8  C   UNL A   1      34.992  23.304  24.787  1.00  0.00     0.130 C 
BRANCH   8   9
ATOM      9  C   UNL A   1      33.623  23.576  24.074  1.00  0.00    -0.013 C 
ATOM     10  C   UNL A   1      32.566  23.895  25.183  1.00  0.00     0.008 C 
ATOM     11  C   UNL A   1      33.109  22.362  23.264  1.00  0.00     0.008 C 
ATOM     12  C   UNL A   1      32.161  22.686  26.033  1.00  0.00     0.001 C 
ATOM     13  C   UNL A   1      32.813  21.147  24.134  1.00  0.00     0.001 C 
ATOM     14  C   UNL A   1      31.759  21.486  25.183  1.00  0.00     0.000 C 
BRANCH   9  15
ATOM     15  C   UNL A   1      33.796  24.847  23.181  1.00  0.00     0.075 C 
BRANCH  15  16
ATOM     16  C   UNL A   1      33.207  26.125  23.727  1.00  0.00     0.094 A 
ATOM     17  C   UNL A   1      31.357  31.509  26.176  1.00  0.00     0.044 C 
ATOM     18  C   UNL A   1      31.514  30.226  25.410  1.00  0.00    -0.050 A 
ATOM     19  C   UNL A   1      30.527  29.816  24.511  1.00  0.00     0.006 A 
ATOM     20  C   UNL A   1      32.666  29.442  25.594  1.00  0.00     0.024 A 
ATOM     21  C   UNL A   1      30.672  28.631  23.782  1.00  0.00     0.030 A 
ATOM     22  C   UNL A   1      32.785  28.237  24.876  1.00  0.00     0.055 A 
ATOM     23  C   UNL A   1      31.814  27.831  23.962  1.00  0.00     0.082 A 
ATOM     24  S   UNL A   1      34.024  27.042  24.934  1.00  0.00    -0.119 S 
ATOM     25  N   UNL A   1      32.077  26.645  23.302  1.00  0.00    -0.241 NA
ENDBRANCH  15  16
ENDBRANCH   9  15
ENDBRANCH   8   9
ENDBRANCH   6   8
ENDBRANCH   5   6
ENDBRANCH   4   5
ENDBRANCH   3   4
ENDBRANCH   2   3
ENDBRANCH   1   2
BRANCH   1  26
ATOM     26  C   UNL A   1      41.312  19.655  26.696  1.00  0.00     0.188 C 
BRANCH  26  27
ATOM     27  O   UNL A   1      42.348  20.626  26.705  1.00  0.00    -0.376 OA
BRANCH  27  28
ATOM     28  C   UNL A   1      43.437  20.473  25.789  1.00  0.00     0.202 C 
BRANCH  28  29
ATOM     29  C   UNL A   1      44.008  21.694  25.042  1.00  0.00     0.261 C 
BRANCH  29  30
ATOM     30  O   UNL A   1      43.228  22.898  25.156  1.00  0.00    -0.460 OA
BRANCH  30  31
ATOM     31  C   UNL A   1      43.909  24.068  25.172  1.00  0.00     0.338 C 
ATOM     32  O   UNL A   1      44.795  24.407  24.410  1.00  0.00    -0.246 OA
BRANCH  31  33
ATOM     33  C   UNL A   1      43.225  24.983  26.123  1.00  0.00     0.060 A 
ATOM     34  C   UNL A   1      43.586  26.336  26.112  1.00  0.00     0.016 A 
ATOM     35  C   UNL A   1      42.191  24.549  26.956  1.00  0.00     0.016 A 
ATOM     36  C   UNL A   1      42.959  27.251  26.959  1.00  0.00     0.010 A 
ATOM     37  C   UNL A   1      41.570  25.462  27.818  1.00  0.00     0.010 A 
ATOM     38  C   UNL A   1      41.975  26.809  27.851  1.00  0.00    -0.014 A 
BRANCH  38  39
ATOM     39  C   UNL A   1      41.538  27.693  28.962  1.00  0.00     0.031 A 
ATOM     40  C   UNL A   1      42.304  27.628  30.255  1.00  0.00     0.074 A 
ATOM     41  C   UNL A   1      40.515  28.557  28.836  1.00  0.00     0.049 A 
ATOM     42  N   UNL A   1      42.071  28.225  31.396  1.00  0.00    -0.248 NA
ATOM     43  C   UNL A   1      43.500  26.768  30.259  1.00  0.00     0.031 C 
ATOM     44  C   UNL A   1      39.730  28.777  27.624  1.00  0.00     0.029 A 
ATOM     45  N   UNL A   1      39.958  29.410  29.759  1.00  0.00    -0.354 N 
ATOM     46  C   UNL A   1      43.075  27.799  32.255  1.00  0.00     0.074 A 
ATOM     47  C   UNL A   1      43.906  26.876  31.514  1.00  0.00     0.031 C 
ATOM     48  C   UNL A   1      38.779  29.694  27.883  1.00  0.00     0.029 A 
ATOM     49  C   UNL A   1      38.863  30.094  29.288  1.00  0.00     0.049 A 
ATOM     50  H   UNL A   1      40.310  29.520  30.672  1.00  0.00     0.167 HD
ATOM     51  C   UNL A   1      43.291  28.146  33.546  1.00  0.00     0.037 A 
ATOM     52  C   UNL A   1      38.010  30.921  29.926  1.00  0.00     0.037 A 
ATOM     53  C   UNL A   1      42.473  29.069  34.285  1.00  0.00     0.049 A 
ATOM     54  C   UNL A   1      38.218  31.226  31.389  1.00  0.00     0.074 A 
ATOM     55  C   UNL A   1      42.621  29.489  35.596  1.00  0.00     0.029 A 
ATOM     56  N   UNL A   1      41.352  29.709  33.783  1.00  0.00    -0.354 N 
ATOM     57  N   UNL A   1      39.169  30.819  32.196  1.00  0.00    -0.248 NA
ATOM     58  C   UNL A   1      37.229  32.105  32.032  1.00  0.00     0.031 C 
ATOM     59  C   UNL A   1      41.557  30.342  35.903  1.00  0.00     0.029 A 
ATOM     60  C   UNL A   1      40.781  30.500  34.766  1.00  0.00     0.049 A 
ATOM     61  H   UNL A   1      41.011  29.615  32.864  1.00  0.00     0.167 HD
ATOM     62  C   UNL A   1      38.912  31.416  33.425  1.00  0.00     0.074 A 
ATOM     63  C   UNL A   1      37.720  32.221  33.258  1.00  0.00     0.031 C 
ATOM     64  C   UNL A   1      39.603  31.309  34.587  1.00  0.00     0.037 A 
BRANCH  51  65
ATOM     65  C   UNL A   1      44.440  27.487  34.251  1.00  0.00     0.057 A 
ATOM     66  C   UNL A   1      45.701  28.090  34.344  1.00  0.00     0.134 A 
ATOM     67  C   UNL A   1      44.274  26.238  34.860  1.00  0.00     0.134 A 
ATOM     68  F   UNL A   1      45.933  29.277  33.764  1.00  0.00    -0.206 F 
ATOM     69  C   UNL A   1      46.762  27.462  34.999  1.00  0.00     0.040 A 
ATOM     70  C   UNL A   1      45.318  25.613  35.542  1.00  0.00     0.040 A 
ATOM     71  F   UNL A   1      43.090  25.607  34.809  1.00  0.00    -0.206 F 
ATOM     72  C   UNL A   1      46.569  26.222  35.606  1.00  0.00     0.006 A 
ENDBRANCH  51  65
BRANCH  52  73
ATOM     73  C   UNL A   1      36.850  31.502  29.201  1.00  0.00     0.057 A 
ATOM     74  C   UNL A   1      35.708  30.741  28.922  1.00  0.00     0.134 A 
ATOM     75  C   UNL A   1      36.873  32.822  28.733  1.00  0.00     0.134 A 
ATOM     76  F   UNL A   1      35.638  29.461  29.315  1.00  0.00    -0.206 F 
ATOM     77  C   UNL A   1      34.641  31.264  28.190  1.00  0.00     0.040 A 
ATOM     78  C   UNL A   1      35.801  33.367  28.024  1.00  0.00     0.040 A 
ATOM     79  F   UNL A   1      37.940  33.602  28.959  1.00  0.00    -0.206 F 
ATOM     80  C   UNL A   1      34.683  32.584  27.743  1.00  0.00     0.006 A 
ENDBRANCH  52  73
BRANCH  64  81
ATOM     81  C   UNL A   1      39.122  32.114  35.762  1.00  0.00     0.057 A 
ATOM     82  C   UNL A   1      39.490  33.451  35.949  1.00  0.00     0.134 A 
ATOM     83  C   UNL A   1      38.232  31.554  36.689  1.00  0.00     0.134 A 
ATOM     84  F   UNL A   1      40.345  34.047  35.105  1.00  0.00    -0.206 F 
ATOM     85  C   UNL A   1      39.010  34.196  37.028  1.00  0.00     0.040 A 
ATOM     86  C   UNL A   1      37.722  32.296  37.756  1.00  0.00     0.040 A 
ATOM     87  F   UNL A   1      37.827  30.281  36.563  1.00  0.00    -0.206 F 
ATOM     88  C   UNL A   1      38.117  33.621  37.931  1.00  0.00     0.006 A 
ENDBRANCH  64  81
ENDBRANCH  38  39
ENDBRANCH  31  33
ENDBRANCH  30  31
ENDBRANCH  29  30
ENDBRANCH  28  29
ENDBRANCH  27  28
ENDBRANCH  26  27
ENDBRANCH   1  26
TORSDOF 20
ENDMDL
MODEL 2
REMARK VINA RESULT:     -10.6      0.988      2.042
REMARK SMILES Cc1ccc2nc(CC3(CC(=O)OCCOCCOCCOC(=O)c4ccc(-c5c6nc(c(-c7c(F)cccc7F)c7ccc([nH]7)c(-c7c(F)cccc7F)c7nc(c(-c8c(F)cccc8F)c8ccc5[nH]8)C=C7)C=C6)cc4)CCCCC3)sc2c1
REMARK SMILES IDX 17 1 16 2 15 3 14 4 13 5 11 6 12 7 10 8 9 9 79 10 83 11
REMARK SMILES IDX 80 12 82 13 81 14 8 15 7 16 1 17 2 18 3 19 86 20 4 21 85 22
REMARK SMILES IDX 5 23 84 24 6 25 18 26 19 27 20 28 21 29 22 30 23 31 24 32
REMARK SMILES IDX 25 33 26 34 78 35 27 36 77 37 28 38 29 39 30 40 71 41 31 42
REMARK SMILES IDX 76 43 70 44 72 45 32 46 75 47 69 48 68 49 33 51 59 52 42 53
REMARK SMILES IDX 58 54 43 55 46 56 57 57 73 58 44 59 45 60 56 62 74 63 47 64
REMARK SMILES IDX 34 65 35 66 40 67 36 68 37 69 39 70 41 71 38 72 60 73 61 74
REMARK SMILES IDX 66 75 62 76 63 77 65 78 67 79 64 80 48 81 49 82 54 83 50 84
REMARK SMILES IDX 51 85 53 86 55 87 52 88
REMARK H PARENT 72 50 46 61
REMARK Flexibility Score: inf
ROOT
ATOM      1  C   UNL A   1      40.267  19.650  26.099  1.00  0.00     0.188 C 
ENDROOT
BRANCH   1   2
ATOM      2  O   UNL A   1      39.676  20.939  26.215  1.00  0.00    -0.376 OA
BRANCH   2   3
ATOM      3  C   UNL A   1      38.526  21.175  25.407  1.00  0.00     0.202 C 
BRANCH   3   4
ATOM      4  C   UNL A   1      37.773  22.486  25.669  1.00  0.00     0.261 C 
BRANCH   4   5
ATOM      5  O   UNL A   1      36.477  22.569  25.038  1.00  0.00    -0.463 OA
BRANCH   5   6
ATOM      6  C   UNL A   1      35.593  23.412  25.622  1.00  0.00     0.306 C 
ATOM      7  O   UNL A   1      35.763  24.623  25.741  1.00  0.00    -0.252 OA
BRANCH   6   8
ATOM      8  C   UNL A   1      34.275  22.778  26.039  1.00  0.00     0.130 C 
BRANCH   8   9
ATOM      9  C   UNL A   1      32.883  23.223  25.474  1.00  0.00    -0.013 C 
ATOM     10  C   UNL A   1      31.886  22.034  25.680  1.00  0.00     0.008 C 
ATOM     11  C   UNL A   1      32.919  23.555  23.963  1.00  0.00     0.008 C 
ATOM     12  C   UNL A   1      32.145  20.830  24.768  1.00  0.00     0.001 C 
ATOM     13  C   UNL A   1      33.280  22.353  23.097  1.00  0.00     0.001 C 
ATOM     14  C   UNL A   1      32.271  21.228  23.302  1.00  0.00     0.000 C 
BRANCH   9  15
ATOM     15  C   UNL A   1      32.387  24.433  26.329  1.00  0.00     0.075 C 
BRANCH  15  16
ATOM     16  C   UNL A   1      31.604  25.490  25.588  1.00  0.00     0.094 A 
ATOM     17  C   UNL A   1      28.933  30.104  22.428  1.00  0.00     0.044 C 
ATOM     18  C   UNL A   1      29.283  28.830  23.143  1.00  0.00    -0.050 A 
ATOM     19  C   UNL A   1      28.350  27.796  23.239  1.00  0.00     0.006 A 
ATOM     20  C   UNL A   1      30.561  28.678  23.708  1.00  0.00     0.024 A 
ATOM     21  C   UNL A   1      28.672  26.601  23.890  1.00  0.00     0.030 A 
ATOM     22  C   UNL A   1      30.862  27.481  24.385  1.00  0.00     0.055 A 
ATOM     23  C   UNL A   1      29.944  26.436  24.468  1.00  0.00     0.082 A 
ATOM     24  S   UNL A   1      32.293  27.027  25.230  1.00  0.00    -0.119 S 
ATOM     25  N   UNL A   1      30.385  25.306  25.132  1.00  0.00    -0.241 NA
ENDBRANCH  15  16
ENDBRANCH   9  15
ENDBRANCH   8   9
ENDBRANCH   6   8
ENDBRANCH   5   6
ENDBRANCH   4   5
ENDBRANCH   3   4
ENDBRANCH   2   3
ENDBRANCH   1   2
BRANCH   1  26
ATOM     26  C   UNL A   1      41.771  19.569  26.376  1.00  0.00     0.188 C 
BRANCH  26  27
ATOM     27  O   UNL A   1      42.257  20.640  27.172  1.00  0.00    -0.376 OA
BRANCH  27  28
ATOM     28  C   UNL A   1      43.406  21.362  26.719  1.00  0.00     0.202 C 
BRANCH  28  29
ATOM     29  C   UNL A   1      43.568  21.719  25.229  1.00  0.00     0.261 C 
BRANCH  29  30
ATOM     30  O   UNL A   1      43.022  22.995  24.845  1.00  0.00    -0.460 OA
BRANCH  30  31
ATOM     31  C   UNL A   1      43.821  24.076  25.008  1.00  0.00     0.338 C 
ATOM     32  O   UNL A   1      44.812  24.355  24.360  1.00  0.00    -0.246 OA
BRANCH  31  33
ATOM     33  C   UNL A   1      43.146  25.005  25.952  1.00  0.00     0.060 A 
ATOM     34  C   UNL A   1      43.629  26.317  26.045  1.00  0.00     0.016 A 
ATOM     35  C   UNL A   1      42.010  24.632  26.675  1.00  0.00     0.016 A 
ATOM     36  C   UNL A   1      43.019  27.245  26.890  1.00  0.00     0.010 A 
ATOM     37  C   UNL A   1      41.405  25.558  27.534  1.00  0.00     0.010 A 
ATOM     38  C   UNL A   1      41.928  26.857  27.674  1.00  0.00    -0.014 A 
BRANCH  38  39
ATOM     39  C   UNL A   1      41.481  27.724  28.795  1.00  0.00     0.031 A 
ATOM     40  C   UNL A   1      42.236  27.639  30.094  1.00  0.00     0.074 A 
ATOM     41  C   UNL A   1      40.460  28.592  28.673  1.00  0.00     0.049 A 
ATOM     42  N   UNL A   1      41.993  28.219  31.241  1.00  0.00    -0.248 NA
ATOM     43  C   UNL A   1      43.430  26.778  30.096  1.00  0.00     0.031 C 
ATOM     44  C   UNL A   1      39.686  28.831  27.458  1.00  0.00     0.029 A 
ATOM     45  N   UNL A   1      39.896  29.430  29.604  1.00  0.00    -0.354 N 
ATOM     46  C   UNL A   1      42.989  27.778  32.102  1.00  0.00     0.074 A 
ATOM     47  C   UNL A   1      43.826  26.865  31.355  1.00  0.00     0.031 C 
ATOM     48  C   UNL A   1      38.734  29.745  27.722  1.00  0.00     0.029 A 
ATOM     49  C   UNL A   1      38.806  30.123  29.133  1.00  0.00     0.049 A 
ATOM     50  H   UNL A   1      40.240  29.527  30.521  1.00  0.00     0.167 HD
ATOM     51  C   UNL A   1      43.194  28.105  33.400  1.00  0.00     0.037 A 
ATOM     52  C   UNL A   1      37.948  30.941  29.777  1.00  0.00     0.037 A 
ATOM     53  C   UNL A   1      42.370  29.017  34.147  1.00  0.00     0.049 A 
ATOM     54  C   UNL A   1      38.143  31.224  31.246  1.00  0.00     0.074 A 
ATOM     55  C   UNL A   1      42.506  29.417  35.465  1.00  0.00     0.029 A 
ATOM     56  N   UNL A   1      41.254  29.666  33.644  1.00  0.00    -0.354 N 
ATOM     57  N   UNL A   1      39.087  30.803  32.055  1.00  0.00    -0.248 NA
ATOM     58  C   UNL A   1      37.149  32.093  31.894  1.00  0.00     0.031 C 
ATOM     59  C   UNL A   1      41.440  30.266  35.775  1.00  0.00     0.029 A 
ATOM     60  C   UNL A   1      40.674  30.443  34.634  1.00  0.00     0.049 A 
ATOM     61  H   UNL A   1      40.921  29.587  32.721  1.00  0.00     0.167 HD
ATOM     62  C   UNL A   1      38.819  31.381  33.291  1.00  0.00     0.074 A 
ATOM     63  C   UNL A   1      37.630  32.190  33.126  1.00  0.00     0.031 C 
ATOM     64  C   UNL A   1      39.499  31.256  34.457  1.00  0.00     0.037 A 
BRANCH  51  65
ATOM     65  C   UNL A   1      44.336  27.434  34.106  1.00  0.00     0.057 A 
ATOM     66  C   UNL A   1      44.236  26.130  34.609  1.00  0.00     0.134 A 
ATOM     67  C   UNL A   1      45.557  28.099  34.266  1.00  0.00     0.134 A 
ATOM     68  F   UNL A   1      43.087  25.447  34.507  1.00  0.00    -0.206 F 
ATOM     69  C   UNL A   1      45.307  25.521  35.268  1.00  0.00     0.040 A 
ATOM     70  C   UNL A   1      46.642  27.490  34.896  1.00  0.00     0.040 A 
ATOM     71  F   UNL A   1      45.718  29.348  33.805  1.00  0.00    -0.206 F 
ATOM     72  C   UNL A   1      46.516  26.200  35.406  1.00  0.00     0.006 A 
ENDBRANCH  51  65
BRANCH  52  73
ATOM     73  C   UNL A   1      36.795  31.535  29.050  1.00  0.00     0.057 A 
ATOM     74  C   UNL A   1      36.795  32.879  28.655  1.00  0.00     0.134 A 
ATOM     75  C   UNL A   1      35.646  30.784  28.772  1.00  0.00     0.134 A 
ATOM     76  F   UNL A   1      37.852  33.659  28.921  1.00  0.00    -0.206 F 
ATOM     77  C   UNL A   1      35.692  33.457  28.026  1.00  0.00     0.040 A 
ATOM     78  C   UNL A   1      34.546  31.341  28.119  1.00  0.00     0.040 A 
ATOM     79  F   UNL A   1      35.578  29.494  29.131  1.00  0.00    -0.206 F 
ATOM     80  C   UNL A   1      34.564  32.686  27.751  1.00  0.00     0.006 A 
ENDBRANCH  52  73
BRANCH  64  81
ATOM     81  C   UNL A   1      39.008  32.043  35.639  1.00  0.00     0.057 A 
ATOM     82  C   UNL A   1      38.217  31.469  36.641  1.00  0.00     0.134 A 
ATOM     83  C   UNL A   1      39.381  33.385  35.803  1.00  0.00     0.134 A 
ATOM     84  F   UNL A   1      37.816  30.192  36.543  1.00  0.00    -0.206 F 
ATOM     85  C   UNL A   1      37.796  32.205  37.751  1.00  0.00     0.040 A 
ATOM     86  C   UNL A   1      38.991  34.123  36.921  1.00  0.00     0.040 A 
ATOM     87  F   UNL A   1      40.149  33.995  34.887  1.00  0.00    -0.206 F 
ATOM     88  C   UNL A   1      38.189  33.534  37.897  1.00  0.00     0.006 A 
ENDBRANCH  64  81
ENDBRANCH  38  39
ENDBRANCH  31  33
ENDBRANCH  30  31
ENDBRANCH  29  30
ENDBRANCH  28  29
ENDBRANCH  27  28
ENDBRANCH  26  27
ENDBRANCH   1  26
TORSDOF 20
ENDMDL
MODEL 3
REMARK VINA RESULT:     -10.5      1.728      3.921
REMARK SMILES Cc1ccc2nc(CC3(CC(=O)OCCOCCOCCOC(=O)c4ccc(-c5c6nc(c(-c7c(F)cccc7F)c7ccc([nH]7)c(-c7c(F)cccc7F)c7nc(c(-c8c(F)cccc8F)c8ccc5[nH]8)C=C7)C=C6)cc4)CCCCC3)sc2c1
REMARK SMILES IDX 17 1 16 2 15 3 14 4 13 5 11 6 12 7 10 8 9 9 79 10 83 11
REMARK SMILES IDX 80 12 82 13 81 14 8 15 7 16 1 17 2 18 3 19 86 20 4 21 85 22
REMARK SMILES IDX 5 23 84 24 6 25 18 26 19 27 20 28 21 29 22 30 23 31 24 32
REMARK SMILES IDX 25 33 26 34 78 35 27 36 77 37 28 38 29 39 30 40 71 41 31 42
REMARK SMILES IDX 76 43 70 44 72 45 32 46 75 47 69 48 68 49 33 51 59 52 42 53
REMARK SMILES IDX 58 54 43 55 46 56 57 57 73 58 44 59 45 60 56 62 74 63 47 64
REMARK SMILES IDX 34 65 35 66 40 67 36 68 37 69 39 70 41 71 38 72 60 73 61 74
REMARK SMILES IDX 66 75 62 76 63 77 65 78 67 79 64 80 48 81 49 82 54 83 50 84
REMARK SMILES IDX 51 85 53 86 55 87 52 88
REMARK H PARENT 72 50 46 61
REMARK Flexibility Score: inf
ROOT
ATOM      1  C   UNL A   1      39.967  21.748  26.208  1.00  0.00     0.188 C 
ENDROOT
BRANCH   1   2
ATOM      2  O   UNL A   1      38.576  22.042  26.270  1.00  0.00    -0.376 OA
BRANCH   2   3
ATOM      3  C   UNL A   1      37.748  21.346  25.341  1.00  0.00     0.202 C 
BRANCH   3   4
ATOM      4  C   UNL A   1      36.236  21.561  25.491  1.00  0.00     0.261 C 
BRANCH   4   5
ATOM      5  O   UNL A   1      35.517  21.647  24.243  1.00  0.00    -0.463 OA
BRANCH   5   6
ATOM      6  C   UNL A   1      35.498  22.868  23.658  1.00  0.00     0.306 C 
ATOM      7  O   UNL A   1      36.451  23.643  23.641  1.00  0.00    -0.252 OA
BRANCH   6   8
ATOM      8  C   UNL A   1      34.225  23.200  22.895  1.00  0.00     0.130 C 
BRANCH   8   9
ATOM      9  C   UNL A   1      32.958  23.838  23.561  1.00  0.00    -0.013 C 
ATOM     10  C   UNL A   1      32.579  25.111  22.734  1.00  0.00     0.008 C 
ATOM     11  C   UNL A   1      33.200  24.279  25.025  1.00  0.00     0.008 C 
ATOM     12  C   UNL A   1      33.554  26.282  22.896  1.00  0.00     0.001 C 
ATOM     13  C   UNL A   1      34.251  25.375  25.152  1.00  0.00     0.001 C 
ATOM     14  C   UNL A   1      33.833  26.608  24.358  1.00  0.00     0.000 C 
BRANCH   9  15
ATOM     15  C   UNL A   1      31.789  22.809  23.444  1.00  0.00     0.075 C 
BRANCH  15  16
ATOM     16  C   UNL A   1      32.139  21.371  23.740  1.00  0.00     0.094 A 
ATOM     17  C   UNL A   1      33.402  15.578  25.544  1.00  0.00     0.044 C 
ATOM     18  C   UNL A   1      33.106  16.847  24.795  1.00  0.00    -0.050 A 
ATOM     19  C   UNL A   1      33.038  16.844  23.401  1.00  0.00     0.006 A 
ATOM     20  C   UNL A   1      32.886  18.039  25.507  1.00  0.00     0.024 A 
ATOM     21  C   UNL A   1      32.748  18.017  22.697  1.00  0.00     0.030 A 
ATOM     22  C   UNL A   1      32.624  19.218  24.784  1.00  0.00     0.055 A 
ATOM     23  C   UNL A   1      32.535  19.220  23.394  1.00  0.00     0.082 A 
ATOM     24  S   UNL A   1      32.385  20.826  25.355  1.00  0.00    -0.119 S 
ATOM     25  N   UNL A   1      32.237  20.441  22.817  1.00  0.00    -0.241 NA
ENDBRANCH  15  16
ENDBRANCH   9  15
ENDBRANCH   8   9
ENDBRANCH   6   8
ENDBRANCH   5   6
ENDBRANCH   4   5
ENDBRANCH   3   4
ENDBRANCH   2   3
ENDBRANCH   1   2
BRANCH   1  26
ATOM     26  C   UNL A   1      40.661  21.480  27.546  1.00  0.00     0.188 C 
BRANCH  26  27
ATOM     27  O   UNL A   1      42.039  21.163  27.414  1.00  0.00    -0.376 OA
BRANCH  27  28
ATOM     28  C   UNL A   1      42.567  20.939  26.103  1.00  0.00     0.202 C 
BRANCH  28  29
ATOM     29  C   UNL A   1      43.536  21.954  25.467  1.00  0.00     0.261 C 
BRANCH  29  30
ATOM     30  O   UNL A   1      42.988  23.267  25.250  1.00  0.00    -0.460 OA
BRANCH  30  31
ATOM     31  C   UNL A   1      43.858  24.304  25.272  1.00  0.00     0.338 C 
ATOM     32  O   UNL A   1      44.636  24.623  24.392  1.00  0.00    -0.246 OA
BRANCH  31  33
ATOM     33  C   UNL A   1      43.535  25.148  26.452  1.00  0.00     0.060 A 
ATOM     34  C   UNL A   1      42.588  24.668  27.367  1.00  0.00     0.016 A 
ATOM     35  C   UNL A   1      44.203  26.347  26.711  1.00  0.00     0.016 A 
ATOM     36  C   UNL A   1      42.266  25.399  28.511  1.00  0.00     0.010 A 
ATOM     37  C   UNL A   1      43.870  27.090  27.851  1.00  0.00     0.010 A 
ATOM     38  C   UNL A   1      42.874  26.639  28.737  1.00  0.00    -0.014 A 
BRANCH  38  39
ATOM     39  C   UNL A   1      42.314  27.558  29.761  1.00  0.00     0.031 A 
ATOM     40  C   UNL A   1      42.979  27.596  31.111  1.00  0.00     0.074 A 
ATOM     41  C   UNL A   1      41.269  28.367  29.510  1.00  0.00     0.049 A 
ATOM     42  N   UNL A   1      42.632  28.241  32.195  1.00  0.00    -0.248 NA
ATOM     43  C   UNL A   1      44.205  26.794  31.253  1.00  0.00     0.031 C 
ATOM     44  C   UNL A   1      40.574  28.487  28.231  1.00  0.00     0.029 A 
ATOM     45  N   UNL A   1      40.607  29.240  30.339  1.00  0.00    -0.354 N 
ATOM     46  C   UNL A   1      43.583  27.906  33.150  1.00  0.00     0.074 A 
ATOM     47  C   UNL A   1      44.507  26.985  32.528  1.00  0.00     0.031 C 
ATOM     48  C   UNL A   1      39.568  29.372  28.365  1.00  0.00     0.029 A 
ATOM     49  C   UNL A   1      39.525  29.848  29.748  1.00  0.00     0.049 A 
ATOM     50  H   UNL A   1      40.881  29.414  31.268  1.00  0.00     0.167 HD
ATOM     51  C   UNL A   1      43.682  28.330  34.433  1.00  0.00     0.037 A 
ATOM     52  C   UNL A   1      38.591  30.667  30.273  1.00  0.00     0.037 A 
ATOM     53  C   UNL A   1      42.771  29.251  35.055  1.00  0.00     0.049 A 
ATOM     54  C   UNL A   1      38.670  31.057  31.728  1.00  0.00     0.074 A 
ATOM     55  C   UNL A   1      42.798  29.746  36.348  1.00  0.00     0.029 A 
ATOM     56  N   UNL A   1      41.667  29.812  34.434  1.00  0.00    -0.354 N 
ATOM     57  N   UNL A   1      39.571  30.737  32.626  1.00  0.00    -0.248 NA
ATOM     58  C   UNL A   1      37.598  31.922  32.244  1.00  0.00     0.031 C 
ATOM     59  C   UNL A   1      41.678  30.564  36.525  1.00  0.00     0.029 A 
ATOM     60  C   UNL A   1      40.987  30.627  35.325  1.00  0.00     0.049 A 
ATOM     61  H   UNL A   1      41.403  29.655  33.499  1.00  0.00     0.167 HD
ATOM     62  C   UNL A   1      39.193  31.385  33.797  1.00  0.00     0.074 A 
ATOM     63  C   UNL A   1      37.986  32.125  33.496  1.00  0.00     0.031 C 
ATOM     64  C   UNL A   1      39.794  31.370  35.013  1.00  0.00     0.037 A 
BRANCH  51  65
ATOM     65  C   UNL A   1      44.799  27.762  35.259  1.00  0.00     0.057 A 
ATOM     66  C   UNL A   1      46.049  28.387  35.350  1.00  0.00     0.134 A 
ATOM     67  C   UNL A   1      44.610  26.582  35.988  1.00  0.00     0.134 A 
ATOM     68  F   UNL A   1      46.302  29.509  34.661  1.00  0.00    -0.206 F 
ATOM     69  C   UNL A   1      47.080  27.843  36.119  1.00  0.00     0.040 A 
ATOM     70  C   UNL A   1      45.623  26.044  36.782  1.00  0.00     0.040 A 
ATOM     71  F   UNL A   1      43.435  25.935  35.945  1.00  0.00    -0.206 F 
ATOM     72  C   UNL A   1      46.865  26.671  36.843  1.00  0.00     0.006 A 
ENDBRANCH  51  65
BRANCH  52  73
ATOM     73  C   UNL A   1      37.468  31.156  29.430  1.00  0.00     0.057 A 
ATOM     74  C   UNL A   1      36.391  30.325  29.095  1.00  0.00     0.134 A 
ATOM     75  C   UNL A   1      37.465  32.455  28.905  1.00  0.00     0.134 A 
ATOM     76  F   UNL A   1      36.351  29.061  29.540  1.00  0.00    -0.206 F 
ATOM     77  C   UNL A   1      35.365  30.760  28.256  1.00  0.00     0.040 A 
ATOM     78  C   UNL A   1      36.431  32.912  28.087  1.00  0.00     0.040 A 
ATOM     79  F   UNL A   1      38.470  33.298  29.181  1.00  0.00    -0.206 F 
ATOM     80  C   UNL A   1      35.379  32.060  27.753  1.00  0.00     0.006 A 
ENDBRANCH  52  73
BRANCH  64  81
ATOM     81  C   UNL A   1      39.190  32.213  36.101  1.00  0.00     0.057 A 
ATOM     82  C   UNL A   1      39.537  33.556  36.283  1.00  0.00     0.134 A 
ATOM     83  C   UNL A   1      38.203  31.682  36.944  1.00  0.00     0.134 A 
ATOM     84  F   UNL A   1      40.480  34.125  35.517  1.00  0.00    -0.206 F 
ATOM     85  C   UNL A   1      38.943  34.335  37.278  1.00  0.00     0.040 A 
ATOM     86  C   UNL A   1      37.581  32.457  37.923  1.00  0.00     0.040 A 
ATOM     87  F   UNL A   1      37.813  30.404  36.816  1.00  0.00    -0.206 F 
ATOM     88  C   UNL A   1      37.956  33.788  38.097  1.00  0.00     0.006 A 
ENDBRANCH  64  81
ENDBRANCH  38  39
ENDBRANCH  31  33
ENDBRANCH  30  31
ENDBRANCH  29  30
ENDBRANCH  28  29
ENDBRANCH  27  28
ENDBRANCH  26  27
ENDBRANCH   1  26
TORSDOF 20
ENDMDL
