MODEL 1
REMARK VINA RESULT:     -11.5      0.000      0.000
REMARK SMILES O=C(OCCOCCOCCOC(=O)[C@@H]1[C@H](C(=O)Nc2ccccc2Cc2ccccc2)[C@H]2C=C[C@@H]1O2)c1ccc(-c2c3nc(c(-c4c(F)cccc4F)c4ccc([nH]4)c(-c4c(F)cccc4F)c4nc(c(-c5c(F)cccc5F)c5ccc2[nH]5)C=C4)C=C3)cc1
REMARK SMILES IDX 8 1 7 2 6 3 5 4 4 5 3 6 2 7 1 8 38 9 39 10 91 11 40 12 90 13
REMARK SMILES IDX 41 14 42 15 43 16 84 17 44 18 89 19 83 20 85 21 45 22 88 23
REMARK SMILES IDX 82 24 81 25 46 27 72 28 55 29 71 30 56 31 59 32 70 33 86 34
REMARK SMILES IDX 57 35 58 36 69 38 87 39 60 40 47 41 48 42 53 43 49 44 50 45
REMARK SMILES IDX 52 46 54 47 51 48 73 49 74 50 79 51 75 52 76 53 78 54 80 55
REMARK SMILES IDX 77 56 61 57 62 58 67 59 63 60 64 61 66 62 68 63 65 64 9 65
REMARK SMILES IDX 10 66 11 67 12 68 13 69 14 70 15 71 16 72 36 73 33 74 35 75
REMARK SMILES IDX 37 76 34 77 17 78 18 79 19 80 20 82 21 83 25 84 22 85 24 86
REMARK SMILES IDX 23 87 26 88 27 89 28 90 32 91 29 92 31 93 30 94
REMARK H PARENT 85 26 59 37 19 81
REMARK Flexibility Score: inf
ROOT
ATOM      1  C   UNL A   1      37.663  21.177  25.298  1.00  0.00     0.188 C 
ENDROOT
BRANCH   1   2
ATOM      2  C   UNL A   1      38.943  20.298  25.394  1.00  0.00     0.188 C 
BRANCH   2   3
ATOM      3  O   UNL A   1      39.816  20.761  26.415  1.00  0.00    -0.376 OA
BRANCH   3   4
ATOM      4  C   UNL A   1      41.078  20.104  26.569  1.00  0.00     0.202 C 
BRANCH   4   5
ATOM      5  C   UNL A   1      42.390  20.778  26.015  1.00  0.00     0.261 C 
BRANCH   5   6
ATOM      6  O   UNL A   1      42.219  22.074  25.388  1.00  0.00    -0.460 OA
BRANCH   6   7
ATOM      7  C   UNL A   1      42.873  23.172  25.872  1.00  0.00     0.338 C 
ATOM      8  O   UNL A   1      44.071  23.392  25.777  1.00  0.00    -0.246 OA
BRANCH   7   9
ATOM      9  C   UNL A   1      41.846  24.171  26.316  1.00  0.00     0.060 A 
ATOM     10  C   UNL A   1      41.818  25.445  25.784  1.00  0.00     0.016 A 
ATOM     11  C   UNL A   1      40.996  23.938  27.381  1.00  0.00     0.016 A 
ATOM     12  C   UNL A   1      41.333  26.539  26.521  1.00  0.00     0.010 A 
ATOM     13  C   UNL A   1      40.421  25.037  28.066  1.00  0.00     0.010 A 
ATOM     14  C   UNL A   1      40.783  26.378  27.786  1.00  0.00    -0.014 A 
BRANCH  14  15
ATOM     15  C   UNL A   1      40.596  27.495  28.824  1.00  0.00     0.031 A 
ATOM     16  C   UNL A   1      41.556  27.574  29.988  1.00  0.00     0.074 A 
ATOM     17  C   UNL A   1      39.869  28.639  28.750  1.00  0.00     0.049 A 
ATOM     18  N   UNL A   1      41.406  28.108  31.171  1.00  0.00    -0.248 NA
ATOM     19  C   UNL A   1      42.899  27.024  29.748  1.00  0.00     0.031 C 
ATOM     20  C   UNL A   1      39.376  29.263  27.546  1.00  0.00     0.029 A 
ATOM     21  N   UNL A   1      39.418  29.517  29.726  1.00  0.00    -0.354 N 
ATOM     22  C   UNL A   1      42.595  27.870  31.842  1.00  0.00     0.074 A 
ATOM     23  C   UNL A   1      43.447  27.118  30.947  1.00  0.00     0.031 C 
ATOM     24  C   UNL A   1      38.546  30.275  27.830  1.00  0.00     0.029 A 
ATOM     25  C   UNL A   1      38.453  30.394  29.262  1.00  0.00     0.049 A 
ATOM     26  H   UNL A   1      39.750  29.517  30.653  1.00  0.00     0.167 HD
ATOM     27  C   UNL A   1      42.949  28.261  33.088  1.00  0.00     0.037 A 
ATOM     28  C   UNL A   1      37.562  31.196  29.876  1.00  0.00     0.037 A 
ATOM     29  C   UNL A   1      42.153  29.133  33.911  1.00  0.00     0.049 A 
ATOM     30  C   UNL A   1      37.748  31.413  31.338  1.00  0.00     0.074 A 
ATOM     31  C   UNL A   1      42.359  29.505  35.226  1.00  0.00     0.029 A 
ATOM     32  N   UNL A   1      41.019  29.810  33.476  1.00  0.00    -0.354 N 
ATOM     33  N   UNL A   1      38.710  30.944  32.090  1.00  0.00    -0.248 NA
ATOM     34  C   UNL A   1      36.806  32.299  32.027  1.00  0.00     0.031 C 
ATOM     35  C   UNL A   1      41.314  30.355  35.608  1.00  0.00     0.029 A 
ATOM     36  C   UNL A   1      40.490  30.562  34.514  1.00  0.00     0.049 A 
ATOM     37  H   UNL A   1      40.647  29.763  32.567  1.00  0.00     0.167 HD
ATOM     38  C   UNL A   1      38.538  31.531  33.326  1.00  0.00     0.074 A 
ATOM     39  C   UNL A   1      37.363  32.377  33.228  1.00  0.00     0.031 C 
ATOM     40  C   UNL A   1      39.315  31.395  34.424  1.00  0.00     0.037 A 
BRANCH  27  41
ATOM     41  C   UNL A   1      44.181  27.619  33.655  1.00  0.00     0.057 A 
ATOM     42  C   UNL A   1      45.467  28.160  33.528  1.00  0.00     0.134 A 
ATOM     43  C   UNL A   1      44.068  26.361  34.262  1.00  0.00     0.134 A 
ATOM     44  F   UNL A   1      45.652  29.340  32.916  1.00  0.00    -0.206 F 
ATOM     45  C   UNL A   1      46.597  27.450  33.940  1.00  0.00     0.040 A 
ATOM     46  C   UNL A   1      45.185  25.659  34.709  1.00  0.00     0.040 A 
ATOM     47  F   UNL A   1      42.866  25.781  34.406  1.00  0.00    -0.206 F 
ATOM     48  C   UNL A   1      46.457  26.196  34.533  1.00  0.00     0.006 A 
ENDBRANCH  27  41
BRANCH  28  49
ATOM     49  C   UNL A   1      36.424  31.814  29.127  1.00  0.00     0.057 A 
ATOM     50  C   UNL A   1      36.377  33.175  28.803  1.00  0.00     0.134 A 
ATOM     51  C   UNL A   1      35.312  31.039  28.756  1.00  0.00     0.134 A 
ATOM     52  F   UNL A   1      37.394  33.982  29.137  1.00  0.00    -0.206 F 
ATOM     53  C   UNL A   1      35.267  33.744  28.168  1.00  0.00     0.040 A 
ATOM     54  C   UNL A   1      34.202  31.591  28.109  1.00  0.00     0.040 A 
ATOM     55  F   UNL A   1      35.283  29.724  29.025  1.00  0.00    -0.206 F 
ATOM     56  C   UNL A   1      34.174  32.951  27.821  1.00  0.00     0.006 A 
ENDBRANCH  28  49
BRANCH  40  57
ATOM     57  C   UNL A   1      38.931  32.211  35.616  1.00  0.00     0.057 A 
ATOM     58  C   UNL A   1      38.197  31.667  36.675  1.00  0.00     0.134 A 
ATOM     59  C   UNL A   1      39.314  33.554  35.704  1.00  0.00     0.134 A 
ATOM     60  F   UNL A   1      37.782  30.392  36.633  1.00  0.00    -0.206 F 
ATOM     61  C   UNL A   1      37.837  32.440  37.779  1.00  0.00     0.040 A 
ATOM     62  C   UNL A   1      38.987  34.328  36.816  1.00  0.00     0.040 A 
ATOM     63  F   UNL A   1      40.015  34.132  34.717  1.00  0.00    -0.206 F 
ATOM     64  C   UNL A   1      38.242  33.772  37.854  1.00  0.00     0.006 A 
ENDBRANCH  40  57
ENDBRANCH  14  15
ENDBRANCH   7   9
ENDBRANCH   6   7
ENDBRANCH   5   6
ENDBRANCH   4   5
ENDBRANCH   3   4
ENDBRANCH   2   3
ENDBRANCH   1   2
BRANCH   1  65
ATOM     65  O   UNL A   1      37.375  22.202  24.318  1.00  0.00    -0.376 OA
BRANCH  65  66
ATOM     66  C   UNL A   1      36.755  23.454  24.718  1.00  0.00     0.202 C 
BRANCH  66  67
ATOM     67  C   UNL A   1      35.661  23.603  25.962  1.00  0.00     0.261 C 
BRANCH  67  68
ATOM     68  O   UNL A   1      34.179  23.855  25.677  1.00  0.00    -0.463 OA
BRANCH  68  69
ATOM     69  C   UNL A   1      33.135  24.229  26.500  1.00  0.00     0.312 C 
ATOM     70  O   UNL A   1      32.426  23.384  27.042  1.00  0.00    -0.252 OA
BRANCH  69  71
ATOM     71  C   UNL A   1      32.810  25.824  26.703  1.00  0.00     0.147 C 
ATOM     72  C   UNL A   1      31.360  26.210  26.396  1.00  0.00     0.129 C 
ATOM     73  C   UNL A   1      33.518  27.091  26.076  1.00  0.00     0.157 C 
ATOM     74  C   UNL A   1      31.436  27.535  25.634  1.00  0.00     0.155 C 
ATOM     75  C   UNL A   1      33.193  28.393  26.770  1.00  0.00     0.004 C 
ATOM     76  O   UNL A   1      32.659  27.365  24.910  1.00  0.00    -0.365 OA
ATOM     77  C   UNL A   1      31.906  28.657  26.503  1.00  0.00     0.004 C 
BRANCH  72  78
ATOM     78  C   UNL A   1      30.596  25.090  25.783  1.00  0.00     0.231 C 
ATOM     79  O   UNL A   1      29.667  24.617  26.463  1.00  0.00    -0.274 OA
ATOM     80  N   UNL A   1      30.733  24.508  24.587  1.00  0.00    -0.325 N 
ATOM     81  H   UNL A   1      30.040  23.810  24.522  1.00  0.00     0.169 HD
BRANCH  80  82
ATOM     82  C   UNL A   1      31.467  24.483  23.376  1.00  0.00     0.044 A 
ATOM     83  C   UNL A   1      31.029  25.655  22.656  1.00  0.00     0.026 A 
ATOM     84  C   UNL A   1      32.463  23.615  22.799  1.00  0.00    -0.020 A 
ATOM     85  C   UNL A   1      31.651  26.132  21.528  1.00  0.00     0.002 A 
ATOM     86  C   UNL A   1      32.990  24.122  21.607  1.00  0.00     0.006 A 
ATOM     87  C   UNL A   1      32.663  25.368  21.028  1.00  0.00     0.000 A 
BRANCH  84  88
ATOM     88  C   UNL A   1      33.214  22.308  23.301  1.00  0.00     0.073 C 
BRANCH  88  89
ATOM     89  C   UNL A   1      32.922  20.833  23.819  1.00  0.00    -0.044 A 
ATOM     90  C   UNL A   1      33.239  20.257  25.072  1.00  0.00     0.004 A 
ATOM     91  C   UNL A   1      32.409  19.884  22.909  1.00  0.00     0.004 A 
ATOM     92  C   UNL A   1      32.939  18.945  25.470  1.00  0.00     0.000 A 
ATOM     93  C   UNL A   1      32.126  18.546  23.282  1.00  0.00     0.000 A 
ATOM     94  C   UNL A   1      32.357  18.085  24.574  1.00  0.00     0.000 A 
ENDBRANCH  88  89
ENDBRANCH  84  88
ENDBRANCH  80  82
ENDBRANCH  72  78
ENDBRANCH  69  71
ENDBRANCH  68  69
ENDBRANCH  67  68
ENDBRANCH  66  67
ENDBRANCH  65  66
ENDBRANCH   1  65
TORSDOF 21
ENDMDL
MODEL 2
REMARK VINA RESULT:     -11.4      3.234      8.508
REMARK SMILES O=C(OCCOCCOCCOC(=O)[C@@H]1[C@H](C(=O)Nc2ccccc2Cc2ccccc2)[C@H]2C=C[C@@H]1O2)c1ccc(-c2c3nc(c(-c4c(F)cccc4F)c4ccc([nH]4)c(-c4c(F)cccc4F)c4nc(c(-c5c(F)cccc5F)c5ccc2[nH]5)C=C4)C=C3)cc1
REMARK SMILES IDX 8 1 7 2 6 3 5 4 4 5 3 6 2 7 1 8 38 9 39 10 91 11 40 12 90 13
REMARK SMILES IDX 41 14 42 15 43 16 84 17 44 18 89 19 83 20 85 21 45 22 88 23
REMARK SMILES IDX 82 24 81 25 46 27 72 28 55 29 71 30 56 31 59 32 70 33 86 34
REMARK SMILES IDX 57 35 58 36 69 38 87 39 60 40 47 41 48 42 53 43 49 44 50 45
REMARK SMILES IDX 52 46 54 47 51 48 73 49 74 50 79 51 75 52 76 53 78 54 80 55
REMARK SMILES IDX 77 56 61 57 62 58 67 59 63 60 64 61 66 62 68 63 65 64 9 65
REMARK SMILES IDX 10 66 11 67 12 68 13 69 14 70 15 71 16 72 36 73 33 74 35 75
REMARK SMILES IDX 37 76 34 77 17 78 18 79 19 80 20 82 21 83 25 84 22 85 24 86
REMARK SMILES IDX 23 87 26 88 27 89 28 90 32 91 29 92 31 93 30 94
REMARK H PARENT 85 26 59 37 19 81
REMARK Flexibility Score: inf
ROOT
ATOM      1  C   UNL A   1      33.392  31.120  27.397  1.00  0.00     0.188 C 
ENDROOT
BRANCH   1   2
ATOM      2  C   UNL A   1      34.535  31.847  28.161  1.00  0.00     0.188 C 
BRANCH   2   3
ATOM      3  O   UNL A   1      34.868  33.083  27.543  1.00  0.00    -0.376 OA
BRANCH   3   4
ATOM      4  C   UNL A   1      34.252  34.273  28.046  1.00  0.00     0.202 C 
BRANCH   4   5
ATOM      5  C   UNL A   1      34.254  34.566  29.594  1.00  0.00     0.261 C 
BRANCH   5   6
ATOM      6  O   UNL A   1      32.963  34.863  30.183  1.00  0.00    -0.460 OA
BRANCH   6   7
ATOM      7  C   UNL A   1      32.854  35.771  31.198  1.00  0.00     0.338 C 
ATOM      8  O   UNL A   1      32.108  36.739  31.218  1.00  0.00    -0.246 OA
BRANCH   7   9
ATOM      9  C   UNL A   1      33.617  35.247  32.379  1.00  0.00     0.060 A 
ATOM     10  C   UNL A   1      34.727  35.912  32.859  1.00  0.00     0.016 A 
ATOM     11  C   UNL A   1      33.362  34.007  32.935  1.00  0.00     0.016 A 
ATOM     12  C   UNL A   1      35.769  35.228  33.508  1.00  0.00     0.010 A 
ATOM     13  C   UNL A   1      34.377  33.357  33.679  1.00  0.00     0.010 A 
ATOM     14  C   UNL A   1      35.696  33.866  33.769  1.00  0.00    -0.014 A 
BRANCH  14  15
ATOM     15  C   UNL A   1      36.890  32.956  34.092  1.00  0.00     0.031 A 
ATOM     16  C   UNL A   1      37.559  33.085  35.440  1.00  0.00     0.074 A 
ATOM     17  C   UNL A   1      37.310  31.820  33.478  1.00  0.00     0.049 A 
ATOM     18  N   UNL A   1      38.771  32.774  35.814  1.00  0.00    -0.248 NA
ATOM     19  C   UNL A   1      36.706  33.576  36.534  1.00  0.00     0.031 C 
ATOM     20  C   UNL A   1      36.532  30.992  32.588  1.00  0.00     0.029 A 
ATOM     21  N   UNL A   1      38.516  31.135  33.517  1.00  0.00    -0.354 N 
ATOM     22  C   UNL A   1      38.852  33.124  37.153  1.00  0.00     0.074 A 
ATOM     23  C   UNL A   1      37.576  33.698  37.520  1.00  0.00     0.031 C 
ATOM     24  C   UNL A   1      37.294  30.051  32.014  1.00  0.00     0.029 A 
ATOM     25  C   UNL A   1      38.638  30.193  32.510  1.00  0.00     0.049 A 
ATOM     26  H   UNL A   1      39.214  31.302  34.192  1.00  0.00     0.167 HD
ATOM     27  C   UNL A   1      39.892  32.963  38.002  1.00  0.00     0.037 A 
ATOM     28  C   UNL A   1      39.686  29.519  31.997  1.00  0.00     0.037 A 
ATOM     29  C   UNL A   1      41.100  32.258  37.665  1.00  0.00     0.049 A 
ATOM     30  C   UNL A   1      40.959  29.570  32.768  1.00  0.00     0.074 A 
ATOM     31  C   UNL A   1      42.261  32.129  38.405  1.00  0.00     0.029 A 
ATOM     32  N   UNL A   1      41.283  31.518  36.502  1.00  0.00    -0.354 N 
ATOM     33  N   UNL A   1      41.166  30.163  33.916  1.00  0.00    -0.248 NA
ATOM     34  C   UNL A   1      42.109  28.827  32.245  1.00  0.00     0.031 C 
ATOM     35  C   UNL A   1      43.170  31.366  37.662  1.00  0.00     0.029 A 
ATOM     36  C   UNL A   1      42.556  30.969  36.486  1.00  0.00     0.049 A 
ATOM     37  H   UNL A   1      40.610  31.402  35.794  1.00  0.00     0.167 HD
ATOM     38  C   UNL A   1      42.444  29.809  34.294  1.00  0.00     0.074 A 
ATOM     39  C   UNL A   1      42.975  28.965  33.241  1.00  0.00     0.031 C 
ATOM     40  C   UNL A   1      43.092  30.138  35.435  1.00  0.00     0.037 A 
BRANCH  27  41
ATOM     41  C   UNL A   1      39.793  33.691  39.310  1.00  0.00     0.057 A 
ATOM     42  C   UNL A   1      39.165  33.166  40.446  1.00  0.00     0.134 A 
ATOM     43  C   UNL A   1      40.265  35.009  39.386  1.00  0.00     0.134 A 
ATOM     44  F   UNL A   1      38.650  31.926  40.428  1.00  0.00    -0.206 F 
ATOM     45  C   UNL A   1      38.966  33.941  41.591  1.00  0.00     0.040 A 
ATOM     46  C   UNL A   1      40.105  35.781  40.535  1.00  0.00     0.040 A 
ATOM     47  F   UNL A   1      40.868  35.577  38.330  1.00  0.00    -0.206 F 
ATOM     48  C   UNL A   1      39.438  35.253  41.637  1.00  0.00     0.006 A 
ENDBRANCH  27  41
BRANCH  28  49
ATOM     49  C   UNL A   1      39.578  28.781  30.701  1.00  0.00     0.057 A 
ATOM     50  C   UNL A   1      39.950  29.342  29.474  1.00  0.00     0.134 A 
ATOM     51  C   UNL A   1      39.041  27.483  30.664  1.00  0.00     0.134 A 
ATOM     52  F   UNL A   1      40.457  30.583  29.426  1.00  0.00    -0.206 F 
ATOM     53  C   UNL A   1      39.769  28.659  28.265  1.00  0.00     0.040 A 
ATOM     54  C   UNL A   1      38.868  26.783  29.466  1.00  0.00     0.040 A 
ATOM     55  F   UNL A   1      38.667  26.872  31.799  1.00  0.00    -0.206 F 
ATOM     56  C   UNL A   1      39.225  27.376  28.259  1.00  0.00     0.006 A 
ENDBRANCH  28  49
BRANCH  40  57
ATOM     57  C   UNL A   1      44.455  29.553  35.617  1.00  0.00     0.057 A 
ATOM     58  C   UNL A   1      45.604  30.202  35.153  1.00  0.00     0.134 A 
ATOM     59  C   UNL A   1      44.615  28.330  36.278  1.00  0.00     0.134 A 
ATOM     60  F   UNL A   1      45.509  31.365  34.491  1.00  0.00    -0.206 F 
ATOM     61  C   UNL A   1      46.870  29.642  35.322  1.00  0.00     0.040 A 
ATOM     62  C   UNL A   1      45.877  27.775  36.481  1.00  0.00     0.040 A 
ATOM     63  F   UNL A   1      43.549  27.658  36.741  1.00  0.00    -0.206 F 
ATOM     64  C   UNL A   1      47.008  28.430  35.996  1.00  0.00     0.006 A 
ENDBRANCH  40  57
ENDBRANCH  14  15
ENDBRANCH   7   9
ENDBRANCH   6   7
ENDBRANCH   5   6
ENDBRANCH   4   5
ENDBRANCH   3   4
ENDBRANCH   2   3
ENDBRANCH   1   2
BRANCH   1  65
ATOM     65  O   UNL A   1      32.980  29.740  27.543  1.00  0.00    -0.376 OA
BRANCH  65  66
ATOM     66  C   UNL A   1      33.910  28.658  27.270  1.00  0.00     0.202 C 
BRANCH  66  67
ATOM     67  C   UNL A   1      33.716  27.538  26.056  1.00  0.00     0.261 C 
BRANCH  67  68
ATOM     68  O   UNL A   1      34.156  27.850  24.624  1.00  0.00    -0.463 OA
BRANCH  68  69
ATOM     69  C   UNL A   1      33.444  28.236  23.506  1.00  0.00     0.312 C 
ATOM     70  O   UNL A   1      34.018  28.499  22.452  1.00  0.00    -0.252 OA
BRANCH  69  71
ATOM     71  C   UNL A   1      31.814  28.398  23.615  1.00  0.00     0.147 C 
ATOM     72  C   UNL A   1      31.039  27.107  23.340  1.00  0.00     0.129 C 
ATOM     73  C   UNL A   1      30.844  29.404  22.877  1.00  0.00     0.157 C 
ATOM     74  C   UNL A   1      29.836  27.517  22.488  1.00  0.00     0.155 C 
ATOM     75  C   UNL A   1      29.469  29.510  23.493  1.00  0.00     0.004 C 
ATOM     76  O   UNL A   1      30.393  28.596  21.730  1.00  0.00    -0.365 OA
ATOM     77  C   UNL A   1      28.856  28.341  23.260  1.00  0.00     0.004 C 
BRANCH  72  78
ATOM     78  C   UNL A   1      31.918  26.018  22.834  1.00  0.00     0.231 C 
ATOM     79  O   UNL A   1      32.115  25.992  21.605  1.00  0.00    -0.274 OA
ATOM     80  N   UNL A   1      32.562  25.052  23.498  1.00  0.00    -0.325 N 
ATOM     81  H   UNL A   1      33.059  24.522  22.832  1.00  0.00     0.169 HD
BRANCH  80  82
ATOM     82  C   UNL A   1      32.820  24.477  24.767  1.00  0.00     0.044 A 
ATOM     83  C   UNL A   1      31.514  24.227  25.331  1.00  0.00     0.026 A 
ATOM     84  C   UNL A   1      34.004  24.124  25.511  1.00  0.00    -0.020 A 
ATOM     85  C   UNL A   1      31.305  23.473  26.459  1.00  0.00     0.002 A 
ATOM     86  C   UNL A   1      33.709  23.435  26.691  1.00  0.00     0.006 A 
ATOM     87  C   UNL A   1      32.419  23.049  27.118  1.00  0.00     0.000 A 
BRANCH  84  88
ATOM     88  C   UNL A   1      35.561  24.189  25.203  1.00  0.00     0.073 C 
BRANCH  88  89
ATOM     89  C   UNL A   1      36.948  23.581  25.692  1.00  0.00    -0.044 A 
ATOM     90  C   UNL A   1      37.999  24.224  26.386  1.00  0.00     0.004 A 
ATOM     91  C   UNL A   1      37.294  22.274  25.289  1.00  0.00     0.004 A 
ATOM     92  C   UNL A   1      39.197  23.621  26.800  1.00  0.00     0.000 A 
ATOM     93  C   UNL A   1      38.511  21.656  25.672  1.00  0.00     0.000 A 
ATOM     94  C   UNL A   1      39.448  22.317  26.459  1.00  0.00     0.000 A 
ENDBRANCH  88  89
ENDBRANCH  84  88
ENDBRANCH  80  82
ENDBRANCH  72  78
ENDBRANCH  69  71
ENDBRANCH  68  69
ENDBRANCH  67  68
ENDBRANCH  66  67
ENDBRANCH  65  66
ENDBRANCH   1  65
TORSDOF 21
ENDMDL
MODEL 3
REMARK VINA RESULT:     -11.4      1.236      3.094
REMARK SMILES O=C(OCCOCCOCCOC(=O)[C@@H]1[C@H](C(=O)Nc2ccccc2Cc2ccccc2)[C@H]2C=C[C@@H]1O2)c1ccc(-c2c3nc(c(-c4c(F)cccc4F)c4ccc([nH]4)c(-c4c(F)cccc4F)c4nc(c(-c5c(F)cccc5F)c5ccc2[nH]5)C=C4)C=C3)cc1
REMARK SMILES IDX 8 1 7 2 6 3 5 4 4 5 3 6 2 7 1 8 38 9 39 10 91 11 40 12 90 13
REMARK SMILES IDX 41 14 42 15 43 16 84 17 44 18 89 19 83 20 85 21 45 22 88 23
REMARK SMILES IDX 82 24 81 25 46 27 72 28 55 29 71 30 56 31 59 32 70 33 86 34
REMARK SMILES IDX 57 35 58 36 69 38 87 39 60 40 47 41 48 42 53 43 49 44 50 45
REMARK SMILES IDX 52 46 54 47 51 48 73 49 74 50 79 51 75 52 76 53 78 54 80 55
REMARK SMILES IDX 77 56 61 57 62 58 67 59 63 60 64 61 66 62 68 63 65 64 9 65
REMARK SMILES IDX 10 66 11 67 12 68 13 69 14 70 15 71 16 72 36 73 33 74 35 75
REMARK SMILES IDX 37 76 34 77 17 78 18 79 19 80 20 82 21 83 25 84 22 85 24 86
REMARK SMILES IDX 23 87 26 88 27 89 28 90 32 91 29 92 31 93 30 94
REMARK H PARENT 85 26 59 37 19 81
REMARK Flexibility Score: inf
ROOT
ATOM      1  C   UNL A   1      37.464  21.477  25.343  1.00  0.00     0.188 C 
ENDROOT
BRANCH   1   2
ATOM      2  C   UNL A   1      38.789  20.662  25.372  1.00  0.00     0.188 C 
BRANCH   2   3
ATOM      3  O   UNL A   1      39.641  21.093  26.423  1.00  0.00    -0.376 OA
BRANCH   3   4
ATOM      4  C   UNL A   1      40.885  20.408  26.603  1.00  0.00     0.202 C 
BRANCH   4   5
ATOM      5  C   UNL A   1      42.222  21.051  26.073  1.00  0.00     0.261 C 
BRANCH   5   6
ATOM      6  O   UNL A   1      42.085  22.323  25.391  1.00  0.00    -0.460 OA
BRANCH   6   7
ATOM      7  C   UNL A   1      42.734  23.433  25.853  1.00  0.00     0.338 C 
ATOM      8  O   UNL A   1      43.920  23.685  25.703  1.00  0.00    -0.246 OA
BRANCH   7   9
ATOM      9  C   UNL A   1      41.704  24.402  26.356  1.00  0.00     0.060 A 
ATOM     10  C   UNL A   1      41.627  25.683  25.848  1.00  0.00     0.016 A 
ATOM     11  C   UNL A   1      40.905  24.132  27.451  1.00  0.00     0.016 A 
ATOM     12  C   UNL A   1      41.148  26.753  26.622  1.00  0.00     0.010 A 
ATOM     13  C   UNL A   1      40.335  25.207  28.177  1.00  0.00     0.010 A 
ATOM     14  C   UNL A   1      40.655  26.560  27.906  1.00  0.00    -0.014 A 
BRANCH  14  15
ATOM     15  C   UNL A   1      40.487  27.655  28.969  1.00  0.00     0.031 A 
ATOM     16  C   UNL A   1      41.457  27.701  30.127  1.00  0.00     0.074 A 
ATOM     17  C   UNL A   1      39.770  28.807  28.926  1.00  0.00     0.049 A 
ATOM     18  N   UNL A   1      41.323  28.210  31.322  1.00  0.00    -0.248 NA
ATOM     19  C   UNL A   1      42.794  27.145  29.863  1.00  0.00     0.031 C 
ATOM     20  C   UNL A   1      39.272  29.461  27.740  1.00  0.00     0.029 A 
ATOM     21  N   UNL A   1      39.335  29.668  29.925  1.00  0.00    -0.354 N 
ATOM     22  C   UNL A   1      42.515  27.948  31.977  1.00  0.00     0.074 A 
ATOM     23  C   UNL A   1      43.352  27.208  31.059  1.00  0.00     0.031 C 
ATOM     24  C   UNL A   1      38.453  30.474  28.053  1.00  0.00     0.029 A 
ATOM     25  C   UNL A   1      38.373  30.563  29.488  1.00  0.00     0.049 A 
ATOM     26  H   UNL A   1      39.674  29.645  30.849  1.00  0.00     0.167 HD
ATOM     27  C   UNL A   1      42.883  28.308  33.228  1.00  0.00     0.037 A 
ATOM     28  C   UNL A   1      37.494  31.359  30.128  1.00  0.00     0.037 A 
ATOM     29  C   UNL A   1      42.102  29.169  34.077  1.00  0.00     0.049 A 
ATOM     30  C   UNL A   1      37.695  31.542  31.592  1.00  0.00     0.074 A 
ATOM     31  C   UNL A   1      42.322  29.511  35.398  1.00  0.00     0.029 A 
ATOM     32  N   UNL A   1      40.970  29.866  33.666  1.00  0.00    -0.354 N 
ATOM     33  N   UNL A   1      38.659  31.049  32.326  1.00  0.00    -0.248 NA
ATOM     34  C   UNL A   1      36.767  32.421  32.308  1.00  0.00     0.031 C 
ATOM     35  C   UNL A   1      41.288  30.362  35.807  1.00  0.00     0.029 A 
ATOM     36  C   UNL A   1      40.457  30.599  34.725  1.00  0.00     0.049 A 
ATOM     37  H   UNL A   1      40.590  29.841  32.759  1.00  0.00     0.167 HD
ATOM     38  C   UNL A   1      38.503  31.611  33.575  1.00  0.00     0.074 A 
ATOM     39  C   UNL A   1      37.335  32.468  33.506  1.00  0.00     0.031 C 
ATOM     40  C   UNL A   1      39.288  31.444  34.664  1.00  0.00     0.037 A 
BRANCH  27  41
ATOM     41  C   UNL A   1      44.114  27.644  33.770  1.00  0.00     0.057 A 
ATOM     42  C   UNL A   1      45.402  28.180  33.649  1.00  0.00     0.134 A 
ATOM     43  C   UNL A   1      43.996  26.371  34.344  1.00  0.00     0.134 A 
ATOM     44  F   UNL A   1      45.592  29.375  33.068  1.00  0.00    -0.206 F 
ATOM     45  C   UNL A   1      46.531  27.452  34.035  1.00  0.00     0.040 A 
ATOM     46  C   UNL A   1      45.112  25.651  34.766  1.00  0.00     0.040 A 
ATOM     47  F   UNL A   1      42.792  25.795  34.480  1.00  0.00    -0.206 F 
ATOM     48  C   UNL A   1      46.386  26.184  34.596  1.00  0.00     0.006 A 
ENDBRANCH  27  41
BRANCH  28  49
ATOM     49  C   UNL A   1      36.356  32.003  29.402  1.00  0.00     0.057 A 
ATOM     50  C   UNL A   1      35.253  31.283  28.927  1.00  0.00     0.134 A 
ATOM     51  C   UNL A   1      36.378  33.380  29.122  1.00  0.00     0.134 A 
ATOM     52  F   UNL A   1      35.167  29.963  29.142  1.00  0.00    -0.206 F 
ATOM     53  C   UNL A   1      34.236  31.896  28.185  1.00  0.00     0.040 A 
ATOM     54  C   UNL A   1      35.363  34.008  28.395  1.00  0.00     0.040 A 
ATOM     55  F   UNL A   1      37.397  34.141  29.550  1.00  0.00    -0.206 F 
ATOM     56  C   UNL A   1      34.290  33.263  27.915  1.00  0.00     0.006 A 
ENDBRANCH  28  49
BRANCH  40  57
ATOM     57  C   UNL A   1      38.921  32.237  35.876  1.00  0.00     0.057 A 
ATOM     58  C   UNL A   1      38.152  31.691  36.908  1.00  0.00     0.134 A 
ATOM     59  C   UNL A   1      39.358  33.560  36.012  1.00  0.00     0.134 A 
ATOM     60  F   UNL A   1      37.685  30.436  36.820  1.00  0.00    -0.206 F 
ATOM     61  C   UNL A   1      37.809  32.443  38.031  1.00  0.00     0.040 A 
ATOM     62  C   UNL A   1      39.048  34.312  37.144  1.00  0.00     0.040 A 
ATOM     63  F   UNL A   1      40.095  34.139  35.052  1.00  0.00    -0.206 F 
ATOM     64  C   UNL A   1      38.266  33.754  38.154  1.00  0.00     0.006 A 
ENDBRANCH  40  57
ENDBRANCH  14  15
ENDBRANCH   7   9
ENDBRANCH   6   7
ENDBRANCH   5   6
ENDBRANCH   4   5
ENDBRANCH   3   4
ENDBRANCH   2   3
ENDBRANCH   1   2
BRANCH   1  65
ATOM     65  O   UNL A   1      37.135  22.584  24.472  1.00  0.00    -0.376 OA
BRANCH  65  66
ATOM     66  C   UNL A   1      36.351  23.704  24.964  1.00  0.00     0.202 C 
BRANCH  66  67
ATOM     67  C   UNL A   1      35.146  23.577  26.104  1.00  0.00     0.261 C 
BRANCH  67  68
ATOM     68  O   UNL A   1      33.755  24.158  25.842  1.00  0.00    -0.463 OA
BRANCH  68  69
ATOM     69  C   UNL A   1      32.749  24.558  26.699  1.00  0.00     0.312 C 
ATOM     70  O   UNL A   1      32.020  23.733  27.245  1.00  0.00    -0.252 OA
BRANCH  69  71
ATOM     71  C   UNL A   1      32.495  26.161  26.940  1.00  0.00     0.147 C 
ATOM     72  C   UNL A   1      31.120  26.651  26.480  1.00  0.00     0.129 C 
ATOM     73  C   UNL A   1      33.348  27.405  26.466  1.00  0.00     0.157 C 
ATOM     74  C   UNL A   1      31.366  27.999  25.798  1.00  0.00     0.155 C 
ATOM     75  C   UNL A   1      33.017  28.695  27.178  1.00  0.00     0.004 C 
ATOM     76  O   UNL A   1      32.658  27.782  25.219  1.00  0.00    -0.365 OA
ATOM     77  C   UNL A   1      31.791  29.052  26.771  1.00  0.00     0.004 C 
BRANCH  72  78
ATOM     78  C   UNL A   1      30.373  25.609  25.725  1.00  0.00     0.231 C 
ATOM     79  O   UNL A   1      29.384  25.114  26.297  1.00  0.00    -0.274 OA
ATOM     80  N   UNL A   1      30.581  25.120  24.498  1.00  0.00    -0.325 N 
ATOM     81  H   UNL A   1      29.877  24.452  24.327  1.00  0.00     0.169 HD
BRANCH  80  82
ATOM     82  C   UNL A   1      31.400  25.167  23.343  1.00  0.00     0.044 A 
ATOM     83  C   UNL A   1      31.982  23.850  23.249  1.00  0.00     0.026 A 
ATOM     84  C   UNL A   1      31.717  26.166  22.351  1.00  0.00    -0.020 A 
ATOM     85  C   UNL A   1      32.668  23.398  22.149  1.00  0.00     0.002 A 
ATOM     86  C   UNL A   1      32.491  25.654  21.305  1.00  0.00     0.006 A 
ATOM     87  C   UNL A   1      32.889  24.307  21.159  1.00  0.00     0.000 A 
BRANCH  84  88
ATOM     88  C   UNL A   1      31.239  27.659  22.096  1.00  0.00     0.073 C 
BRANCH  88  89
ATOM     89  C   UNL A   1      29.977  28.608  22.294  1.00  0.00    -0.044 A 
ATOM     90  C   UNL A   1      29.852  29.985  21.995  1.00  0.00     0.004 A 
ATOM     91  C   UNL A   1      28.853  28.106  22.982  1.00  0.00     0.004 A 
ATOM     92  C   UNL A   1      28.699  30.763  22.184  1.00  0.00     0.000 A 
ATOM     93  C   UNL A   1      27.689  28.883  23.210  1.00  0.00     0.000 A 
ATOM     94  C   UNL A   1      27.598  30.201  22.778  1.00  0.00     0.000 A 
ENDBRANCH  88  89
ENDBRANCH  84  88
ENDBRANCH  80  82
ENDBRANCH  72  78
ENDBRANCH  69  71
ENDBRANCH  68  69
ENDBRANCH  67  68
ENDBRANCH  66  67
ENDBRANCH  65  66
ENDBRANCH   1  65
TORSDOF 21
ENDMDL
