MODEL 1
REMARK VINA RESULT:     -11.2      0.000      0.000
REMARK SMILES C[C@@H](C(=O)OCCOCCOCCOC(=O)c1ccc(-c2c3nc(c(-c4c(F)cccc4F)c4ccc([nH]4)c(-c4c(F)cccc4F)c4nc(c(-c5c(F)cccc5F)c5ccc2[nH]5)C=C4)C=C3)cc1)c1ccc(C[C@H]2CCCC2=O)c(-c2ccc(F)cc2)c1
REMARK SMILES IDX 9 1 8 2 7 3 6 4 5 5 3 6 4 7 2 8 1 9 71 10 72 11 90 12 73 13
REMARK SMILES IDX 82 14 74 15 83 16 84 17 89 18 85 19 88 20 86 21 87 22 75 23
REMARK SMILES IDX 76 24 77 25 80 26 78 27 79 28 81 29 10 30 11 31 12 32 13 33
REMARK SMILES IDX 14 34 15 35 16 36 17 37 18 38 70 39 19 40 69 41 20 42 21 43
REMARK SMILES IDX 22 44 63 45 23 46 68 47 62 48 64 49 24 50 67 51 61 52 60 53
REMARK SMILES IDX 25 55 51 56 34 57 50 58 35 59 38 60 49 61 65 62 36 63 37 64
REMARK SMILES IDX 48 66 66 67 39 68 26 69 27 70 32 71 28 72 29 73 31 74 33 75
REMARK SMILES IDX 30 76 52 77 53 78 58 79 54 80 55 81 57 82 59 83 56 84 40 85
REMARK SMILES IDX 41 86 46 87 42 88 43 89 45 90 47 91 44 92
REMARK H PARENT 64 54 38 65
REMARK Flexibility Score: inf
ROOT
ATOM      1  C   UNL A   1      40.404  20.185  26.177  1.00  0.00     0.188 C 
ENDROOT
BRANCH   1   2
ATOM      2  O   UNL A   1      39.741  19.237  25.366  1.00  0.00    -0.376 OA
BRANCH   2   3
ATOM      3  C   UNL A   1      38.327  19.117  25.458  1.00  0.00     0.202 C 
BRANCH   3   4
ATOM      4  C   UNL A   1      37.416  20.008  24.606  1.00  0.00     0.261 C 
BRANCH   4   5
ATOM      5  O   UNL A   1      36.431  20.726  25.370  1.00  0.00    -0.463 OA
BRANCH   5   6
ATOM      6  C   UNL A   1      36.752  22.017  25.660  1.00  0.00     0.313 C 
ATOM      7  O   UNL A   1      37.844  22.518  25.406  1.00  0.00    -0.252 OA
BRANCH   6   8
ATOM      8  C   UNL A   1      35.590  22.830  26.237  1.00  0.00     0.126 C 
ATOM      9  C   UNL A   1      34.549  21.994  26.996  1.00  0.00     0.025 C 
BRANCH   8  10
ATOM     10  C   UNL A   1      34.947  23.817  25.261  1.00  0.00    -0.033 A 
ATOM     11  C   UNL A   1      34.858  23.505  23.907  1.00  0.00     0.005 A 
ATOM     12  C   UNL A   1      34.356  25.018  25.666  1.00  0.00     0.013 A 
ATOM     13  C   UNL A   1      34.213  24.362  23.007  1.00  0.00     0.004 A 
ATOM     14  C   UNL A   1      33.738  25.938  24.773  1.00  0.00    -0.015 A 
ATOM     15  C   UNL A   1      33.671  25.604  23.391  1.00  0.00    -0.039 A 
BRANCH  14  16
ATOM     16  C   UNL A   1      33.217  27.162  25.431  1.00  0.00    -0.018 A 
ATOM     17  C   UNL A   1      33.415  28.451  24.913  1.00  0.00     0.012 A 
ATOM     18  C   UNL A   1      32.363  27.036  26.551  1.00  0.00     0.012 A 
ATOM     19  C   UNL A   1      32.830  29.570  25.532  1.00  0.00     0.040 A 
ATOM     20  C   UNL A   1      31.792  28.149  27.180  1.00  0.00     0.040 A 
ATOM     21  C   UNL A   1      32.047  29.411  26.672  1.00  0.00     0.123 A 
ATOM     22  F   UNL A   1      31.568  30.489  27.306  1.00  0.00    -0.207 F 
ENDBRANCH  14  16
BRANCH  15  23
ATOM     23  C   UNL A   1      32.891  26.399  22.343  1.00  0.00     0.047 C 
BRANCH  23  24
ATOM     24  C   UNL A   1      31.352  26.289  22.143  1.00  0.00     0.060 C 
ATOM     25  C   UNL A   1      30.648  25.181  22.918  1.00  0.00     0.012 C 
ATOM     26  C   UNL A   1      30.499  27.479  22.529  1.00  0.00     0.136 C 
ATOM     27  C   UNL A   1      30.056  25.836  24.155  1.00  0.00     0.009 C 
ATOM     28  C   UNL A   1      29.526  27.163  23.645  1.00  0.00     0.076 C 
ATOM     29  O   UNL A   1      30.567  28.576  21.988  1.00  0.00    -0.299 OA
ENDBRANCH  23  24
ENDBRANCH  15  23
ENDBRANCH   8  10
ENDBRANCH   6   8
ENDBRANCH   5   6
ENDBRANCH   4   5
ENDBRANCH   3   4
ENDBRANCH   2   3
ENDBRANCH   1   2
BRANCH   1  30
ATOM     30  C   UNL A   1      41.928  20.116  26.374  1.00  0.00     0.188 C 
BRANCH  30  31
ATOM     31  O   UNL A   1      42.806  20.728  25.458  1.00  0.00    -0.376 OA
BRANCH  31  32
ATOM     32  C   UNL A   1      43.182  22.080  25.666  1.00  0.00     0.202 C 
BRANCH  32  33
ATOM     33  C   UNL A   1      44.011  22.869  24.639  1.00  0.00     0.261 C 
BRANCH  33  34
ATOM     34  O   UNL A   1      43.761  24.283  24.567  1.00  0.00    -0.460 OA
BRANCH  34  35
ATOM     35  C   UNL A   1      44.542  25.051  25.354  1.00  0.00     0.338 C 
ATOM     36  O   UNL A   1      45.770  25.188  25.283  1.00  0.00    -0.246 OA
BRANCH  35  37
ATOM     37  C   UNL A   1      43.730  25.850  26.280  1.00  0.00     0.060 A 
ATOM     38  C   UNL A   1      43.991  27.214  26.400  1.00  0.00     0.016 A 
ATOM     39  C   UNL A   1      42.801  25.247  27.129  1.00  0.00     0.016 A 
ATOM     40  C   UNL A   1      43.330  27.964  27.370  1.00  0.00     0.010 A 
ATOM     41  C   UNL A   1      42.167  26.008  28.131  1.00  0.00     0.010 A 
ATOM     42  C   UNL A   1      42.454  27.374  28.293  1.00  0.00    -0.014 A 
BRANCH  42  43
ATOM     43  C   UNL A   1      41.983  28.135  29.500  1.00  0.00     0.031 A 
ATOM     44  C   UNL A   1      40.707  28.915  29.438  1.00  0.00     0.074 A 
ATOM     45  C   UNL A   1      42.566  28.050  30.712  1.00  0.00     0.049 A 
ATOM     46  N   UNL A   1      40.157  29.660  30.362  1.00  0.00    -0.248 NA
ATOM     47  C   UNL A   1      39.935  28.817  28.193  1.00  0.00     0.031 C 
ATOM     48  C   UNL A   1      43.672  27.167  30.998  1.00  0.00     0.029 A 
ATOM     49  N   UNL A   1      42.286  28.624  31.934  1.00  0.00    -0.354 N 
ATOM     50  C   UNL A   1      38.995  30.159  29.800  1.00  0.00     0.074 A 
ATOM     51  C   UNL A   1      38.913  29.619  28.457  1.00  0.00     0.031 C 
ATOM     52  C   UNL A   1      43.961  27.216  32.303  1.00  0.00     0.029 A 
ATOM     53  C   UNL A   1      43.125  28.209  32.943  1.00  0.00     0.049 A 
ATOM     54  H   UNL A   1      41.555  29.270  32.071  1.00  0.00     0.167 HD
ATOM     55  C   UNL A   1      38.090  30.999  30.350  1.00  0.00     0.037 A 
ATOM     56  C   UNL A   1      43.258  28.573  34.234  1.00  0.00     0.037 A 
ATOM     57  C   UNL A   1      38.148  31.526  31.691  1.00  0.00     0.049 A 
ATOM     58  C   UNL A   1      42.332  29.605  34.783  1.00  0.00     0.074 A 
ATOM     59  C   UNL A   1      37.281  32.420  32.297  1.00  0.00     0.029 A 
ATOM     60  N   UNL A   1      39.114  31.213  32.637  1.00  0.00    -0.354 N 
ATOM     61  N   UNL A   1      41.296  30.154  34.202  1.00  0.00    -0.248 NA
ATOM     62  C   UNL A   1      42.587  30.079  36.150  1.00  0.00     0.031 C 
ATOM     63  C   UNL A   1      37.752  32.693  33.586  1.00  0.00     0.029 A 
ATOM     64  C   UNL A   1      38.882  31.924  33.808  1.00  0.00     0.049 A 
ATOM     65  H   UNL A   1      39.854  30.579  32.499  1.00  0.00     0.167 HD
ATOM     66  C   UNL A   1      40.763  31.027  35.135  1.00  0.00     0.074 A 
ATOM     67  C   UNL A   1      41.576  30.918  36.330  1.00  0.00     0.031 C 
ATOM     68  C   UNL A   1      39.691  31.842  34.997  1.00  0.00     0.037 A 
BRANCH  55  69
ATOM     69  C   UNL A   1      36.997  31.478  29.447  1.00  0.00     0.057 A 
ATOM     70  C   UNL A   1      35.904  30.679  29.096  1.00  0.00     0.134 A 
ATOM     71  C   UNL A   1      37.060  32.772  28.911  1.00  0.00     0.134 A 
ATOM     72  F   UNL A   1      35.807  29.420  29.551  1.00  0.00    -0.206 F 
ATOM     73  C   UNL A   1      34.918  31.144  28.225  1.00  0.00     0.040 A 
ATOM     74  C   UNL A   1      36.066  33.256  28.062  1.00  0.00     0.040 A 
ATOM     75  F   UNL A   1      38.089  33.580  29.204  1.00  0.00    -0.206 F 
ATOM     76  C   UNL A   1      34.995  32.438  27.712  1.00  0.00     0.006 A 
ENDBRANCH  55  69
BRANCH  56  77
ATOM     77  C   UNL A   1      44.341  27.997  35.081  1.00  0.00     0.057 A 
ATOM     78  C   UNL A   1      45.639  28.522  35.073  1.00  0.00     0.134 A 
ATOM     79  C   UNL A   1      44.104  26.889  35.906  1.00  0.00     0.134 A 
ATOM     80  F   UNL A   1      45.940  29.564  34.285  1.00  0.00    -0.206 F 
ATOM     81  C   UNL A   1      46.661  27.963  35.846  1.00  0.00     0.040 A 
ATOM     82  C   UNL A   1      45.107  26.338  36.706  1.00  0.00     0.040 A 
ATOM     83  F   UNL A   1      42.886  26.331  35.956  1.00  0.00    -0.206 F 
ATOM     84  C   UNL A   1      46.393  26.872  36.672  1.00  0.00     0.006 A 
ENDBRANCH  56  77
BRANCH  68  85
ATOM     85  C   UNL A   1      39.323  32.675  36.187  1.00  0.00     0.057 A 
ATOM     86  C   UNL A   1      39.845  33.961  36.381  1.00  0.00     0.134 A 
ATOM     87  C   UNL A   1      38.441  32.181  37.156  1.00  0.00     0.134 A 
ATOM     88  F   UNL A   1      40.714  34.481  35.501  1.00  0.00    -0.206 F 
ATOM     89  C   UNL A   1      39.526  34.714  37.512  1.00  0.00     0.040 A 
ATOM     90  C   UNL A   1      38.092  32.936  38.276  1.00  0.00     0.040 A 
ATOM     91  F   UNL A   1      37.906  30.957  37.031  1.00  0.00    -0.206 F 
ATOM     92  C   UNL A   1      38.642  34.203  38.460  1.00  0.00     0.006 A 
ENDBRANCH  68  85
ENDBRANCH  42  43
ENDBRANCH  35  37
ENDBRANCH  34  35
ENDBRANCH  33  34
ENDBRANCH  32  33
ENDBRANCH  31  32
ENDBRANCH  30  31
ENDBRANCH   1  30
TORSDOF 21
ENDMDL
MODEL 2
REMARK VINA RESULT:     -10.6      3.817      5.396
REMARK SMILES C[C@@H](C(=O)OCCOCCOCCOC(=O)c1ccc(-c2c3nc(c(-c4c(F)cccc4F)c4ccc([nH]4)c(-c4c(F)cccc4F)c4nc(c(-c5c(F)cccc5F)c5ccc2[nH]5)C=C4)C=C3)cc1)c1ccc(C[C@H]2CCCC2=O)c(-c2ccc(F)cc2)c1
REMARK SMILES IDX 9 1 8 2 7 3 6 4 5 5 3 6 4 7 2 8 1 9 71 10 72 11 90 12 73 13
REMARK SMILES IDX 82 14 74 15 83 16 84 17 89 18 85 19 88 20 86 21 87 22 75 23
REMARK SMILES IDX 76 24 77 25 80 26 78 27 79 28 81 29 10 30 11 31 12 32 13 33
REMARK SMILES IDX 14 34 15 35 16 36 17 37 18 38 70 39 19 40 69 41 20 42 21 43
REMARK SMILES IDX 22 44 63 45 23 46 68 47 62 48 64 49 24 50 67 51 61 52 60 53
REMARK SMILES IDX 25 55 51 56 34 57 50 58 35 59 38 60 49 61 65 62 36 63 37 64
REMARK SMILES IDX 48 66 66 67 39 68 26 69 27 70 32 71 28 72 29 73 31 74 33 75
REMARK SMILES IDX 30 76 52 77 53 78 58 79 54 80 55 81 57 82 59 83 56 84 40 85
REMARK SMILES IDX 41 86 46 87 42 88 43 89 45 90 47 91 44 92
REMARK H PARENT 64 54 38 65
REMARK Flexibility Score: inf
ROOT
ATOM      1  C   UNL A   1      35.114  17.233  24.657  1.00  0.00     0.188 C 
ENDROOT
BRANCH   1   2
ATOM      2  O   UNL A   1      34.203  17.431  23.595  1.00  0.00    -0.376 OA
BRANCH   2   3
ATOM      3  C   UNL A   1      33.022  18.187  23.830  1.00  0.00     0.202 C 
BRANCH   3   4
ATOM      4  C   UNL A   1      32.478  18.354  25.254  1.00  0.00     0.261 C 
BRANCH   4   5
ATOM      5  O   UNL A   1      33.138  19.387  26.008  1.00  0.00    -0.463 OA
BRANCH   5   6
ATOM      6  C   UNL A   1      32.666  20.647  25.799  1.00  0.00     0.313 C 
ATOM      7  O   UNL A   1      31.577  20.888  25.288  1.00  0.00    -0.252 OA
BRANCH   6   8
ATOM      8  C   UNL A   1      33.571  21.747  26.362  1.00  0.00     0.126 C 
ATOM      9  C   UNL A   1      33.280  22.119  27.824  1.00  0.00     0.025 C 
BRANCH   8  10
ATOM     10  C   UNL A   1      33.722  22.978  25.465  1.00  0.00    -0.033 A 
ATOM     11  C   UNL A   1      34.136  22.834  24.145  1.00  0.00     0.005 A 
ATOM     12  C   UNL A   1      33.388  24.271  25.879  1.00  0.00     0.013 A 
ATOM     13  C   UNL A   1      34.216  23.938  23.287  1.00  0.00     0.004 A 
ATOM     14  C   UNL A   1      33.506  25.423  25.052  1.00  0.00    -0.015 A 
ATOM     15  C   UNL A   1      33.944  25.254  23.708  1.00  0.00    -0.039 A 
BRANCH  14  16
ATOM     16  C   UNL A   1      33.131  26.692  25.725  1.00  0.00    -0.018 A 
ATOM     17  C   UNL A   1      31.957  26.838  26.479  1.00  0.00     0.012 A 
ATOM     18  C   UNL A   1      34.048  27.769  25.735  1.00  0.00     0.012 A 
ATOM     19  C   UNL A   1      31.689  28.037  27.163  1.00  0.00     0.040 A 
ATOM     20  C   UNL A   1      33.777  28.969  26.401  1.00  0.00     0.040 A 
ATOM     21  C   UNL A   1      32.588  29.097  27.097  1.00  0.00     0.123 A 
ATOM     22  F   UNL A   1      32.283  30.266  27.678  1.00  0.00    -0.207 F 
ENDBRANCH  14  16
BRANCH  15  23
ATOM     23  C   UNL A   1      33.953  26.360  22.653  1.00  0.00     0.047 C 
BRANCH  23  24
ATOM     24  C   UNL A   1      32.668  26.950  22.007  1.00  0.00     0.060 C 
ATOM     25  C   UNL A   1      31.476  26.006  21.894  1.00  0.00     0.012 C 
ATOM     26  C   UNL A   1      32.014  28.139  22.680  1.00  0.00     0.136 C 
ATOM     27  C   UNL A   1      30.569  26.324  23.072  1.00  0.00     0.009 C 
ATOM     28  C   UNL A   1      30.614  27.837  23.168  1.00  0.00     0.076 C 
ATOM     29  O   UNL A   1      32.547  29.235  22.802  1.00  0.00    -0.299 OA
ENDBRANCH  23  24
ENDBRANCH  15  23
ENDBRANCH   8  10
ENDBRANCH   6   8
ENDBRANCH   5   6
ENDBRANCH   4   5
ENDBRANCH   3   4
ENDBRANCH   2   3
ENDBRANCH   1   2
BRANCH   1  30
ATOM     30  C   UNL A   1      36.258  18.232  24.902  1.00  0.00     0.188 C 
BRANCH  30  31
ATOM     31  O   UNL A   1      36.009  19.616  24.977  1.00  0.00    -0.376 OA
BRANCH  31  32
ATOM     32  C   UNL A   1      37.086  20.519  24.783  1.00  0.00     0.202 C 
BRANCH  32  33
ATOM     33  C   UNL A   1      38.555  20.073  24.861  1.00  0.00     0.261 C 
BRANCH  33  34
ATOM     34  O   UNL A   1      39.220  20.283  26.119  1.00  0.00    -0.460 OA
BRANCH  34  35
ATOM     35  C   UNL A   1      40.537  19.993  26.133  1.00  0.00     0.338 C 
ATOM     36  O   UNL A   1      41.082  18.968  25.704  1.00  0.00    -0.246 OA
BRANCH  35  37
ATOM     37  C   UNL A   1      41.321  21.132  26.628  1.00  0.00     0.060 A 
ATOM     38  C   UNL A   1      41.326  21.403  27.995  1.00  0.00     0.016 A 
ATOM     39  C   UNL A   1      41.946  22.015  25.746  1.00  0.00     0.016 A 
ATOM     40  C   UNL A   1      41.947  22.555  28.471  1.00  0.00     0.010 A 
ATOM     41  C   UNL A   1      42.538  23.195  26.236  1.00  0.00     0.010 A 
ATOM     42  C   UNL A   1      42.511  23.504  27.606  1.00  0.00    -0.014 A 
BRANCH  42  43
ATOM     43  C   UNL A   1      42.910  24.863  28.110  1.00  0.00     0.031 A 
ATOM     44  C   UNL A   1      41.856  25.880  28.422  1.00  0.00     0.074 A 
ATOM     45  C   UNL A   1      44.171  25.195  28.448  1.00  0.00     0.049 A 
ATOM     46  N   UNL A   1      42.005  27.113  28.832  1.00  0.00    -0.248 NA
ATOM     47  C   UNL A   1      40.460  25.444  28.289  1.00  0.00     0.031 C 
ATOM     48  C   UNL A   1      45.270  24.259  28.422  1.00  0.00     0.029 A 
ATOM     49  N   UNL A   1      44.739  26.347  28.949  1.00  0.00    -0.354 N 
ATOM     50  C   UNL A   1      40.725  27.621  28.966  1.00  0.00     0.074 A 
ATOM     51  C   UNL A   1      39.810  26.555  28.605  1.00  0.00     0.031 C 
ATOM     52  C   UNL A   1      46.369  24.841  28.915  1.00  0.00     0.029 A 
ATOM     53  C   UNL A   1      46.086  26.230  29.207  1.00  0.00     0.049 A 
ATOM     54  H   UNL A   1      44.230  27.175  29.105  1.00  0.00     0.167 HD
ATOM     55  C   UNL A   1      40.351  28.865  29.341  1.00  0.00     0.037 A 
ATOM     56  C   UNL A   1      47.023  27.111  29.609  1.00  0.00     0.037 A 
ATOM     57  C   UNL A   1      41.248  29.927  29.723  1.00  0.00     0.049 A 
ATOM     58  C   UNL A   1      46.609  28.517  29.886  1.00  0.00     0.074 A 
ATOM     59  C   UNL A   1      40.932  31.229  30.074  1.00  0.00     0.029 A 
ATOM     60  N   UNL A   1      42.629  29.820  29.811  1.00  0.00    -0.354 N 
ATOM     61  N   UNL A   1      45.400  29.015  29.903  1.00  0.00    -0.248 NA
ATOM     62  C   UNL A   1      47.672  29.484  30.191  1.00  0.00     0.031 C 
ATOM     63  C   UNL A   1      42.122  31.925  30.317  1.00  0.00     0.029 A 
ATOM     64  C   UNL A   1      43.179  31.043  30.175  1.00  0.00     0.049 A 
ATOM     65  H   UNL A   1      43.144  28.999  29.641  1.00  0.00     0.167 HD
ATOM     66  C   UNL A   1      45.550  30.351  30.235  1.00  0.00     0.074 A 
ATOM     67  C   UNL A   1      46.967  30.580  30.434  1.00  0.00     0.031 C 
ATOM     68  C   UNL A   1      44.586  31.293  30.358  1.00  0.00     0.037 A 
BRANCH  55  69
ATOM     69  C   UNL A   1      38.888  29.168  29.260  1.00  0.00     0.057 A 
ATOM     70  C   UNL A   1      38.037  29.086  30.368  1.00  0.00     0.134 A 
ATOM     71  C   UNL A   1      38.325  29.539  28.031  1.00  0.00     0.134 A 
ATOM     72  F   UNL A   1      38.512  28.703  31.564  1.00  0.00    -0.206 F 
ATOM     73  C   UNL A   1      36.671  29.344  30.252  1.00  0.00     0.040 A 
ATOM     74  C   UNL A   1      36.967  29.826  27.910  1.00  0.00     0.040 A 
ATOM     75  F   UNL A   1      39.089  29.626  26.932  1.00  0.00    -0.206 F 
ATOM     76  C   UNL A   1      36.135  29.721  29.022  1.00  0.00     0.006 A 
ENDBRANCH  55  69
BRANCH  56  77
ATOM     77  C   UNL A   1      48.454  26.705  29.721  1.00  0.00     0.057 A 
ATOM     78  C   UNL A   1      48.964  26.121  30.886  1.00  0.00     0.134 A 
ATOM     79  C   UNL A   1      49.352  26.914  28.664  1.00  0.00     0.134 A 
ATOM     80  F   UNL A   1      48.166  25.918  31.944  1.00  0.00    -0.206 F 
ATOM     81  C   UNL A   1      50.312  25.766  30.999  1.00  0.00     0.040 A 
ATOM     82  C   UNL A   1      50.693  26.539  28.752  1.00  0.00     0.040 A 
ATOM     83  F   UNL A   1      48.931  27.476  27.521  1.00  0.00    -0.206 F 
ATOM     84  C   UNL A   1      51.179  25.970  29.926  1.00  0.00     0.006 A 
ENDBRANCH  56  77
BRANCH  68  85
ATOM     85  C   UNL A   1      45.036  32.668  30.748  1.00  0.00     0.057 A 
ATOM     86  C   UNL A   1      45.099  33.074  32.088  1.00  0.00     0.134 A 
ATOM     87  C   UNL A   1      45.404  33.601  29.771  1.00  0.00     0.134 A 
ATOM     88  F   UNL A   1      44.737  32.234  33.070  1.00  0.00    -0.206 F 
ATOM     89  C   UNL A   1      45.482  34.369  32.440  1.00  0.00     0.040 A 
ATOM     90  C   UNL A   1      45.816  34.889  30.112  1.00  0.00     0.040 A 
ATOM     91  F   UNL A   1      45.366  33.277  28.470  1.00  0.00    -0.206 F 
ATOM     92  C   UNL A   1      45.848  35.279  31.450  1.00  0.00     0.006 A 
ENDBRANCH  68  85
ENDBRANCH  42  43
ENDBRANCH  35  37
ENDBRANCH  34  35
ENDBRANCH  33  34
ENDBRANCH  32  33
ENDBRANCH  31  32
ENDBRANCH  30  31
ENDBRANCH   1  30
TORSDOF 21
ENDMDL
MODEL 3
REMARK VINA RESULT:     -10.5      3.559      7.309
REMARK SMILES C[C@@H](C(=O)OCCOCCOCCOC(=O)c1ccc(-c2c3nc(c(-c4c(F)cccc4F)c4ccc([nH]4)c(-c4c(F)cccc4F)c4nc(c(-c5c(F)cccc5F)c5ccc2[nH]5)C=C4)C=C3)cc1)c1ccc(C[C@H]2CCCC2=O)c(-c2ccc(F)cc2)c1
REMARK SMILES IDX 9 1 8 2 7 3 6 4 5 5 3 6 4 7 2 8 1 9 71 10 72 11 90 12 73 13
REMARK SMILES IDX 82 14 74 15 83 16 84 17 89 18 85 19 88 20 86 21 87 22 75 23
REMARK SMILES IDX 76 24 77 25 80 26 78 27 79 28 81 29 10 30 11 31 12 32 13 33
REMARK SMILES IDX 14 34 15 35 16 36 17 37 18 38 70 39 19 40 69 41 20 42 21 43
REMARK SMILES IDX 22 44 63 45 23 46 68 47 62 48 64 49 24 50 67 51 61 52 60 53
REMARK SMILES IDX 25 55 51 56 34 57 50 58 35 59 38 60 49 61 65 62 36 63 37 64
REMARK SMILES IDX 48 66 66 67 39 68 26 69 27 70 32 71 28 72 29 73 31 74 33 75
REMARK SMILES IDX 30 76 52 77 53 78 58 79 54 80 55 81 57 82 59 83 56 84 40 85
REMARK SMILES IDX 41 86 46 87 42 88 43 89 45 90 47 91 44 92
REMARK H PARENT 64 54 38 65
REMARK Flexibility Score: inf
ROOT
ATOM      1  C   UNL A   1      35.014  17.002  24.574  1.00  0.00     0.188 C 
ENDROOT
BRANCH   1   2
ATOM      2  O   UNL A   1      34.183  17.401  23.503  1.00  0.00    -0.376 OA
BRANCH   2   3
ATOM      3  C   UNL A   1      33.092  18.274  23.764  1.00  0.00     0.202 C 
BRANCH   3   4
ATOM      4  C   UNL A   1      32.465  18.337  25.161  1.00  0.00     0.261 C 
BRANCH   4   5
ATOM      5  O   UNL A   1      33.080  19.306  26.029  1.00  0.00    -0.463 OA
BRANCH   5   6
ATOM      6  C   UNL A   1      32.727  20.600  25.794  1.00  0.00     0.313 C 
ATOM      7  O   UNL A   1      31.623  20.936  25.374  1.00  0.00    -0.252 OA
BRANCH   6   8
ATOM      8  C   UNL A   1      33.794  21.618  26.205  1.00  0.00     0.126 C 
ATOM      9  C   UNL A   1      33.805  21.952  27.704  1.00  0.00     0.025 C 
BRANCH   8  10
ATOM     10  C   UNL A   1      33.863  22.869  25.327  1.00  0.00    -0.033 A 
ATOM     11  C   UNL A   1      34.161  22.758  23.972  1.00  0.00     0.005 A 
ATOM     12  C   UNL A   1      33.561  24.151  25.798  1.00  0.00     0.013 A 
ATOM     13  C   UNL A   1      34.163  23.881  23.137  1.00  0.00     0.004 A 
ATOM     14  C   UNL A   1      33.603  25.323  24.990  1.00  0.00    -0.015 A 
ATOM     15  C   UNL A   1      33.924  25.186  23.610  1.00  0.00    -0.039 A 
BRANCH  14  16
ATOM     16  C   UNL A   1      33.282  26.573  25.721  1.00  0.00    -0.018 A 
ATOM     17  C   UNL A   1      34.045  27.745  25.603  1.00  0.00     0.012 A 
ATOM     18  C   UNL A   1      32.082  26.652  26.465  1.00  0.00     0.012 A 
ATOM     19  C   UNL A   1      33.650  28.926  26.255  1.00  0.00     0.040 A 
ATOM     20  C   UNL A   1      31.694  27.822  27.129  1.00  0.00     0.040 A 
ATOM     21  C   UNL A   1      32.494  28.946  27.030  1.00  0.00     0.123 A 
ATOM     22  F   UNL A   1      32.174  30.050  27.719  1.00  0.00    -0.207 F 
ENDBRANCH  14  16
BRANCH  15  23
ATOM     23  C   UNL A   1      33.838  26.316  22.584  1.00  0.00     0.047 C 
BRANCH  23  24
ATOM     24  C   UNL A   1      32.500  26.870  22.017  1.00  0.00     0.060 C 
ATOM     25  C   UNL A   1      31.313  25.913  22.033  1.00  0.00     0.012 C 
ATOM     26  C   UNL A   1      31.887  28.078  22.693  1.00  0.00     0.136 C 
ATOM     27  C   UNL A   1      30.496  26.268  23.264  1.00  0.00     0.009 C 
ATOM     28  C   UNL A   1      30.533  27.785  23.299  1.00  0.00     0.076 C 
ATOM     29  O   UNL A   1      32.416  29.183  22.731  1.00  0.00    -0.299 OA
ENDBRANCH  23  24
ENDBRANCH  15  23
ENDBRANCH   8  10
ENDBRANCH   6   8
ENDBRANCH   5   6
ENDBRANCH   4   5
ENDBRANCH   3   4
ENDBRANCH   2   3
ENDBRANCH   1   2
BRANCH   1  30
ATOM     30  C   UNL A   1      36.241  17.842  24.968  1.00  0.00     0.188 C 
BRANCH  30  31
ATOM     31  O   UNL A   1      36.230  19.245  24.843  1.00  0.00    -0.376 OA
BRANCH  31  32
ATOM     32  C   UNL A   1      37.461  19.947  24.881  1.00  0.00     0.202 C 
BRANCH  32  33
ATOM     33  C   UNL A   1      38.788  19.260  25.243  1.00  0.00     0.261 C 
BRANCH  33  34
ATOM     34  O   UNL A   1      39.553  19.864  26.300  1.00  0.00    -0.460 OA
BRANCH  34  35
ATOM     35  C   UNL A   1      40.892  19.753  26.182  1.00  0.00     0.338 C 
ATOM     36  O   UNL A   1      41.523  18.828  25.652  1.00  0.00    -0.246 OA
BRANCH  35  37
ATOM     37  C   UNL A   1      41.565  20.964  26.666  1.00  0.00     0.060 A 
ATOM     38  C   UNL A   1      41.691  21.161  28.040  1.00  0.00     0.016 A 
ATOM     39  C   UNL A   1      41.958  21.973  25.785  1.00  0.00     0.016 A 
ATOM     40  C   UNL A   1      42.199  22.365  28.525  1.00  0.00     0.010 A 
ATOM     41  C   UNL A   1      42.435  23.199  26.288  1.00  0.00     0.010 A 
ATOM     42  C   UNL A   1      42.525  23.428  27.671  1.00  0.00    -0.014 A 
BRANCH  42  43
ATOM     43  C   UNL A   1      42.790  24.802  28.221  1.00  0.00     0.031 A 
ATOM     44  C   UNL A   1      44.198  25.248  28.462  1.00  0.00     0.074 A 
ATOM     45  C   UNL A   1      41.836  25.739  28.383  1.00  0.00     0.049 A 
ATOM     46  N   UNL A   1      44.624  26.379  28.962  1.00  0.00    -0.248 NA
ATOM     47  C   UNL A   1      45.262  24.320  28.058  1.00  0.00     0.031 C 
ATOM     48  C   UNL A   1      40.461  25.547  27.986  1.00  0.00     0.029 A 
ATOM     49  N   UNL A   1      41.863  27.043  28.831  1.00  0.00    -0.354 N 
ATOM     50  C   UNL A   1      46.004  26.288  28.977  1.00  0.00     0.074 A 
ATOM     51  C   UNL A   1      46.345  24.992  28.422  1.00  0.00     0.031 C 
ATOM     52  C   UNL A   1      39.778  26.683  28.163  1.00  0.00     0.029 A 
ATOM     53  C   UNL A   1      40.639  27.669  28.781  1.00  0.00     0.049 A 
ATOM     54  H   UNL A   1      42.682  27.483  29.157  1.00  0.00     0.167 HD
ATOM     55  C   UNL A   1      46.901  27.195  29.426  1.00  0.00     0.037 A 
ATOM     56  C   UNL A   1      40.209  28.879  29.191  1.00  0.00     0.037 A 
ATOM     57  C   UNL A   1      46.577  28.495  29.960  1.00  0.00     0.049 A 
ATOM     58  C   UNL A   1      41.193  29.814  29.809  1.00  0.00     0.074 A 
ATOM     59  C   UNL A   1      47.442  29.448  30.473  1.00  0.00     0.029 A 
ATOM     60  N   UNL A   1      45.301  29.032  30.050  1.00  0.00    -0.354 N 
ATOM     61  N   UNL A   1      42.489  29.669  29.918  1.00  0.00    -0.248 NA
ATOM     62  C   UNL A   1      40.670  31.067  30.368  1.00  0.00     0.031 C 
ATOM     63  C   UNL A   1      46.686  30.535  30.926  1.00  0.00     0.029 A 
ATOM     64  C   UNL A   1      45.354  30.287  30.643  1.00  0.00     0.049 A 
ATOM     65  H   UNL A   1      44.479  28.589  29.739  1.00  0.00     0.167 HD
ATOM     66  C   UNL A   1      42.942  30.818  30.543  1.00  0.00     0.074 A 
ATOM     67  C   UNL A   1      41.786  31.661  30.769  1.00  0.00     0.031 C 
ATOM     68  C   UNL A   1      44.212  31.130  30.893  1.00  0.00     0.037 A 
BRANCH  55  69
ATOM     69  C   UNL A   1      48.332  26.758  29.442  1.00  0.00     0.057 A 
ATOM     70  C   UNL A   1      48.895  26.059  30.515  1.00  0.00     0.134 A 
ATOM     71  C   UNL A   1      49.161  27.062  28.353  1.00  0.00     0.134 A 
ATOM     72  F   UNL A   1      48.160  25.769  31.600  1.00  0.00    -0.206 F 
ATOM     73  C   UNL A   1      50.242  25.693  30.513  1.00  0.00     0.040 A 
ATOM     74  C   UNL A   1      50.500  26.677  28.329  1.00  0.00     0.040 A 
ATOM     75  F   UNL A   1      48.679  27.737  27.299  1.00  0.00    -0.206 F 
ATOM     76  C   UNL A   1      51.045  25.997  29.414  1.00  0.00     0.006 A 
ENDBRANCH  55  69
BRANCH  56  77
ATOM     77  C   UNL A   1      38.770  29.255  29.080  1.00  0.00     0.057 A 
ATOM     78  C   UNL A   1      38.223  29.725  27.881  1.00  0.00     0.134 A 
ATOM     79  C   UNL A   1      37.912  29.170  30.186  1.00  0.00     0.134 A 
ATOM     80  F   UNL A   1      38.995  29.856  26.793  1.00  0.00    -0.206 F 
ATOM     81  C   UNL A   1      36.880  30.104  27.787  1.00  0.00     0.040 A 
ATOM     82  C   UNL A   1      36.563  29.517  30.100  1.00  0.00     0.040 A 
ATOM     83  F   UNL A   1      38.373  28.735  31.368  1.00  0.00    -0.206 F 
ATOM     84  C   UNL A   1      36.045  29.994  28.898  1.00  0.00     0.006 A 
ENDBRANCH  56  77
BRANCH  68  85
ATOM     85  C   UNL A   1      44.420  32.462  31.547  1.00  0.00     0.057 A 
ATOM     86  C   UNL A   1      44.387  32.616  32.939  1.00  0.00     0.134 A 
ATOM     87  C   UNL A   1      44.648  33.608  30.774  1.00  0.00     0.134 A 
ATOM     88  F   UNL A   1      44.150  31.561  33.734  1.00  0.00    -0.206 F 
ATOM     89  C   UNL A   1      44.544  33.866  33.539  1.00  0.00     0.040 A 
ATOM     90  C   UNL A   1      44.834  34.859  31.363  1.00  0.00     0.040 A 
ATOM     91  F   UNL A   1      44.691  33.529  29.436  1.00  0.00    -0.206 F 
ATOM     92  C   UNL A   1      44.774  34.991  32.749  1.00  0.00     0.006 A 
ENDBRANCH  68  85
ENDBRANCH  42  43
ENDBRANCH  35  37
ENDBRANCH  34  35
ENDBRANCH  33  34
ENDBRANCH  32  33
ENDBRANCH  31  32
ENDBRANCH  30  31
ENDBRANCH   1  30
TORSDOF 21
ENDMDL
