MODEL 1
REMARK VINA RESULT:     -12.1      0.000      0.000
REMARK SMILES Cc1ccc(S(=O)(=O)n2cc(C(=O)C(=O)NCC(=O)OCCOCCOCCOC(=O)c3ccc(-c4c5nc(c(-c6c(F)cccc6F)c6ccc([nH]6)c(-c6c(F)cccc6F)c6nc(c(-c7c(F)cccc7F)c7ccc4[nH]7)C=C6)C=C5)cc3)c3ccccc32)cc1
REMARK SMILES IDX 23 1 22 2 21 3 20 4 18 5 19 6 17 7 16 8 14 9 15 10 12 12
REMARK SMILES IDX 13 13 11 14 9 15 10 16 91 17 86 18 90 19 87 20 89 21 88 22
REMARK SMILES IDX 6 23 7 24 8 25 5 26 1 27 2 28 3 29 93 30 4 31 92 32 24 33
REMARK SMILES IDX 25 34 26 35 27 36 28 37 29 38 30 39 31 40 32 41 33 42 85 43
REMARK SMILES IDX 34 44 84 45 35 46 36 47 37 48 78 49 38 50 83 51 77 52 79 53
REMARK SMILES IDX 39 54 82 55 76 56 75 57 40 59 66 60 49 61 65 62 50 63 53 64
REMARK SMILES IDX 64 65 80 66 51 67 52 68 63 70 81 71 54 72 41 73 42 74 47 75
REMARK SMILES IDX 43 76 44 77 46 78 48 79 45 80 67 81 68 82 73 83 69 84 70 85
REMARK SMILES IDX 72 86 74 87 71 88 55 89 56 90 61 91 57 92 58 93 60 94 62 95
REMARK SMILES IDX 59 96
REMARK H PARENT 16 11 79 58 53 69
REMARK Flexibility Score: inf
ROOT
ATOM      1  O   UNL A   1      35.064  34.614  28.068  1.00  0.00    -0.376 OA
ENDROOT
BRANCH   1   2
ATOM      2  C   UNL A   1      35.551  33.605  28.958  1.00  0.00     0.202 C 
BRANCH   2   3
ATOM      3  C   UNL A   1      34.723  32.152  29.341  1.00  0.00     0.261 C 
BRANCH   3   4
ATOM      4  O   UNL A   1      34.612  30.887  28.370  1.00  0.00    -0.462 OA
BRANCH   4   5
ATOM      5  C   UNL A   1      35.277  29.998  27.557  1.00  0.00     0.325 C 
ATOM      6  O   UNL A   1      36.431  30.136  27.159  1.00  0.00    -0.250 OA
BRANCH   5   7
ATOM      7  C   UNL A   1      34.439  28.776  27.049  1.00  0.00     0.239 C 
BRANCH   7   8
ATOM      8  N   UNL A   1      33.241  28.627  27.831  1.00  0.00    -0.338 N 
ATOM      9  C   UNL A   1      32.017  28.302  27.314  1.00  0.00     0.292 C 
ATOM     10  O   UNL A   1      31.030  28.229  28.034  1.00  0.00    -0.265 OA
ATOM     11  H   UNL A   1      33.305  28.767  28.803  1.00  0.00     0.164 HD
BRANCH   9  12
ATOM     12  C   UNL A   1      31.911  28.081  25.791  1.00  0.00     0.252 C 
ATOM     13  O   UNL A   1      31.962  29.065  25.059  1.00  0.00    -0.283 OA
BRANCH  12  14
ATOM     14  C   UNL A   1      31.825  26.719  25.285  1.00  0.00     0.054 A 
ATOM     15  N   UNL A   1      31.800  24.503  25.340  1.00  0.00    -0.240 N 
ATOM     16  C   UNL A   1      31.492  25.625  26.056  1.00  0.00     0.117 A 
ATOM     17  C   UNL A   1      32.165  24.821  24.049  1.00  0.00     0.065 A 
ATOM     18  C   UNL A   1      32.132  26.223  23.973  1.00  0.00     0.012 A 
ATOM     19  C   UNL A   1      32.589  24.035  22.963  1.00  0.00     0.028 A 
ATOM     20  C   UNL A   1      32.461  26.841  22.748  1.00  0.00     0.011 A 
ATOM     21  C   UNL A   1      32.939  24.678  21.774  1.00  0.00     0.002 A 
ATOM     22  C   UNL A   1      32.857  26.061  21.658  1.00  0.00     0.001 A 
BRANCH  15  23
ATOM     23  S   UNL A   1      32.150  23.033  26.128  1.00  0.00     0.268 S 
ATOM     24  O   UNL A   1      31.522  21.995  25.334  1.00  0.00    -0.201 OA
ATOM     25  O   UNL A   1      31.800  23.246  27.521  1.00  0.00    -0.201 OA
BRANCH  23  26
ATOM     26  C   UNL A   1      33.911  22.819  26.037  1.00  0.00     0.088 A 
ATOM     27  C   UNL A   1      38.088  22.065  25.365  1.00  0.00     0.044 C 
ATOM     28  C   UNL A   1      36.641  22.332  25.654  1.00  0.00    -0.051 A 
ATOM     29  C   UNL A   1      35.739  21.266  25.758  1.00  0.00     0.005 A 
ATOM     30  C   UNL A   1      36.171  23.641  25.803  1.00  0.00     0.005 A 
ATOM     31  C   UNL A   1      34.377  21.506  25.947  1.00  0.00     0.022 A 
ATOM     32  C   UNL A   1      34.812  23.887  26.003  1.00  0.00     0.022 A 
ENDBRANCH  23  26
ENDBRANCH  15  23
ENDBRANCH  12  14
ENDBRANCH   9  12
ENDBRANCH   7   8
ENDBRANCH   5   7
ENDBRANCH   4   5
ENDBRANCH   3   4
ENDBRANCH   2   3
ENDBRANCH   1   2
BRANCH   1  33
ATOM     33  C   UNL A   1      34.184  35.709  28.381  1.00  0.00     0.188 C 
BRANCH  33  34
ATOM     34  C   UNL A   1      33.202  35.677  29.553  1.00  0.00     0.188 C 
BRANCH  34  35
ATOM     35  O   UNL A   1      32.961  36.983  30.040  1.00  0.00    -0.376 OA
BRANCH  35  36
ATOM     36  C   UNL A   1      33.198  37.151  31.432  1.00  0.00     0.202 C 
BRANCH  36  37
ATOM     37  C   UNL A   1      32.628  36.014  32.313  1.00  0.00     0.261 C 
BRANCH  37  38
ATOM     38  O   UNL A   1      33.625  35.523  33.242  1.00  0.00    -0.460 OA
BRANCH  38  39
ATOM     39  C   UNL A   1      34.016  34.199  33.138  1.00  0.00     0.338 C 
ATOM     40  O   UNL A   1      33.284  33.255  33.163  1.00  0.00    -0.246 OA
BRANCH  39  41
ATOM     41  C   UNL A   1      35.526  34.122  33.266  1.00  0.00     0.060 A 
ATOM     42  C   UNL A   1      36.470  34.812  32.490  1.00  0.00     0.016 A 
ATOM     43  C   UNL A   1      35.993  33.009  33.866  1.00  0.00     0.016 A 
ATOM     44  C   UNL A   1      37.811  34.268  32.224  1.00  0.00     0.010 A 
ATOM     45  C   UNL A   1      37.100  32.435  33.241  1.00  0.00     0.010 A 
ATOM     46  C   UNL A   1      38.179  32.958  32.543  1.00  0.00    -0.014 A 
BRANCH  46  47
ATOM     47  C   UNL A   1      39.359  32.074  31.930  1.00  0.00     0.031 A 
ATOM     48  C   UNL A   1      39.469  30.842  30.906  1.00  0.00     0.074 A 
ATOM     49  C   UNL A   1      40.598  32.438  32.336  1.00  0.00     0.049 A 
ATOM     50  N   UNL A   1      40.161  29.732  31.121  1.00  0.00    -0.248 NA
ATOM     51  C   UNL A   1      38.962  30.761  29.533  1.00  0.00     0.031 C 
ATOM     52  C   UNL A   1      41.896  31.940  31.882  1.00  0.00     0.029 A 
ATOM     53  N   UNL A   1      40.916  33.277  33.408  1.00  0.00    -0.354 N 
ATOM     54  C   UNL A   1      40.171  28.950  29.947  1.00  0.00     0.074 A 
ATOM     55  C   UNL A   1      39.285  29.572  29.046  1.00  0.00     0.031 C 
ATOM     56  C   UNL A   1      42.800  32.191  32.842  1.00  0.00     0.029 A 
ATOM     57  C   UNL A   1      42.093  32.772  33.971  1.00  0.00     0.049 A 
ATOM     58  H   UNL A   1      40.410  34.067  33.709  1.00  0.00     0.167 HD
ATOM     59  C   UNL A   1      41.008  27.931  29.601  1.00  0.00     0.037 A 
ATOM     60  C   UNL A   1      42.103  32.335  35.259  1.00  0.00     0.037 A 
ATOM     61  C   UNL A   1      42.129  27.884  30.480  1.00  0.00     0.049 A 
ATOM     62  C   UNL A   1      42.485  30.880  35.378  1.00  0.00     0.074 A 
ATOM     63  C   UNL A   1      43.368  28.492  30.412  1.00  0.00     0.029 A 
ATOM     64  N   UNL A   1      41.920  27.509  31.789  1.00  0.00    -0.354 N 
ATOM     65  N   UNL A   1      42.549  30.055  34.368  1.00  0.00    -0.248 NA
ATOM     66  C   UNL A   1      42.806  30.229  36.644  1.00  0.00     0.031 C 
ATOM     67  C   UNL A   1      43.840  28.623  31.739  1.00  0.00     0.029 A 
ATOM     68  C   UNL A   1      42.937  27.996  32.579  1.00  0.00     0.049 A 
ATOM     69  H   UNL A   1      41.158  26.974  32.111  1.00  0.00     0.167 HD
ATOM     70  C   UNL A   1      42.855  28.802  34.822  1.00  0.00     0.074 A 
ATOM     71  C   UNL A   1      43.029  28.965  36.250  1.00  0.00     0.031 C 
ATOM     72  C   UNL A   1      42.924  27.721  33.997  1.00  0.00     0.037 A 
BRANCH  59  73
ATOM     73  C   UNL A   1      40.894  27.261  28.242  1.00  0.00     0.057 A 
ATOM     74  C   UNL A   1      40.131  26.106  28.006  1.00  0.00     0.134 A 
ATOM     75  C   UNL A   1      41.663  27.702  27.143  1.00  0.00     0.134 A 
ATOM     76  F   UNL A   1      39.322  25.605  28.951  1.00  0.00    -0.206 F 
ATOM     77  C   UNL A   1      40.209  25.382  26.803  1.00  0.00     0.040 A 
ATOM     78  C   UNL A   1      41.774  26.973  25.947  1.00  0.00     0.040 A 
ATOM     79  F   UNL A   1      42.386  28.828  27.236  1.00  0.00    -0.206 F 
ATOM     80  C   UNL A   1      41.059  25.794  25.780  1.00  0.00     0.006 A 
ENDBRANCH  59  73
BRANCH  60  81
ATOM     81  C   UNL A   1      41.198  33.102  36.170  1.00  0.00     0.057 A 
ATOM     82  C   UNL A   1      39.906  32.589  36.417  1.00  0.00     0.134 A 
ATOM     83  C   UNL A   1      41.630  34.124  37.020  1.00  0.00     0.134 A 
ATOM     84  F   UNL A   1      39.417  31.600  35.650  1.00  0.00    -0.206 F 
ATOM     85  C   UNL A   1      39.131  32.990  37.508  1.00  0.00     0.040 A 
ATOM     86  C   UNL A   1      40.851  34.551  38.111  1.00  0.00     0.040 A 
ATOM     87  F   UNL A   1      42.865  34.633  36.906  1.00  0.00    -0.206 F 
ATOM     88  C   UNL A   1      39.610  33.965  38.371  1.00  0.00     0.006 A 
ENDBRANCH  60  81
BRANCH  72  89
ATOM     89  C   UNL A   1      43.017  26.285  34.426  1.00  0.00     0.057 A 
ATOM     90  C   UNL A   1      42.000  25.617  35.116  1.00  0.00     0.134 A 
ATOM     91  C   UNL A   1      44.083  25.475  33.970  1.00  0.00     0.134 A 
ATOM     92  F   UNL A   1      40.890  26.255  35.512  1.00  0.00    -0.206 F 
ATOM     93  C   UNL A   1      42.058  24.243  35.375  1.00  0.00     0.040 A 
ATOM     94  C   UNL A   1      44.123  24.097  34.173  1.00  0.00     0.040 A 
ATOM     95  F   UNL A   1      45.111  25.990  33.277  1.00  0.00    -0.206 F 
ATOM     96  C   UNL A   1      43.114  23.476  34.891  1.00  0.00     0.006 A 
ENDBRANCH  72  89
ENDBRANCH  46  47
ENDBRANCH  39  41
ENDBRANCH  38  39
ENDBRANCH  37  38
ENDBRANCH  36  37
ENDBRANCH  35  36
ENDBRANCH  34  35
ENDBRANCH  33  34
ENDBRANCH   1  33
TORSDOF 22
ENDMDL
MODEL 2
REMARK VINA RESULT:     -11.6      1.829      3.106
REMARK SMILES Cc1ccc(S(=O)(=O)n2cc(C(=O)C(=O)NCC(=O)OCCOCCOCCOC(=O)c3ccc(-c4c5nc(c(-c6c(F)cccc6F)c6ccc([nH]6)c(-c6c(F)cccc6F)c6nc(c(-c7c(F)cccc7F)c7ccc4[nH]7)C=C6)C=C5)cc3)c3ccccc32)cc1
REMARK SMILES IDX 23 1 22 2 21 3 20 4 18 5 19 6 17 7 16 8 14 9 15 10 12 12
REMARK SMILES IDX 13 13 11 14 9 15 10 16 91 17 86 18 90 19 87 20 89 21 88 22
REMARK SMILES IDX 6 23 7 24 8 25 5 26 1 27 2 28 3 29 93 30 4 31 92 32 24 33
REMARK SMILES IDX 25 34 26 35 27 36 28 37 29 38 30 39 31 40 32 41 33 42 85 43
REMARK SMILES IDX 34 44 84 45 35 46 36 47 37 48 78 49 38 50 83 51 77 52 79 53
REMARK SMILES IDX 39 54 82 55 76 56 75 57 40 59 66 60 49 61 65 62 50 63 53 64
REMARK SMILES IDX 64 65 80 66 51 67 52 68 63 70 81 71 54 72 41 73 42 74 47 75
REMARK SMILES IDX 43 76 44 77 46 78 48 79 45 80 67 81 68 82 73 83 69 84 70 85
REMARK SMILES IDX 72 86 74 87 71 88 55 89 56 90 61 91 57 92 58 93 60 94 62 95
REMARK SMILES IDX 59 96
REMARK H PARENT 16 11 79 58 53 69
REMARK Flexibility Score: inf
ROOT
ATOM      1  O   UNL A   1      33.804  30.634  27.176  1.00  0.00    -0.376 OA
ENDROOT
BRANCH   1   2
ATOM      2  C   UNL A   1      32.398  30.391  27.061  1.00  0.00     0.202 C 
BRANCH   2   3
ATOM      3  C   UNL A   1      31.488  30.570  25.618  1.00  0.00     0.261 C 
BRANCH   3   4
ATOM      4  O   UNL A   1      31.047  29.364  24.667  1.00  0.00    -0.462 OA
BRANCH   4   5
ATOM      5  C   UNL A   1      31.343  28.606  23.557  1.00  0.00     0.325 C 
ATOM      6  O   UNL A   1      30.592  28.436  22.600  1.00  0.00    -0.250 OA
BRANCH   5   7
ATOM      7  C   UNL A   1      32.712  27.845  23.593  1.00  0.00     0.239 C 
BRANCH   7   8
ATOM      8  N   UNL A   1      33.058  27.367  22.281  1.00  0.00    -0.338 N 
ATOM      9  C   UNL A   1      32.928  26.068  21.874  1.00  0.00     0.292 C 
ATOM     10  O   UNL A   1      33.278  25.724  20.753  1.00  0.00    -0.265 OA
ATOM     11  H   UNL A   1      33.411  28.019  21.633  1.00  0.00     0.164 HD
BRANCH   9  12
ATOM     12  C   UNL A   1      32.374  25.044  22.886  1.00  0.00     0.252 C 
ATOM     13  O   UNL A   1      31.186  24.745  22.813  1.00  0.00    -0.283 OA
BRANCH  12  14
ATOM     14  C   UNL A   1      33.292  24.429  23.833  1.00  0.00     0.054 A 
ATOM     15  N   UNL A   1      35.057  23.291  24.543  1.00  0.00    -0.240 N 
ATOM     16  C   UNL A   1      34.602  24.108  23.547  1.00  0.00     0.117 A 
ATOM     17  C   UNL A   1      34.142  23.204  25.572  1.00  0.00     0.065 A 
ATOM     18  C   UNL A   1      33.034  23.968  25.168  1.00  0.00     0.012 A 
ATOM     19  C   UNL A   1      34.138  22.481  26.778  1.00  0.00     0.028 A 
ATOM     20  C   UNL A   1      31.928  24.065  26.038  1.00  0.00     0.011 A 
ATOM     21  C   UNL A   1      33.015  22.572  27.603  1.00  0.00     0.002 A 
ATOM     22  C   UNL A   1      31.932  23.368  27.251  1.00  0.00     0.001 A 
BRANCH  15  23
ATOM     23  S   UNL A   1      36.327  22.191  24.260  1.00  0.00     0.268 S 
ATOM     24  O   UNL A   1      36.839  22.503  22.940  1.00  0.00    -0.201 OA
ATOM     25  O   UNL A   1      35.786  20.882  24.579  1.00  0.00    -0.201 OA
BRANCH  23  26
ATOM     26  C   UNL A   1      37.590  22.563  25.452  1.00  0.00     0.088 A 
ATOM     27  C   UNL A   1      40.985  23.395  27.953  1.00  0.00     0.044 C 
ATOM     28  C   UNL A   1      39.771  23.091  27.126  1.00  0.00    -0.051 A 
ATOM     29  C   UNL A   1      39.644  21.844  26.501  1.00  0.00     0.005 A 
ATOM     30  C   UNL A   1      38.766  24.048  26.953  1.00  0.00     0.005 A 
ATOM     31  C   UNL A   1      38.558  21.578  25.665  1.00  0.00     0.022 A 
ATOM     32  C   UNL A   1      37.673  23.784  26.126  1.00  0.00     0.022 A 
ENDBRANCH  23  26
ENDBRANCH  15  23
ENDBRANCH  12  14
ENDBRANCH   9  12
ENDBRANCH   7   8
ENDBRANCH   5   7
ENDBRANCH   4   5
ENDBRANCH   3   4
ENDBRANCH   2   3
ENDBRANCH   1   2
BRANCH   1  33
ATOM     33  C   UNL A   1      34.452  31.838  27.626  1.00  0.00     0.188 C 
BRANCH  33  34
ATOM     34  C   UNL A   1      34.200  32.453  29.003  1.00  0.00     0.188 C 
BRANCH  34  35
ATOM     35  O   UNL A   1      33.251  33.499  28.917  1.00  0.00    -0.376 OA
BRANCH  35  36
ATOM     36  C   UNL A   1      33.808  34.808  28.927  1.00  0.00     0.202 C 
BRANCH  36  37
ATOM     37  C   UNL A   1      33.335  35.687  30.110  1.00  0.00     0.261 C 
BRANCH  37  38
ATOM     38  O   UNL A   1      33.003  34.876  31.264  1.00  0.00    -0.460 OA
BRANCH  38  39
ATOM     39  C   UNL A   1      33.390  35.330  32.512  1.00  0.00     0.338 C 
ATOM     40  O   UNL A   1      33.025  36.345  33.026  1.00  0.00    -0.246 OA
BRANCH  39  41
ATOM     41  C   UNL A   1      34.552  34.487  33.002  1.00  0.00     0.060 A 
ATOM     42  C   UNL A   1      35.737  34.954  33.593  1.00  0.00     0.016 A 
ATOM     43  C   UNL A   1      34.641  33.260  32.453  1.00  0.00     0.016 A 
ATOM     44  C   UNL A   1      37.011  34.227  33.471  1.00  0.00     0.010 A 
ATOM     45  C   UNL A   1      35.932  32.883  32.082  1.00  0.00     0.010 A 
ATOM     46  C   UNL A   1      37.190  33.144  32.606  1.00  0.00    -0.014 A 
BRANCH  46  47
ATOM     47  C   UNL A   1      38.548  32.562  32.000  1.00  0.00     0.031 A 
ATOM     48  C   UNL A   1      38.946  31.462  30.902  1.00  0.00     0.074 A 
ATOM     49  C   UNL A   1      39.670  33.133  32.498  1.00  0.00     0.049 A 
ATOM     50  N   UNL A   1      39.839  30.498  31.077  1.00  0.00    -0.248 NA
ATOM     51  C   UNL A   1      38.522  31.389  29.501  1.00  0.00     0.031 C 
ATOM     52  C   UNL A   1      41.060  32.939  32.083  1.00  0.00     0.029 A 
ATOM     53  N   UNL A   1      39.769  33.931  33.642  1.00  0.00    -0.354 N 
ATOM     54  C   UNL A   1      40.054  29.828  29.854  1.00  0.00     0.074 A 
ATOM     55  C   UNL A   1      39.097  30.330  28.952  1.00  0.00     0.031 C 
ATOM     56  C   UNL A   1      41.854  33.289  33.107  1.00  0.00     0.029 A 
ATOM     57  C   UNL A   1      41.000  33.628  34.232  1.00  0.00     0.049 A 
ATOM     58  H   UNL A   1      39.102  34.579  33.967  1.00  0.00     0.167 HD
ATOM     59  C   UNL A   1      41.093  29.026  29.486  1.00  0.00     0.037 A 
ATOM     60  C   UNL A   1      41.046  33.102  35.486  1.00  0.00     0.037 A 
ATOM     61  C   UNL A   1      42.165  29.133  30.421  1.00  0.00     0.049 A 
ATOM     62  C   UNL A   1      41.710  31.747  35.525  1.00  0.00     0.074 A 
ATOM     63  C   UNL A   1      43.256  29.979  30.463  1.00  0.00     0.029 A 
ATOM     64  N   UNL A   1      41.982  28.623  31.687  1.00  0.00    -0.354 N 
ATOM     65  N   UNL A   1      41.979  31.033  34.466  1.00  0.00    -0.248 NA
ATOM     66  C   UNL A   1      42.104  31.075  36.760  1.00  0.00     0.031 C 
ATOM     67  C   UNL A   1      43.638  30.096  31.820  1.00  0.00     0.029 A 
ATOM     68  C   UNL A   1      42.847  29.239  32.564  1.00  0.00     0.049 A 
ATOM     69  H   UNL A   1      41.332  27.923  31.929  1.00  0.00     0.167 HD
ATOM     70  C   UNL A   1      42.514  29.833  34.849  1.00  0.00     0.074 A 
ATOM     71  C   UNL A   1      42.594  29.915  36.292  1.00  0.00     0.031 C 
ATOM     72  C   UNL A   1      42.833  28.856  33.957  1.00  0.00     0.037 A 
BRANCH  59  73
ATOM     73  C   UNL A   1      41.172  28.455  28.080  1.00  0.00     0.057 A 
ATOM     74  C   UNL A   1      40.532  27.270  27.685  1.00  0.00     0.134 A 
ATOM     75  C   UNL A   1      42.010  29.034  27.103  1.00  0.00     0.134 A 
ATOM     76  F   UNL A   1      39.674  26.641  28.501  1.00  0.00    -0.206 F 
ATOM     77  C   UNL A   1      40.790  26.648  26.450  1.00  0.00     0.040 A 
ATOM     78  C   UNL A   1      42.300  28.408  25.878  1.00  0.00     0.040 A 
ATOM     79  F   UNL A   1      42.628  30.199  27.349  1.00  0.00    -0.206 F 
ATOM     80  C   UNL A   1      41.703  27.197  25.555  1.00  0.00     0.006 A 
ENDBRANCH  59  73
BRANCH  60  81
ATOM     81  C   UNL A   1      39.969  33.600  36.397  1.00  0.00     0.057 A 
ATOM     82  C   UNL A   1      38.798  32.822  36.535  1.00  0.00     0.134 A 
ATOM     83  C   UNL A   1      40.151  34.616  37.338  1.00  0.00     0.134 A 
ATOM     84  F   UNL A   1      38.551  31.819  35.675  1.00  0.00    -0.206 F 
ATOM     85  C   UNL A   1      37.914  32.974  37.607  1.00  0.00     0.040 A 
ATOM     86  C   UNL A   1      39.258  34.793  38.410  1.00  0.00     0.040 A 
ATOM     87  F   UNL A   1      41.261  35.368  37.327  1.00  0.00    -0.206 F 
ATOM     88  C   UNL A   1      38.152  33.954  38.560  1.00  0.00     0.006 A 
ENDBRANCH  60  81
BRANCH  72  89
ATOM     89  C   UNL A   1      43.198  27.438  34.290  1.00  0.00     0.057 A 
ATOM     90  C   UNL A   1      42.277  26.491  34.751  1.00  0.00     0.134 A 
ATOM     91  C   UNL A   1      44.478  26.937  33.960  1.00  0.00     0.134 A 
ATOM     92  F   UNL A   1      41.003  26.823  35.003  1.00  0.00    -0.206 F 
ATOM     93  C   UNL A   1      42.617  25.144  34.916  1.00  0.00     0.040 A 
ATOM     94  C   UNL A   1      44.811  25.588  34.067  1.00  0.00     0.040 A 
ATOM     95  F   UNL A   1      45.446  27.738  33.486  1.00  0.00    -0.206 F 
ATOM     96  C   UNL A   1      43.882  24.686  34.561  1.00  0.00     0.006 A 
ENDBRANCH  72  89
ENDBRANCH  46  47
ENDBRANCH  39  41
ENDBRANCH  38  39
ENDBRANCH  37  38
ENDBRANCH  36  37
ENDBRANCH  35  36
ENDBRANCH  34  35
ENDBRANCH  33  34
ENDBRANCH   1  33
TORSDOF 22
ENDMDL
MODEL 3
REMARK VINA RESULT:     -11.5      2.895      4.863
REMARK SMILES Cc1ccc(S(=O)(=O)n2cc(C(=O)C(=O)NCC(=O)OCCOCCOCCOC(=O)c3ccc(-c4c5nc(c(-c6c(F)cccc6F)c6ccc([nH]6)c(-c6c(F)cccc6F)c6nc(c(-c7c(F)cccc7F)c7ccc4[nH]7)C=C6)C=C5)cc3)c3ccccc32)cc1
REMARK SMILES IDX 23 1 22 2 21 3 20 4 18 5 19 6 17 7 16 8 14 9 15 10 12 12
REMARK SMILES IDX 13 13 11 14 9 15 10 16 91 17 86 18 90 19 87 20 89 21 88 22
REMARK SMILES IDX 6 23 7 24 8 25 5 26 1 27 2 28 3 29 93 30 4 31 92 32 24 33
REMARK SMILES IDX 25 34 26 35 27 36 28 37 29 38 30 39 31 40 32 41 33 42 85 43
REMARK SMILES IDX 34 44 84 45 35 46 36 47 37 48 78 49 38 50 83 51 77 52 79 53
REMARK SMILES IDX 39 54 82 55 76 56 75 57 40 59 66 60 49 61 65 62 50 63 53 64
REMARK SMILES IDX 64 65 80 66 51 67 52 68 63 70 81 71 54 72 41 73 42 74 47 75
REMARK SMILES IDX 43 76 44 77 46 78 48 79 45 80 67 81 68 82 73 83 69 84 70 85
REMARK SMILES IDX 72 86 74 87 71 88 55 89 56 90 61 91 57 92 58 93 60 94 62 95
REMARK SMILES IDX 59 96
REMARK H PARENT 16 11 79 58 53 69
REMARK Flexibility Score: inf
ROOT
ATOM      1  O   UNL A   1      29.896  32.666  24.327  1.00  0.00    -0.376 OA
ENDROOT
BRANCH   1   2
ATOM      2  C   UNL A   1      29.042  32.473  23.195  1.00  0.00     0.202 C 
BRANCH   2   3
ATOM      3  C   UNL A   1      28.871  30.999  22.336  1.00  0.00     0.261 C 
BRANCH   3   4
ATOM      4  O   UNL A   1      30.051  29.948  22.091  1.00  0.00    -0.462 OA
BRANCH   4   5
ATOM      5  C   UNL A   1      30.636  28.764  22.478  1.00  0.00     0.325 C 
ATOM      6  O   UNL A   1      30.366  27.660  22.011  1.00  0.00    -0.250 OA
BRANCH   5   7
ATOM      7  C   UNL A   1      31.651  28.859  23.668  1.00  0.00     0.239 C 
BRANCH   7   8
ATOM      8  N   UNL A   1      31.028  28.441  24.896  1.00  0.00    -0.338 N 
ATOM      9  C   UNL A   1      31.597  27.583  25.796  1.00  0.00     0.292 C 
ATOM     10  O   UNL A   1      30.993  27.241  26.804  1.00  0.00    -0.265 OA
ATOM     11  H   UNL A   1      30.134  28.797  25.102  1.00  0.00     0.164 HD
BRANCH   9  12
ATOM     12  C   UNL A   1      32.999  27.024  25.477  1.00  0.00     0.252 C 
ATOM     13  O   UNL A   1      33.954  27.792  25.538  1.00  0.00    -0.283 OA
BRANCH  12  14
ATOM     14  C   UNL A   1      33.138  25.604  25.187  1.00  0.00     0.054 A 
ATOM     15  N   UNL A   1      33.784  23.503  25.467  1.00  0.00    -0.240 N 
ATOM     16  C   UNL A   1      33.443  24.647  26.131  1.00  0.00     0.117 A 
ATOM     17  C   UNL A   1      33.544  23.623  24.114  1.00  0.00     0.065 A 
ATOM     18  C   UNL A   1      33.078  24.933  23.920  1.00  0.00     0.012 A 
ATOM     19  C   UNL A   1      33.756  22.748  23.033  1.00  0.00     0.028 A 
ATOM     20  C   UNL A   1      32.743  25.344  22.612  1.00  0.00     0.011 A 
ATOM     21  C   UNL A   1      33.445  23.195  21.747  1.00  0.00     0.002 A 
ATOM     22  C   UNL A   1      32.926  24.468  21.538  1.00  0.00     0.001 A 
BRANCH  15  23
ATOM     23  S   UNL A   1      34.809  22.348  26.186  1.00  0.00     0.268 S 
ATOM     24  O   UNL A   1      34.487  22.353  27.600  1.00  0.00    -0.201 OA
ATOM     25  O   UNL A   1      36.143  22.659  25.706  1.00  0.00    -0.201 OA
BRANCH  23  26
ATOM     26  C   UNL A   1      34.343  20.772  25.512  1.00  0.00     0.088 A 
ATOM     27  C   UNL A   1      32.947  17.224  23.529  1.00  0.00     0.044 C 
ATOM     28  C   UNL A   1      33.442  18.432  24.268  1.00  0.00    -0.051 A 
ATOM     29  C   UNL A   1      32.529  19.325  24.842  1.00  0.00     0.005 A 
ATOM     30  C   UNL A   1      34.812  18.692  24.374  1.00  0.00     0.005 A 
ATOM     31  C   UNL A   1      32.975  20.493  25.462  1.00  0.00     0.022 A 
ATOM     32  C   UNL A   1      35.265  19.854  25.002  1.00  0.00     0.022 A 
ENDBRANCH  23  26
ENDBRANCH  15  23
ENDBRANCH  12  14
ENDBRANCH   9  12
ENDBRANCH   7   8
ENDBRANCH   5   7
ENDBRANCH   4   5
ENDBRANCH   3   4
ENDBRANCH   2   3
ENDBRANCH   1   2
BRANCH   1  33
ATOM     33  C   UNL A   1      30.281  31.688  25.311  1.00  0.00     0.188 C 
BRANCH  33  34
ATOM     34  C   UNL A   1      31.332  31.962  26.386  1.00  0.00     0.188 C 
BRANCH  34  35
ATOM     35  O   UNL A   1      31.779  30.753  26.969  1.00  0.00    -0.376 OA
BRANCH  35  36
ATOM     36  C   UNL A   1      33.183  30.682  27.187  1.00  0.00     0.202 C 
BRANCH  36  37
ATOM     37  C   UNL A   1      33.807  31.992  27.725  1.00  0.00     0.261 C 
BRANCH  37  38
ATOM     38  O   UNL A   1      35.214  31.816  28.023  1.00  0.00    -0.460 OA
BRANCH  38  39
ATOM     39  C   UNL A   1      35.562  31.387  29.292  1.00  0.00     0.338 C 
ATOM     40  O   UNL A   1      35.501  32.044  30.288  1.00  0.00    -0.246 OA
BRANCH  39  41
ATOM     41  C   UNL A   1      36.287  30.059  29.180  1.00  0.00     0.060 A 
ATOM     42  C   UNL A   1      36.868  29.329  30.229  1.00  0.00     0.016 A 
ATOM     43  C   UNL A   1      36.777  29.776  27.957  1.00  0.00     0.016 A 
ATOM     44  C   UNL A   1      38.030  28.451  30.022  1.00  0.00     0.010 A 
ATOM     45  C   UNL A   1      38.069  29.249  27.958  1.00  0.00     0.010 A 
ATOM     46  C   UNL A   1      38.764  28.426  28.832  1.00  0.00    -0.014 A 
BRANCH  46  47
ATOM     47  C   UNL A   1      40.263  27.932  28.592  1.00  0.00     0.031 A 
ATOM     48  C   UNL A   1      40.966  26.655  27.921  1.00  0.00     0.074 A 
ATOM     49  C   UNL A   1      41.211  28.792  29.034  1.00  0.00     0.049 A 
ATOM     50  N   UNL A   1      41.929  25.934  28.478  1.00  0.00    -0.248 NA
ATOM     51  C   UNL A   1      40.787  26.136  26.562  1.00  0.00     0.031 C 
ATOM     52  C   UNL A   1      42.662  28.722  28.865  1.00  0.00     0.029 A 
ATOM     53  N   UNL A   1      41.024  29.876  29.896  1.00  0.00    -0.354 N 
ATOM     54  C   UNL A   1      42.420  25.001  27.540  1.00  0.00     0.074 A 
ATOM     55  C   UNL A   1      41.569  25.076  26.421  1.00  0.00     0.031 C 
ATOM     56  C   UNL A   1      43.231  29.462  29.830  1.00  0.00     0.029 A 
ATOM     57  C   UNL A   1      42.170  29.949  30.694  1.00  0.00     0.049 A 
ATOM     58  H   UNL A   1      40.239  30.470  29.935  1.00  0.00     0.167 HD
ATOM     59  C   UNL A   1      43.595  24.310  27.551  1.00  0.00     0.037 A 
ATOM     60  C   UNL A   1      42.075  29.799  32.043  1.00  0.00     0.037 A 
ATOM     61  C   UNL A   1      44.479  24.841  28.536  1.00  0.00     0.049 A 
ATOM     62  C   UNL A   1      42.884  28.633  32.558  1.00  0.00     0.074 A 
ATOM     63  C   UNL A   1      45.438  25.834  28.461  1.00  0.00     0.029 A 
ATOM     64  N   UNL A   1      44.157  24.671  29.864  1.00  0.00    -0.354 N 
ATOM     65  N   UNL A   1      43.407  27.712  31.794  1.00  0.00    -0.248 NA
ATOM     66  C   UNL A   1      43.151  28.396  33.973  1.00  0.00     0.031 C 
ATOM     67  C   UNL A   1      45.577  26.376  29.760  1.00  0.00     0.029 A 
ATOM     68  C   UNL A   1      44.785  25.635  30.620  1.00  0.00     0.049 A 
ATOM     69  H   UNL A   1      43.566  23.968  30.220  1.00  0.00     0.167 HD
ATOM     70  C   UNL A   1      44.015  26.766  32.574  1.00  0.00     0.074 A 
ATOM     71  C   UNL A   1      43.848  27.249  33.928  1.00  0.00     0.031 C 
ATOM     72  C   UNL A   1      44.592  25.648  32.052  1.00  0.00     0.037 A 
BRANCH  59  73
ATOM     73  C   UNL A   1      43.971  23.400  26.394  1.00  0.00     0.057 A 
ATOM     74  C   UNL A   1      43.651  22.034  26.345  1.00  0.00     0.134 A 
ATOM     75  C   UNL A   1      44.786  23.860  25.337  1.00  0.00     0.134 A 
ATOM     76  F   UNL A   1      42.848  21.476  27.262  1.00  0.00    -0.206 F 
ATOM     77  C   UNL A   1      44.189  21.167  25.376  1.00  0.00     0.040 A 
ATOM     78  C   UNL A   1      45.355  23.001  24.382  1.00  0.00     0.040 A 
ATOM     79  F   UNL A   1      45.107  25.160  25.251  1.00  0.00    -0.206 F 
ATOM     80  C   UNL A   1      45.072  21.641  24.411  1.00  0.00     0.006 A 
ENDBRANCH  59  73
BRANCH  60  81
ATOM     81  C   UNL A   1      40.811  30.343  32.630  1.00  0.00     0.057 A 
ATOM     82  C   UNL A   1      39.800  29.430  33.002  1.00  0.00     0.134 A 
ATOM     83  C   UNL A   1      40.672  31.649  33.108  1.00  0.00     0.134 A 
ATOM     84  F   UNL A   1      39.862  28.152  32.590  1.00  0.00    -0.206 F 
ATOM     85  C   UNL A   1      38.768  29.765  33.882  1.00  0.00     0.040 A 
ATOM     86  C   UNL A   1      39.626  32.004  33.979  1.00  0.00     0.040 A 
ATOM     87  F   UNL A   1      41.612  32.572  32.861  1.00  0.00    -0.206 F 
ATOM     88  C   UNL A   1      38.687  31.055  34.387  1.00  0.00     0.006 A 
ENDBRANCH  60  81
BRANCH  72  89
ATOM     89  C   UNL A   1      45.067  24.454  32.828  1.00  0.00     0.057 A 
ATOM     90  C   UNL A   1      46.266  24.429  33.549  1.00  0.00     0.134 A 
ATOM     91  C   UNL A   1      44.209  23.347  33.026  1.00  0.00     0.134 A 
ATOM     92  F   UNL A   1      47.117  25.464  33.524  1.00  0.00    -0.206 F 
ATOM     93  C   UNL A   1      46.611  23.354  34.376  1.00  0.00     0.040 A 
ATOM     94  C   UNL A   1      44.518  22.299  33.891  1.00  0.00     0.040 A 
ATOM     95  F   UNL A   1      43.020  23.261  32.409  1.00  0.00    -0.206 F 
ATOM     96  C   UNL A   1      45.731  22.293  34.561  1.00  0.00     0.006 A 
ENDBRANCH  72  89
ENDBRANCH  46  47
ENDBRANCH  39  41
ENDBRANCH  38  39
ENDBRANCH  37  38
ENDBRANCH  36  37
ENDBRANCH  35  36
ENDBRANCH  34  35
ENDBRANCH  33  34
ENDBRANCH   1  33
TORSDOF 22
ENDMDL
