MODEL 1
REMARK VINA RESULT:     -10.9      0.000      0.000
REMARK SMILES O=C(OCCOCCOCCOC(=O)c1ccc(-c2c3nc(c(-c4c(F)cccc4F)c4ccc([nH]4)c(-c4c(F)cccc4F)c4nc(c(-c5c(F)cccc5F)c5ccc2[nH]5)C=C4)C=C3)cc1)C1=Cc2c(ccc(Cl)c2Oc2ccccc2)O[C@H]1C(F)(F)F
REMARK SMILES IDX 7 1 6 2 5 3 4 4 3 5 2 6 1 7 69 8 70 9 86 10 71 11 85 12
REMARK SMILES IDX 72 13 77 14 73 15 75 16 74 17 76 18 87 19 88 20 89 21 90 22
REMARK SMILES IDX 78 23 79 24 80 25 84 26 81 27 83 28 82 29 8 30 9 31 10 32
REMARK SMILES IDX 11 33 12 34 13 35 14 36 15 37 16 38 68 39 17 40 67 41 18 42
REMARK SMILES IDX 19 43 20 44 61 45 21 46 66 47 60 48 62 49 22 50 65 51 59 52
REMARK SMILES IDX 58 53 23 55 49 56 32 57 48 58 33 59 36 60 47 61 63 62 34 63
REMARK SMILES IDX 35 64 46 66 64 67 37 68 24 69 25 70 30 71 26 72 27 73 29 74
REMARK SMILES IDX 31 75 28 76 50 77 51 78 56 79 52 80 53 81 55 82 57 83 54 84
REMARK SMILES IDX 38 85 39 86 44 87 40 88 41 89 43 90 45 91 42 92
REMARK H PARENT 62 54 36 65
REMARK Flexibility Score: inf
ROOT
ATOM      1  C   UNL A   1      32.249  29.932  27.000  1.00  0.00     0.188 C 
ENDROOT
BRANCH   1   2
ATOM      2  O   UNL A   1      33.667  30.006  26.718  1.00  0.00    -0.376 OA
BRANCH   2   3
ATOM      3  C   UNL A   1      34.007  28.808  26.032  1.00  0.00     0.202 C 
BRANCH   3   4
ATOM      4  C   UNL A   1      33.922  28.760  24.506  1.00  0.00     0.261 C 
BRANCH   4   5
ATOM      5  O   UNL A   1      34.002  27.387  24.016  1.00  0.00    -0.460 OA
BRANCH   5   6
ATOM      6  C   UNL A   1      33.051  26.693  23.341  1.00  0.00     0.338 C 
ATOM      7  O   UNL A   1      32.330  27.251  22.512  1.00  0.00    -0.246 OA
BRANCH   6   8
ATOM      8  C   UNL A   1      32.708  25.305  23.723  1.00  0.00     0.088 C 
ATOM      9  C   UNL A   1      33.655  24.397  23.968  1.00  0.00     0.031 C 
ATOM     10  C   UNL A   1      31.329  25.083  24.312  1.00  0.00     0.316 C 
ATOM     11  C   UNL A   1      33.385  22.987  24.176  1.00  0.00     0.062 A 
ATOM     12  O   UNL A   1      31.101  23.705  24.774  1.00  0.00    -0.475 OA
ATOM     13  C   UNL A   1      32.089  22.750  24.687  1.00  0.00     0.131 A 
ATOM     14  C   UNL A   1      34.392  21.992  24.183  1.00  0.00     0.156 A 
ATOM     15  C   UNL A   1      31.784  21.511  25.235  1.00  0.00     0.049 A 
ATOM     16  C   UNL A   1      34.038  20.754  24.756  1.00  0.00     0.084 A 
ATOM     17  C   UNL A   1      32.761  20.518  25.280  1.00  0.00     0.028 A 
ATOM     18  Cl  UNL A   1      35.197  19.469  24.911  1.00  0.00    -0.080 Cl
BRANCH  10  19
ATOM     19  C   UNL A   1      31.058  26.041  25.506  1.00  0.00     0.430 C 
ATOM     20  F   UNL A   1      30.758  27.291  25.066  1.00  0.00    -0.167 F 
ATOM     21  F   UNL A   1      30.024  25.651  26.282  1.00  0.00    -0.167 F 
ATOM     22  F   UNL A   1      32.133  26.148  26.321  1.00  0.00    -0.167 F 
ENDBRANCH  10  19
BRANCH  14  23
ATOM     23  O   UNL A   1      35.717  22.013  23.781  1.00  0.00    -0.455 OA
BRANCH  23  24
ATOM     24  C   UNL A   1      36.817  22.396  24.500  1.00  0.00     0.127 A 
ATOM     25  C   UNL A   1      37.775  21.461  24.883  1.00  0.00     0.047 A 
ATOM     26  C   UNL A   1      36.775  23.602  25.200  1.00  0.00     0.047 A 
ATOM     27  C   UNL A   1      38.745  21.785  25.850  1.00  0.00     0.004 A 
ATOM     28  C   UNL A   1      37.768  23.958  26.126  1.00  0.00     0.004 A 
ATOM     29  C   UNL A   1      38.768  23.048  26.442  1.00  0.00     0.000 A 
ENDBRANCH  23  24
ENDBRANCH  14  23
ENDBRANCH   6   8
ENDBRANCH   5   6
ENDBRANCH   4   5
ENDBRANCH   3   4
ENDBRANCH   2   3
ENDBRANCH   1   2
BRANCH   1  30
ATOM     30  C   UNL A   1      31.394  30.453  25.845  1.00  0.00     0.188 C 
BRANCH  30  31
ATOM     31  O   UNL A   1      31.100  31.848  25.940  1.00  0.00    -0.376 OA
BRANCH  31  32
ATOM     32  C   UNL A   1      31.426  32.508  27.169  1.00  0.00     0.202 C 
BRANCH  32  33
ATOM     33  C   UNL A   1      32.462  33.636  27.053  1.00  0.00     0.261 C 
BRANCH  33  34
ATOM     34  O   UNL A   1      32.497  34.396  28.282  1.00  0.00    -0.460 OA
BRANCH  34  35
ATOM     35  C   UNL A   1      33.654  35.047  28.579  1.00  0.00     0.338 C 
ATOM     36  O   UNL A   1      33.804  36.246  28.732  1.00  0.00    -0.246 OA
BRANCH  35  37
ATOM     37  C   UNL A   1      34.655  34.027  28.981  1.00  0.00     0.060 A 
ATOM     38  C   UNL A   1      34.195  32.793  29.471  1.00  0.00     0.016 A 
ATOM     39  C   UNL A   1      36.017  34.217  28.736  1.00  0.00     0.016 A 
ATOM     40  C   UNL A   1      35.096  31.749  29.713  1.00  0.00     0.010 A 
ATOM     41  C   UNL A   1      36.921  33.193  29.033  1.00  0.00     0.010 A 
ATOM     42  C   UNL A   1      36.473  31.962  29.547  1.00  0.00    -0.014 A 
BRANCH  42  43
ATOM     43  C   UNL A   1      37.471  31.059  30.180  1.00  0.00     0.031 A 
ATOM     44  C   UNL A   1      37.791  31.310  31.631  1.00  0.00     0.074 A 
ATOM     45  C   UNL A   1      38.168  30.135  29.492  1.00  0.00     0.049 A 
ATOM     46  N   UNL A   1      38.774  30.848  32.360  1.00  0.00    -0.248 NA
ATOM     47  C   UNL A   1      36.886  32.222  32.353  1.00  0.00     0.031 C 
ATOM     48  C   UNL A   1      37.936  29.742  28.104  1.00  0.00     0.029 A 
ATOM     49  N   UNL A   1      39.253  29.379  29.877  1.00  0.00    -0.354 N 
ATOM     50  C   UNL A   1      38.616  31.431  33.610  1.00  0.00     0.074 A 
ATOM     51  C   UNL A   1      37.440  32.266  33.552  1.00  0.00     0.031 C 
ATOM     52  C   UNL A   1      38.879  28.851  27.740  1.00  0.00     0.029 A 
ATOM     53  C   UNL A   1      39.808  28.646  28.853  1.00  0.00     0.049 A 
ATOM     54  H   UNL A   1      39.600  29.365  30.799  1.00  0.00     0.167 HD
ATOM     55  C   UNL A   1      39.393  31.307  34.709  1.00  0.00     0.037 A 
ATOM     56  C   UNL A   1      40.956  27.938  28.810  1.00  0.00     0.037 A 
ATOM     57  C   UNL A   1      40.580  30.507  34.777  1.00  0.00     0.049 A 
ATOM     58  C   UNL A   1      41.858  27.891  30.026  1.00  0.00     0.074 A 
ATOM     59  C   UNL A   1      41.418  30.306  35.859  1.00  0.00     0.029 A 
ATOM     60  N   UNL A   1      41.108  29.795  33.715  1.00  0.00    -0.354 N 
ATOM     61  N   UNL A   1      41.681  28.415  31.215  1.00  0.00    -0.248 NA
ATOM     62  C   UNL A   1      43.135  27.169  29.883  1.00  0.00     0.031 C 
ATOM     63  C   UNL A   1      42.489  29.516  35.434  1.00  0.00     0.029 A 
ATOM     64  C   UNL A   1      42.288  29.186  34.104  1.00  0.00     0.049 A 
ATOM     65  H   UNL A   1      40.707  29.732  32.818  1.00  0.00     0.167 HD
ATOM     66  C   UNL A   1      42.807  28.071  31.958  1.00  0.00     0.074 A 
ATOM     67  C   UNL A   1      43.654  27.278  31.097  1.00  0.00     0.031 C 
ATOM     68  C   UNL A   1      43.116  28.391  33.238  1.00  0.00     0.037 A 
BRANCH  55  69
ATOM     69  C   UNL A   1      39.009  32.107  35.913  1.00  0.00     0.057 A 
ATOM     70  C   UNL A   1      38.188  31.582  36.918  1.00  0.00     0.134 A 
ATOM     71  C   UNL A   1      39.494  33.410  36.077  1.00  0.00     0.134 A 
ATOM     72  F   UNL A   1      37.672  30.349  36.799  1.00  0.00    -0.206 F 
ATOM     73  C   UNL A   1      37.858  32.331  38.047  1.00  0.00     0.040 A 
ATOM     74  C   UNL A   1      39.187  34.160  37.211  1.00  0.00     0.040 A 
ATOM     75  F   UNL A   1      40.275  33.970  35.142  1.00  0.00    -0.206 F 
ATOM     76  C   UNL A   1      38.366  33.620  38.200  1.00  0.00     0.006 A 
ENDBRANCH  55  69
BRANCH  56  77
ATOM     77  C   UNL A   1      41.394  27.264  27.557  1.00  0.00     0.057 A 
ATOM     78  C   UNL A   1      41.218  25.887  27.375  1.00  0.00     0.134 A 
ATOM     79  C   UNL A   1      42.090  27.959  26.560  1.00  0.00     0.134 A 
ATOM     80  F   UNL A   1      40.599  25.156  28.315  1.00  0.00    -0.206 F 
ATOM     81  C   UNL A   1      41.741  25.219  26.264  1.00  0.00     0.040 A 
ATOM     82  C   UNL A   1      42.594  27.309  25.430  1.00  0.00     0.040 A 
ATOM     83  F   UNL A   1      42.311  29.275  26.679  1.00  0.00    -0.206 F 
ATOM     84  C   UNL A   1      42.430  25.933  25.286  1.00  0.00     0.006 A 
ENDBRANCH  56  77
BRANCH  68  85
ATOM     85  C   UNL A   1      44.408  27.874  33.801  1.00  0.00     0.057 A 
ATOM     86  C   UNL A   1      45.578  28.643  33.785  1.00  0.00     0.134 A 
ATOM     87  C   UNL A   1      44.461  26.628  34.440  1.00  0.00     0.134 A 
ATOM     88  F   UNL A   1      45.596  29.842  33.183  1.00  0.00    -0.206 F 
ATOM     89  C   UNL A   1      46.758  28.187  34.374  1.00  0.00     0.040 A 
ATOM     90  C   UNL A   1      45.628  26.172  35.055  1.00  0.00     0.040 A 
ATOM     91  F   UNL A   1      43.371  25.849  34.504  1.00  0.00    -0.206 F 
ATOM     92  C   UNL A   1      46.782  26.951  35.021  1.00  0.00     0.006 A 
ENDBRANCH  68  85
ENDBRANCH  42  43
ENDBRANCH  35  37
ENDBRANCH  34  35
ENDBRANCH  33  34
ENDBRANCH  32  33
ENDBRANCH  31  32
ENDBRANCH  30  31
ENDBRANCH   1  30
TORSDOF 20
ENDMDL
MODEL 2
REMARK VINA RESULT:     -10.8      2.974      8.542
REMARK SMILES O=C(OCCOCCOCCOC(=O)c1ccc(-c2c3nc(c(-c4c(F)cccc4F)c4ccc([nH]4)c(-c4c(F)cccc4F)c4nc(c(-c5c(F)cccc5F)c5ccc2[nH]5)C=C4)C=C3)cc1)C1=Cc2c(ccc(Cl)c2Oc2ccccc2)O[C@H]1C(F)(F)F
REMARK SMILES IDX 7 1 6 2 5 3 4 4 3 5 2 6 1 7 69 8 70 9 86 10 71 11 85 12
REMARK SMILES IDX 72 13 77 14 73 15 75 16 74 17 76 18 87 19 88 20 89 21 90 22
REMARK SMILES IDX 78 23 79 24 80 25 84 26 81 27 83 28 82 29 8 30 9 31 10 32
REMARK SMILES IDX 11 33 12 34 13 35 14 36 15 37 16 38 68 39 17 40 67 41 18 42
REMARK SMILES IDX 19 43 20 44 61 45 21 46 66 47 60 48 62 49 22 50 65 51 59 52
REMARK SMILES IDX 58 53 23 55 49 56 32 57 48 58 33 59 36 60 47 61 63 62 34 63
REMARK SMILES IDX 35 64 46 66 64 67 37 68 24 69 25 70 30 71 26 72 27 73 29 74
REMARK SMILES IDX 31 75 28 76 50 77 51 78 56 79 52 80 53 81 55 82 57 83 54 84
REMARK SMILES IDX 38 85 39 86 44 87 40 88 41 89 43 90 45 91 42 92
REMARK H PARENT 62 54 36 65
REMARK Flexibility Score: inf
ROOT
ATOM      1  C   UNL A   1      41.982  21.448  27.532  1.00  0.00     0.188 C 
ENDROOT
BRANCH   1   2
ATOM      2  O   UNL A   1      40.560  21.424  27.801  1.00  0.00    -0.376 OA
BRANCH   2   3
ATOM      3  C   UNL A   1      39.981  22.453  27.009  1.00  0.00     0.202 C 
BRANCH   3   4
ATOM      4  C   UNL A   1      38.828  22.120  26.062  1.00  0.00     0.261 C 
BRANCH   4   5
ATOM      5  O   UNL A   1      37.851  23.205  26.016  1.00  0.00    -0.460 OA
BRANCH   5   6
ATOM      6  C   UNL A   1      36.789  23.326  25.180  1.00  0.00     0.338 C 
ATOM      7  O   UNL A   1      36.938  23.721  24.022  1.00  0.00    -0.246 OA
BRANCH   6   8
ATOM      8  C   UNL A   1      35.404  23.192  25.686  1.00  0.00     0.088 C 
ATOM      9  C   UNL A   1      34.439  24.027  25.296  1.00  0.00     0.031 C 
ATOM     10  C   UNL A   1      35.006  21.833  26.223  1.00  0.00     0.316 C 
ATOM     11  C   UNL A   1      33.113  24.054  25.882  1.00  0.00     0.062 A 
ATOM     12  O   UNL A   1      33.587  21.741  26.600  1.00  0.00    -0.475 OA
ATOM     13  C   UNL A   1      32.733  22.808  26.429  1.00  0.00     0.131 A 
ATOM     14  C   UNL A   1      32.178  25.093  25.654  1.00  0.00     0.156 A 
ATOM     15  C   UNL A   1      31.400  22.572  26.738  1.00  0.00     0.049 A 
ATOM     16  C   UNL A   1      30.837  24.804  25.976  1.00  0.00     0.084 A 
ATOM     17  C   UNL A   1      30.451  23.565  26.502  1.00  0.00     0.028 A 
ATOM     18  Cl  UNL A   1      29.569  25.951  25.667  1.00  0.00    -0.080 Cl
BRANCH  10  19
ATOM     19  C   UNL A   1      35.306  20.702  25.199  1.00  0.00     0.430 C 
ATOM     20  F   UNL A   1      35.255  21.176  23.926  1.00  0.00    -0.167 F 
ATOM     21  F   UNL A   1      36.529  20.150  25.353  1.00  0.00    -0.167 F 
ATOM     22  F   UNL A   1      34.411  19.691  25.289  1.00  0.00    -0.167 F 
ENDBRANCH  10  19
BRANCH  14  23
ATOM     23  O   UNL A   1      32.314  26.355  25.101  1.00  0.00    -0.455 OA
BRANCH  23  24
ATOM     24  C   UNL A   1      32.550  27.543  25.740  1.00  0.00     0.127 A 
ATOM     25  C   UNL A   1      31.880  28.701  25.356  1.00  0.00     0.047 A 
ATOM     26  C   UNL A   1      33.731  27.690  26.466  1.00  0.00     0.047 A 
ATOM     27  C   UNL A   1      32.315  29.962  25.803  1.00  0.00     0.004 A 
ATOM     28  C   UNL A   1      34.146  28.936  26.965  1.00  0.00     0.004 A 
ATOM     29  C   UNL A   1      33.424  30.077  26.642  1.00  0.00     0.000 A 
ENDBRANCH  23  24
ENDBRANCH  14  23
ENDBRANCH   6   8
ENDBRANCH   5   6
ENDBRANCH   4   5
ENDBRANCH   3   4
ENDBRANCH   2   3
ENDBRANCH   1   2
BRANCH   1  30
ATOM     30  C   UNL A   1      42.321  20.935  26.132  1.00  0.00     0.188 C 
BRANCH  30  31
ATOM     31  O   UNL A   1      42.966  21.911  25.311  1.00  0.00    -0.376 OA
BRANCH  31  32
ATOM     32  C   UNL A   1      43.517  23.061  25.964  1.00  0.00     0.202 C 
BRANCH  32  33
ATOM     33  C   UNL A   1      44.027  24.165  25.026  1.00  0.00     0.261 C 
BRANCH  33  34
ATOM     34  O   UNL A   1      44.086  25.422  25.738  1.00  0.00    -0.460 OA
BRANCH  34  35
ATOM     35  C   UNL A   1      43.028  26.266  25.601  1.00  0.00     0.338 C 
ATOM     36  O   UNL A   1      42.311  26.394  24.626  1.00  0.00    -0.246 OA
BRANCH  35  37
ATOM     37  C   UNL A   1      42.701  26.799  26.948  1.00  0.00     0.060 A 
ATOM     38  C   UNL A   1      41.840  26.056  27.772  1.00  0.00     0.016 A 
ATOM     39  C   UNL A   1      43.349  27.930  27.453  1.00  0.00     0.016 A 
ATOM     40  C   UNL A   1      41.630  26.441  29.102  1.00  0.00     0.010 A 
ATOM     41  C   UNL A   1      43.092  28.343  28.763  1.00  0.00     0.010 A 
ATOM     42  C   UNL A   1      42.213  27.620  29.589  1.00  0.00    -0.014 A 
BRANCH  42  43
ATOM     43  C   UNL A   1      41.695  28.282  30.816  1.00  0.00     0.031 A 
ATOM     44  C   UNL A   1      40.524  29.214  30.644  1.00  0.00     0.074 A 
ATOM     45  C   UNL A   1      42.296  28.179  32.018  1.00  0.00     0.049 A 
ATOM     46  N   UNL A   1      40.028  30.094  31.476  1.00  0.00    -0.248 NA
ATOM     47  C   UNL A   1      39.827  29.156  29.346  1.00  0.00     0.031 C 
ATOM     48  C   UNL A   1      43.399  27.281  32.351  1.00  0.00     0.029 A 
ATOM     49  N   UNL A   1      42.070  28.879  33.182  1.00  0.00    -0.354 N 
ATOM     50  C   UNL A   1      38.984  30.704  30.793  1.00  0.00     0.074 A 
ATOM     51  C   UNL A   1      38.903  30.090  29.489  1.00  0.00     0.031 C 
ATOM     52  C   UNL A   1      43.784  27.518  33.622  1.00  0.00     0.029 A 
ATOM     53  C   UNL A   1      42.986  28.614  34.173  1.00  0.00     0.049 A 
ATOM     54  H   UNL A   1      41.323  29.512  33.292  1.00  0.00     0.167 HD
ATOM     55  C   UNL A   1      38.175  31.706  31.201  1.00  0.00     0.037 A 
ATOM     56  C   UNL A   1      43.184  29.221  35.362  1.00  0.00     0.037 A 
ATOM     57  C   UNL A   1      38.259  32.348  32.480  1.00  0.00     0.049 A 
ATOM     58  C   UNL A   1      42.325  30.404  35.757  1.00  0.00     0.074 A 
ATOM     59  C   UNL A   1      37.464  33.360  32.985  1.00  0.00     0.029 A 
ATOM     60  N   UNL A   1      39.208  32.055  33.443  1.00  0.00    -0.354 N 
ATOM     61  N   UNL A   1      41.316  30.950  35.121  1.00  0.00    -0.248 NA
ATOM     62  C   UNL A   1      42.651  31.071  37.030  1.00  0.00     0.031 C 
ATOM     63  C   UNL A   1      37.969  33.721  34.237  1.00  0.00     0.029 A 
ATOM     64  C   UNL A   1      39.045  32.899  34.528  1.00  0.00     0.049 A 
ATOM     65  H   UNL A   1      39.895  31.354  33.368  1.00  0.00     0.167 HD
ATOM     66  C   UNL A   1      40.881  32.002  35.921  1.00  0.00     0.074 A 
ATOM     67  C   UNL A   1      41.719  32.011  37.099  1.00  0.00     0.031 C 
ATOM     68  C   UNL A   1      39.881  32.889  35.698  1.00  0.00     0.037 A 
BRANCH  55  69
ATOM     69  C   UNL A   1      37.162  32.210  30.222  1.00  0.00     0.057 A 
ATOM     70  C   UNL A   1      37.476  33.187  29.271  1.00  0.00     0.134 A 
ATOM     71  C   UNL A   1      35.864  31.687  30.219  1.00  0.00     0.134 A 
ATOM     72  F   UNL A   1      38.697  33.744  29.246  1.00  0.00    -0.206 F 
ATOM     73  C   UNL A   1      36.529  33.631  28.349  1.00  0.00     0.040 A 
ATOM     74  C   UNL A   1      34.914  32.108  29.289  1.00  0.00     0.040 A 
ATOM     75  F   UNL A   1      35.501  30.757  31.115  1.00  0.00    -0.206 F 
ATOM     76  C   UNL A   1      35.247  33.084  28.351  1.00  0.00     0.006 A 
ENDBRANCH  55  69
BRANCH  56  77
ATOM     77  C   UNL A   1      44.291  28.797  36.263  1.00  0.00     0.057 A 
ATOM     78  C   UNL A   1      45.555  29.398  36.192  1.00  0.00     0.134 A 
ATOM     79  C   UNL A   1      44.145  27.715  37.139  1.00  0.00     0.134 A 
ATOM     80  F   UNL A   1      45.772  30.410  35.339  1.00  0.00    -0.206 F 
ATOM     81  C   UNL A   1      46.638  28.922  36.935  1.00  0.00     0.040 A 
ATOM     82  C   UNL A   1      45.213  27.245  37.909  1.00  0.00     0.040 A 
ATOM     83  F   UNL A   1      42.969  27.080  37.242  1.00  0.00    -0.206 F 
ATOM     84  C   UNL A   1      46.466  27.842  37.800  1.00  0.00     0.006 A 
ENDBRANCH  56  77
BRANCH  68  85
ATOM     85  C   UNL A   1      39.616  33.931  36.745  1.00  0.00     0.057 A 
ATOM     86  C   UNL A   1      38.869  33.647  37.895  1.00  0.00     0.134 A 
ATOM     87  C   UNL A   1      40.187  35.207  36.642  1.00  0.00     0.134 A 
ATOM     88  F   UNL A   1      38.291  32.447  38.050  1.00  0.00    -0.206 F 
ATOM     89  C   UNL A   1      38.688  34.599  38.899  1.00  0.00     0.040 A 
ATOM     90  C   UNL A   1      40.035  36.158  37.652  1.00  0.00     0.040 A 
ATOM     91  F   UNL A   1      40.927  35.538  35.574  1.00  0.00    -0.206 F 
ATOM     92  C   UNL A   1      39.281  35.856  38.784  1.00  0.00     0.006 A 
ENDBRANCH  68  85
ENDBRANCH  42  43
ENDBRANCH  35  37
ENDBRANCH  34  35
ENDBRANCH  33  34
ENDBRANCH  32  33
ENDBRANCH  31  32
ENDBRANCH  30  31
ENDBRANCH   1  30
TORSDOF 20
ENDMDL
MODEL 3
REMARK VINA RESULT:     -10.7      1.071      6.048
REMARK SMILES O=C(OCCOCCOCCOC(=O)c1ccc(-c2c3nc(c(-c4c(F)cccc4F)c4ccc([nH]4)c(-c4c(F)cccc4F)c4nc(c(-c5c(F)cccc5F)c5ccc2[nH]5)C=C4)C=C3)cc1)C1=Cc2c(ccc(Cl)c2Oc2ccccc2)O[C@H]1C(F)(F)F
REMARK SMILES IDX 7 1 6 2 5 3 4 4 3 5 2 6 1 7 69 8 70 9 86 10 71 11 85 12
REMARK SMILES IDX 72 13 77 14 73 15 75 16 74 17 76 18 87 19 88 20 89 21 90 22
REMARK SMILES IDX 78 23 79 24 80 25 84 26 81 27 83 28 82 29 8 30 9 31 10 32
REMARK SMILES IDX 11 33 12 34 13 35 14 36 15 37 16 38 68 39 17 40 67 41 18 42
REMARK SMILES IDX 19 43 20 44 61 45 21 46 66 47 60 48 62 49 22 50 65 51 59 52
REMARK SMILES IDX 58 53 23 55 49 56 32 57 48 58 33 59 36 60 47 61 63 62 34 63
REMARK SMILES IDX 35 64 46 66 64 67 37 68 24 69 25 70 30 71 26 72 27 73 29 74
REMARK SMILES IDX 31 75 28 76 50 77 51 78 56 79 52 80 53 81 55 82 57 83 54 84
REMARK SMILES IDX 38 85 39 86 44 87 40 88 41 89 43 90 45 91 42 92
REMARK H PARENT 62 54 36 65
REMARK Flexibility Score: inf
ROOT
ATOM      1  C   UNL A   1      33.280  28.922  27.237  1.00  0.00     0.188 C 
ENDROOT
BRANCH   1   2
ATOM      2  O   UNL A   1      33.601  27.845  26.325  1.00  0.00    -0.376 OA
BRANCH   2   3
ATOM      3  C   UNL A   1      33.977  28.453  25.096  1.00  0.00     0.202 C 
BRANCH   3   4
ATOM      4  C   UNL A   1      32.945  28.598  23.977  1.00  0.00     0.261 C 
BRANCH   4   5
ATOM      5  O   UNL A   1      33.079  27.526  22.994  1.00  0.00    -0.460 OA
BRANCH   5   6
ATOM      6  C   UNL A   1      32.096  26.732  22.500  1.00  0.00     0.338 C 
ATOM      7  O   UNL A   1      31.267  27.173  21.701  1.00  0.00    -0.246 OA
BRANCH   6   8
ATOM      8  C   UNL A   1      31.860  25.380  23.054  1.00  0.00     0.088 C 
ATOM      9  C   UNL A   1      32.874  24.585  23.401  1.00  0.00     0.031 C 
ATOM     10  C   UNL A   1      30.503  25.130  23.680  1.00  0.00     0.316 C 
ATOM     11  C   UNL A   1      32.713  23.196  23.786  1.00  0.00     0.062 A 
ATOM     12  O   UNL A   1      30.380  23.806  24.312  1.00  0.00    -0.475 OA
ATOM     13  C   UNL A   1      31.439  22.926  24.335  1.00  0.00     0.131 A 
ATOM     14  C   UNL A   1      33.792  22.288  23.907  1.00  0.00     0.156 A 
ATOM     15  C   UNL A   1      31.230  21.746  25.036  1.00  0.00     0.049 A 
ATOM     16  C   UNL A   1      33.534  21.108  24.632  1.00  0.00     0.084 A 
ATOM     17  C   UNL A   1      32.279  20.843  25.194  1.00  0.00     0.028 A 
ATOM     18  Cl  UNL A   1      34.788  19.944  24.935  1.00  0.00    -0.080 Cl
BRANCH  10  19
ATOM     19  C   UNL A   1      30.159  26.206  24.748  1.00  0.00     0.430 C 
ATOM     20  F   UNL A   1      29.116  25.806  25.522  1.00  0.00    -0.167 F 
ATOM     21  F   UNL A   1      31.181  26.471  25.591  1.00  0.00    -0.167 F 
ATOM     22  F   UNL A   1      29.810  27.385  24.181  1.00  0.00    -0.167 F 
ENDBRANCH  10  19
BRANCH  14  23
ATOM     23  O   UNL A   1      35.112  22.359  23.492  1.00  0.00    -0.455 OA
BRANCH  23  24
ATOM     24  C   UNL A   1      36.216  22.705  24.225  1.00  0.00     0.127 A 
ATOM     25  C   UNL A   1      37.270  21.811  24.385  1.00  0.00     0.047 A 
ATOM     26  C   UNL A   1      36.111  23.752  25.140  1.00  0.00     0.047 A 
ATOM     27  C   UNL A   1      38.264  22.042  25.355  1.00  0.00     0.004 A 
ATOM     28  C   UNL A   1      37.122  24.024  26.076  1.00  0.00     0.004 A 
ATOM     29  C   UNL A   1      38.213  23.170  26.173  1.00  0.00     0.000 A 
ENDBRANCH  23  24
ENDBRANCH  14  23
ENDBRANCH   6   8
ENDBRANCH   5   6
ENDBRANCH   4   5
ENDBRANCH   3   4
ENDBRANCH   2   3
ENDBRANCH   1   2
BRANCH   1  30
ATOM     30  C   UNL A   1      34.405  29.952  27.344  1.00  0.00     0.188 C 
BRANCH  30  31
ATOM     31  O   UNL A   1      33.964  31.297  27.139  1.00  0.00    -0.376 OA
BRANCH  31  32
ATOM     32  C   UNL A   1      32.562  31.508  26.939  1.00  0.00     0.202 C 
BRANCH  32  33
ATOM     33  C   UNL A   1      32.009  32.822  27.509  1.00  0.00     0.261 C 
BRANCH  33  34
ATOM     34  O   UNL A   1      33.072  33.797  27.609  1.00  0.00    -0.460 OA
BRANCH  34  35
ATOM     35  C   UNL A   1      33.356  34.286  28.846  1.00  0.00     0.338 C 
ATOM     36  O   UNL A   1      32.615  34.922  29.572  1.00  0.00    -0.246 OA
BRANCH  35  37
ATOM     37  C   UNL A   1      34.626  33.662  29.296  1.00  0.00     0.060 A 
ATOM     38  C   UNL A   1      34.563  32.602  30.215  1.00  0.00     0.016 A 
ATOM     39  C   UNL A   1      35.847  34.007  28.710  1.00  0.00     0.016 A 
ATOM     40  C   UNL A   1      35.719  31.884  30.545  1.00  0.00     0.010 A 
ATOM     41  C   UNL A   1      37.008  33.325  29.085  1.00  0.00     0.010 A 
ATOM     42  C   UNL A   1      36.960  32.278  30.022  1.00  0.00    -0.014 A 
BRANCH  42  43
ATOM     43  C   UNL A   1      38.233  31.840  30.654  1.00  0.00     0.031 A 
ATOM     44  C   UNL A   1      39.013  30.767  29.940  1.00  0.00     0.074 A 
ATOM     45  C   UNL A   1      38.636  32.264  31.868  1.00  0.00     0.049 A 
ATOM     46  N   UNL A   1      40.010  30.035  30.368  1.00  0.00    -0.248 NA
ATOM     47  C   UNL A   1      38.599  30.467  28.558  1.00  0.00     0.031 C 
ATOM     48  C   UNL A   1      38.019  33.330  32.653  1.00  0.00     0.029 A 
ATOM     49  N   UNL A   1      39.660  31.808  32.668  1.00  0.00    -0.354 N 
ATOM     50  C   UNL A   1      40.320  29.180  29.319  1.00  0.00     0.074 A 
ATOM     51  C   UNL A   1      39.424  29.487  28.231  1.00  0.00     0.031 C 
ATOM     52  C   UNL A   1      38.649  33.416  33.842  1.00  0.00     0.029 A 
ATOM     53  C   UNL A   1      39.681  32.380  33.919  1.00  0.00     0.049 A 
ATOM     54  H   UNL A   1      40.314  31.133  32.373  1.00  0.00     0.167 HD
ATOM     55  C   UNL A   1      41.253  28.203  29.269  1.00  0.00     0.037 A 
ATOM     56  C   UNL A   1      40.413  32.067  35.009  1.00  0.00     0.037 A 
ATOM     57  C   UNL A   1      42.131  27.863  30.349  1.00  0.00     0.049 A 
ATOM     58  C   UNL A   1      41.384  30.908  34.956  1.00  0.00     0.074 A 
ATOM     59  C   UNL A   1      43.123  26.900  30.377  1.00  0.00     0.029 A 
ATOM     60  N   UNL A   1      42.107  28.460  31.597  1.00  0.00    -0.354 N 
ATOM     61  N   UNL A   1      41.698  30.128  33.949  1.00  0.00    -0.248 NA
ATOM     62  C   UNL A   1      42.089  30.569  36.206  1.00  0.00     0.031 C 
ATOM     63  C   UNL A   1      43.663  26.874  31.665  1.00  0.00     0.029 A 
ATOM     64  C   UNL A   1      43.041  27.855  32.420  1.00  0.00     0.049 A 
ATOM     65  H   UNL A   1      41.515  29.201  31.860  1.00  0.00     0.167 HD
ATOM     66  C   UNL A   1      42.641  29.229  34.437  1.00  0.00     0.074 A 
ATOM     67  C   UNL A   1      42.867  29.567  35.824  1.00  0.00     0.031 C 
ATOM     68  C   UNL A   1      43.261  28.208  33.796  1.00  0.00     0.037 A 
BRANCH  55  69
ATOM     69  C   UNL A   1      41.327  27.391  28.015  1.00  0.00     0.057 A 
ATOM     70  C   UNL A   1      42.152  27.757  26.946  1.00  0.00     0.134 A 
ATOM     71  C   UNL A   1      40.580  26.213  27.893  1.00  0.00     0.134 A 
ATOM     72  F   UNL A   1      42.868  28.891  26.996  1.00  0.00    -0.206 F 
ATOM     73  C   UNL A   1      42.230  26.978  25.792  1.00  0.00     0.040 A 
ATOM     74  C   UNL A   1      40.665  25.416  26.752  1.00  0.00     0.040 A 
ATOM     75  F   UNL A   1      39.762  25.819  28.880  1.00  0.00    -0.206 F 
ATOM     76  C   UNL A   1      41.492  25.799  25.697  1.00  0.00     0.006 A 
ENDBRANCH  55  69
BRANCH  56  77
ATOM     77  C   UNL A   1      40.223  32.796  36.293  1.00  0.00     0.057 A 
ATOM     78  C   UNL A   1      41.099  33.817  36.684  1.00  0.00     0.134 A 
ATOM     79  C   UNL A   1      39.229  32.421  37.206  1.00  0.00     0.134 A 
ATOM     80  F   UNL A   1      42.100  34.192  35.874  1.00  0.00    -0.206 F 
ATOM     81  C   UNL A   1      41.013  34.417  37.943  1.00  0.00     0.040 A 
ATOM     82  C   UNL A   1      39.114  33.031  38.457  1.00  0.00     0.040 A 
ATOM     83  F   UNL A   1      38.369  31.437  36.905  1.00  0.00    -0.206 F 
ATOM     84  C   UNL A   1      40.015  34.025  38.833  1.00  0.00     0.006 A 
ENDBRANCH  56  77
BRANCH  68  85
ATOM     85  C   UNL A   1      44.255  27.391  34.569  1.00  0.00     0.057 A 
ATOM     86  C   UNL A   1      43.899  26.182  35.179  1.00  0.00     0.134 A 
ATOM     87  C   UNL A   1      45.601  27.776  34.631  1.00  0.00     0.134 A 
ATOM     88  F   UNL A   1      42.626  25.761  35.161  1.00  0.00    -0.206 F 
ATOM     89  C   UNL A   1      44.844  25.391  35.834  1.00  0.00     0.040 A 
ATOM     90  C   UNL A   1      46.559  26.980  35.261  1.00  0.00     0.040 A 
ATOM     91  F   UNL A   1      46.011  28.915  34.054  1.00  0.00    -0.206 F 
ATOM     92  C   UNL A   1      46.181  25.785  35.867  1.00  0.00     0.006 A 
ENDBRANCH  68  85
ENDBRANCH  42  43
ENDBRANCH  35  37
ENDBRANCH  34  35
ENDBRANCH  33  34
ENDBRANCH  32  33
ENDBRANCH  31  32
ENDBRANCH  30  31
ENDBRANCH   1  30
TORSDOF 20
ENDMDL
