MODEL 1
REMARK VINA RESULT:     -12.1      0.000      0.000
REMARK SMILES O=C(OCCOCCOCCOC(=O)[C@H](c1c[nH]c2ccc(Cl)cc12)[NH+]1CCN(c2cccc(Cl)c2)CC1)c1ccc(-c2c3nc(c(-c4c(F)cccc4F)c4ccc([nH]4)c(-c4c(F)cccc4F)c4nc(c(-c5c(F)cccc5F)c5ccc2[nH]5)C=C4)C=C3)cc1
REMARK SMILES IDX 7 1 6 2 5 3 4 4 3 5 2 6 1 7 39 8 40 9 92 10 41 11 91 12
REMARK SMILES IDX 42 13 43 14 44 15 85 16 45 17 90 18 84 19 86 20 46 21 89 22
REMARK SMILES IDX 83 23 82 24 47 26 73 27 56 28 72 29 57 30 60 31 71 32 87 33
REMARK SMILES IDX 58 34 59 35 70 37 88 38 61 39 48 40 49 41 54 42 50 43 51 44
REMARK SMILES IDX 53 45 55 46 52 47 74 48 75 49 80 50 76 51 77 52 79 53 81 54
REMARK SMILES IDX 78 55 62 56 63 57 68 58 64 59 65 60 67 61 69 62 66 63 8 64
REMARK SMILES IDX 9 65 10 66 11 67 12 68 13 69 14 70 15 71 26 72 27 73 38 74
REMARK SMILES IDX 28 76 37 77 29 78 30 79 31 80 36 81 32 82 34 83 33 84 35 85
REMARK SMILES IDX 16 86 17 87 25 88 18 89 19 90 24 91 20 93 22 94 21 95 23 96
REMARK H PARENT 86 25 60 36 26 75 18 92
REMARK Flexibility Score: inf
ROOT
ATOM      1  C   UNL A   1      33.542  34.330  28.448  1.00  0.00     0.188 C 
ENDROOT
BRANCH   1   2
ATOM      2  O   UNL A   1      32.863  34.578  29.665  1.00  0.00    -0.376 OA
BRANCH   2   3
ATOM      3  C   UNL A   1      33.414  35.543  30.558  1.00  0.00     0.202 C 
BRANCH   3   4
ATOM      4  C   UNL A   1      34.386  35.095  31.657  1.00  0.00     0.261 C 
BRANCH   4   5
ATOM      5  O   UNL A   1      35.361  34.082  31.326  1.00  0.00    -0.460 OA
BRANCH   5   6
ATOM      6  C   UNL A   1      35.361  32.736  31.402  1.00  0.00     0.338 C 
ATOM      7  O   UNL A   1      34.332  32.151  31.735  1.00  0.00    -0.246 OA
BRANCH   6   8
ATOM      8  C   UNL A   1      36.545  31.920  31.058  1.00  0.00     0.060 A 
ATOM      9  C   UNL A   1      37.278  31.174  31.977  1.00  0.00     0.016 A 
ATOM     10  C   UNL A   1      36.859  31.803  29.705  1.00  0.00     0.016 A 
ATOM     11  C   UNL A   1      38.431  30.497  31.608  1.00  0.00     0.010 A 
ATOM     12  C   UNL A   1      37.946  31.027  29.309  1.00  0.00     0.010 A 
ATOM     13  C   UNL A   1      38.780  30.424  30.267  1.00  0.00    -0.014 A 
BRANCH  13  14
ATOM     14  C   UNL A   1      40.076  29.848  29.852  1.00  0.00     0.031 A 
ATOM     15  C   UNL A   1      41.231  30.796  29.733  1.00  0.00     0.074 A 
ATOM     16  C   UNL A   1      40.216  28.540  29.571  1.00  0.00     0.049 A 
ATOM     17  N   UNL A   1      42.378  30.648  29.132  1.00  0.00    -0.248 NA
ATOM     18  C   UNL A   1      41.051  32.110  30.378  1.00  0.00     0.031 C 
ATOM     19  C   UNL A   1      39.206  27.504  29.783  1.00  0.00     0.029 A 
ATOM     20  N   UNL A   1      41.258  27.866  28.990  1.00  0.00    -0.354 N 
ATOM     21  C   UNL A   1      43.031  31.862  29.284  1.00  0.00     0.074 A 
ATOM     22  C   UNL A   1      42.134  32.754  29.981  1.00  0.00     0.031 C 
ATOM     23  C   UNL A   1      39.631  26.349  29.247  1.00  0.00     0.029 A 
ATOM     24  C   UNL A   1      40.938  26.573  28.648  1.00  0.00     0.049 A 
ATOM     25  H   UNL A   1      42.144  28.266  28.833  1.00  0.00     0.167 HD
ATOM     26  C   UNL A   1      44.284  32.190  28.896  1.00  0.00     0.037 A 
ATOM     27  C   UNL A   1      41.612  25.687  27.894  1.00  0.00     0.037 A 
ATOM     28  C   UNL A   1      45.156  31.263  28.231  1.00  0.00     0.049 A 
ATOM     29  C   UNL A   1      42.963  26.090  27.380  1.00  0.00     0.074 A 
ATOM     30  C   UNL A   1      46.448  31.450  27.787  1.00  0.00     0.029 A 
ATOM     31  N   UNL A   1      44.803  29.954  27.917  1.00  0.00    -0.354 N 
ATOM     32  N   UNL A   1      43.581  27.241  27.507  1.00  0.00    -0.248 NA
ATOM     33  C   UNL A   1      43.726  25.072  26.651  1.00  0.00     0.031 C 
ATOM     34  C   UNL A   1      46.864  30.267  27.166  1.00  0.00     0.029 A 
ATOM     35  C   UNL A   1      45.850  29.324  27.274  1.00  0.00     0.049 A 
ATOM     36  H   UNL A   1      43.935  29.539  28.123  1.00  0.00     0.167 HD
ATOM     37  C   UNL A   1      44.827  27.071  26.925  1.00  0.00     0.074 A 
ATOM     38  C   UNL A   1      44.868  25.707  26.430  1.00  0.00     0.031 C 
ATOM     39  C   UNL A   1      45.853  27.953  26.823  1.00  0.00     0.037 A 
BRANCH  26  40
ATOM     40  C   UNL A   1      44.725  33.601  29.155  1.00  0.00     0.057 A 
ATOM     41  C   UNL A   1      44.552  34.625  28.209  1.00  0.00     0.134 A 
ATOM     42  C   UNL A   1      45.413  33.925  30.330  1.00  0.00     0.134 A 
ATOM     43  F   UNL A   1      43.927  34.378  27.047  1.00  0.00    -0.206 F 
ATOM     44  C   UNL A   1      45.099  35.895  28.397  1.00  0.00     0.040 A 
ATOM     45  C   UNL A   1      45.934  35.203  30.545  1.00  0.00     0.040 A 
ATOM     46  F   UNL A   1      45.615  32.999  31.279  1.00  0.00    -0.206 F 
ATOM     47  C   UNL A   1      45.794  36.187  29.568  1.00  0.00     0.006 A 
ENDBRANCH  26  40
BRANCH  27  48
ATOM     48  C   UNL A   1      41.025  24.353  27.610  1.00  0.00     0.057 A 
ATOM     49  C   UNL A   1      40.024  24.193  26.645  1.00  0.00     0.134 A 
ATOM     50  C   UNL A   1      41.472  23.199  28.269  1.00  0.00     0.134 A 
ATOM     51  F   UNL A   1      39.552  25.258  25.982  1.00  0.00    -0.206 F 
ATOM     52  C   UNL A   1      39.477  22.941  26.357  1.00  0.00     0.040 A 
ATOM     53  C   UNL A   1      40.947  21.938  27.977  1.00  0.00     0.040 A 
ATOM     54  F   UNL A   1      42.440  23.279  29.193  1.00  0.00    -0.206 F 
ATOM     55  C   UNL A   1      39.941  21.807  27.022  1.00  0.00     0.006 A 
ENDBRANCH  27  48
BRANCH  39  56
ATOM     56  C   UNL A   1      47.127  27.446  26.223  1.00  0.00     0.057 A 
ATOM     57  C   UNL A   1      48.113  26.821  26.994  1.00  0.00     0.134 A 
ATOM     58  C   UNL A   1      47.325  27.514  24.838  1.00  0.00     0.134 A 
ATOM     59  F   UNL A   1      47.986  26.740  28.327  1.00  0.00    -0.206 F 
ATOM     60  C   UNL A   1      49.260  26.288  26.405  1.00  0.00     0.040 A 
ATOM     61  C   UNL A   1      48.450  26.959  24.236  1.00  0.00     0.040 A 
ATOM     62  F   UNL A   1      46.408  28.096  24.047  1.00  0.00    -0.206 F 
ATOM     63  C   UNL A   1      49.423  26.344  25.022  1.00  0.00     0.006 A 
ENDBRANCH  39  56
ENDBRANCH  13  14
ENDBRANCH   6   8
ENDBRANCH   5   6
ENDBRANCH   4   5
ENDBRANCH   3   4
ENDBRANCH   2   3
ENDBRANCH   1   2
BRANCH   1  64
ATOM     64  C   UNL A   1      32.985  33.185  27.604  1.00  0.00     0.188 C 
BRANCH  64  65
ATOM     65  O   UNL A   1      33.642  31.931  27.577  1.00  0.00    -0.376 OA
BRANCH  65  66
ATOM     66  C   UNL A   1      32.889  30.737  27.426  1.00  0.00     0.202 C 
BRANCH  66  67
ATOM     67  C   UNL A   1      33.242  29.735  26.313  1.00  0.00     0.261 C 
BRANCH  67  68
ATOM     68  O   UNL A   1      32.352  28.632  26.050  1.00  0.00    -0.459 OA
BRANCH  68  69
ATOM     69  C   UNL A   1      32.978  27.511  25.573  1.00  0.00     0.370 C 
ATOM     70  O   UNL A   1      34.046  27.117  26.002  1.00  0.00    -0.245 OA
BRANCH  69  71
ATOM     71  C   UNL A   1      32.251  26.899  24.344  1.00  0.00     0.328 C 
BRANCH  71  72
ATOM     72  N   UNL A   1      31.174  25.927  24.751  1.00  0.00    -0.316 N 
ATOM     73  C   UNL A   1      30.728  24.976  23.691  1.00  0.00     0.284 C 
ATOM     74  C   UNL A   1      31.415  25.132  25.969  1.00  0.00     0.284 C 
ATOM     75  H   UNL A   1      30.436  26.603  24.948  1.00  0.00     0.349 HD
ATOM     76  C   UNL A   1      31.512  23.628  23.496  1.00  0.00     0.178 C 
ATOM     77  C   UNL A   1      32.429  23.989  25.810  1.00  0.00     0.178 C 
ATOM     78  N   UNL A   1      32.009  23.054  24.756  1.00  0.00    -0.360 N 
BRANCH  78  79
ATOM     79  C   UNL A   1      32.832  21.923  24.700  1.00  0.00     0.038 A 
ATOM     80  C   UNL A   1      32.225  20.660  24.649  1.00  0.00     0.026 A 
ATOM     81  C   UNL A   1      34.229  21.981  24.805  1.00  0.00     0.046 A 
ATOM     82  C   UNL A   1      32.981  19.486  24.681  1.00  0.00     0.004 A 
ATOM     83  C   UNL A   1      34.986  20.806  24.842  1.00  0.00     0.043 A 
ATOM     84  C   UNL A   1      34.368  19.558  24.777  1.00  0.00     0.020 A 
ATOM     85  Cl  UNL A   1      36.700  20.888  24.997  1.00  0.00    -0.084 Cl
ENDBRANCH  78  79
ENDBRANCH  71  72
BRANCH  71  86
ATOM     86  C   UNL A   1      31.759  28.005  23.398  1.00  0.00     0.046 A 
ATOM     87  C   UNL A   1      32.577  28.798  22.603  1.00  0.00     0.094 A 
ATOM     88  C   UNL A   1      30.409  28.459  23.118  1.00  0.00     0.011 A 
ATOM     89  N   UNL A   1      31.819  29.679  21.894  1.00  0.00    -0.361 N 
ATOM     90  C   UNL A   1      30.491  29.471  22.155  1.00  0.00     0.046 A 
ATOM     91  C   UNL A   1      29.117  28.131  23.583  1.00  0.00     0.031 A 
ATOM     92  H   UNL A   1      32.173  30.365  21.285  1.00  0.00     0.166 HD
ATOM     93  C   UNL A   1      29.379  30.120  21.604  1.00  0.00     0.028 A 
ATOM     94  C   UNL A   1      27.989  28.751  23.019  1.00  0.00     0.041 A 
ATOM     95  C   UNL A   1      28.115  29.725  22.037  1.00  0.00     0.022 A 
ATOM     96  Cl  UNL A   1      26.408  28.294  23.534  1.00  0.00    -0.084 Cl
ENDBRANCH  71  86
ENDBRANCH  69  71
ENDBRANCH  68  69
ENDBRANCH  67  68
ENDBRANCH  66  67
ENDBRANCH  65  66
ENDBRANCH  64  65
ENDBRANCH   1  64
TORSDOF 20
ENDMDL
MODEL 2
REMARK VINA RESULT:     -12.0      4.519      6.591
REMARK SMILES O=C(OCCOCCOCCOC(=O)[C@H](c1c[nH]c2ccc(Cl)cc12)[NH+]1CCN(c2cccc(Cl)c2)CC1)c1ccc(-c2c3nc(c(-c4c(F)cccc4F)c4ccc([nH]4)c(-c4c(F)cccc4F)c4nc(c(-c5c(F)cccc5F)c5ccc2[nH]5)C=C4)C=C3)cc1
REMARK SMILES IDX 7 1 6 2 5 3 4 4 3 5 2 6 1 7 39 8 40 9 92 10 41 11 91 12
REMARK SMILES IDX 42 13 43 14 44 15 85 16 45 17 90 18 84 19 86 20 46 21 89 22
REMARK SMILES IDX 83 23 82 24 47 26 73 27 56 28 72 29 57 30 60 31 71 32 87 33
REMARK SMILES IDX 58 34 59 35 70 37 88 38 61 39 48 40 49 41 54 42 50 43 51 44
REMARK SMILES IDX 53 45 55 46 52 47 74 48 75 49 80 50 76 51 77 52 79 53 81 54
REMARK SMILES IDX 78 55 62 56 63 57 68 58 64 59 65 60 67 61 69 62 66 63 8 64
REMARK SMILES IDX 9 65 10 66 11 67 12 68 13 69 14 70 15 71 26 72 27 73 38 74
REMARK SMILES IDX 28 76 37 77 29 78 30 79 31 80 36 81 32 82 34 83 33 84 35 85
REMARK SMILES IDX 16 86 17 87 25 88 18 89 19 90 24 91 20 93 22 94 21 95 23 96
REMARK H PARENT 86 25 60 36 26 75 18 92
REMARK Flexibility Score: inf
ROOT
ATOM      1  C   UNL A   1      35.151  33.080  28.967  1.00  0.00     0.188 C 
ENDROOT
BRANCH   1   2
ATOM      2  O   UNL A   1      34.783  34.393  29.344  1.00  0.00    -0.376 OA
BRANCH   2   3
ATOM      3  C   UNL A   1      33.731  35.031  28.624  1.00  0.00     0.202 C 
BRANCH   3   4
ATOM      4  C   UNL A   1      32.916  36.145  29.294  1.00  0.00     0.261 C 
BRANCH   4   5
ATOM      5  O   UNL A   1      32.213  35.827  30.514  1.00  0.00    -0.460 OA
BRANCH   5   6
ATOM      6  C   UNL A   1      32.543  35.899  31.819  1.00  0.00     0.338 C 
ATOM      7  O   UNL A   1      31.848  36.567  32.581  1.00  0.00    -0.246 OA
BRANCH   6   8
ATOM      8  C   UNL A   1      33.693  35.166  32.390  1.00  0.00     0.060 A 
ATOM      9  C   UNL A   1      34.971  35.700  32.538  1.00  0.00     0.016 A 
ATOM     10  C   UNL A   1      33.436  33.903  32.922  1.00  0.00     0.016 A 
ATOM     11  C   UNL A   1      36.030  34.935  33.000  1.00  0.00     0.010 A 
ATOM     12  C   UNL A   1      34.469  33.170  33.500  1.00  0.00     0.010 A 
ATOM     13  C   UNL A   1      35.789  33.656  33.480  1.00  0.00    -0.014 A 
BRANCH  13  14
ATOM     14  C   UNL A   1      36.906  32.756  33.836  1.00  0.00     0.031 A 
ATOM     15  C   UNL A   1      37.642  33.061  35.105  1.00  0.00     0.074 A 
ATOM     16  C   UNL A   1      37.265  31.724  33.053  1.00  0.00     0.049 A 
ATOM     17  N   UNL A   1      38.806  32.646  35.519  1.00  0.00    -0.248 NA
ATOM     18  C   UNL A   1      36.964  33.985  36.034  1.00  0.00     0.031 C 
ATOM     19  C   UNL A   1      36.542  31.248  31.873  1.00  0.00     0.029 A 
ATOM     20  N   UNL A   1      38.372  30.917  33.104  1.00  0.00    -0.354 N 
ATOM     21  C   UNL A   1      39.019  33.294  36.727  1.00  0.00     0.074 A 
ATOM     22  C   UNL A   1      37.895  34.173  36.953  1.00  0.00     0.031 C 
ATOM     23  C   UNL A   1      37.269  30.306  31.253  1.00  0.00     0.029 A 
ATOM     24  C   UNL A   1      38.511  30.123  31.989  1.00  0.00     0.049 A 
ATOM     25  H   UNL A   1      39.003  30.906  33.860  1.00  0.00     0.167 HD
ATOM     26  C   UNL A   1      40.054  33.144  37.584  1.00  0.00     0.037 A 
ATOM     27  C   UNL A   1      39.550  29.369  31.590  1.00  0.00     0.037 A 
ATOM     28  C   UNL A   1      41.138  32.237  37.336  1.00  0.00     0.049 A 
ATOM     29  C   UNL A   1      40.741  29.282  32.498  1.00  0.00     0.074 A 
ATOM     30  C   UNL A   1      42.247  31.974  38.113  1.00  0.00     0.029 A 
ATOM     31  N   UNL A   1      41.236  31.435  36.203  1.00  0.00    -0.354 N 
ATOM     32  N   UNL A   1      40.957  29.904  33.634  1.00  0.00    -0.248 NA
ATOM     33  C   UNL A   1      41.817  28.371  32.095  1.00  0.00     0.031 C 
ATOM     34  C   UNL A   1      43.039  31.044  37.431  1.00  0.00     0.029 A 
ATOM     35  C   UNL A   1      42.394  30.684  36.255  1.00  0.00     0.049 A 
ATOM     36  H   UNL A   1      40.577  31.407  35.473  1.00  0.00     0.167 HD
ATOM     37  C   UNL A   1      42.164  29.420  34.111  1.00  0.00     0.074 A 
ATOM     38  C   UNL A   1      42.641  28.463  33.130  1.00  0.00     0.031 C 
ATOM     39  C   UNL A   1      42.814  29.723  35.264  1.00  0.00     0.037 A 
BRANCH  26  40
ATOM     40  C   UNL A   1      40.049  34.011  38.809  1.00  0.00     0.057 A 
ATOM     41  C   UNL A   1      39.466  33.596  40.018  1.00  0.00     0.134 A 
ATOM     42  C   UNL A   1      40.555  35.315  38.758  1.00  0.00     0.134 A 
ATOM     43  F   UNL A   1      38.935  32.368  40.129  1.00  0.00    -0.206 F 
ATOM     44  C   UNL A   1      39.333  34.463  41.103  1.00  0.00     0.040 A 
ATOM     45  C   UNL A   1      40.460  36.181  39.849  1.00  0.00     0.040 A 
ATOM     46  F   UNL A   1      41.127  35.781  37.637  1.00  0.00    -0.206 F 
ATOM     47  C   UNL A   1      39.830  35.762  41.020  1.00  0.00     0.006 A 
ENDBRANCH  26  40
BRANCH  27  48
ATOM     48  C   UNL A   1      39.488  28.641  30.298  1.00  0.00     0.057 A 
ATOM     49  C   UNL A   1      39.957  29.222  29.115  1.00  0.00     0.134 A 
ATOM     50  C   UNL A   1      38.990  27.333  30.216  1.00  0.00     0.134 A 
ATOM     51  F   UNL A   1      40.443  30.472  29.126  1.00  0.00    -0.206 F 
ATOM     52  C   UNL A   1      39.919  28.540  27.897  1.00  0.00     0.040 A 
ATOM     53  C   UNL A   1      38.964  26.632  29.009  1.00  0.00     0.040 A 
ATOM     54  F   UNL A   1      38.539  26.710  31.315  1.00  0.00    -0.206 F 
ATOM     55  C   UNL A   1      39.425  27.238  27.842  1.00  0.00     0.006 A 
ENDBRANCH  27  48
BRANCH  39  56
ATOM     56  C   UNL A   1      44.064  28.955  35.559  1.00  0.00     0.057 A 
ATOM     57  C   UNL A   1      44.045  27.744  36.257  1.00  0.00     0.134 A 
ATOM     58  C   UNL A   1      45.295  29.404  35.060  1.00  0.00     0.134 A 
ATOM     59  F   UNL A   1      42.899  27.272  36.771  1.00  0.00    -0.206 F 
ATOM     60  C   UNL A   1      45.212  27.006  36.457  1.00  0.00     0.040 A 
ATOM     61  C   UNL A   1      46.460  28.662  35.227  1.00  0.00     0.040 A 
ATOM     62  F   UNL A   1      45.373  30.557  34.376  1.00  0.00    -0.206 F 
ATOM     63  C   UNL A   1      46.420  27.459  35.929  1.00  0.00     0.006 A 
ENDBRANCH  39  56
ENDBRANCH  13  14
ENDBRANCH   6   8
ENDBRANCH   5   6
ENDBRANCH   4   5
ENDBRANCH   3   4
ENDBRANCH   2   3
ENDBRANCH   1   2
BRANCH   1  64
ATOM     64  C   UNL A   1      34.178  32.366  28.030  1.00  0.00     0.188 C 
BRANCH  64  65
ATOM     65  O   UNL A   1      34.345  30.990  27.738  1.00  0.00    -0.376 OA
BRANCH  65  66
ATOM     66  C   UNL A   1      33.446  30.337  26.856  1.00  0.00     0.202 C 
BRANCH  66  67
ATOM     67  C   UNL A   1      32.878  28.952  27.214  1.00  0.00     0.261 C 
BRANCH  67  68
ATOM     68  O   UNL A   1      32.133  28.218  26.222  1.00  0.00    -0.459 OA
BRANCH  68  69
ATOM     69  C   UNL A   1      32.871  27.280  25.551  1.00  0.00     0.370 C 
ATOM     70  O   UNL A   1      34.012  26.991  25.860  1.00  0.00    -0.245 OA
BRANCH  69  71
ATOM     71  C   UNL A   1      32.149  26.749  24.282  1.00  0.00     0.328 C 
BRANCH  71  72
ATOM     72  N   UNL A   1      31.065  25.760  24.622  1.00  0.00    -0.316 N 
ATOM     73  C   UNL A   1      30.671  24.830  23.523  1.00  0.00     0.284 C 
ATOM     74  C   UNL A   1      31.263  24.938  25.830  1.00  0.00     0.284 C 
ATOM     75  H   UNL A   1      30.314  26.425  24.804  1.00  0.00     0.349 HD
ATOM     76  C   UNL A   1      31.474  23.494  23.328  1.00  0.00     0.178 C 
ATOM     77  C   UNL A   1      32.293  23.807  25.686  1.00  0.00     0.178 C 
ATOM     78  N   UNL A   1      31.923  22.894  24.595  1.00  0.00    -0.360 N 
BRANCH  78  79
ATOM     79  C   UNL A   1      32.758  21.771  24.546  1.00  0.00     0.038 A 
ATOM     80  C   UNL A   1      32.166  20.507  24.414  1.00  0.00     0.026 A 
ATOM     81  C   UNL A   1      34.146  21.834  24.734  1.00  0.00     0.046 A 
ATOM     82  C   UNL A   1      32.928  19.337  24.447  1.00  0.00     0.004 A 
ATOM     83  C   UNL A   1      34.909  20.662  24.773  1.00  0.00     0.043 A 
ATOM     84  C   UNL A   1      34.306  19.414  24.627  1.00  0.00     0.020 A 
ATOM     85  Cl  UNL A   1      36.610  20.750  25.031  1.00  0.00    -0.084 Cl
ENDBRANCH  78  79
ENDBRANCH  71  72
BRANCH  71  86
ATOM     86  C   UNL A   1      31.669  27.914  23.403  1.00  0.00     0.046 A 
ATOM     87  C   UNL A   1      32.496  28.754  22.668  1.00  0.00     0.094 A 
ATOM     88  C   UNL A   1      30.322  28.388  23.139  1.00  0.00     0.011 A 
ATOM     89  N   UNL A   1      31.747  29.681  22.010  1.00  0.00    -0.361 N 
ATOM     90  C   UNL A   1      30.415  29.459  22.243  1.00  0.00     0.046 A 
ATOM     91  C   UNL A   1      29.025  28.033  23.568  1.00  0.00     0.031 A 
ATOM     92  H   UNL A   1      32.108  30.404  21.450  1.00  0.00     0.166 HD
ATOM     93  C   UNL A   1      29.310  30.144  21.723  1.00  0.00     0.028 A 
ATOM     94  C   UNL A   1      27.904  28.690  23.033  1.00  0.00     0.041 A 
ATOM     95  C   UNL A   1      28.041  29.724  22.117  1.00  0.00     0.022 A 
ATOM     96  Cl  UNL A   1      26.317  28.204  23.501  1.00  0.00    -0.084 Cl
ENDBRANCH  71  86
ENDBRANCH  69  71
ENDBRANCH  68  69
ENDBRANCH  67  68
ENDBRANCH  66  67
ENDBRANCH  65  66
ENDBRANCH  64  65
ENDBRANCH   1  64
TORSDOF 20
ENDMDL
MODEL 3
REMARK VINA RESULT:     -11.7      4.631      9.456
REMARK SMILES O=C(OCCOCCOCCOC(=O)[C@H](c1c[nH]c2ccc(Cl)cc12)[NH+]1CCN(c2cccc(Cl)c2)CC1)c1ccc(-c2c3nc(c(-c4c(F)cccc4F)c4ccc([nH]4)c(-c4c(F)cccc4F)c4nc(c(-c5c(F)cccc5F)c5ccc2[nH]5)C=C4)C=C3)cc1
REMARK SMILES IDX 7 1 6 2 5 3 4 4 3 5 2 6 1 7 39 8 40 9 92 10 41 11 91 12
REMARK SMILES IDX 42 13 43 14 44 15 85 16 45 17 90 18 84 19 86 20 46 21 89 22
REMARK SMILES IDX 83 23 82 24 47 26 73 27 56 28 72 29 57 30 60 31 71 32 87 33
REMARK SMILES IDX 58 34 59 35 70 37 88 38 61 39 48 40 49 41 54 42 50 43 51 44
REMARK SMILES IDX 53 45 55 46 52 47 74 48 75 49 80 50 76 51 77 52 79 53 81 54
REMARK SMILES IDX 78 55 62 56 63 57 68 58 64 59 65 60 67 61 69 62 66 63 8 64
REMARK SMILES IDX 9 65 10 66 11 67 12 68 13 69 14 70 15 71 26 72 27 73 38 74
REMARK SMILES IDX 28 76 37 77 29 78 30 79 31 80 36 81 32 82 34 83 33 84 35 85
REMARK SMILES IDX 16 86 17 87 25 88 18 89 19 90 24 91 20 93 22 94 21 95 23 96
REMARK H PARENT 86 25 60 36 26 75 18 92
REMARK Flexibility Score: inf
ROOT
ATOM      1  C   UNL A   1      41.266  20.274  26.151  1.00  0.00     0.188 C 
ENDROOT
BRANCH   1   2
ATOM      2  O   UNL A   1      42.444  20.766  25.540  1.00  0.00    -0.376 OA
BRANCH   2   3
ATOM      3  C   UNL A   1      42.824  22.115  25.799  1.00  0.00     0.202 C 
BRANCH   3   4
ATOM      4  C   UNL A   1      43.712  22.862  24.795  1.00  0.00     0.261 C 
BRANCH   4   5
ATOM      5  O   UNL A   1      43.544  24.291  24.677  1.00  0.00    -0.460 OA
BRANCH   5   6
ATOM      6  C   UNL A   1      44.131  25.346  25.276  1.00  0.00     0.338 C 
ATOM      7  O   UNL A   1      45.234  25.723  24.886  1.00  0.00    -0.246 OA
BRANCH   6   8
ATOM      8  C   UNL A   1      43.482  26.105  26.366  1.00  0.00     0.060 A 
ATOM      9  C   UNL A   1      43.728  27.446  26.645  1.00  0.00     0.016 A 
ATOM     10  C   UNL A   1      42.470  25.454  27.071  1.00  0.00     0.016 A 
ATOM     11  C   UNL A   1      43.151  28.080  27.734  1.00  0.00     0.010 A 
ATOM     12  C   UNL A   1      41.797  26.120  28.093  1.00  0.00     0.010 A 
ATOM     13  C   UNL A   1      42.183  27.418  28.475  1.00  0.00    -0.014 A 
BRANCH  13  14
ATOM     14  C   UNL A   1      41.660  27.998  29.730  1.00  0.00     0.031 A 
ATOM     15  C   UNL A   1      40.452  28.878  29.616  1.00  0.00     0.074 A 
ATOM     16  C   UNL A   1      42.245  27.768  30.918  1.00  0.00     0.049 A 
ATOM     17  N   UNL A   1      39.955  29.732  30.466  1.00  0.00    -0.248 NA
ATOM     18  C   UNL A   1      39.709  28.787  28.345  1.00  0.00     0.031 C 
ATOM     19  C   UNL A   1      43.334  26.824  31.171  1.00  0.00     0.029 A 
ATOM     20  N   UNL A   1      42.038  28.360  32.137  1.00  0.00    -0.354 N 
ATOM     21  C   UNL A   1      38.876  30.312  29.814  1.00  0.00     0.074 A 
ATOM     22  C   UNL A   1      38.824  29.758  28.482  1.00  0.00     0.031 C 
ATOM     23  C   UNL A   1      43.770  26.972  32.432  1.00  0.00     0.029 A 
ATOM     24  C   UNL A   1      42.995  28.027  33.067  1.00  0.00     0.049 A 
ATOM     25  H   UNL A   1      41.283  28.963  32.327  1.00  0.00     0.167 HD
ATOM     26  C   UNL A   1      37.991  31.210  30.302  1.00  0.00     0.037 A 
ATOM     27  C   UNL A   1      43.242  28.554  34.279  1.00  0.00     0.037 A 
ATOM     28  C   UNL A   1      38.061  31.714  31.645  1.00  0.00     0.049 A 
ATOM     29  C   UNL A   1      42.315  29.623  34.779  1.00  0.00     0.074 A 
ATOM     30  C   UNL A   1      37.234  32.618  32.278  1.00  0.00     0.029 A 
ATOM     31  N   UNL A   1      39.035  31.339  32.565  1.00  0.00    -0.354 N 
ATOM     32  N   UNL A   1      41.302  30.187  34.164  1.00  0.00    -0.248 NA
ATOM     33  C   UNL A   1      42.537  30.107  36.145  1.00  0.00     0.031 C 
ATOM     34  C   UNL A   1      37.732  32.824  33.569  1.00  0.00     0.029 A 
ATOM     35  C   UNL A   1      38.836  32.004  33.759  1.00  0.00     0.049 A 
ATOM     36  H   UNL A   1      39.759  30.696  32.390  1.00  0.00     0.167 HD
ATOM     37  C   UNL A   1      40.730  31.051  35.084  1.00  0.00     0.074 A 
ATOM     38  C   UNL A   1      41.522  30.947  36.295  1.00  0.00     0.031 C 
ATOM     39  C   UNL A   1      39.639  31.847  34.949  1.00  0.00     0.037 A 
BRANCH  26  40
ATOM     40  C   UNL A   1      36.936  31.703  29.356  1.00  0.00     0.057 A 
ATOM     41  C   UNL A   1      37.001  32.970  28.756  1.00  0.00     0.134 A 
ATOM     42  C   UNL A   1      35.791  30.936  29.108  1.00  0.00     0.134 A 
ATOM     43  F   UNL A   1      38.056  33.771  28.973  1.00  0.00    -0.206 F 
ATOM     44  C   UNL A   1      35.944  33.478  27.999  1.00  0.00     0.040 A 
ATOM     45  C   UNL A   1      34.743  31.418  28.323  1.00  0.00     0.040 A 
ATOM     46  F   UNL A   1      35.659  29.714  29.647  1.00  0.00    -0.206 F 
ATOM     47  C   UNL A   1      34.809  32.701  27.781  1.00  0.00     0.006 A 
ENDBRANCH  26  40
BRANCH  27  48
ATOM     48  C   UNL A   1      44.388  28.063  35.085  1.00  0.00     0.057 A 
ATOM     49  C   UNL A   1      45.641  28.680  35.013  1.00  0.00     0.134 A 
ATOM     50  C   UNL A   1      44.253  26.986  35.972  1.00  0.00     0.134 A 
ATOM     51  F   UNL A   1      45.836  29.713  34.181  1.00  0.00    -0.206 F 
ATOM     52  C   UNL A   1      46.722  28.237  35.779  1.00  0.00     0.040 A 
ATOM     53  C   UNL A   1      45.319  26.545  36.759  1.00  0.00     0.040 A 
ATOM     54  F   UNL A   1      43.074  26.359  36.102  1.00  0.00    -0.206 F 
ATOM     55  C   UNL A   1      46.561  27.168  36.659  1.00  0.00     0.006 A 
ENDBRANCH  27  48
BRANCH  39  56
ATOM     56  C   UNL A   1      39.196  32.602  36.163  1.00  0.00     0.057 A 
ATOM     57  C   UNL A   1      38.318  32.050  37.101  1.00  0.00     0.134 A 
ATOM     58  C   UNL A   1      39.727  33.870  36.430  1.00  0.00     0.134 A 
ATOM     59  F   UNL A   1      37.766  30.846  36.892  1.00  0.00    -0.206 F 
ATOM     60  C   UNL A   1      37.976  32.740  38.264  1.00  0.00     0.040 A 
ATOM     61  C   UNL A   1      39.417  34.556  37.601  1.00  0.00     0.040 A 
ATOM     62  F   UNL A   1      40.581  34.447  35.568  1.00  0.00    -0.206 F 
ATOM     63  C   UNL A   1      38.537  33.991  38.522  1.00  0.00     0.006 A 
ENDBRANCH  39  56
ENDBRANCH  13  14
ENDBRANCH   6   8
ENDBRANCH   5   6
ENDBRANCH   4   5
ENDBRANCH   3   4
ENDBRANCH   2   3
ENDBRANCH   1   2
BRANCH   1  64
ATOM     64  C   UNL A   1      40.240  21.333  26.552  1.00  0.00     0.188 C 
BRANCH  64  65
ATOM     65  O   UNL A   1      39.149  21.631  25.700  1.00  0.00    -0.376 OA
BRANCH  65  66
ATOM     66  C   UNL A   1      38.180  22.589  26.097  1.00  0.00     0.202 C 
BRANCH  66  67
ATOM     67  C   UNL A   1      37.678  23.643  25.093  1.00  0.00     0.261 C 
BRANCH  67  68
ATOM     68  O   UNL A   1      36.260  23.804  24.891  1.00  0.00    -0.459 OA
BRANCH  68  69
ATOM     69  C   UNL A   1      35.801  23.278  23.712  1.00  0.00     0.370 C 
ATOM     70  O   UNL A   1      36.539  22.956  22.800  1.00  0.00    -0.245 OA
BRANCH  69  71
ATOM     71  C   UNL A   1      34.250  23.281  23.622  1.00  0.00     0.328 C 
BRANCH  71  72
ATOM     72  N   UNL A   1      33.608  22.869  24.921  1.00  0.00    -0.316 N 
ATOM     73  C   UNL A   1      32.257  22.245  24.804  1.00  0.00     0.284 C 
ATOM     74  C   UNL A   1      34.402  22.010  25.818  1.00  0.00     0.284 C 
ATOM     75  H   UNL A   1      33.531  23.794  25.344  1.00  0.00     0.349 HD
ATOM     76  C   UNL A   1      32.151  20.697  24.557  1.00  0.00     0.178 C 
ATOM     77  C   UNL A   1      34.524  20.544  25.376  1.00  0.00     0.178 C 
ATOM     78  N   UNL A   1      33.198  19.923  25.242  1.00  0.00    -0.360 N 
BRANCH  78  79
ATOM     79  C   UNL A   1      33.286  18.547  24.995  1.00  0.00     0.038 A 
ATOM     80  C   UNL A   1      34.006  18.119  23.871  1.00  0.00     0.026 A 
ATOM     81  C   UNL A   1      32.600  17.583  25.747  1.00  0.00     0.046 A 
ATOM     82  C   UNL A   1      34.063  16.771  23.511  1.00  0.00     0.004 A 
ATOM     83  C   UNL A   1      32.653  16.234  25.385  1.00  0.00     0.043 A 
ATOM     84  C   UNL A   1      33.384  15.823  24.272  1.00  0.00     0.020 A 
ATOM     85  Cl  UNL A   1      31.785  15.061  26.302  1.00  0.00    -0.084 Cl
ENDBRANCH  78  79
ENDBRANCH  71  72
BRANCH  71  86
ATOM     86  C   UNL A   1      33.741  24.626  23.081  1.00  0.00     0.046 A 
ATOM     87  C   UNL A   1      33.246  24.836  21.800  1.00  0.00     0.094 A 
ATOM     88  C   UNL A   1      33.653  25.920  23.734  1.00  0.00     0.011 A 
ATOM     89  N   UNL A   1      32.890  26.141  21.650  1.00  0.00    -0.361 N 
ATOM     90  C   UNL A   1      33.087  26.819  22.824  1.00  0.00     0.046 A 
ATOM     91  C   UNL A   1      34.001  26.437  25.001  1.00  0.00     0.031 A 
ATOM     92  H   UNL A   1      32.542  26.540  20.821  1.00  0.00     0.166 HD
ATOM     93  C   UNL A   1      32.806  28.159  23.119  1.00  0.00     0.028 A 
ATOM     94  C   UNL A   1      33.698  27.771  25.323  1.00  0.00     0.041 A 
ATOM     95  C   UNL A   1      33.100  28.618  24.400  1.00  0.00     0.022 A 
ATOM     96  Cl  UNL A   1      34.054  28.378  26.897  1.00  0.00    -0.084 Cl
ENDBRANCH  71  86
ENDBRANCH  69  71
ENDBRANCH  68  69
ENDBRANCH  67  68
ENDBRANCH  66  67
ENDBRANCH  65  66
ENDBRANCH  64  65
ENDBRANCH   1  64
TORSDOF 20
ENDMDL
