MODEL 1
REMARK VINA RESULT:     -11.5      0.000      0.000
REMARK SMILES O=C(CNC(=O)[C@@H](CC1=c2ccccc2=NC1)N1C(=O)N=C2C=CC=C[C@H]2C1=O)OCCOCCOCCOC(=O)c1ccc(-c2c3nc(c(-c4c(F)cccc4F)c4ccc([nH]4)c(-c4c(F)cccc4F)c4nc(c(-c5c(F)cccc5F)c5ccc2[nH]5)C=C4)C=C3)cc1
REMARK SMILES IDX 34 1 33 2 32 3 31 4 30 5 2 6 1 7 3 8 4 9 5 10 6 12 7 13 8 14
REMARK SMILES IDX 9 15 10 16 17 17 11 18 15 19 16 20 12 21 14 22 13 23 18 24
REMARK SMILES IDX 19 25 28 26 21 27 20 28 27 29 29 30 22 31 26 32 23 33 25 34
REMARK SMILES IDX 24 35 35 36 36 37 37 38 38 39 39 40 40 41 41 42 42 43 43 44
REMARK SMILES IDX 95 45 44 46 94 47 45 48 46 49 47 50 88 51 48 52 93 53 87 54
REMARK SMILES IDX 89 55 49 56 92 57 86 58 85 59 50 61 76 62 59 63 75 64 60 65
REMARK SMILES IDX 63 66 74 67 90 68 61 69 62 70 73 72 91 73 64 74 51 75 52 76
REMARK SMILES IDX 57 77 53 78 54 79 56 80 58 81 55 82 77 83 78 84 83 85 79 86
REMARK SMILES IDX 80 87 82 88 84 89 81 90 65 91 66 92 71 93 67 94 68 95 70 96
REMARK SMILES IDX 72 97 69 98
REMARK H PARENT 4 11 89 60 63 71
REMARK Flexibility Score: inf
ROOT
ATOM      1  C   UNL A   1      33.764  31.403  27.596  1.00  0.00     0.188 C 
ENDROOT
BRANCH   1   2
ATOM      2  O   UNL A   1      32.392  31.337  26.830  1.00  0.00    -0.376 OA
BRANCH   2   3
ATOM      3  C   UNL A   1      31.625  30.117  26.691  1.00  0.00     0.202 C 
BRANCH   3   4
ATOM      4  C   UNL A   1      32.355  28.988  25.991  1.00  0.00     0.261 C 
BRANCH   4   5
ATOM      5  O   UNL A   1      32.789  29.344  24.686  1.00  0.00    -0.462 OA
BRANCH   5   6
ATOM      6  C   UNL A   1      33.765  28.657  24.055  1.00  0.00     0.325 C 
ATOM      7  O   UNL A   1      34.664  28.154  24.733  1.00  0.00    -0.250 OA
BRANCH   6   8
ATOM      8  C   UNL A   1      33.797  28.526  22.508  1.00  0.00     0.238 C 
BRANCH   8   9
ATOM      9  N   UNL A   1      33.111  27.482  21.676  1.00  0.00    -0.343 N 
ATOM     10  C   UNL A   1      32.441  26.292  21.914  1.00  0.00     0.244 C 
ATOM     11  H   UNL A   1      33.144  27.697  20.716  1.00  0.00     0.164 HD
ATOM     12  O   UNL A   1      32.275  25.581  20.909  1.00  0.00    -0.273 OA
BRANCH  10  13
ATOM     13  C   UNL A   1      31.915  25.731  23.324  1.00  0.00     0.188 C 
BRANCH  13  14
ATOM     14  C   UNL A   1      30.283  25.825  23.506  1.00  0.00     0.069 C 
BRANCH  14  15
ATOM     15  C   UNL A   1      29.498  27.157  23.456  1.00  0.00    -0.037 C 
ATOM     16  C   UNL A   1      29.541  28.744  22.879  1.00  0.00     0.001 A 
ATOM     17  C   UNL A   1      27.596  26.732  23.970  1.00  0.00     0.174 C 
ATOM     18  C   UNL A   1      30.330  29.684  22.099  1.00  0.00     0.010 A 
ATOM     19  C   UNL A   1      27.705  29.502  23.060  1.00  0.00     0.065 A 
ATOM     20  N   UNL A   1      26.642  28.440  23.603  1.00  0.00    -0.280 NA
ATOM     21  C   UNL A   1      29.719  30.669  21.388  1.00  0.00     0.001 A 
ATOM     22  C   UNL A   1      27.358  30.677  22.254  1.00  0.00     0.028 A 
ATOM     23  C   UNL A   1      28.309  31.080  21.400  1.00  0.00     0.002 A 
ENDBRANCH  14  15
ENDBRANCH  13  14
BRANCH  13  24
ATOM     24  N   UNL A   1      32.710  24.542  23.743  1.00  0.00    -0.249 N 
ATOM     25  C   UNL A   1      33.223  24.648  24.986  1.00  0.00     0.351 C 
ATOM     26  C   UNL A   1      32.400  23.203  23.606  1.00  0.00     0.244 C 
ATOM     27  N   UNL A   1      34.518  24.265  25.052  1.00  0.00    -0.197 NA
ATOM     28  O   UNL A   1      32.596  24.975  25.981  1.00  0.00    -0.246 OA
ATOM     29  C   UNL A   1      33.435  22.189  24.323  1.00  0.00     0.151 C 
ATOM     30  O   UNL A   1      31.385  22.797  23.040  1.00  0.00    -0.273 OA
ATOM     31  C   UNL A   1      34.547  22.981  25.012  1.00  0.00     0.062 C 
ATOM     32  C   UNL A   1      32.926  21.182  25.328  1.00  0.00    -0.007 C 
ATOM     33  C   UNL A   1      35.442  22.445  26.029  1.00  0.00     0.025 C 
ATOM     34  C   UNL A   1      33.559  20.952  26.494  1.00  0.00    -0.003 C 
ATOM     35  C   UNL A   1      34.756  21.665  26.868  1.00  0.00     0.002 C 
ENDBRANCH  13  24
ENDBRANCH  10  13
ENDBRANCH   8   9
ENDBRANCH   6   8
ENDBRANCH   5   6
ENDBRANCH   4   5
ENDBRANCH   3   4
ENDBRANCH   2   3
ENDBRANCH   1   2
BRANCH   1  36
ATOM     36  C   UNL A   1      35.052  33.218  27.969  1.00  0.00     0.188 C 
BRANCH  36  37
ATOM     37  O   UNL A   1      34.732  34.762  27.672  1.00  0.00    -0.376 OA
BRANCH  37  38
ATOM     38  C   UNL A   1      33.984  35.461  28.707  1.00  0.00     0.202 C 
BRANCH  38  39
ATOM     39  C   UNL A   1      33.623  34.692  29.998  1.00  0.00     0.261 C 
BRANCH  39  40
ATOM     40  O   UNL A   1      32.482  35.218  30.705  1.00  0.00    -0.460 OA
BRANCH  40  41
ATOM     41  C   UNL A   1      32.755  35.801  31.902  1.00  0.00     0.338 C 
ATOM     42  O   UNL A   1      32.129  36.701  32.435  1.00  0.00    -0.246 OA
BRANCH  41  43
ATOM     43  C   UNL A   1      33.861  35.080  32.584  1.00  0.00     0.060 A 
ATOM     44  C   UNL A   1      33.669  33.841  33.193  1.00  0.00     0.016 A 
ATOM     45  C   UNL A   1      35.132  35.679  32.621  1.00  0.00     0.016 A 
ATOM     46  C   UNL A   1      34.762  33.189  33.786  1.00  0.00     0.010 A 
ATOM     47  C   UNL A   1      36.221  35.029  33.228  1.00  0.00     0.010 A 
ATOM     48  C   UNL A   1      36.061  33.756  33.785  1.00  0.00    -0.014 A 
BRANCH  48  49
ATOM     49  C   UNL A   1      37.230  32.867  34.077  1.00  0.00     0.031 A 
ATOM     50  C   UNL A   1      37.736  31.738  33.212  1.00  0.00     0.074 A 
ATOM     51  C   UNL A   1      37.879  33.119  35.232  1.00  0.00     0.049 A 
ATOM     52  N   UNL A   1      38.924  31.174  33.217  1.00  0.00    -0.248 NA
ATOM     53  C   UNL A   1      36.809  31.145  32.241  1.00  0.00     0.031 C 
ATOM     54  C   UNL A   1      37.443  34.088  36.241  1.00  0.00     0.029 A 
ATOM     55  N   UNL A   1      39.038  32.601  35.744  1.00  0.00    -0.354 N 
ATOM     56  C   UNL A   1      38.919  30.222  32.199  1.00  0.00     0.074 A 
ATOM     57  C   UNL A   1      37.575  30.222  31.661  1.00  0.00     0.031 C 
ATOM     58  C   UNL A   1      38.347  34.130  37.228  1.00  0.00     0.029 A 
ATOM     59  C   UNL A   1      39.409  33.176  36.934  1.00  0.00     0.049 A 
ATOM     60  H   UNL A   1      39.554  31.888  35.303  1.00  0.00     0.167 HD
ATOM     61  C   UNL A   1      39.945  29.449  31.750  1.00  0.00     0.037 A 
ATOM     62  C   UNL A   1      40.489  32.970  37.705  1.00  0.00     0.037 A 
ATOM     63  C   UNL A   1      41.229  29.342  32.393  1.00  0.00     0.049 A 
ATOM     64  C   UNL A   1      41.548  32.013  37.250  1.00  0.00     0.074 A 
ATOM     65  C   UNL A   1      42.340  28.622  31.987  1.00  0.00     0.029 A 
ATOM     66  N   UNL A   1      41.538  29.896  33.621  1.00  0.00    -0.354 N 
ATOM     67  N   UNL A   1      41.637  31.342  36.129  1.00  0.00    -0.248 NA
ATOM     68  C   UNL A   1      42.672  31.802  38.171  1.00  0.00     0.031 C 
ATOM     69  C   UNL A   1      43.290  28.671  33.013  1.00  0.00     0.029 A 
ATOM     70  C   UNL A   1      42.793  29.472  34.027  1.00  0.00     0.049 A 
ATOM     71  H   UNL A   1      40.955  30.504  34.131  1.00  0.00     0.167 HD
ATOM     72  C   UNL A   1      42.846  30.661  36.192  1.00  0.00     0.074 A 
ATOM     73  C   UNL A   1      43.460  31.018  37.452  1.00  0.00     0.031 C 
ATOM     74  C   UNL A   1      43.400  29.820  35.283  1.00  0.00     0.037 A 
BRANCH  61  75
ATOM     75  C   UNL A   1      39.768  28.660  30.481  1.00  0.00     0.057 A 
ATOM     76  C   UNL A   1      40.062  29.179  29.220  1.00  0.00     0.134 A 
ATOM     77  C   UNL A   1      39.143  27.408  30.515  1.00  0.00     0.134 A 
ATOM     78  F   UNL A   1      40.528  30.429  29.093  1.00  0.00    -0.206 F 
ATOM     79  C   UNL A   1      39.834  28.436  28.054  1.00  0.00     0.040 A 
ATOM     80  C   UNL A   1      38.975  26.622  29.373  1.00  0.00     0.040 A 
ATOM     81  F   UNL A   1      38.608  26.962  31.660  1.00  0.00    -0.206 F 
ATOM     82  C   UNL A   1      39.328  27.138  28.133  1.00  0.00     0.006 A 
ENDBRANCH  61  75
BRANCH  62  83
ATOM     83  C   UNL A   1      40.633  33.712  38.981  1.00  0.00     0.057 A 
ATOM     84  C   UNL A   1      40.001  33.270  40.150  1.00  0.00     0.134 A 
ATOM     85  C   UNL A   1      41.425  34.862  39.066  1.00  0.00     0.134 A 
ATOM     86  F   UNL A   1      39.218  32.182  40.127  1.00  0.00    -0.206 F 
ATOM     87  C   UNL A   1      40.153  33.946  41.359  1.00  0.00     0.040 A 
ATOM     88  C   UNL A   1      41.612  35.528  40.277  1.00  0.00     0.040 A 
ATOM     89  F   UNL A   1      42.062  35.326  37.980  1.00  0.00    -0.206 F 
ATOM     90  C   UNL A   1      40.972  35.071  41.427  1.00  0.00     0.006 A 
ENDBRANCH  62  83
BRANCH  74  91
ATOM     91  C   UNL A   1      44.753  29.261  35.613  1.00  0.00     0.057 A 
ATOM     92  C   UNL A   1      44.872  28.036  36.282  1.00  0.00     0.134 A 
ATOM     93  C   UNL A   1      45.937  29.914  35.247  1.00  0.00     0.134 A 
ATOM     94  F   UNL A   1      43.780  27.364  36.677  1.00  0.00    -0.206 F 
ATOM     95  C   UNL A   1      46.119  27.474  36.558  1.00  0.00     0.040 A 
ATOM     96  C   UNL A   1      47.188  29.342  35.483  1.00  0.00     0.040 A 
ATOM     97  F   UNL A   1      45.894  31.086  34.593  1.00  0.00    -0.206 F 
ATOM     98  C   UNL A   1      47.281  28.119  36.142  1.00  0.00     0.006 A 
ENDBRANCH  74  91
ENDBRANCH  48  49
ENDBRANCH  41  43
ENDBRANCH  40  41
ENDBRANCH  39  40
ENDBRANCH  38  39
ENDBRANCH  37  38
ENDBRANCH  36  37
ENDBRANCH   1  36
TORSDOF 22
ENDMDL
MODEL 2
REMARK VINA RESULT:     -11.5      4.780      8.290
REMARK SMILES O=C(CNC(=O)[C@@H](CC1=c2ccccc2=NC1)N1C(=O)N=C2C=CC=C[C@H]2C1=O)OCCOCCOCCOC(=O)c1ccc(-c2c3nc(c(-c4c(F)cccc4F)c4ccc([nH]4)c(-c4c(F)cccc4F)c4nc(c(-c5c(F)cccc5F)c5ccc2[nH]5)C=C4)C=C3)cc1
REMARK SMILES IDX 34 1 33 2 32 3 31 4 30 5 2 6 1 7 3 8 4 9 5 10 6 12 7 13 8 14
REMARK SMILES IDX 9 15 10 16 17 17 11 18 15 19 16 20 12 21 14 22 13 23 18 24
REMARK SMILES IDX 19 25 28 26 21 27 20 28 27 29 29 30 22 31 26 32 23 33 25 34
REMARK SMILES IDX 24 35 35 36 36 37 37 38 38 39 39 40 40 41 41 42 42 43 43 44
REMARK SMILES IDX 95 45 44 46 94 47 45 48 46 49 47 50 88 51 48 52 93 53 87 54
REMARK SMILES IDX 89 55 49 56 92 57 86 58 85 59 50 61 76 62 59 63 75 64 60 65
REMARK SMILES IDX 63 66 74 67 90 68 61 69 62 70 73 72 91 73 64 74 51 75 52 76
REMARK SMILES IDX 57 77 53 78 54 79 56 80 58 81 55 82 77 83 78 84 83 85 79 86
REMARK SMILES IDX 80 87 82 88 84 89 81 90 65 91 66 92 71 93 67 94 68 95 70 96
REMARK SMILES IDX 72 97 69 98
REMARK H PARENT 4 11 89 60 63 71
REMARK Flexibility Score: inf
ROOT
ATOM      1  C   UNL A   1      33.085  35.124  29.048  1.00  0.00     0.188 C 
ENDROOT
BRANCH   1   2
ATOM      2  O   UNL A   1      33.585  33.834  28.301  1.00  0.00    -0.376 OA
BRANCH   2   3
ATOM      3  C   UNL A   1      32.739  33.056  27.420  1.00  0.00     0.202 C 
BRANCH   3   4
ATOM      4  C   UNL A   1      32.919  31.556  27.534  1.00  0.00     0.261 C 
BRANCH   4   5
ATOM      5  O   UNL A   1      34.270  31.152  27.357  1.00  0.00    -0.462 OA
BRANCH   5   6
ATOM      6  C   UNL A   1      34.615  29.849  27.290  1.00  0.00     0.325 C 
ATOM      7  O   UNL A   1      35.592  29.464  27.937  1.00  0.00    -0.250 OA
BRANCH   6   8
ATOM      8  C   UNL A   1      33.837  28.847  26.394  1.00  0.00     0.238 C 
BRANCH   8   9
ATOM      9  N   UNL A   1      32.706  27.954  26.811  1.00  0.00    -0.343 N 
ATOM     10  C   UNL A   1      31.601  27.383  26.198  1.00  0.00     0.244 C 
ATOM     11  H   UNL A   1      32.761  27.710  27.763  1.00  0.00     0.164 HD
ATOM     12  O   UNL A   1      30.746  26.939  26.980  1.00  0.00    -0.273 OA
BRANCH  10  13
ATOM     13  C   UNL A   1      31.300  27.286  24.622  1.00  0.00     0.188 C 
BRANCH  13  14
ATOM     14  C   UNL A   1      31.331  25.748  24.038  1.00  0.00     0.069 C 
BRANCH  14  15
ATOM     15  C   UNL A   1      32.552  24.811  24.177  1.00  0.00    -0.037 C 
ATOM     16  C   UNL A   1      33.359  23.769  25.234  1.00  0.00     0.001 A 
ATOM     17  C   UNL A   1      33.221  24.444  22.310  1.00  0.00     0.174 C 
ATOM     18  C   UNL A   1      33.308  23.184  26.564  1.00  0.00     0.010 A 
ATOM     19  C   UNL A   1      34.673  22.719  24.162  1.00  0.00     0.065 A 
ATOM     20  N   UNL A   1      34.594  23.032  22.597  1.00  0.00    -0.280 NA
ATOM     21  C   UNL A   1      33.830  21.950  26.791  1.00  0.00     0.001 A 
ATOM     22  C   UNL A   1      35.184  21.466  24.727  1.00  0.00     0.028 A 
ATOM     23  C   UNL A   1      34.640  21.109  25.899  1.00  0.00     0.002 A 
ENDBRANCH  14  15
ENDBRANCH  13  14
BRANCH  13  24
ATOM     24  N   UNL A   1      30.266  28.283  24.226  1.00  0.00    -0.249 N 
ATOM     25  C   UNL A   1      30.777  29.374  23.617  1.00  0.00     0.351 C 
ATOM     26  C   UNL A   1      29.053  28.070  23.599  1.00  0.00     0.244 C 
ATOM     27  N   UNL A   1      30.249  30.528  24.083  1.00  0.00    -0.197 NA
ATOM     28  O   UNL A   1      31.571  29.356  22.690  1.00  0.00    -0.246 OA
ATOM     29  C   UNL A   1      28.259  29.414  23.181  1.00  0.00     0.151 C 
ATOM     30  O   UNL A   1      28.625  26.951  23.318  1.00  0.00    -0.273 OA
ATOM     31  C   UNL A   1      29.070  30.645  23.586  1.00  0.00     0.062 C 
ATOM     32  C   UNL A   1      27.835  29.620  21.745  1.00  0.00    -0.007 C 
ATOM     33  C   UNL A   1      28.848  31.991  23.073  1.00  0.00     0.025 C 
ATOM     34  C   UNL A   1      27.993  30.799  21.115  1.00  0.00    -0.003 C 
ATOM     35  C   UNL A   1      28.591  31.940  21.764  1.00  0.00     0.002 C 
ENDBRANCH  13  24
ENDBRANCH  10  13
ENDBRANCH   8   9
ENDBRANCH   6   8
ENDBRANCH   5   6
ENDBRANCH   4   5
ENDBRANCH   3   4
ENDBRANCH   2   3
ENDBRANCH   1   2
BRANCH   1  36
ATOM     36  C   UNL A   1      33.178  35.562  31.260  1.00  0.00     0.188 C 
BRANCH  36  37
ATOM     37  O   UNL A   1      32.957  34.564  32.497  1.00  0.00    -0.376 OA
BRANCH  37  38
ATOM     38  C   UNL A   1      34.100  34.398  33.384  1.00  0.00     0.202 C 
BRANCH  38  39
ATOM     39  C   UNL A   1      35.517  34.574  32.796  1.00  0.00     0.261 C 
BRANCH  39  40
ATOM     40  O   UNL A   1      36.065  33.383  32.195  1.00  0.00    -0.460 OA
BRANCH  40  41
ATOM     41  C   UNL A   1      36.431  33.502  30.892  1.00  0.00     0.338 C 
ATOM     42  O   UNL A   1      36.091  34.377  30.116  1.00  0.00    -0.246 OA
BRANCH  41  43
ATOM     43  C   UNL A   1      37.457  32.482  30.552  1.00  0.00     0.060 A 
ATOM     44  C   UNL A   1      37.532  31.903  29.286  1.00  0.00     0.016 A 
ATOM     45  C   UNL A   1      38.369  32.088  31.546  1.00  0.00     0.016 A 
ATOM     46  C   UNL A   1      38.549  30.976  29.012  1.00  0.00     0.010 A 
ATOM     47  C   UNL A   1      39.378  31.149  31.273  1.00  0.00     0.010 A 
ATOM     48  C   UNL A   1      39.508  30.607  29.989  1.00  0.00    -0.014 A 
BRANCH  48  49
ATOM     49  C   UNL A   1      40.766  29.932  29.539  1.00  0.00     0.031 A 
ATOM     50  C   UNL A   1      40.915  28.479  29.156  1.00  0.00     0.074 A 
ATOM     51  C   UNL A   1      41.860  30.717  29.478  1.00  0.00     0.049 A 
ATOM     52  N   UNL A   1      41.857  27.917  28.430  1.00  0.00    -0.248 NA
ATOM     53  C   UNL A   1      39.914  27.528  29.654  1.00  0.00     0.031 C 
ATOM     54  C   UNL A   1      41.916  32.108  29.935  1.00  0.00     0.029 A 
ATOM     55  N   UNL A   1      43.118  30.471  28.999  1.00  0.00    -0.354 N 
ATOM     56  C   UNL A   1      41.522  26.570  28.312  1.00  0.00     0.074 A 
ATOM     57  C   UNL A   1      40.336  26.382  29.122  1.00  0.00     0.031 C 
ATOM     58  C   UNL A   1      43.130  32.607  29.672  1.00  0.00     0.029 A 
ATOM     59  C   UNL A   1      43.942  31.568  29.053  1.00  0.00     0.049 A 
ATOM     60  H   UNL A   1      43.404  29.596  28.652  1.00  0.00     0.167 HD
ATOM     61  C   UNL A   1      42.134  25.600  27.579  1.00  0.00     0.037 A 
ATOM     62  C   UNL A   1      45.211  31.729  28.641  1.00  0.00     0.037 A 
ATOM     63  C   UNL A   1      43.398  25.760  26.908  1.00  0.00     0.049 A 
ATOM     64  C   UNL A   1      45.911  30.599  27.950  1.00  0.00     0.074 A 
ATOM     65  C   UNL A   1      44.070  24.852  26.107  1.00  0.00     0.029 A 
ATOM     66  N   UNL A   1      44.219  26.864  27.035  1.00  0.00    -0.354 N 
ATOM     67  N   UNL A   1      45.450  29.424  27.600  1.00  0.00    -0.248 NA
ATOM     68  C   UNL A   1      47.311  30.835  27.576  1.00  0.00     0.031 C 
ATOM     69  C   UNL A   1      45.337  25.374  25.823  1.00  0.00     0.029 A 
ATOM     70  C   UNL A   1      45.425  26.632  26.396  1.00  0.00     0.049 A 
ATOM     71  H   UNL A   1      43.981  27.694  27.510  1.00  0.00     0.167 HD
ATOM     72  C   UNL A   1      46.491  28.795  26.931  1.00  0.00     0.074 A 
ATOM     73  C   UNL A   1      47.597  29.728  26.908  1.00  0.00     0.031 C 
ATOM     74  C   UNL A   1      46.526  27.556  26.380  1.00  0.00     0.037 A 
BRANCH  61  75
ATOM     75  C   UNL A   1      41.457  24.267  27.415  1.00  0.00     0.057 A 
ATOM     76  C   UNL A   1      40.316  24.088  26.633  1.00  0.00     0.134 A 
ATOM     77  C   UNL A   1      41.869  23.172  28.185  1.00  0.00     0.134 A 
ATOM     78  F   UNL A   1      39.773  25.125  25.980  1.00  0.00    -0.206 F 
ATOM     79  C   UNL A   1      39.679  22.843  26.546  1.00  0.00     0.040 A 
ATOM     80  C   UNL A   1      41.293  21.907  28.056  1.00  0.00     0.040 A 
ATOM     81  F   UNL A   1      42.793  23.340  29.141  1.00  0.00    -0.206 F 
ATOM     82  C   UNL A   1      40.192  21.739  27.226  1.00  0.00     0.006 A 
ENDBRANCH  61  75
BRANCH  62  83
ATOM     83  C   UNL A   1      45.891  33.029  28.852  1.00  0.00     0.057 A 
ATOM     84  C   UNL A   1      45.853  34.033  27.876  1.00  0.00     0.134 A 
ATOM     85  C   UNL A   1      46.573  33.306  30.042  1.00  0.00     0.134 A 
ATOM     86  F   UNL A   1      45.228  33.820  26.709  1.00  0.00    -0.206 F 
ATOM     87  C   UNL A   1      46.468  35.268  28.077  1.00  0.00     0.040 A 
ATOM     88  C   UNL A   1      47.163  34.549  30.269  1.00  0.00     0.040 A 
ATOM     89  F   UNL A   1      46.635  32.386  31.016  1.00  0.00    -0.206 F 
ATOM     90  C   UNL A   1      47.113  35.533  29.283  1.00  0.00     0.006 A 
ENDBRANCH  62  83
BRANCH  74  91
ATOM     91  C   UNL A   1      47.792  27.162  25.676  1.00  0.00     0.057 A 
ATOM     92  C   UNL A   1      47.942  27.391  24.302  1.00  0.00     0.134 A 
ATOM     93  C   UNL A   1      48.872  26.584  26.356  1.00  0.00     0.134 A 
ATOM     94  F   UNL A   1      46.943  27.927  23.585  1.00  0.00    -0.206 F 
ATOM     95  C   UNL A   1      49.127  27.075  23.635  1.00  0.00     0.040 A 
ATOM     96  C   UNL A   1      50.075  26.300  25.707  1.00  0.00     0.040 A 
ATOM     97  F   UNL A   1      48.798  26.348  27.675  1.00  0.00    -0.206 F 
ATOM     98  C   UNL A   1      50.203  26.545  24.342  1.00  0.00     0.006 A 
ENDBRANCH  74  91
ENDBRANCH  48  49
ENDBRANCH  41  43
ENDBRANCH  40  41
ENDBRANCH  39  40
ENDBRANCH  38  39
ENDBRANCH  37  38
ENDBRANCH  36  37
ENDBRANCH   1  36
TORSDOF 22
ENDMDL
MODEL 3
REMARK VINA RESULT:     -11.4      5.396      9.613
REMARK SMILES O=C(CNC(=O)[C@@H](CC1=c2ccccc2=NC1)N1C(=O)N=C2C=CC=C[C@H]2C1=O)OCCOCCOCCOC(=O)c1ccc(-c2c3nc(c(-c4c(F)cccc4F)c4ccc([nH]4)c(-c4c(F)cccc4F)c4nc(c(-c5c(F)cccc5F)c5ccc2[nH]5)C=C4)C=C3)cc1
REMARK SMILES IDX 34 1 33 2 32 3 31 4 30 5 2 6 1 7 3 8 4 9 5 10 6 12 7 13 8 14
REMARK SMILES IDX 9 15 10 16 17 17 11 18 15 19 16 20 12 21 14 22 13 23 18 24
REMARK SMILES IDX 19 25 28 26 21 27 20 28 27 29 29 30 22 31 26 32 23 33 25 34
REMARK SMILES IDX 24 35 35 36 36 37 37 38 38 39 39 40 40 41 41 42 42 43 43 44
REMARK SMILES IDX 95 45 44 46 94 47 45 48 46 49 47 50 88 51 48 52 93 53 87 54
REMARK SMILES IDX 89 55 49 56 92 57 86 58 85 59 50 61 76 62 59 63 75 64 60 65
REMARK SMILES IDX 63 66 74 67 90 68 61 69 62 70 73 72 91 73 64 74 51 75 52 76
REMARK SMILES IDX 57 77 53 78 54 79 56 80 58 81 55 82 77 83 78 84 83 85 79 86
REMARK SMILES IDX 80 87 82 88 84 89 81 90 65 91 66 92 71 93 67 94 68 95 70 96
REMARK SMILES IDX 72 97 69 98
REMARK H PARENT 4 11 89 60 63 71
REMARK Flexibility Score: inf
ROOT
ATOM      1  C   UNL A   1      34.559  30.984  27.706  1.00  0.00     0.188 C 
ENDROOT
BRANCH   1   2
ATOM      2  O   UNL A   1      33.189  30.920  26.936  1.00  0.00    -0.376 OA
BRANCH   2   3
ATOM      3  C   UNL A   1      32.682  29.708  26.331  1.00  0.00     0.202 C 
BRANCH   3   4
ATOM      4  C   UNL A   1      32.519  28.543  27.287  1.00  0.00     0.261 C 
BRANCH   4   5
ATOM      5  O   UNL A   1      31.735  27.492  26.741  1.00  0.00    -0.462 OA
BRANCH   5   6
ATOM      6  C   UNL A   1      32.274  26.292  26.440  1.00  0.00     0.325 C 
ATOM      7  O   UNL A   1      31.666  25.272  26.776  1.00  0.00    -0.250 OA
BRANCH   6   8
ATOM      8  C   UNL A   1      33.648  26.173  25.725  1.00  0.00     0.238 C 
BRANCH   8   9
ATOM      9  N   UNL A   1      33.907  26.252  24.250  1.00  0.00    -0.343 N 
ATOM     10  C   UNL A   1      33.225  25.909  23.092  1.00  0.00     0.244 C 
ATOM     11  H   UNL A   1      34.785  26.649  24.052  1.00  0.00     0.164 HD
ATOM     12  O   UNL A   1      33.926  25.876  22.068  1.00  0.00    -0.273 OA
BRANCH  10  13
ATOM     13  C   UNL A   1      31.674  25.511  22.953  1.00  0.00     0.188 C 
BRANCH  13  14
ATOM     14  C   UNL A   1      31.354  23.950  23.359  1.00  0.00     0.069 C 
BRANCH  14  15
ATOM     15  C   UNL A   1      32.448  22.936  23.765  1.00  0.00    -0.037 C 
ATOM     16  C   UNL A   1      34.088  22.563  23.606  1.00  0.00     0.001 A 
ATOM     17  C   UNL A   1      31.717  21.880  25.319  1.00  0.00     0.174 C 
ATOM     18  C   UNL A   1      35.340  23.019  23.024  1.00  0.00     0.010 A 
ATOM     19  C   UNL A   1      34.527  21.175  24.969  1.00  0.00     0.065 A 
ATOM     20  N   UNL A   1      33.292  20.821  25.919  1.00  0.00    -0.280 NA
ATOM     21  C   UNL A   1      36.522  22.738  23.632  1.00  0.00     0.001 A 
ATOM     22  C   UNL A   1      35.933  20.991  25.342  1.00  0.00     0.028 A 
ATOM     23  C   UNL A   1      36.789  21.851  24.772  1.00  0.00     0.002 A 
ENDBRANCH  14  15
ENDBRANCH  13  14
BRANCH  13  24
ATOM     24  N   UNL A   1      30.805  26.651  23.361  1.00  0.00    -0.249 N 
ATOM     25  C   UNL A   1      30.970  27.753  22.600  1.00  0.00     0.351 C 
ATOM     26  C   UNL A   1      29.459  26.642  23.675  1.00  0.00     0.244 C 
ATOM     27  N   UNL A   1      31.058  28.885  23.333  1.00  0.00    -0.197 NA
ATOM     28  O   UNL A   1      30.966  27.773  21.380  1.00  0.00    -0.246 OA
ATOM     29  C   UNL A   1      28.810  28.102  23.921  1.00  0.00     0.151 C 
ATOM     30  O   UNL A   1      28.778  25.617  23.708  1.00  0.00    -0.273 OA
ATOM     31  C   UNL A   1      29.874  29.183  23.733  1.00  0.00     0.062 C 
ATOM     32  C   UNL A   1      27.602  28.531  23.120  1.00  0.00    -0.007 C 
ATOM     33  C   UNL A   1      29.594  30.599  23.532  1.00  0.00     0.025 C 
ATOM     34  C   UNL A   1      27.503  29.759  22.577  1.00  0.00    -0.003 C 
ATOM     35  C   UNL A   1      28.552  30.742  22.710  1.00  0.00     0.002 C 
ENDBRANCH  13  24
ENDBRANCH  10  13
ENDBRANCH   8   9
ENDBRANCH   6   8
ENDBRANCH   5   6
ENDBRANCH   4   5
ENDBRANCH   3   4
ENDBRANCH   2   3
ENDBRANCH   1   2
BRANCH   1  36
ATOM     36  C   UNL A   1      35.173  32.442  29.316  1.00  0.00     0.188 C 
BRANCH  36  37
ATOM     37  O   UNL A   1      34.467  32.745  30.725  1.00  0.00    -0.376 OA
BRANCH  37  38
ATOM     38  C   UNL A   1      35.368  33.053  31.828  1.00  0.00     0.202 C 
BRANCH  38  39
ATOM     39  C   UNL A   1      35.678  31.941  32.854  1.00  0.00     0.261 C 
BRANCH  39  40
ATOM     40  O   UNL A   1      37.004  31.384  32.747  1.00  0.00    -0.460 OA
BRANCH  40  41
ATOM     41  C   UNL A   1      37.126  30.326  31.903  1.00  0.00     0.338 C 
ATOM     42  O   UNL A   1      36.258  29.521  31.613  1.00  0.00    -0.246 OA
BRANCH  41  43
ATOM     43  C   UNL A   1      38.450  30.355  31.231  1.00  0.00     0.060 A 
ATOM     44  C   UNL A   1      39.643  30.239  31.944  1.00  0.00     0.016 A 
ATOM     45  C   UNL A   1      38.493  30.516  29.836  1.00  0.00     0.016 A 
ATOM     46  C   UNL A   1      40.862  30.231  31.249  1.00  0.00     0.010 A 
ATOM     47  C   UNL A   1      39.717  30.523  29.144  1.00  0.00     0.010 A 
ATOM     48  C   UNL A   1      40.919  30.341  29.837  1.00  0.00    -0.014 A 
BRANCH  48  49
ATOM     49  C   UNL A   1      42.183  29.946  29.138  1.00  0.00     0.031 A 
ATOM     50  C   UNL A   1      43.363  30.842  28.848  1.00  0.00     0.074 A 
ATOM     51  C   UNL A   1      42.251  28.661  28.738  1.00  0.00     0.049 A 
ATOM     52  N   UNL A   1      44.604  30.498  28.579  1.00  0.00    -0.248 NA
ATOM     53  C   UNL A   1      43.140  32.292  28.828  1.00  0.00     0.031 C 
ATOM     54  C   UNL A   1      41.149  27.699  28.826  1.00  0.00     0.029 A 
ATOM     55  N   UNL A   1      43.281  27.941  28.196  1.00  0.00    -0.354 N 
ATOM     56  C   UNL A   1      45.327  31.681  28.443  1.00  0.00     0.074 A 
ATOM     57  C   UNL A   1      44.362  32.754  28.567  1.00  0.00     0.031 C 
ATOM     58  C   UNL A   1      41.576  26.504  28.400  1.00  0.00     0.029 A 
ATOM     59  C   UNL A   1      42.967  26.621  27.986  1.00  0.00     0.049 A 
ATOM     60  H   UNL A   1      44.159  28.330  27.979  1.00  0.00     0.167 HD
ATOM     61  C   UNL A   1      46.666  31.847  28.260  1.00  0.00     0.037 A 
ATOM     62  C   UNL A   1      43.717  25.607  27.522  1.00  0.00     0.037 A 
ATOM     63  C   UNL A   1      47.588  30.777  27.980  1.00  0.00     0.049 A 
ATOM     64  C   UNL A   1      45.161  25.845  27.202  1.00  0.00     0.074 A 
ATOM     65  C   UNL A   1      48.963  30.843  27.825  1.00  0.00     0.029 A 
ATOM     66  N   UNL A   1      47.219  29.470  27.723  1.00  0.00    -0.354 N 
ATOM     67  N   UNL A   1      45.882  26.927  27.363  1.00  0.00    -0.248 NA
ATOM     68  C   UNL A   1      45.901  24.703  26.650  1.00  0.00     0.031 C 
ATOM     69  C   UNL A   1      49.413  29.592  27.388  1.00  0.00     0.029 A 
ATOM     70  C   UNL A   1      48.327  28.736  27.332  1.00  0.00     0.049 A 
ATOM     71  H   UNL A   1      46.305  29.114  27.806  1.00  0.00     0.167 HD
ATOM     72  C   UNL A   1      47.170  26.583  26.971  1.00  0.00     0.074 A 
ATOM     73  C   UNL A   1      47.130  25.189  26.584  1.00  0.00     0.031 C 
ATOM     74  C   UNL A   1      48.286  27.353  26.940  1.00  0.00     0.037 A 
BRANCH  61  75
ATOM     75  C   UNL A   1      47.258  33.224  28.378  1.00  0.00     0.057 A 
ATOM     76  C   UNL A   1      47.621  33.790  29.600  1.00  0.00     0.134 A 
ATOM     77  C   UNL A   1      47.321  34.058  27.256  1.00  0.00     0.134 A 
ATOM     78  F   UNL A   1      47.453  33.106  30.740  1.00  0.00    -0.206 F 
ATOM     79  C   UNL A   1      48.119  35.097  29.679  1.00  0.00     0.040 A 
ATOM     80  C   UNL A   1      47.882  35.336  27.302  1.00  0.00     0.040 A 
ATOM     81  F   UNL A   1      46.756  33.670  26.104  1.00  0.00    -0.206 F 
ATOM     82  C   UNL A   1      48.290  35.858  28.523  1.00  0.00     0.006 A 
ENDBRANCH  61  75
BRANCH  62  83
ATOM     83  C   UNL A   1      43.114  24.263  27.358  1.00  0.00     0.057 A 
ATOM     84  C   UNL A   1      43.024  23.373  28.435  1.00  0.00     0.134 A 
ATOM     85  C   UNL A   1      42.593  23.847  26.128  1.00  0.00     0.134 A 
ATOM     86  F   UNL A   1      43.520  23.710  29.635  1.00  0.00    -0.206 F 
ATOM     87  C   UNL A   1      42.435  22.118  28.296  1.00  0.00     0.040 A 
ATOM     88  C   UNL A   1      41.970  22.607  25.984  1.00  0.00     0.040 A 
ATOM     89  F   UNL A   1      42.642  24.661  25.062  1.00  0.00    -0.206 F 
ATOM     90  C   UNL A   1      41.893  21.739  27.070  1.00  0.00     0.006 A 
ENDBRANCH  62  83
BRANCH  74  91
ATOM     91  C   UNL A   1      49.558  26.686  26.504  1.00  0.00     0.057 A 
ATOM     92  C   UNL A   1      50.013  26.816  25.186  1.00  0.00     0.134 A 
ATOM     93  C   UNL A   1      50.348  25.941  27.390  1.00  0.00     0.134 A 
ATOM     94  F   UNL A   1      49.299  27.502  24.281  1.00  0.00    -0.206 F 
ATOM     95  C   UNL A   1      51.216  26.244  24.770  1.00  0.00     0.040 A 
ATOM     96  C   UNL A   1      51.571  25.397  26.994  1.00  0.00     0.040 A 
ATOM     97  F   UNL A   1      49.975  25.786  28.670  1.00  0.00    -0.206 F 
ATOM     98  C   UNL A   1      52.007  25.548  25.680  1.00  0.00     0.006 A 
ENDBRANCH  74  91
ENDBRANCH  48  49
ENDBRANCH  41  43
ENDBRANCH  40  41
ENDBRANCH  39  40
ENDBRANCH  38  39
ENDBRANCH  37  38
ENDBRANCH  36  37
ENDBRANCH   1  36
TORSDOF 22
ENDMDL
