MODEL 1
REMARK VINA RESULT:     -10.7      0.000      0.000
REMARK SMILES COc1cc([C@@H]2CC(=O)Nc3c(C(=O)OCCOCCOCCOC(=O)c4ccc(-c5c6nc(c(-c7c(F)cccc7F)c7ccc([nH]7)c(-c7c(F)cccc7F)c7nc(c(-c8c(F)cccc8F)c8ccc5[nH]8)C=C7)C=C6)cc4)cn(-c4ccc(F)cc4)c32)c(OC)c2c1OCO2
REMARK SMILES IDX 19 1 18 2 17 3 16 4 15 5 13 6 14 7 12 8 6 9 7 10 90 11 8 12
REMARK SMILES IDX 11 13 82 14 9 15 10 16 81 17 5 19 3 20 4 21 95 22 94 23
REMARK SMILES IDX 96 24 91 25 98 26 97 27 2 28 1 29 92 30 93 31 83 32 84 33
REMARK SMILES IDX 89 34 85 35 88 36 86 37 87 38 20 39 21 40 22 41 23 42 24 43
REMARK SMILES IDX 25 44 26 45 27 46 28 47 80 48 29 49 79 50 30 51 31 52 32 53
REMARK SMILES IDX 73 54 33 55 78 56 72 57 74 58 34 59 77 60 71 61 70 62 35 64
REMARK SMILES IDX 61 65 44 66 60 67 45 68 48 69 59 70 75 71 46 72 47 73 58 75
REMARK SMILES IDX 76 76 49 77 36 78 37 79 42 80 38 81 39 82 41 83 43 84 40 85
REMARK SMILES IDX 62 86 63 87 68 88 64 89 65 90 67 91 69 92 66 93 50 94 51 95
REMARK SMILES IDX 56 96 52 97 53 98 55 99 57 100 54 101
REMARK H PARENT 10 18 74 63 48 74
REMARK Flexibility Score: inf
ROOT
ATOM      1  C   UNL A   1      37.225  20.969  25.006  1.00  0.00     0.188 C 
ENDROOT
BRANCH   1   2
ATOM      2  O   UNL A   1      35.851  21.044  24.642  1.00  0.00    -0.376 OA
BRANCH   2   3
ATOM      3  C   UNL A   1      35.179  22.296  24.581  1.00  0.00     0.202 C 
BRANCH   3   4
ATOM      4  C   UNL A   1      34.832  22.961  23.234  1.00  0.00     0.261 C 
BRANCH   4   5
ATOM      5  O   UNL A   1      33.450  22.932  22.851  1.00  0.00    -0.460 OA
BRANCH   5   6
ATOM      6  C   UNL A   1      33.028  23.972  22.085  1.00  0.00     0.341 C 
ATOM      7  O   UNL A   1      33.276  24.094  20.884  1.00  0.00    -0.246 OA
BRANCH   6   8
ATOM      8  C   UNL A   1      32.137  24.880  22.788  1.00  0.00     0.102 A 
ATOM      9  C   UNL A   1      30.660  26.584  25.713  1.00  0.00     0.082 C 
ATOM     10  C   UNL A   1      30.484  25.395  26.672  1.00  0.00     0.115 C 
ATOM     11  C   UNL A   1      31.036  26.079  24.354  1.00  0.00     0.055 A 
ATOM     12  C   UNL A   1      31.414  24.208  26.431  1.00  0.00     0.225 C 
ATOM     13  C   UNL A   1      31.679  24.883  24.129  1.00  0.00     0.078 A 
ATOM     14  N   UNL A   1      30.824  26.682  23.135  1.00  0.00    -0.317 N 
ATOM     15  O   UNL A   1      31.670  23.407  27.333  1.00  0.00    -0.275 OA
ATOM     16  N   UNL A   1      31.874  23.986  25.154  1.00  0.00    -0.324 N 
ATOM     17  C   UNL A   1      31.499  25.955  22.182  1.00  0.00     0.109 A 
ATOM     18  H   UNL A   1      32.362  23.152  24.965  1.00  0.00     0.170 HD
BRANCH   9  19
ATOM     19  C   UNL A   1      31.648  27.639  26.239  1.00  0.00     0.012 A 
ATOM     20  C   UNL A   1      31.986  30.004  26.813  1.00  0.00     0.165 A 
ATOM     21  C   UNL A   1      31.139  28.934  26.516  1.00  0.00     0.059 A 
ATOM     22  C   UNL A   1      33.337  29.745  26.928  1.00  0.00     0.211 A 
ATOM     23  C   UNL A   1      33.849  28.479  26.725  1.00  0.00     0.211 A 
ATOM     24  O   UNL A   1      34.309  30.645  27.254  1.00  0.00    -0.449 OA
ATOM     25  C   UNL A   1      33.040  27.406  26.378  1.00  0.00     0.168 A 
ATOM     26  O   UNL A   1      35.203  28.455  26.892  1.00  0.00    -0.449 OA
ATOM     27  C   UNL A   1      35.471  29.803  27.298  1.00  0.00     0.468 C 
BRANCH  20  28
ATOM     28  O   UNL A   1      31.391  31.221  26.980  1.00  0.00    -0.493 OA
ATOM     29  C   UNL A   1      31.028  31.851  25.753  1.00  0.00     0.278 C 
ENDBRANCH  20  28
BRANCH  25  30
ATOM     30  O   UNL A   1      33.463  26.135  26.155  1.00  0.00    -0.492 OA
ATOM     31  C   UNL A   1      34.616  25.894  25.364  1.00  0.00     0.278 C 
ENDBRANCH  25  30
ENDBRANCH   9  19
BRANCH  14  32
ATOM     32  C   UNL A   1      30.067  27.838  22.871  1.00  0.00     0.046 A 
ATOM     33  C   UNL A   1      28.696  27.829  23.126  1.00  0.00     0.029 A 
ATOM     34  C   UNL A   1      30.696  28.970  22.340  1.00  0.00     0.029 A 
ATOM     35  C   UNL A   1      27.926  28.936  22.780  1.00  0.00     0.041 A 
ATOM     36  C   UNL A   1      29.917  30.077  21.996  1.00  0.00     0.041 A 
ATOM     37  C   UNL A   1      28.541  30.045  22.209  1.00  0.00     0.123 A 
ATOM     38  F   UNL A   1      27.794  31.101  21.858  1.00  0.00    -0.207 F 
ENDBRANCH  14  32
ENDBRANCH   6   8
ENDBRANCH   5   6
ENDBRANCH   4   5
ENDBRANCH   3   4
ENDBRANCH   2   3
ENDBRANCH   1   2
BRANCH   1  39
ATOM     39  C   UNL A   1      38.041  22.246  25.310  1.00  0.00     0.188 C 
BRANCH  39  40
ATOM     40  O   UNL A   1      38.785  22.186  26.508  1.00  0.00    -0.376 OA
BRANCH  40  41
ATOM     41  C   UNL A   1      40.096  21.646  26.510  1.00  0.00     0.202 C 
BRANCH  41  42
ATOM     42  C   UNL A   1      41.318  22.481  26.118  1.00  0.00     0.261 C 
BRANCH  42  43
ATOM     43  O   UNL A   1      41.169  23.885  26.211  1.00  0.00    -0.460 OA
BRANCH  43  44
ATOM     44  C   UNL A   1      42.153  24.512  26.880  1.00  0.00     0.338 C 
ATOM     45  O   UNL A   1      43.357  24.330  26.762  1.00  0.00    -0.246 OA
BRANCH  44  46
ATOM     46  C   UNL A   1      41.552  25.431  27.847  1.00  0.00     0.060 A 
ATOM     47  C   UNL A   1      40.419  26.128  27.425  1.00  0.00     0.016 A 
ATOM     48  C   UNL A   1      42.292  25.813  28.976  1.00  0.00     0.016 A 
ATOM     49  C   UNL A   1      40.191  27.368  27.969  1.00  0.00     0.010 A 
ATOM     50  C   UNL A   1      42.074  27.059  29.509  1.00  0.00     0.010 A 
ATOM     51  C   UNL A   1      41.099  27.855  28.916  1.00  0.00    -0.014 A 
BRANCH  51  52
ATOM     52  C   UNL A   1      41.037  29.266  29.208  1.00  0.00     0.031 A 
ATOM     53  C   UNL A   1      42.201  30.038  28.744  1.00  0.00     0.074 A 
ATOM     54  C   UNL A   1      39.972  29.813  29.822  1.00  0.00     0.049 A 
ATOM     55  N   UNL A   1      43.081  30.649  29.465  1.00  0.00    -0.248 NA
ATOM     56  C   UNL A   1      42.491  30.021  27.304  1.00  0.00     0.031 C 
ATOM     57  C   UNL A   1      38.654  29.221  30.065  1.00  0.00     0.029 A 
ATOM     58  N   UNL A   1      39.826  31.087  30.268  1.00  0.00    -0.354 N 
ATOM     59  C   UNL A   1      43.945  31.250  28.559  1.00  0.00     0.074 A 
ATOM     60  C   UNL A   1      43.631  30.709  27.261  1.00  0.00     0.031 C 
ATOM     61  C   UNL A   1      37.786  30.205  30.389  1.00  0.00     0.029 A 
ATOM     62  C   UNL A   1      38.511  31.461  30.492  1.00  0.00     0.049 A 
ATOM     63  H   UNL A   1      40.587  31.692  30.418  1.00  0.00     0.167 HD
ATOM     64  C   UNL A   1      44.709  32.317  28.912  1.00  0.00     0.037 A 
ATOM     65  C   UNL A   1      38.067  32.733  30.636  1.00  0.00     0.037 A 
ATOM     66  C   UNL A   1      44.825  32.449  30.340  1.00  0.00     0.049 A 
ATOM     67  C   UNL A   1      39.240  33.584  30.977  1.00  0.00     0.074 A 
ATOM     68  C   UNL A   1      45.307  31.638  31.350  1.00  0.00     0.029 A 
ATOM     69  N   UNL A   1      44.081  33.419  30.965  1.00  0.00    -0.354 N 
ATOM     70  N   UNL A   1      39.869  33.547  32.118  1.00  0.00    -0.248 NA
ATOM     71  C   UNL A   1      39.989  34.178  29.876  1.00  0.00     0.031 C 
ATOM     72  C   UNL A   1      44.445  31.874  32.459  1.00  0.00     0.029 A 
ATOM     73  C   UNL A   1      43.515  32.838  32.071  1.00  0.00     0.049 A 
ATOM     74  H   UNL A   1      43.974  34.353  30.674  1.00  0.00     0.167 HD
ATOM     75  C   UNL A   1      41.208  33.707  31.791  1.00  0.00     0.074 A 
ATOM     76  C   UNL A   1      41.211  34.189  30.413  1.00  0.00     0.031 C 
ATOM     77  C   UNL A   1      42.196  33.162  32.562  1.00  0.00     0.037 A 
BRANCH  64  78
ATOM     78  C   UNL A   1      45.052  33.430  27.964  1.00  0.00     0.057 A 
ATOM     79  C   UNL A   1      46.398  33.717  27.694  1.00  0.00     0.134 A 
ATOM     80  C   UNL A   1      44.125  34.402  27.532  1.00  0.00     0.134 A 
ATOM     81  F   UNL A   1      47.370  32.879  28.085  1.00  0.00    -0.206 F 
ATOM     82  C   UNL A   1      46.798  34.911  27.087  1.00  0.00     0.040 A 
ATOM     83  C   UNL A   1      44.509  35.571  26.875  1.00  0.00     0.040 A 
ATOM     84  F   UNL A   1      42.819  34.324  27.815  1.00  0.00    -0.206 F 
ATOM     85  C   UNL A   1      45.852  35.845  26.678  1.00  0.00     0.006 A 
ENDBRANCH  64  78
BRANCH  65  86
ATOM     86  C   UNL A   1      36.783  33.308  30.175  1.00  0.00     0.057 A 
ATOM     87  C   UNL A   1      36.508  33.446  28.807  1.00  0.00     0.134 A 
ATOM     88  C   UNL A   1      35.690  33.488  31.042  1.00  0.00     0.134 A 
ATOM     89  F   UNL A   1      37.475  33.256  27.896  1.00  0.00    -0.206 F 
ATOM     90  C   UNL A   1      35.220  33.717  28.328  1.00  0.00     0.040 A 
ATOM     91  C   UNL A   1      34.402  33.772  30.578  1.00  0.00     0.040 A 
ATOM     92  F   UNL A   1      35.810  33.304  32.365  1.00  0.00    -0.206 F 
ATOM     93  C   UNL A   1      34.160  33.870  29.215  1.00  0.00     0.006 A 
ENDBRANCH  65  86
BRANCH  77  94
ATOM     94  C   UNL A   1      41.819  32.618  33.910  1.00  0.00     0.057 A 
ATOM     95  C   UNL A   1      41.330  31.320  34.121  1.00  0.00     0.134 A 
ATOM     96  C   UNL A   1      42.095  33.383  35.048  1.00  0.00     0.134 A 
ATOM     97  F   UNL A   1      41.142  30.474  33.100  1.00  0.00    -0.206 F 
ATOM     98  C   UNL A   1      41.072  30.830  35.405  1.00  0.00     0.040 A 
ATOM     99  C   UNL A   1      41.876  32.891  36.338  1.00  0.00     0.040 A 
ATOM    100  F   UNL A   1      42.625  34.611  34.928  1.00  0.00    -0.206 F 
ATOM    101  C   UNL A   1      41.350  31.616  36.518  1.00  0.00     0.006 A 
ENDBRANCH  77  94
ENDBRANCH  51  52
ENDBRANCH  44  46
ENDBRANCH  43  44
ENDBRANCH  42  43
ENDBRANCH  41  42
ENDBRANCH  40  41
ENDBRANCH  39  40
ENDBRANCH   1  39
TORSDOF 21
ENDMDL
MODEL 2
REMARK VINA RESULT:     -10.6      1.423      2.080
REMARK SMILES COc1cc([C@@H]2CC(=O)Nc3c(C(=O)OCCOCCOCCOC(=O)c4ccc(-c5c6nc(c(-c7c(F)cccc7F)c7ccc([nH]7)c(-c7c(F)cccc7F)c7nc(c(-c8c(F)cccc8F)c8ccc5[nH]8)C=C7)C=C6)cc4)cn(-c4ccc(F)cc4)c32)c(OC)c2c1OCO2
REMARK SMILES IDX 19 1 18 2 17 3 16 4 15 5 13 6 14 7 12 8 6 9 7 10 90 11 8 12
REMARK SMILES IDX 11 13 82 14 9 15 10 16 81 17 5 19 3 20 4 21 95 22 94 23
REMARK SMILES IDX 96 24 91 25 98 26 97 27 2 28 1 29 92 30 93 31 83 32 84 33
REMARK SMILES IDX 89 34 85 35 88 36 86 37 87 38 20 39 21 40 22 41 23 42 24 43
REMARK SMILES IDX 25 44 26 45 27 46 28 47 80 48 29 49 79 50 30 51 31 52 32 53
REMARK SMILES IDX 73 54 33 55 78 56 72 57 74 58 34 59 77 60 71 61 70 62 35 64
REMARK SMILES IDX 61 65 44 66 60 67 45 68 48 69 59 70 75 71 46 72 47 73 58 75
REMARK SMILES IDX 76 76 49 77 36 78 37 79 42 80 38 81 39 82 41 83 43 84 40 85
REMARK SMILES IDX 62 86 63 87 68 88 64 89 65 90 67 91 69 92 66 93 50 94 51 95
REMARK SMILES IDX 56 96 52 97 53 98 55 99 57 100 54 101
REMARK H PARENT 10 18 74 63 48 74
REMARK Flexibility Score: inf
ROOT
ATOM      1  C   UNL A   1      37.202  21.179  25.153  1.00  0.00     0.188 C 
ENDROOT
BRANCH   1   2
ATOM      2  O   UNL A   1      35.916  21.268  24.549  1.00  0.00    -0.376 OA
BRANCH   2   3
ATOM      3  C   UNL A   1      35.269  22.525  24.392  1.00  0.00     0.202 C 
BRANCH   3   4
ATOM      4  C   UNL A   1      34.821  23.035  23.008  1.00  0.00     0.261 C 
BRANCH   4   5
ATOM      5  O   UNL A   1      33.406  23.083  22.778  1.00  0.00    -0.460 OA
BRANCH   5   6
ATOM      6  C   UNL A   1      32.971  24.100  21.990  1.00  0.00     0.341 C 
ATOM      7  O   UNL A   1      33.217  24.200  20.786  1.00  0.00    -0.246 OA
BRANCH   6   8
ATOM      8  C   UNL A   1      32.068  25.012  22.674  1.00  0.00     0.102 A 
ATOM      9  C   UNL A   1      30.584  26.775  25.560  1.00  0.00     0.082 C 
ATOM     10  C   UNL A   1      30.442  25.612  26.556  1.00  0.00     0.115 C 
ATOM     11  C   UNL A   1      30.958  26.236  24.213  1.00  0.00     0.055 A 
ATOM     12  C   UNL A   1      31.393  24.438  26.342  1.00  0.00     0.225 C 
ATOM     13  C   UNL A   1      31.623  25.047  24.018  1.00  0.00     0.078 A 
ATOM     14  N   UNL A   1      30.722  26.797  22.978  1.00  0.00    -0.317 N 
ATOM     15  O   UNL A   1      31.673  23.670  27.266  1.00  0.00    -0.275 OA
ATOM     16  N   UNL A   1      31.845  24.186  25.068  1.00  0.00    -0.324 N 
ATOM     17  C   UNL A   1      31.403  26.055  22.041  1.00  0.00     0.109 A 
ATOM     18  H   UNL A   1      32.348  23.357  24.900  1.00  0.00     0.170 HD
BRANCH   9  19
ATOM     19  C   UNL A   1      31.555  27.866  26.043  1.00  0.00     0.012 A 
ATOM     20  C   UNL A   1      31.967  30.279  26.251  1.00  0.00     0.165 A 
ATOM     21  C   UNL A   1      31.100  29.209  26.015  1.00  0.00     0.059 A 
ATOM     22  C   UNL A   1      33.267  29.988  26.615  1.00  0.00     0.211 A 
ATOM     23  C   UNL A   1      33.715  28.687  26.711  1.00  0.00     0.211 A 
ATOM     24  O   UNL A   1      34.241  30.891  26.927  1.00  0.00    -0.449 OA
ATOM     25  C   UNL A   1      32.894  27.604  26.432  1.00  0.00     0.168 A 
ATOM     26  O   UNL A   1      35.027  28.637  27.085  1.00  0.00    -0.449 OA
ATOM     27  C   UNL A   1      35.324  30.024  27.292  1.00  0.00     0.468 C 
BRANCH  20  28
ATOM     28  O   UNL A   1      31.437  31.529  26.115  1.00  0.00    -0.493 OA
ATOM     29  C   UNL A   1      31.694  32.381  27.231  1.00  0.00     0.278 C 
ENDBRANCH  20  28
BRANCH  25  30
ATOM     30  O   UNL A   1      33.258  26.296  26.496  1.00  0.00    -0.492 OA
ATOM     31  C   UNL A   1      34.413  25.841  25.810  1.00  0.00     0.278 C 
ENDBRANCH  25  30
ENDBRANCH   9  19
BRANCH  14  32
ATOM     32  C   UNL A   1      29.940  27.929  22.687  1.00  0.00     0.046 A 
ATOM     33  C   UNL A   1      30.543  29.044  22.104  1.00  0.00     0.029 A 
ATOM     34  C   UNL A   1      28.576  27.927  23.001  1.00  0.00     0.029 A 
ATOM     35  C   UNL A   1      29.793  30.200  21.898  1.00  0.00     0.041 A 
ATOM     36  C   UNL A   1      27.832  29.089  22.791  1.00  0.00     0.041 A 
ATOM     37  C   UNL A   1      28.449  30.217  22.253  1.00  0.00     0.123 A 
ATOM     38  F   UNL A   1      27.737  31.337  22.073  1.00  0.00    -0.207 F 
ENDBRANCH  14  32
ENDBRANCH   6   8
ENDBRANCH   5   6
ENDBRANCH   4   5
ENDBRANCH   3   4
ENDBRANCH   2   3
ENDBRANCH   1   2
BRANCH   1  39
ATOM     39  C   UNL A   1      38.049  22.444  25.417  1.00  0.00     0.188 C 
BRANCH  39  40
ATOM     40  O   UNL A   1      38.617  22.502  26.707  1.00  0.00    -0.376 OA
BRANCH  40  41
ATOM     41  C   UNL A   1      40.003  22.266  26.891  1.00  0.00     0.202 C 
BRANCH  41  42
ATOM     42  C   UNL A   1      41.062  23.296  26.490  1.00  0.00     0.261 C 
BRANCH  42  43
ATOM     43  O   UNL A   1      40.782  24.641  26.830  1.00  0.00    -0.460 OA
BRANCH  43  44
ATOM     44  C   UNL A   1      41.734  25.247  27.560  1.00  0.00     0.338 C 
ATOM     45  O   UNL A   1      42.946  25.127  27.439  1.00  0.00    -0.246 OA
BRANCH  44  46
ATOM     46  C   UNL A   1      41.088  26.051  28.599  1.00  0.00     0.060 A 
ATOM     47  C   UNL A   1      39.847  26.601  28.281  1.00  0.00     0.016 A 
ATOM     48  C   UNL A   1      41.851  26.495  29.690  1.00  0.00     0.016 A 
ATOM     49  C   UNL A   1      39.498  27.784  28.885  1.00  0.00     0.010 A 
ATOM     50  C   UNL A   1      41.510  27.686  30.283  1.00  0.00     0.010 A 
ATOM     51  C   UNL A   1      40.399  28.362  29.786  1.00  0.00    -0.014 A 
BRANCH  51  52
ATOM     52  C   UNL A   1      40.174  29.743  30.134  1.00  0.00     0.031 A 
ATOM     53  C   UNL A   1      41.372  30.595  30.060  1.00  0.00     0.074 A 
ATOM     54  C   UNL A   1      38.951  30.198  30.460  1.00  0.00     0.049 A 
ATOM     55  N   UNL A   1      41.981  31.186  31.033  1.00  0.00    -0.248 NA
ATOM     56  C   UNL A   1      42.048  30.698  28.760  1.00  0.00     0.031 C 
ATOM     57  C   UNL A   1      37.655  29.535  30.290  1.00  0.00     0.029 A 
ATOM     58  N   UNL A   1      38.610  31.428  30.923  1.00  0.00    -0.354 N 
ATOM     59  C   UNL A   1      43.024  31.888  30.442  1.00  0.00     0.074 A 
ATOM     60  C   UNL A   1      43.111  31.434  29.078  1.00  0.00     0.031 C 
ATOM     61  C   UNL A   1      36.673  30.455  30.418  1.00  0.00     0.029 A 
ATOM     62  C   UNL A   1      37.265  31.729  30.795  1.00  0.00     0.049 A 
ATOM     63  H   UNL A   1      39.263  32.051  31.316  1.00  0.00     0.167 HD
ATOM     64  C   UNL A   1      43.594  32.957  31.057  1.00  0.00     0.037 A 
ATOM     65  C   UNL A   1      36.722  32.967  30.886  1.00  0.00     0.037 A 
ATOM     66  C   UNL A   1      43.306  32.986  32.466  1.00  0.00     0.049 A 
ATOM     67  C   UNL A   1      37.702  33.838  31.590  1.00  0.00     0.074 A 
ATOM     68  C   UNL A   1      43.539  32.123  33.519  1.00  0.00     0.029 A 
ATOM     69  N   UNL A   1      42.361  33.875  32.917  1.00  0.00    -0.354 N 
ATOM     70  N   UNL A   1      37.995  33.742  32.857  1.00  0.00    -0.248 NA
ATOM     71  C   UNL A   1      38.688  34.543  30.780  1.00  0.00     0.031 C 
ATOM     72  C   UNL A   1      42.393  32.239  34.357  1.00  0.00     0.029 A 
ATOM     73  C   UNL A   1      41.549  33.190  33.784  1.00  0.00     0.049 A 
ATOM     74  H   UNL A   1      42.282  34.823  32.665  1.00  0.00     0.167 HD
ATOM     75  C   UNL A   1      39.360  33.981  32.927  1.00  0.00     0.074 A 
ATOM     76  C   UNL A   1      39.713  34.564  31.636  1.00  0.00     0.031 C 
ATOM     77  C   UNL A   1      40.129  33.422  33.907  1.00  0.00     0.037 A 
BRANCH  64  78
ATOM     78  C   UNL A   1      44.116  34.151  30.311  1.00  0.00     0.057 A 
ATOM     79  C   UNL A   1      45.389  34.655  30.620  1.00  0.00     0.134 A 
ATOM     80  C   UNL A   1      43.310  34.986  29.509  1.00  0.00     0.134 A 
ATOM     81  F   UNL A   1      46.232  33.962  31.400  1.00  0.00    -0.206 F 
ATOM     82  C   UNL A   1      45.808  35.923  30.205  1.00  0.00     0.040 A 
ATOM     83  C   UNL A   1      43.740  36.228  29.043  1.00  0.00     0.040 A 
ATOM     84  F   UNL A   1      42.035  34.692  29.224  1.00  0.00    -0.206 F 
ATOM     85  C   UNL A   1      44.981  36.716  29.417  1.00  0.00     0.006 A 
ENDBRANCH  64  78
BRANCH  65  86
ATOM     86  C   UNL A   1      35.582  33.522  30.121  1.00  0.00     0.057 A 
ATOM     87  C   UNL A   1      34.517  34.155  30.777  1.00  0.00     0.134 A 
ATOM     88  C   UNL A   1      35.629  33.687  28.724  1.00  0.00     0.134 A 
ATOM     89  F   UNL A   1      34.406  34.090  32.113  1.00  0.00    -0.206 F 
ATOM     90  C   UNL A   1      33.573  34.930  30.092  1.00  0.00     0.040 A 
ATOM     91  C   UNL A   1      34.685  34.446  28.026  1.00  0.00     0.040 A 
ATOM     92  F   UNL A   1      36.641  33.196  27.995  1.00  0.00    -0.206 F 
ATOM     93  C   UNL A   1      33.661  35.086  28.713  1.00  0.00     0.006 A 
ENDBRANCH  65  86
BRANCH  77  94
ATOM     94  C   UNL A   1      39.430  32.763  35.062  1.00  0.00     0.057 A 
ATOM     95  C   UNL A   1      38.993  33.447  36.206  1.00  0.00     0.134 A 
ATOM     96  C   UNL A   1      39.061  31.417  34.949  1.00  0.00     0.134 A 
ATOM     97  F   UNL A   1      39.201  34.762  36.350  1.00  0.00    -0.206 F 
ATOM     98  C   UNL A   1      38.272  32.805  37.218  1.00  0.00     0.040 A 
ATOM     99  C   UNL A   1      38.309  30.775  35.936  1.00  0.00     0.040 A 
ATOM    100  F   UNL A   1      39.388  30.714  33.853  1.00  0.00    -0.206 F 
ATOM    101  C   UNL A   1      37.924  31.465  37.081  1.00  0.00     0.006 A 
ENDBRANCH  77  94
ENDBRANCH  51  52
ENDBRANCH  44  46
ENDBRANCH  43  44
ENDBRANCH  42  43
ENDBRANCH  41  42
ENDBRANCH  40  41
ENDBRANCH  39  40
ENDBRANCH   1  39
TORSDOF 21
ENDMDL
MODEL 3
REMARK VINA RESULT:     -10.3      4.529     10.141
REMARK SMILES COc1cc([C@@H]2CC(=O)Nc3c(C(=O)OCCOCCOCCOC(=O)c4ccc(-c5c6nc(c(-c7c(F)cccc7F)c7ccc([nH]7)c(-c7c(F)cccc7F)c7nc(c(-c8c(F)cccc8F)c8ccc5[nH]8)C=C7)C=C6)cc4)cn(-c4ccc(F)cc4)c32)c(OC)c2c1OCO2
REMARK SMILES IDX 19 1 18 2 17 3 16 4 15 5 13 6 14 7 12 8 6 9 7 10 90 11 8 12
REMARK SMILES IDX 11 13 82 14 9 15 10 16 81 17 5 19 3 20 4 21 95 22 94 23
REMARK SMILES IDX 96 24 91 25 98 26 97 27 2 28 1 29 92 30 93 31 83 32 84 33
REMARK SMILES IDX 89 34 85 35 88 36 86 37 87 38 20 39 21 40 22 41 23 42 24 43
REMARK SMILES IDX 25 44 26 45 27 46 28 47 80 48 29 49 79 50 30 51 31 52 32 53
REMARK SMILES IDX 73 54 33 55 78 56 72 57 74 58 34 59 77 60 71 61 70 62 35 64
REMARK SMILES IDX 61 65 44 66 60 67 45 68 48 69 59 70 75 71 46 72 47 73 58 75
REMARK SMILES IDX 76 76 49 77 36 78 37 79 42 80 38 81 39 82 41 83 43 84 40 85
REMARK SMILES IDX 62 86 63 87 68 88 64 89 65 90 67 91 69 92 66 93 50 94 51 95
REMARK SMILES IDX 56 96 52 97 53 98 55 99 57 100 54 101
REMARK H PARENT 10 18 74 63 48 74
REMARK Flexibility Score: inf
ROOT
ATOM      1  C   UNL A   1      37.694  34.498  33.759  1.00  0.00     0.188 C 
ENDROOT
BRANCH   1   2
ATOM      2  O   UNL A   1      36.680  35.059  32.932  1.00  0.00    -0.376 OA
BRANCH   2   3
ATOM      3  C   UNL A   1      35.304  34.838  33.213  1.00  0.00     0.202 C 
BRANCH   3   4
ATOM      4  C   UNL A   1      34.199  35.688  32.554  1.00  0.00     0.261 C 
BRANCH   4   5
ATOM      5  O   UNL A   1      34.346  35.940  31.150  1.00  0.00    -0.460 OA
BRANCH   5   6
ATOM      6  C   UNL A   1      33.534  35.219  30.333  1.00  0.00     0.341 C 
ATOM      7  O   UNL A   1      32.355  35.496  30.105  1.00  0.00    -0.246 OA
BRANCH   6   8
ATOM      8  C   UNL A   1      34.224  34.144  29.639  1.00  0.00     0.102 A 
ATOM      9  C   UNL A   1      37.038  31.889  28.840  1.00  0.00     0.082 C 
ATOM     10  C   UNL A   1      38.200  32.895  28.797  1.00  0.00     0.115 C 
ATOM     11  C   UNL A   1      35.739  32.630  28.921  1.00  0.00     0.055 A 
ATOM     12  C   UNL A   1      37.998  34.175  29.605  1.00  0.00     0.225 C 
ATOM     13  C   UNL A   1      35.606  33.893  29.451  1.00  0.00     0.078 A 
ATOM     14  N   UNL A   1      34.495  32.211  28.506  1.00  0.00    -0.317 N 
ATOM     15  O   UNL A   1      38.961  34.841  29.993  1.00  0.00    -0.275 OA
ATOM     16  N   UNL A   1      36.715  34.630  29.797  1.00  0.00    -0.324 N 
ATOM     17  C   UNL A   1      33.572  33.130  28.948  1.00  0.00     0.109 A 
ATOM     18  H   UNL A   1      36.584  35.519  30.199  1.00  0.00     0.170 HD
BRANCH   9  19
ATOM     19  C   UNL A   1      37.187  30.845  29.960  1.00  0.00     0.012 A 
ATOM     20  C   UNL A   1      37.038  30.414  32.374  1.00  0.00     0.165 A 
ATOM     21  C   UNL A   1      36.769  31.218  31.264  1.00  0.00     0.059 A 
ATOM     22  C   UNL A   1      37.639  29.191  32.156  1.00  0.00     0.211 A 
ATOM     23  C   UNL A   1      37.997  28.779  30.888  1.00  0.00     0.211 A 
ATOM     24  O   UNL A   1      37.938  28.256  33.103  1.00  0.00    -0.449 OA
ATOM     25  C   UNL A   1      37.790  29.576  29.771  1.00  0.00     0.168 A 
ATOM     26  O   UNL A   1      38.571  27.542  30.909  1.00  0.00    -0.449 OA
ATOM     27  C   UNL A   1      38.460  27.191  32.294  1.00  0.00     0.468 C 
BRANCH  20  28
ATOM     28  O   UNL A   1      36.662  30.913  33.588  1.00  0.00    -0.493 OA
ATOM     29  C   UNL A   1      37.757  31.137  34.475  1.00  0.00     0.278 C 
ENDBRANCH  20  28
BRANCH  25  30
ATOM     30  O   UNL A   1      38.119  29.249  28.494  1.00  0.00    -0.492 OA
ATOM     31  C   UNL A   1      39.462  29.357  28.051  1.00  0.00     0.278 C 
ENDBRANCH  25  30
ENDBRANCH   9  19
BRANCH  14  32
ATOM     32  C   UNL A   1      34.182  31.055  27.768  1.00  0.00     0.046 A 
ATOM     33  C   UNL A   1      32.955  30.979  27.107  1.00  0.00     0.029 A 
ATOM     34  C   UNL A   1      35.094  29.995  27.723  1.00  0.00     0.029 A 
ATOM     35  C   UNL A   1      32.601  29.802  26.453  1.00  0.00     0.041 A 
ATOM     36  C   UNL A   1      34.732  28.819  27.065  1.00  0.00     0.041 A 
ATOM     37  C   UNL A   1      33.486  28.729  26.446  1.00  0.00     0.123 A 
ATOM     38  F   UNL A   1      33.133  27.592  25.834  1.00  0.00    -0.207 F 
ENDBRANCH  14  32
ENDBRANCH   6   8
ENDBRANCH   5   6
ENDBRANCH   4   5
ENDBRANCH   3   4
ENDBRANCH   2   3
ENDBRANCH   1   2
BRANCH   1  39
ATOM     39  C   UNL A   1      39.133  34.298  33.233  1.00  0.00     0.188 C 
BRANCH  39  40
ATOM     40  O   UNL A   1      40.011  33.700  34.162  1.00  0.00    -0.376 OA
BRANCH  40  41
ATOM     41  C   UNL A   1      41.047  34.461  34.760  1.00  0.00     0.202 C 
BRANCH  41  42
ATOM     42  C   UNL A   1      42.522  34.070  34.628  1.00  0.00     0.261 C 
BRANCH  42  43
ATOM     43  O   UNL A   1      42.878  33.375  33.447  1.00  0.00    -0.460 OA
BRANCH  43  44
ATOM     44  C   UNL A   1      42.791  34.101  32.319  1.00  0.00     0.338 C 
ATOM     45  O   UNL A   1      42.511  35.288  32.225  1.00  0.00    -0.246 OA
BRANCH  44  46
ATOM     46  C   UNL A   1      43.028  33.220  31.175  1.00  0.00     0.060 A 
ATOM     47  C   UNL A   1      42.021  32.303  30.874  1.00  0.00     0.016 A 
ATOM     48  C   UNL A   1      44.330  33.102  30.663  1.00  0.00     0.016 A 
ATOM     49  C   UNL A   1      42.389  31.118  30.287  1.00  0.00     0.010 A 
ATOM     50  C   UNL A   1      44.701  31.910  30.091  1.00  0.00     0.010 A 
ATOM     51  C   UNL A   1      43.745  30.901  30.019  1.00  0.00    -0.014 A 
BRANCH  51  52
ATOM     52  C   UNL A   1      44.142  29.545  29.733  1.00  0.00     0.031 A 
ATOM     53  C   UNL A   1      44.960  29.390  28.519  1.00  0.00     0.074 A 
ATOM     54  C   UNL A   1      43.810  28.527  30.547  1.00  0.00     0.049 A 
ATOM     55  N   UNL A   1      44.644  28.777  27.428  1.00  0.00    -0.248 NA
ATOM     56  C   UNL A   1      46.236  30.115  28.469  1.00  0.00     0.031 C 
ATOM     57  C   UNL A   1      43.265  28.584  31.906  1.00  0.00     0.029 A 
ATOM     58  N   UNL A   1      44.004  27.198  30.348  1.00  0.00    -0.354 N 
ATOM     59  C   UNL A   1      45.760  28.886  26.609  1.00  0.00     0.074 A 
ATOM     60  C   UNL A   1      46.642  29.840  27.231  1.00  0.00     0.031 C 
ATOM     61  C   UNL A   1      43.401  27.369  32.484  1.00  0.00     0.029 A 
ATOM     62  C   UNL A   1      43.926  26.435  31.501  1.00  0.00     0.049 A 
ATOM     63  H   UNL A   1      44.184  26.810  29.462  1.00  0.00     0.167 HD
ATOM     64  C   UNL A   1      45.977  28.013  25.591  1.00  0.00     0.037 A 
ATOM     65  C   UNL A   1      44.373  25.163  31.637  1.00  0.00     0.037 A 
ATOM     66  C   UNL A   1      44.782  27.301  25.226  1.00  0.00     0.049 A 
ATOM     67  C   UNL A   1      44.516  24.588  30.272  1.00  0.00     0.074 A 
ATOM     68  C   UNL A   1      43.531  27.678  24.775  1.00  0.00     0.029 A 
ATOM     69  N   UNL A   1      44.650  25.998  25.639  1.00  0.00    -0.354 N 
ATOM     70  N   UNL A   1      43.517  24.281  29.493  1.00  0.00    -0.248 NA
ATOM     71  C   UNL A   1      45.797  24.758  29.596  1.00  0.00     0.031 C 
ATOM     72  C   UNL A   1      42.624  26.761  25.382  1.00  0.00     0.029 A 
ATOM     73  C   UNL A   1      43.378  25.862  26.135  1.00  0.00     0.049 A 
ATOM     74  H   UNL A   1      45.338  25.296  25.589  1.00  0.00     0.167 HD
ATOM     75  C   UNL A   1      43.935  24.637  28.219  1.00  0.00     0.074 A 
ATOM     76  C   UNL A   1      45.378  24.831  28.330  1.00  0.00     0.031 C 
ATOM     77  C   UNL A   1      43.041  25.023  27.261  1.00  0.00     0.037 A 
BRANCH  64  78
ATOM     78  C   UNL A   1      47.348  27.564  25.172  1.00  0.00     0.057 A 
ATOM     79  C   UNL A   1      47.715  27.637  23.820  1.00  0.00     0.134 A 
ATOM     80  C   UNL A   1      48.208  26.807  25.995  1.00  0.00     0.134 A 
ATOM     81  F   UNL A   1      46.957  28.304  22.937  1.00  0.00    -0.206 F 
ATOM     82  C   UNL A   1      48.829  26.959  23.314  1.00  0.00     0.040 A 
ATOM     83  C   UNL A   1      49.352  26.174  25.511  1.00  0.00     0.040 A 
ATOM     84  F   UNL A   1      47.931  26.554  27.281  1.00  0.00    -0.206 F 
ATOM     85  C   UNL A   1      49.650  26.222  24.159  1.00  0.00     0.006 A 
ENDBRANCH  64  78
BRANCH  65  86
ATOM     86  C   UNL A   1      44.995  24.537  32.825  1.00  0.00     0.057 A 
ATOM     87  C   UNL A   1      44.488  23.342  33.356  1.00  0.00     0.134 A 
ATOM     88  C   UNL A   1      46.255  24.939  33.309  1.00  0.00     0.134 A 
ATOM     89  F   UNL A   1      43.314  22.853  32.931  1.00  0.00    -0.206 F 
ATOM     90  C   UNL A   1      45.202  22.578  34.288  1.00  0.00     0.040 A 
ATOM     91  C   UNL A   1      46.971  24.192  34.249  1.00  0.00     0.040 A 
ATOM     92  F   UNL A   1      46.878  26.020  32.820  1.00  0.00    -0.206 F 
ATOM     93  C   UNL A   1      46.452  22.998  34.730  1.00  0.00     0.006 A 
ENDBRANCH  65  86
BRANCH  77  94
ATOM     94  C   UNL A   1      41.580  24.799  27.528  1.00  0.00     0.057 A 
ATOM     95  C   UNL A   1      40.796  25.630  28.342  1.00  0.00     0.134 A 
ATOM     96  C   UNL A   1      40.912  23.789  26.825  1.00  0.00     0.134 A 
ATOM     97  F   UNL A   1      41.326  26.691  28.965  1.00  0.00    -0.206 F 
ATOM     98  C   UNL A   1      39.421  25.428  28.494  1.00  0.00     0.040 A 
ATOM     99  C   UNL A   1      39.533  23.601  26.940  1.00  0.00     0.040 A 
ATOM    100  F   UNL A   1      41.585  22.994  25.978  1.00  0.00    -0.206 F 
ATOM    101  C   UNL A   1      38.785  24.413  27.787  1.00  0.00     0.006 A 
ENDBRANCH  77  94
ENDBRANCH  51  52
ENDBRANCH  44  46
ENDBRANCH  43  44
ENDBRANCH  42  43
ENDBRANCH  41  42
ENDBRANCH  40  41
ENDBRANCH  39  40
ENDBRANCH   1  39
TORSDOF 21
ENDMDL
