MODEL 1
REMARK VINA RESULT:     -10.8      0.000      0.000
REMARK SMILES NS(=O)(=O)c1ccc(-n2nc(C(F)(F)F)cc2-c2ccc(C(=O)OCCOCCOCCOC(=O)c3ccc(-c4c5nc(c(-c6c(F)cccc6F)c6ccc([nH]6)c(-c6c(F)cccc6F)c6nc(c(-c7c(F)cccc7F)c7ccc4[nH]7)C=C6)C=C5)cc3)cc2)cc1
REMARK SMILES IDX 28 1 27 2 26 3 25 4 24 5 22 6 23 7 21 8 18 9 19 10 91 11
REMARK SMILES IDX 20 12 90 13 17 14 9 15 10 16 11 17 16 18 8 19 5 20 6 21
REMARK SMILES IDX 93 22 7 23 92 24 2 25 3 26 4 27 1 28 12 31 13 32 14 33 15 34
REMARK SMILES IDX 29 35 30 36 31 37 32 38 33 39 34 40 35 41 36 42 37 43 89 44
REMARK SMILES IDX 38 45 88 46 39 47 40 48 41 49 82 50 42 51 87 52 81 53 83 54
REMARK SMILES IDX 43 55 86 56 80 57 79 58 44 60 70 61 53 62 69 63 54 64 57 65
REMARK SMILES IDX 68 66 84 67 55 68 56 69 67 71 85 72 58 73 45 74 46 75 51 76
REMARK SMILES IDX 47 77 48 78 50 79 52 80 49 81 71 82 72 83 77 84 73 85 74 86
REMARK SMILES IDX 76 87 78 88 75 89 59 90 60 91 65 92 61 93 62 94 64 95 66 96
REMARK SMILES IDX 63 97
REMARK H PARENT 1 29 1 30 83 59 57 70
REMARK Flexibility Score: inf
ROOT
ATOM      1  C   UNL A   1      33.959  28.363  25.853  1.00  0.00     0.188 C 
ENDROOT
BRANCH   1   2
ATOM      2  O   UNL A   1      33.470  28.439  24.536  1.00  0.00    -0.376 OA
BRANCH   2   3
ATOM      3  C   UNL A   1      32.140  28.870  24.299  1.00  0.00     0.202 C 
BRANCH   3   4
ATOM      4  C   UNL A   1      31.004  27.970  23.757  1.00  0.00     0.261 C 
BRANCH   4   5
ATOM      5  O   UNL A   1      30.406  27.027  24.649  1.00  0.00    -0.460 OA
BRANCH   5   6
ATOM      6  C   UNL A   1      30.317  25.753  24.197  1.00  0.00     0.338 C 
ATOM      7  O   UNL A   1      29.407  25.278  23.541  1.00  0.00    -0.246 OA
BRANCH   6   8
ATOM      8  C   UNL A   1      31.598  25.048  24.437  1.00  0.00     0.060 A 
ATOM      9  C   UNL A   1      34.068  23.841  25.003  1.00  0.00     0.000 A 
ATOM     10  C   UNL A   1      33.263  24.330  26.042  1.00  0.00     0.011 A 
ATOM     11  C   UNL A   1      33.595  23.905  23.685  1.00  0.00     0.011 A 
ATOM     12  C   UNL A   1      32.040  24.941  25.760  1.00  0.00     0.016 A 
ATOM     13  C   UNL A   1      32.356  24.495  23.400  1.00  0.00     0.016 A 
BRANCH   9  14
ATOM     14  C   UNL A   1      35.450  23.448  25.285  1.00  0.00     0.075 A 
ATOM     15  N   UNL A   1      35.915  22.163  25.540  1.00  0.00    -0.233 N 
ATOM     16  N   UNL A   1      37.107  22.178  26.191  1.00  0.00    -0.163 NA
ATOM     17  C   UNL A   1      37.510  23.461  26.159  1.00  0.00     0.167 A 
ATOM     18  C   UNL A   1      36.500  24.287  25.610  1.00  0.00     0.064 A 
BRANCH  15  19
ATOM     19  C   UNL A   1      35.315  20.923  25.204  1.00  0.00     0.065 A 
ATOM     20  C   UNL A   1      34.112  18.510  24.517  1.00  0.00     0.082 A 
ATOM     21  C   UNL A   1      35.506  18.614  24.499  1.00  0.00     0.024 A 
ATOM     22  C   UNL A   1      33.318  19.595  24.903  1.00  0.00     0.024 A 
ATOM     23  C   UNL A   1      36.110  19.832  24.822  1.00  0.00     0.030 A 
ATOM     24  C   UNL A   1      33.922  20.795  25.280  1.00  0.00     0.030 A 
BRANCH  20  25
ATOM     25  S   UNL A   1      33.292  17.050  23.950  1.00  0.00     0.238 S 
ATOM     26  O   UNL A   1      34.044  15.907  24.409  1.00  0.00    -0.207 OA
ATOM     27  O   UNL A   1      32.909  17.242  22.571  1.00  0.00    -0.207 OA
BRANCH  25  28
ATOM     28  N   UNL A   1      31.865  17.003  24.834  1.00  0.00    -0.225 NA
ATOM     29  H   UNL A   1      31.531  17.954  24.993  1.00  0.00     0.137 HD
ATOM     30  H   UNL A   1      32.035  16.549  25.732  1.00  0.00     0.137 HD
ENDBRANCH  25  28
ENDBRANCH  20  25
ENDBRANCH  15  19
BRANCH  17  31
ATOM     31  C   UNL A   1      38.840  23.922  26.690  1.00  0.00     0.435 C 
ATOM     32  F   UNL A   1      38.846  24.094  28.038  1.00  0.00    -0.164 F 
ATOM     33  F   UNL A   1      39.838  23.049  26.391  1.00  0.00    -0.164 F 
ATOM     34  F   UNL A   1      39.206  25.119  26.149  1.00  0.00    -0.164 F 
ENDBRANCH  17  31
ENDBRANCH   9  14
ENDBRANCH   6   8
ENDBRANCH   5   6
ENDBRANCH   4   5
ENDBRANCH   3   4
ENDBRANCH   2   3
ENDBRANCH   1   2
BRANCH   1  35
ATOM     35  C   UNL A   1      32.947  28.786  26.939  1.00  0.00     0.188 C 
BRANCH  35  36
ATOM     36  O   UNL A   1      32.839  30.126  27.402  1.00  0.00    -0.376 OA
BRANCH  36  37
ATOM     37  C   UNL A   1      33.920  31.049  27.368  1.00  0.00     0.202 C 
BRANCH  37  38
ATOM     38  C   UNL A   1      35.035  31.064  28.412  1.00  0.00     0.261 C 
BRANCH  38  39
ATOM     39  O   UNL A   1      35.965  30.006  28.297  1.00  0.00    -0.460 OA
BRANCH  39  40
ATOM     40  C   UNL A   1      37.237  30.423  28.419  1.00  0.00     0.338 C 
ATOM     41  O   UNL A   1      37.635  31.529  28.749  1.00  0.00    -0.246 OA
BRANCH  40  42
ATOM     42  C   UNL A   1      38.140  29.352  28.012  1.00  0.00     0.060 A 
ATOM     43  C   UNL A   1      38.434  28.413  29.002  1.00  0.00     0.016 A 
ATOM     44  C   UNL A   1      38.932  29.532  26.873  1.00  0.00     0.016 A 
ATOM     45  C   UNL A   1      39.682  27.850  28.998  1.00  0.00     0.010 A 
ATOM     46  C   UNL A   1      40.183  28.971  26.872  1.00  0.00     0.010 A 
ATOM     47  C   UNL A   1      40.573  28.237  27.992  1.00  0.00    -0.014 A 
BRANCH  47  48
ATOM     48  C   UNL A   1      41.952  27.846  28.151  1.00  0.00     0.031 A 
ATOM     49  C   UNL A   1      42.271  26.557  27.506  1.00  0.00     0.074 A 
ATOM     50  C   UNL A   1      42.840  28.659  28.753  1.00  0.00     0.049 A 
ATOM     51  N   UNL A   1      42.701  25.476  28.061  1.00  0.00    -0.248 NA
ATOM     52  C   UNL A   1      41.903  26.408  26.087  1.00  0.00     0.031 C 
ATOM     53  C   UNL A   1      42.654  30.048  29.186  1.00  0.00     0.029 A 
ATOM     54  N   UNL A   1      44.159  28.444  28.989  1.00  0.00    -0.354 N 
ATOM     55  C   UNL A   1      42.861  24.570  27.019  1.00  0.00     0.074 A 
ATOM     56  C   UNL A   1      42.190  25.126  25.873  1.00  0.00     0.031 C 
ATOM     57  C   UNL A   1      43.866  30.615  29.383  1.00  0.00     0.029 A 
ATOM     58  C   UNL A   1      44.891  29.602  29.204  1.00  0.00     0.049 A 
ATOM     59  H   UNL A   1      44.560  27.545  29.005  1.00  0.00     0.167 HD
ATOM     60  C   UNL A   1      43.760  23.556  27.095  1.00  0.00     0.037 A 
ATOM     61  C   UNL A   1      46.240  29.705  29.102  1.00  0.00     0.037 A 
ATOM     62  C   UNL A   1      44.110  23.251  28.456  1.00  0.00     0.049 A 
ATOM     63  C   UNL A   1      46.796  28.325  29.194  1.00  0.00     0.074 A 
ATOM     64  C   UNL A   1      43.383  22.875  29.570  1.00  0.00     0.029 A 
ATOM     65  N   UNL A   1      45.320  23.693  28.935  1.00  0.00    -0.354 N 
ATOM     66  N   UNL A   1      46.764  27.601  30.281  1.00  0.00    -0.248 NA
ATOM     67  C   UNL A   1      46.938  27.574  27.952  1.00  0.00     0.031 C 
ATOM     68  C   UNL A   1      43.981  23.578  30.655  1.00  0.00     0.029 A 
ATOM     69  C   UNL A   1      45.073  24.284  30.151  1.00  0.00     0.049 A 
ATOM     70  H   UNL A   1      46.195  23.604  28.494  1.00  0.00     0.167 HD
ATOM     71  C   UNL A   1      46.459  26.318  29.847  1.00  0.00     0.074 A 
ATOM     72  C   UNL A   1      46.645  26.349  28.397  1.00  0.00     0.031 C 
ATOM     73  C   UNL A   1      45.800  25.429  30.647  1.00  0.00     0.037 A 
BRANCH  60  74
ATOM     74  C   UNL A   1      44.574  23.115  25.913  1.00  0.00     0.057 A 
ATOM     75  C   UNL A   1      44.598  21.761  25.549  1.00  0.00     0.134 A 
ATOM     76  C   UNL A   1      45.542  23.929  25.284  1.00  0.00     0.134 A 
ATOM     77  F   UNL A   1      43.755  20.885  26.115  1.00  0.00    -0.206 F 
ATOM     78  C   UNL A   1      45.540  21.250  24.651  1.00  0.00     0.040 A 
ATOM     79  C   UNL A   1      46.448  23.440  24.343  1.00  0.00     0.040 A 
ATOM     80  F   UNL A   1      45.729  25.211  25.622  1.00  0.00    -0.206 F 
ATOM     81  C   UNL A   1      46.467  22.090  24.043  1.00  0.00     0.006 A 
ENDBRANCH  60  74
BRANCH  61  82
ATOM     82  C   UNL A   1      47.013  30.849  28.560  1.00  0.00     0.057 A 
ATOM     83  C   UNL A   1      46.786  31.329  27.264  1.00  0.00     0.134 A 
ATOM     84  C   UNL A   1      47.818  31.662  29.382  1.00  0.00     0.134 A 
ATOM     85  F   UNL A   1      45.991  30.657  26.419  1.00  0.00    -0.206 F 
ATOM     86  C   UNL A   1      47.320  32.545  26.813  1.00  0.00     0.040 A 
ATOM     87  C   UNL A   1      48.367  32.870  28.942  1.00  0.00     0.040 A 
ATOM     88  F   UNL A   1      48.032  31.358  30.669  1.00  0.00    -0.206 F 
ATOM     89  C   UNL A   1      48.110  33.323  27.656  1.00  0.00     0.006 A 
ENDBRANCH  61  82
BRANCH  73  90
ATOM     90  C   UNL A   1      45.582  25.788  32.092  1.00  0.00     0.057 A 
ATOM     91  C   UNL A   1      46.533  25.581  33.103  1.00  0.00     0.134 A 
ATOM     92  C   UNL A   1      44.447  26.530  32.439  1.00  0.00     0.134 A 
ATOM     93  F   UNL A   1      47.701  24.981  32.843  1.00  0.00    -0.206 F 
ATOM     94  C   UNL A   1      46.345  26.055  34.405  1.00  0.00     0.040 A 
ATOM     95  C   UNL A   1      44.263  27.040  33.727  1.00  0.00     0.040 A 
ATOM     96  F   UNL A   1      43.522  26.822  31.513  1.00  0.00    -0.206 F 
ATOM     97  C   UNL A   1      45.210  26.795  34.718  1.00  0.00     0.006 A 
ENDBRANCH  73  90
ENDBRANCH  47  48
ENDBRANCH  40  42
ENDBRANCH  39  40
ENDBRANCH  38  39
ENDBRANCH  37  38
ENDBRANCH  36  37
ENDBRANCH  35  36
ENDBRANCH   1  35
TORSDOF 22
ENDMDL
MODEL 2
REMARK VINA RESULT:     -10.8      1.727      5.853
REMARK SMILES NS(=O)(=O)c1ccc(-n2nc(C(F)(F)F)cc2-c2ccc(C(=O)OCCOCCOCCOC(=O)c3ccc(-c4c5nc(c(-c6c(F)cccc6F)c6ccc([nH]6)c(-c6c(F)cccc6F)c6nc(c(-c7c(F)cccc7F)c7ccc4[nH]7)C=C6)C=C5)cc3)cc2)cc1
REMARK SMILES IDX 28 1 27 2 26 3 25 4 24 5 22 6 23 7 21 8 18 9 19 10 91 11
REMARK SMILES IDX 20 12 90 13 17 14 9 15 10 16 11 17 16 18 8 19 5 20 6 21
REMARK SMILES IDX 93 22 7 23 92 24 2 25 3 26 4 27 1 28 12 31 13 32 14 33 15 34
REMARK SMILES IDX 29 35 30 36 31 37 32 38 33 39 34 40 35 41 36 42 37 43 89 44
REMARK SMILES IDX 38 45 88 46 39 47 40 48 41 49 82 50 42 51 87 52 81 53 83 54
REMARK SMILES IDX 43 55 86 56 80 57 79 58 44 60 70 61 53 62 69 63 54 64 57 65
REMARK SMILES IDX 68 66 84 67 55 68 56 69 67 71 85 72 58 73 45 74 46 75 51 76
REMARK SMILES IDX 47 77 48 78 50 79 52 80 49 81 71 82 72 83 77 84 73 85 74 86
REMARK SMILES IDX 76 87 78 88 75 89 59 90 60 91 65 92 61 93 62 94 64 95 66 96
REMARK SMILES IDX 63 97
REMARK H PARENT 1 29 1 30 83 59 57 70
REMARK Flexibility Score: inf
ROOT
ATOM      1  C   UNL A   1      33.284  28.182  26.587  1.00  0.00     0.188 C 
ENDROOT
BRANCH   1   2
ATOM      2  O   UNL A   1      33.475  28.431  25.215  1.00  0.00    -0.376 OA
BRANCH   2   3
ATOM      3  C   UNL A   1      32.418  28.974  24.440  1.00  0.00     0.202 C 
BRANCH   3   4
ATOM      4  C   UNL A   1      31.257  28.153  23.834  1.00  0.00     0.261 C 
BRANCH   4   5
ATOM      5  O   UNL A   1      30.518  27.287  24.699  1.00  0.00    -0.460 OA
BRANCH   5   6
ATOM      6  C   UNL A   1      30.361  26.011  24.272  1.00  0.00     0.338 C 
ATOM      7  O   UNL A   1      29.402  25.559  23.671  1.00  0.00    -0.246 OA
BRANCH   6   8
ATOM      8  C   UNL A   1      31.628  25.263  24.457  1.00  0.00     0.060 A 
ATOM      9  C   UNL A   1      34.063  23.955  24.942  1.00  0.00     0.000 A 
ATOM     10  C   UNL A   1      33.203  24.269  26.004  1.00  0.00     0.011 A 
ATOM     11  C   UNL A   1      33.663  24.246  23.630  1.00  0.00     0.011 A 
ATOM     12  C   UNL A   1      31.997  24.930  25.764  1.00  0.00     0.016 A 
ATOM     13  C   UNL A   1      32.441  24.887  23.383  1.00  0.00     0.016 A 
BRANCH   9  14
ATOM     14  C   UNL A   1      35.428  23.508  25.227  1.00  0.00     0.075 A 
ATOM     15  N   UNL A   1      35.847  22.201  25.448  1.00  0.00    -0.233 N 
ATOM     16  N   UNL A   1      37.031  22.156  26.113  1.00  0.00    -0.163 NA
ATOM     17  C   UNL A   1      37.477  23.425  26.123  1.00  0.00     0.167 A 
ATOM     18  C   UNL A   1      36.501  24.300  25.588  1.00  0.00     0.064 A 
BRANCH  15  19
ATOM     19  C   UNL A   1      35.210  20.992  25.069  1.00  0.00     0.065 A 
ATOM     20  C   UNL A   1      33.942  18.640  24.291  1.00  0.00     0.082 A 
ATOM     21  C   UNL A   1      35.309  18.622  24.582  1.00  0.00     0.024 A 
ATOM     22  C   UNL A   1      33.200  19.820  24.413  1.00  0.00     0.024 A 
ATOM     23  C   UNL A   1      35.951  19.807  24.952  1.00  0.00     0.030 A 
ATOM     24  C   UNL A   1      33.828  20.992  24.836  1.00  0.00     0.030 A 
BRANCH  20  25
ATOM     25  S   UNL A   1      33.120  17.212  23.653  1.00  0.00     0.238 S 
ATOM     26  O   UNL A   1      33.999  16.079  23.813  1.00  0.00    -0.207 OA
ATOM     27  O   UNL A   1      32.501  17.560  22.395  1.00  0.00    -0.207 OA
BRANCH  25  28
ATOM     28  N   UNL A   1      31.865  16.934  24.734  1.00  0.00    -0.225 NA
ATOM     29  H   UNL A   1      30.978  16.916  24.229  1.00  0.00     0.137 HD
ATOM     30  H   UNL A   1      31.843  17.681  25.430  1.00  0.00     0.137 HD
ENDBRANCH  25  28
ENDBRANCH  20  25
ENDBRANCH  15  19
BRANCH  17  31
ATOM     31  C   UNL A   1      38.815  23.825  26.682  1.00  0.00     0.435 C 
ATOM     32  F   UNL A   1      39.654  22.773  26.865  1.00  0.00    -0.164 F 
ATOM     33  F   UNL A   1      39.456  24.716  25.880  1.00  0.00    -0.164 F 
ATOM     34  F   UNL A   1      38.688  24.430  27.897  1.00  0.00    -0.164 F 
ENDBRANCH  17  31
ENDBRANCH   9  14
ENDBRANCH   6   8
ENDBRANCH   5   6
ENDBRANCH   4   5
ENDBRANCH   3   4
ENDBRANCH   2   3
ENDBRANCH   1   2
BRANCH   1  35
ATOM     35  C   UNL A   1      33.136  29.451  27.455  1.00  0.00     0.188 C 
BRANCH  35  36
ATOM     36  O   UNL A   1      33.964  30.593  27.285  1.00  0.00    -0.376 OA
BRANCH  36  37
ATOM     37  C   UNL A   1      35.376  30.558  27.441  1.00  0.00     0.202 C 
BRANCH  37  38
ATOM     38  C   UNL A   1      36.061  30.466  28.803  1.00  0.00     0.261 C 
BRANCH  38  39
ATOM     39  O   UNL A   1      37.070  29.479  28.891  1.00  0.00    -0.460 OA
BRANCH  39  40
ATOM     40  C   UNL A   1      38.304  29.990  28.749  1.00  0.00     0.338 C 
ATOM     41  O   UNL A   1      38.726  31.057  29.167  1.00  0.00    -0.246 OA
BRANCH  40  42
ATOM     42  C   UNL A   1      39.108  29.098  27.920  1.00  0.00     0.060 A 
ATOM     43  C   UNL A   1      39.065  27.751  28.282  1.00  0.00     0.016 A 
ATOM     44  C   UNL A   1      40.125  29.643  27.130  1.00  0.00     0.016 A 
ATOM     45  C   UNL A   1      40.197  27.003  28.094  1.00  0.00     0.010 A 
ATOM     46  C   UNL A   1      41.259  28.895  26.945  1.00  0.00     0.010 A 
ATOM     47  C   UNL A   1      41.313  27.632  27.534  1.00  0.00    -0.014 A 
BRANCH  47  48
ATOM     48  C   UNL A   1      42.564  26.917  27.588  1.00  0.00     0.031 A 
ATOM     49  C   UNL A   1      43.304  27.131  28.848  1.00  0.00     0.074 A 
ATOM     50  C   UNL A   1      42.927  26.076  26.601  1.00  0.00     0.049 A 
ATOM     51  N   UNL A   1      44.476  27.648  29.003  1.00  0.00    -0.248 NA
ATOM     52  C   UNL A   1      42.573  26.890  30.104  1.00  0.00     0.031 C 
ATOM     53  C   UNL A   1      42.134  25.623  25.454  1.00  0.00     0.029 A 
ATOM     54  N   UNL A   1      44.062  25.340  26.493  1.00  0.00    -0.354 N 
ATOM     55  C   UNL A   1      44.715  27.600  30.371  1.00  0.00     0.074 A 
ATOM     56  C   UNL A   1      43.459  27.303  31.007  1.00  0.00     0.031 C 
ATOM     57  C   UNL A   1      42.708  24.515  24.931  1.00  0.00     0.029 A 
ATOM     58  C   UNL A   1      43.955  24.260  25.630  1.00  0.00     0.049 A 
ATOM     59  H   UNL A   1      44.888  25.553  26.985  1.00  0.00     0.167 HD
ATOM     60  C   UNL A   1      45.978  27.542  30.865  1.00  0.00     0.037 A 
ATOM     61  C   UNL A   1      44.783  23.186  25.614  1.00  0.00     0.037 A 
ATOM     62  C   UNL A   1      46.948  28.022  29.918  1.00  0.00     0.049 A 
ATOM     63  C   UNL A   1      46.036  23.584  26.316  1.00  0.00     0.074 A 
ATOM     64  C   UNL A   1      47.118  29.218  29.246  1.00  0.00     0.029 A 
ATOM     65  N   UNL A   1      47.708  27.103  29.236  1.00  0.00    -0.354 N 
ATOM     66  N   UNL A   1      46.885  24.458  25.845  1.00  0.00    -0.248 NA
ATOM     67  C   UNL A   1      46.091  23.381  27.759  1.00  0.00     0.031 C 
ATOM     68  C   UNL A   1      47.540  28.848  27.937  1.00  0.00     0.029 A 
ATOM     69  C   UNL A   1      47.666  27.459  27.910  1.00  0.00     0.049 A 
ATOM     70  H   UNL A   1      48.189  26.336  29.623  1.00  0.00     0.167 HD
ATOM     71  C   UNL A   1      47.275  25.207  26.947  1.00  0.00     0.074 A 
ATOM     72  C   UNL A   1      46.806  24.454  28.108  1.00  0.00     0.031 C 
ATOM     73  C   UNL A   1      47.676  26.508  26.824  1.00  0.00     0.037 A 
BRANCH  60  74
ATOM     74  C   UNL A   1      46.334  26.707  32.061  1.00  0.00     0.057 A 
ATOM     75  C   UNL A   1      45.962  25.356  32.105  1.00  0.00     0.134 A 
ATOM     76  C   UNL A   1      46.792  27.249  33.283  1.00  0.00     0.134 A 
ATOM     77  F   UNL A   1      45.469  24.746  31.017  1.00  0.00    -0.206 F 
ATOM     78  C   UNL A   1      46.011  24.610  33.287  1.00  0.00     0.040 A 
ATOM     79  C   UNL A   1      46.900  26.497  34.453  1.00  0.00     0.040 A 
ATOM     80  F   UNL A   1      47.061  28.553  33.433  1.00  0.00    -0.206 F 
ATOM     81  C   UNL A   1      46.483  25.179  34.465  1.00  0.00     0.006 A 
ENDBRANCH  60  74
BRANCH  61  82
ATOM     82  C   UNL A   1      44.410  21.770  25.375  1.00  0.00     0.057 A 
ATOM     83  C   UNL A   1      45.278  20.892  24.713  1.00  0.00     0.134 A 
ATOM     84  C   UNL A   1      43.301  21.174  26.007  1.00  0.00     0.134 A 
ATOM     85  F   UNL A   1      46.390  21.353  24.123  1.00  0.00    -0.206 F 
ATOM     86  C   UNL A   1      45.062  19.507  24.685  1.00  0.00     0.040 A 
ATOM     87  C   UNL A   1      43.067  19.795  25.978  1.00  0.00     0.040 A 
ATOM     88  F   UNL A   1      42.450  21.895  26.750  1.00  0.00    -0.206 F 
ATOM     89  C   UNL A   1      43.956  18.954  25.324  1.00  0.00     0.006 A 
ENDBRANCH  61  82
BRANCH  73  90
ATOM     90  C   UNL A   1      47.886  27.066  25.443  1.00  0.00     0.057 A 
ATOM     91  C   UNL A   1      49.053  26.870  24.687  1.00  0.00     0.134 A 
ATOM     92  C   UNL A   1      46.806  27.667  24.787  1.00  0.00     0.134 A 
ATOM     93  F   UNL A   1      50.100  26.205  25.190  1.00  0.00    -0.206 F 
ATOM     94  C   UNL A   1      49.152  27.289  23.357  1.00  0.00     0.040 A 
ATOM     95  C   UNL A   1      46.880  28.058  23.447  1.00  0.00     0.040 A 
ATOM     96  F   UNL A   1      45.636  27.833  25.423  1.00  0.00    -0.206 F 
ATOM     97  C   UNL A   1      48.060  27.878  22.730  1.00  0.00     0.006 A 
ENDBRANCH  73  90
ENDBRANCH  47  48
ENDBRANCH  40  42
ENDBRANCH  39  40
ENDBRANCH  38  39
ENDBRANCH  37  38
ENDBRANCH  36  37
ENDBRANCH  35  36
ENDBRANCH   1  35
TORSDOF 22
ENDMDL
MODEL 3
REMARK VINA RESULT:     -10.4      1.775      5.932
REMARK SMILES NS(=O)(=O)c1ccc(-n2nc(C(F)(F)F)cc2-c2ccc(C(=O)OCCOCCOCCOC(=O)c3ccc(-c4c5nc(c(-c6c(F)cccc6F)c6ccc([nH]6)c(-c6c(F)cccc6F)c6nc(c(-c7c(F)cccc7F)c7ccc4[nH]7)C=C6)C=C5)cc3)cc2)cc1
REMARK SMILES IDX 28 1 27 2 26 3 25 4 24 5 22 6 23 7 21 8 18 9 19 10 91 11
REMARK SMILES IDX 20 12 90 13 17 14 9 15 10 16 11 17 16 18 8 19 5 20 6 21
REMARK SMILES IDX 93 22 7 23 92 24 2 25 3 26 4 27 1 28 12 31 13 32 14 33 15 34
REMARK SMILES IDX 29 35 30 36 31 37 32 38 33 39 34 40 35 41 36 42 37 43 89 44
REMARK SMILES IDX 38 45 88 46 39 47 40 48 41 49 82 50 42 51 87 52 81 53 83 54
REMARK SMILES IDX 43 55 86 56 80 57 79 58 44 60 70 61 53 62 69 63 54 64 57 65
REMARK SMILES IDX 68 66 84 67 55 68 56 69 67 71 85 72 58 73 45 74 46 75 51 76
REMARK SMILES IDX 47 77 48 78 50 79 52 80 49 81 71 82 72 83 77 84 73 85 74 86
REMARK SMILES IDX 76 87 78 88 75 89 59 90 60 91 65 92 61 93 62 94 64 95 66 96
REMARK SMILES IDX 63 97
REMARK H PARENT 1 29 1 30 83 59 57 70
REMARK Flexibility Score: inf
ROOT
ATOM      1  C   UNL A   1      32.444  28.505  23.743  1.00  0.00     0.188 C 
ENDROOT
BRANCH   1   2
ATOM      2  O   UNL A   1      31.546  27.896  22.848  1.00  0.00    -0.376 OA
BRANCH   2   3
ATOM      3  C   UNL A   1      30.148  27.991  23.073  1.00  0.00     0.202 C 
BRANCH   3   4
ATOM      4  C   UNL A   1      29.271  26.864  23.666  1.00  0.00     0.261 C 
BRANCH   4   5
ATOM      5  O   UNL A   1      29.894  25.907  24.528  1.00  0.00    -0.460 OA
BRANCH   5   6
ATOM      6  C   UNL A   1      30.380  24.794  23.930  1.00  0.00     0.338 C 
ATOM      7  O   UNL A   1      29.836  24.145  23.053  1.00  0.00    -0.246 OA
BRANCH   6   8
ATOM      8  C   UNL A   1      31.785  24.576  24.346  1.00  0.00     0.060 A 
ATOM      9  C   UNL A   1      34.461  24.042  25.006  1.00  0.00     0.000 A 
ATOM     10  C   UNL A   1      34.083  24.227  23.668  1.00  0.00     0.011 A 
ATOM     11  C   UNL A   1      33.497  24.191  26.014  1.00  0.00     0.011 A 
ATOM     12  C   UNL A   1      32.751  24.480  23.339  1.00  0.00     0.016 A 
ATOM     13  C   UNL A   1      32.162  24.471  25.689  1.00  0.00     0.016 A 
BRANCH   9  14
ATOM     14  C   UNL A   1      35.793  23.520  25.315  1.00  0.00     0.075 A 
ATOM     15  N   UNL A   1      36.135  22.191  25.539  1.00  0.00    -0.233 N 
ATOM     16  N   UNL A   1      37.302  22.079  26.226  1.00  0.00    -0.163 NA
ATOM     17  C   UNL A   1      37.817  23.322  26.249  1.00  0.00     0.167 A 
ATOM     18  C   UNL A   1      36.901  24.251  25.700  1.00  0.00     0.064 A 
BRANCH  15  19
ATOM     19  C   UNL A   1      35.440  21.020  25.143  1.00  0.00     0.065 A 
ATOM     20  C   UNL A   1      34.097  18.700  24.399  1.00  0.00     0.082 A 
ATOM     21  C   UNL A   1      33.378  19.886  24.573  1.00  0.00     0.024 A 
ATOM     22  C   UNL A   1      35.485  18.673  24.568  1.00  0.00     0.024 A 
ATOM     23  C   UNL A   1      34.049  21.047  24.968  1.00  0.00     0.030 A 
ATOM     24  C   UNL A   1      36.164  19.843  24.907  1.00  0.00     0.030 A 
BRANCH  20  25
ATOM     25  S   UNL A   1      33.277  17.169  24.071  1.00  0.00     0.238 S 
ATOM     26  O   UNL A   1      32.255  16.984  25.073  1.00  0.00    -0.207 OA
ATOM     27  O   UNL A   1      34.273  16.169  23.765  1.00  0.00    -0.207 OA
BRANCH  25  28
ATOM     28  N   UNL A   1      32.432  17.444  22.646  1.00  0.00    -0.225 NA
ATOM     29  H   UNL A   1      31.675  18.105  22.821  1.00  0.00     0.137 HD
ATOM     30  H   UNL A   1      32.043  16.564  22.306  1.00  0.00     0.137 HD
ENDBRANCH  25  28
ENDBRANCH  20  25
ENDBRANCH  15  19
BRANCH  17  31
ATOM     31  C   UNL A   1      39.164  23.646  26.836  1.00  0.00     0.435 C 
ATOM     32  F   UNL A   1      39.120  24.641  27.759  1.00  0.00    -0.164 F 
ATOM     33  F   UNL A   1      39.732  22.566  27.435  1.00  0.00    -0.164 F 
ATOM     34  F   UNL A   1      40.042  24.053  25.875  1.00  0.00    -0.164 F 
ENDBRANCH  17  31
ENDBRANCH   9  14
ENDBRANCH   6   8
ENDBRANCH   5   6
ENDBRANCH   4   5
ENDBRANCH   3   4
ENDBRANCH   2   3
ENDBRANCH   1   2
BRANCH   1  35
ATOM     35  C   UNL A   1      31.826  29.622  24.611  1.00  0.00     0.188 C 
BRANCH  35  36
ATOM     36  O   UNL A   1      31.710  29.516  26.024  1.00  0.00    -0.376 OA
BRANCH  36  37
ATOM     37  C   UNL A   1      32.734  28.975  26.848  1.00  0.00     0.202 C 
BRANCH  37  38
ATOM     38  C   UNL A   1      34.212  29.320  26.676  1.00  0.00     0.261 C 
BRANCH  38  39
ATOM     39  O   UNL A   1      34.961  29.325  27.874  1.00  0.00    -0.460 OA
BRANCH  39  40
ATOM     40  C   UNL A   1      35.456  30.539  28.168  1.00  0.00     0.338 C 
ATOM     41  O   UNL A   1      35.133  31.615  27.690  1.00  0.00    -0.246 OA
BRANCH  40  42
ATOM     42  C   UNL A   1      36.545  30.401  29.129  1.00  0.00     0.060 A 
ATOM     43  C   UNL A   1      37.630  31.254  28.926  1.00  0.00     0.016 A 
ATOM     44  C   UNL A   1      36.626  29.233  29.895  1.00  0.00     0.016 A 
ATOM     45  C   UNL A   1      38.877  30.789  29.250  1.00  0.00     0.010 A 
ATOM     46  C   UNL A   1      37.875  28.767  30.215  1.00  0.00     0.010 A 
ATOM     47  C   UNL A   1      38.978  29.500  29.781  1.00  0.00    -0.014 A 
BRANCH  47  48
ATOM     48  C   UNL A   1      40.300  28.928  29.866  1.00  0.00     0.031 A 
ATOM     49  C   UNL A   1      40.848  28.930  31.238  1.00  0.00     0.074 A 
ATOM     50  C   UNL A   1      40.889  28.375  28.790  1.00  0.00     0.049 A 
ATOM     51  N   UNL A   1      41.911  29.520  31.668  1.00  0.00    -0.248 NA
ATOM     52  C   UNL A   1      40.011  28.335  32.295  1.00  0.00     0.031 C 
ATOM     53  C   UNL A   1      40.309  28.111  27.470  1.00  0.00     0.029 A 
ATOM     54  N   UNL A   1      42.119  27.807  28.698  1.00  0.00    -0.354 N 
ATOM     55  C   UNL A   1      41.989  29.190  33.016  1.00  0.00     0.074 A 
ATOM     56  C   UNL A   1      40.718  28.625  33.385  1.00  0.00     0.031 C 
ATOM     57  C   UNL A   1      41.086  27.217  26.817  1.00  0.00     0.029 A 
ATOM     58  C   UNL A   1      42.263  26.945  27.622  1.00  0.00     0.049 A 
ATOM     59  H   UNL A   1      42.843  27.990  29.340  1.00  0.00     0.167 HD
ATOM     60  C   UNL A   1      43.180  29.157  33.667  1.00  0.00     0.037 A 
ATOM     61  C   UNL A   1      43.226  25.997  27.503  1.00  0.00     0.037 A 
ATOM     62  C   UNL A   1      44.182  29.939  32.994  1.00  0.00     0.049 A 
ATOM     63  C   UNL A   1      44.320  26.357  28.449  1.00  0.00     0.074 A 
ATOM     64  C   UNL A   1      44.266  31.266  32.619  1.00  0.00     0.029 A 
ATOM     65  N   UNL A   1      45.136  29.283  32.254  1.00  0.00    -0.354 N 
ATOM     66  N   UNL A   1      45.092  27.400  28.301  1.00  0.00    -0.248 NA
ATOM     67  C   UNL A   1      44.229  25.840  29.810  1.00  0.00     0.031 C 
ATOM     68  C   UNL A   1      44.889  31.248  31.338  1.00  0.00     0.029 A 
ATOM     69  C   UNL A   1      45.205  29.923  31.040  1.00  0.00     0.049 A 
ATOM     70  H   UNL A   1      45.667  28.505  32.538  1.00  0.00     0.167 HD
ATOM     71  C   UNL A   1      45.242  27.918  29.581  1.00  0.00     0.074 A 
ATOM     72  C   UNL A   1      44.743  26.877  30.477  1.00  0.00     0.031 C 
ATOM     73  C   UNL A   1      45.474  29.248  29.793  1.00  0.00     0.037 A 
BRANCH  60  74
ATOM     74  C   UNL A   1      43.500  28.116  34.701  1.00  0.00     0.057 A 
ATOM     75  C   UNL A   1      43.942  28.509  35.972  1.00  0.00     0.134 A 
ATOM     76  C   UNL A   1      43.644  26.742  34.407  1.00  0.00     0.134 A 
ATOM     77  F   UNL A   1      43.897  29.796  36.346  1.00  0.00    -0.206 F 
ATOM     78  C   UNL A   1      44.517  27.604  36.870  1.00  0.00     0.040 A 
ATOM     79  C   UNL A   1      44.162  25.822  35.318  1.00  0.00     0.040 A 
ATOM     80  F   UNL A   1      43.388  26.238  33.192  1.00  0.00    -0.206 F 
ATOM     81  C   UNL A   1      44.627  26.256  36.546  1.00  0.00     0.006 A 
ENDBRANCH  60  74
BRANCH  61  82
ATOM     82  C   UNL A   1      43.080  24.640  26.922  1.00  0.00     0.057 A 
ATOM     83  C   UNL A   1      43.527  24.354  25.625  1.00  0.00     0.134 A 
ATOM     84  C   UNL A   1      42.726  23.525  27.707  1.00  0.00     0.134 A 
ATOM     85  F   UNL A   1      43.936  25.340  24.815  1.00  0.00    -0.206 F 
ATOM     86  C   UNL A   1      43.623  23.041  25.140  1.00  0.00     0.040 A 
ATOM     87  C   UNL A   1      42.806  22.212  27.232  1.00  0.00     0.040 A 
ATOM     88  F   UNL A   1      42.372  23.661  28.992  1.00  0.00    -0.206 F 
ATOM     89  C   UNL A   1      43.267  21.965  25.947  1.00  0.00     0.006 A 
ENDBRANCH  61  82
BRANCH  73  90
ATOM     90  C   UNL A   1      45.771  30.123  28.605  1.00  0.00     0.057 A 
ATOM     91  C   UNL A   1      44.784  30.746  27.825  1.00  0.00     0.134 A 
ATOM     92  C   UNL A   1      47.097  30.491  28.352  1.00  0.00     0.134 A 
ATOM     93  F   UNL A   1      43.482  30.545  28.064  1.00  0.00    -0.206 F 
ATOM     94  C   UNL A   1      45.105  31.660  26.817  1.00  0.00     0.040 A 
ATOM     95  C   UNL A   1      47.429  31.430  27.372  1.00  0.00     0.040 A 
ATOM     96  F   UNL A   1      48.092  29.985  29.097  1.00  0.00    -0.206 F 
ATOM     97  C   UNL A   1      46.432  32.011  26.593  1.00  0.00     0.006 A 
ENDBRANCH  73  90
ENDBRANCH  47  48
ENDBRANCH  40  42
ENDBRANCH  39  40
ENDBRANCH  38  39
ENDBRANCH  37  38
ENDBRANCH  36  37
ENDBRANCH  35  36
ENDBRANCH   1  35
TORSDOF 22
ENDMDL
