MODEL 1
REMARK VINA RESULT:     -10.4      0.000      0.000
REMARK SMILES C[C@@H](OCc1ccccc1Cl)c1ccc(C(=O)OCCOCCOCCOC(=O)c2ccc(-c3c4nc(c(-c5c(F)cccc5F)c5ccc([nH]5)c(-c5c(F)cccc5F)c5nc(c(-c6c(F)cccc6F)c6ccc3[nH]6)C=C5)C=C4)cc2)o1
REMARK SMILES IDX 22 1 21 2 20 3 19 4 18 5 16 6 17 7 15 8 12 9 13 10 84 11
REMARK SMILES IDX 14 12 2 13 1 14 3 15 4 16 5 17 6 18 10 19 7 20 9 21 11 22
REMARK SMILES IDX 8 23 23 24 24 25 25 26 26 27 27 28 28 29 29 30 30 31 31 32
REMARK SMILES IDX 83 33 32 34 82 35 33 36 34 37 35 38 76 39 36 40 81 41 75 42
REMARK SMILES IDX 77 43 37 44 80 45 74 46 73 47 38 49 64 50 47 51 63 52 48 53
REMARK SMILES IDX 51 54 62 55 78 56 49 57 50 58 61 60 79 61 52 62 39 63 40 64
REMARK SMILES IDX 45 65 41 66 42 67 44 68 46 69 43 70 65 71 66 72 71 73 67 74
REMARK SMILES IDX 68 75 70 76 72 77 69 78 53 79 54 80 59 81 55 82 56 83 58 84
REMARK SMILES IDX 60 85 57 86
REMARK H PARENT 77 48 51 59
REMARK Flexibility Score: inf
ROOT
ATOM      1  C   UNL A   1      42.874  19.461  25.566  1.00  0.00     0.188 C 
ENDROOT
BRANCH   1   2
ATOM      2  O   UNL A   1      42.678  19.784  26.939  1.00  0.00    -0.376 OA
BRANCH   2   3
ATOM      3  C   UNL A   1      41.361  19.970  27.442  1.00  0.00     0.202 C 
BRANCH   3   4
ATOM      4  C   UNL A   1      40.728  21.346  27.229  1.00  0.00     0.261 C 
BRANCH   4   5
ATOM      5  O   UNL A   1      39.590  21.292  26.355  1.00  0.00    -0.457 OA
BRANCH   5   6
ATOM      6  C   UNL A   1      38.898  22.460  26.200  1.00  0.00     0.374 C 
ATOM      7  O   UNL A   1      39.342  23.573  26.454  1.00  0.00    -0.242 OA
BRANCH   6   8
ATOM      8  C   UNL A   1      37.615  22.185  25.595  1.00  0.00     0.211 A 
ATOM      9  C   UNL A   1      35.437  22.474  25.361  1.00  0.00     0.133 A 
ATOM     10  C   UNL A   1      35.830  21.630  24.343  1.00  0.00     0.049 A 
ATOM     11  O   UNL A   1      36.518  22.815  26.118  1.00  0.00    -0.451 OA
ATOM     12  C   UNL A   1      37.221  21.426  24.506  1.00  0.00     0.058 A 
BRANCH   9  13
ATOM     13  C   UNL A   1      34.097  22.984  25.796  1.00  0.00     0.181 C 
ATOM     14  C   UNL A   1      33.404  23.752  24.673  1.00  0.00     0.047 C 
BRANCH  13  15
ATOM     15  O   UNL A   1      33.362  21.861  26.285  1.00  0.00    -0.366 OA
BRANCH  15  16
ATOM     16  C   UNL A   1      32.241  21.423  25.506  1.00  0.00     0.198 C 
BRANCH  16  17
ATOM     17  C   UNL A   1      32.456  20.099  24.797  1.00  0.00    -0.004 A 
ATOM     18  C   UNL A   1      32.688  18.932  25.550  1.00  0.00     0.007 A 
ATOM     19  C   UNL A   1      32.367  19.954  23.401  1.00  0.00     0.046 A 
ATOM     20  C   UNL A   1      32.925  17.698  24.942  1.00  0.00     0.000 A 
ATOM     21  C   UNL A   1      32.575  18.707  22.793  1.00  0.00     0.021 A 
ATOM     22  Cl  UNL A   1      31.961  21.267  22.350  1.00  0.00    -0.084 Cl
ATOM     23  C   UNL A   1      32.876  17.585  23.561  1.00  0.00     0.002 A 
ENDBRANCH  16  17
ENDBRANCH  15  16
ENDBRANCH  13  15
ENDBRANCH   9  13
ENDBRANCH   6   8
ENDBRANCH   5   6
ENDBRANCH   4   5
ENDBRANCH   3   4
ENDBRANCH   2   3
ENDBRANCH   1   2
BRANCH   1  24
ATOM     24  C   UNL A   1      44.191  18.806  25.111  1.00  0.00     0.188 C 
BRANCH  24  25
ATOM     25  O   UNL A   1      45.348  19.605  25.305  1.00  0.00    -0.376 OA
BRANCH  25  26
ATOM     26  C   UNL A   1      45.284  20.919  24.767  1.00  0.00     0.202 C 
BRANCH  26  27
ATOM     27  C   UNL A   1      45.347  21.997  25.850  1.00  0.00     0.261 C 
BRANCH  27  28
ATOM     28  O   UNL A   1      44.190  22.848  25.909  1.00  0.00    -0.460 OA
BRANCH  28  29
ATOM     29  C   UNL A   1      44.338  24.107  25.440  1.00  0.00     0.338 C 
ATOM     30  O   UNL A   1      44.838  24.448  24.383  1.00  0.00    -0.246 OA
BRANCH  29  31
ATOM     31  C   UNL A   1      43.642  25.019  26.368  1.00  0.00     0.060 A 
ATOM     32  C   UNL A   1      43.960  26.382  26.348  1.00  0.00     0.016 A 
ATOM     33  C   UNL A   1      42.680  24.525  27.253  1.00  0.00     0.016 A 
ATOM     34  C   UNL A   1      43.329  27.254  27.240  1.00  0.00     0.010 A 
ATOM     35  C   UNL A   1      42.063  25.396  28.153  1.00  0.00     0.010 A 
ATOM     36  C   UNL A   1      42.403  26.760  28.169  1.00  0.00    -0.014 A 
BRANCH  36  37
ATOM     37  C   UNL A   1      41.903  27.625  29.263  1.00  0.00     0.031 A 
ATOM     38  C   UNL A   1      42.589  27.568  30.599  1.00  0.00     0.074 A 
ATOM     39  C   UNL A   1      40.845  28.435  29.085  1.00  0.00     0.049 A 
ATOM     40  N   UNL A   1      42.298  28.192  31.711  1.00  0.00    -0.248 NA
ATOM     41  C   UNL A   1      43.761  26.682  30.692  1.00  0.00     0.031 C 
ATOM     42  C   UNL A   1      40.101  28.597  27.839  1.00  0.00     0.029 A 
ATOM     43  N   UNL A   1      40.205  29.264  29.972  1.00  0.00    -0.354 N 
ATOM     44  C   UNL A   1      43.249  27.777  32.634  1.00  0.00     0.074 A 
ATOM     45  C   UNL A   1      44.106  26.824  31.962  1.00  0.00     0.031 C 
ATOM     46  C   UNL A   1      39.096  29.466  28.043  1.00  0.00     0.029 A 
ATOM     47  C   UNL A   1      39.112  29.901  29.439  1.00  0.00     0.049 A 
ATOM     48  H   UNL A   1      40.502  29.391  30.902  1.00  0.00     0.167 HD
ATOM     49  C   UNL A   1      43.403  28.162  33.923  1.00  0.00     0.037 A 
ATOM     50  C   UNL A   1      38.220  30.728  30.019  1.00  0.00     0.037 A 
ATOM     51  C   UNL A   1      42.550  29.101  34.600  1.00  0.00     0.049 A 
ATOM     52  C   UNL A   1      38.368  31.086  31.474  1.00  0.00     0.074 A 
ATOM     53  C   UNL A   1      42.642  29.571  35.898  1.00  0.00     0.029 A 
ATOM     54  N   UNL A   1      41.439  29.705  34.033  1.00  0.00    -0.354 N 
ATOM     55  N   UNL A   1      39.293  30.721  32.327  1.00  0.00    -0.248 NA
ATOM     56  C   UNL A   1      37.344  31.974  32.046  1.00  0.00     0.031 C 
ATOM     57  C   UNL A   1      41.561  30.429  36.129  1.00  0.00     0.029 A 
ATOM     58  C   UNL A   1      40.820  30.524  34.963  1.00  0.00     0.049 A 
ATOM     59  H   UNL A   1      41.134  29.572  33.106  1.00  0.00     0.167 HD
ATOM     60  C   UNL A   1      38.980  31.352  33.524  1.00  0.00     0.074 A 
ATOM     61  C   UNL A   1      37.783  32.130  33.288  1.00  0.00     0.031 C 
ATOM     62  C   UNL A   1      39.631  31.296  34.714  1.00  0.00     0.037 A 
BRANCH  49  63
ATOM     63  C   UNL A   1      44.532  27.540  34.688  1.00  0.00     0.057 A 
ATOM     64  C   UNL A   1      44.389  26.309  35.341  1.00  0.00     0.134 A 
ATOM     65  C   UNL A   1      45.777  28.175  34.766  1.00  0.00     0.134 A 
ATOM     66  F   UNL A   1      43.216  25.659  35.317  1.00  0.00    -0.206 F 
ATOM     67  C   UNL A   1      45.440  25.742  36.064  1.00  0.00     0.040 A 
ATOM     68  C   UNL A   1      46.841  27.607  35.468  1.00  0.00     0.040 A 
ATOM     69  F   UNL A   1      45.980  29.355  34.161  1.00  0.00    -0.206 F 
ATOM     70  C   UNL A   1      46.671  26.390  36.126  1.00  0.00     0.006 A 
ENDBRANCH  49  63
BRANCH  50  71
ATOM     71  C   UNL A   1      37.093  31.276  29.224  1.00  0.00     0.057 A 
ATOM     72  C   UNL A   1      37.111  32.597  28.762  1.00  0.00     0.134 A 
ATOM     73  C   UNL A   1      35.967  30.502  28.926  1.00  0.00     0.134 A 
ATOM     74  F   UNL A   1      38.152  33.396  29.042  1.00  0.00    -0.206 F 
ATOM     75  C   UNL A   1      36.043  33.133  28.042  1.00  0.00     0.040 A 
ATOM     76  C   UNL A   1      34.900  31.017  28.188  1.00  0.00     0.040 A 
ATOM     77  F   UNL A   1      35.888  29.230  29.347  1.00  0.00    -0.206 F 
ATOM     78  C   UNL A   1      34.935  32.340  27.748  1.00  0.00     0.006 A 
ENDBRANCH  50  71
BRANCH  62  79
ATOM     79  C   UNL A   1      39.081  32.118  35.840  1.00  0.00     0.057 A 
ATOM     80  C   UNL A   1      38.204  31.578  36.789  1.00  0.00     0.134 A 
ATOM     81  C   UNL A   1      39.471  33.453  36.006  1.00  0.00     0.134 A 
ATOM     82  F   UNL A   1      37.782  30.309  36.681  1.00  0.00    -0.206 F 
ATOM     83  C   UNL A   1      37.721  32.343  37.853  1.00  0.00     0.040 A 
ATOM     84  C   UNL A   1      39.013  34.221  37.077  1.00  0.00     0.040 A 
ATOM     85  F   UNL A   1      40.316  34.029  35.136  1.00  0.00    -0.206 F 
ATOM     86  C   UNL A   1      38.131  33.667  38.002  1.00  0.00     0.006 A 
ENDBRANCH  62  79
ENDBRANCH  36  37
ENDBRANCH  29  31
ENDBRANCH  28  29
ENDBRANCH  27  28
ENDBRANCH  26  27
ENDBRANCH  25  26
ENDBRANCH  24  25
ENDBRANCH   1  24
TORSDOF 21
ENDMDL
MODEL 2
REMARK VINA RESULT:     -10.1      2.144      4.072
REMARK SMILES C[C@@H](OCc1ccccc1Cl)c1ccc(C(=O)OCCOCCOCCOC(=O)c2ccc(-c3c4nc(c(-c5c(F)cccc5F)c5ccc([nH]5)c(-c5c(F)cccc5F)c5nc(c(-c6c(F)cccc6F)c6ccc3[nH]6)C=C5)C=C4)cc2)o1
REMARK SMILES IDX 22 1 21 2 20 3 19 4 18 5 16 6 17 7 15 8 12 9 13 10 84 11
REMARK SMILES IDX 14 12 2 13 1 14 3 15 4 16 5 17 6 18 10 19 7 20 9 21 11 22
REMARK SMILES IDX 8 23 23 24 24 25 25 26 26 27 27 28 28 29 29 30 30 31 31 32
REMARK SMILES IDX 83 33 32 34 82 35 33 36 34 37 35 38 76 39 36 40 81 41 75 42
REMARK SMILES IDX 77 43 37 44 80 45 74 46 73 47 38 49 64 50 47 51 63 52 48 53
REMARK SMILES IDX 51 54 62 55 78 56 49 57 50 58 61 60 79 61 52 62 39 63 40 64
REMARK SMILES IDX 45 65 41 66 42 67 44 68 46 69 43 70 65 71 66 72 71 73 67 74
REMARK SMILES IDX 68 75 70 76 72 77 69 78 53 79 54 80 59 81 55 82 56 83 58 84
REMARK SMILES IDX 60 85 57 86
REMARK H PARENT 77 48 51 59
REMARK Flexibility Score: inf
ROOT
ATOM      1  C   UNL A   1      38.545  21.380  25.326  1.00  0.00     0.188 C 
ENDROOT
BRANCH   1   2
ATOM      2  O   UNL A   1      37.202  21.336  25.799  1.00  0.00    -0.376 OA
BRANCH   2   3
ATOM      3  C   UNL A   1      36.123  21.397  24.876  1.00  0.00     0.202 C 
BRANCH   3   4
ATOM      4  C   UNL A   1      35.005  20.368  25.049  1.00  0.00     0.261 C 
BRANCH   4   5
ATOM      5  O   UNL A   1      33.814  20.733  24.334  1.00  0.00    -0.457 OA
BRANCH   5   6
ATOM      6  C   UNL A   1      32.634  20.512  24.985  1.00  0.00     0.374 C 
ATOM      7  O   UNL A   1      32.176  19.406  25.245  1.00  0.00    -0.242 OA
BRANCH   6   8
ATOM      8  C   UNL A   1      32.072  21.774  25.408  1.00  0.00     0.211 A 
ATOM      9  C   UNL A   1      32.194  23.921  25.918  1.00  0.00     0.133 A 
ATOM     10  C   UNL A   1      30.854  23.593  25.931  1.00  0.00     0.049 A 
ATOM     11  O   UNL A   1      32.933  22.822  25.597  1.00  0.00    -0.451 OA
ATOM     12  C   UNL A   1      30.777  22.212  25.626  1.00  0.00     0.058 A 
BRANCH   9  13
ATOM     13  C   UNL A   1      32.933  25.180  26.253  1.00  0.00     0.181 C 
ATOM     14  C   UNL A   1      33.862  25.598  25.117  1.00  0.00     0.047 C 
BRANCH  13  15
ATOM     15  O   UNL A   1      31.954  26.157  26.606  1.00  0.00    -0.366 OA
BRANCH  15  16
ATOM     16  C   UNL A   1      32.190  27.505  26.177  1.00  0.00     0.198 C 
BRANCH  16  17
ATOM     17  C   UNL A   1      31.267  27.976  25.069  1.00  0.00    -0.004 A 
ATOM     18  C   UNL A   1      30.540  27.034  24.316  1.00  0.00     0.007 A 
ATOM     19  C   UNL A   1      31.038  29.335  24.789  1.00  0.00     0.046 A 
ATOM     20  C   UNL A   1      29.705  27.416  23.264  1.00  0.00     0.000 A 
ATOM     21  C   UNL A   1      30.174  29.719  23.751  1.00  0.00     0.021 A 
ATOM     22  Cl  UNL A   1      31.755  30.612  25.708  1.00  0.00    -0.084 Cl
ATOM     23  C   UNL A   1      29.527  28.761  22.976  1.00  0.00     0.002 A 
ENDBRANCH  16  17
ENDBRANCH  15  16
ENDBRANCH  13  15
ENDBRANCH   9  13
ENDBRANCH   6   8
ENDBRANCH   5   6
ENDBRANCH   4   5
ENDBRANCH   3   4
ENDBRANCH   2   3
ENDBRANCH   1   2
BRANCH   1  24
ATOM     24  C   UNL A   1      39.711  21.464  26.327  1.00  0.00     0.188 C 
BRANCH  24  25
ATOM     25  O   UNL A   1      40.990  21.632  25.733  1.00  0.00    -0.376 OA
BRANCH  25  26
ATOM     26  C   UNL A   1      42.046  20.894  26.332  1.00  0.00     0.202 C 
BRANCH  26  27
ATOM     27  C   UNL A   1      43.422  21.314  25.809  1.00  0.00     0.261 C 
BRANCH  27  28
ATOM     28  O   UNL A   1      43.928  22.531  26.382  1.00  0.00    -0.460 OA
BRANCH  28  29
ATOM     29  C   UNL A   1      43.754  23.660  25.660  1.00  0.00     0.338 C 
ATOM     30  O   UNL A   1      43.924  23.805  24.464  1.00  0.00    -0.246 OA
BRANCH  29  31
ATOM     31  C   UNL A   1      43.165  24.679  26.551  1.00  0.00     0.060 A 
ATOM     32  C   UNL A   1      43.736  25.956  26.594  1.00  0.00     0.016 A 
ATOM     33  C   UNL A   1      42.053  24.369  27.338  1.00  0.00     0.016 A 
ATOM     34  C   UNL A   1      43.207  26.924  27.453  1.00  0.00     0.010 A 
ATOM     35  C   UNL A   1      41.536  25.332  28.206  1.00  0.00     0.010 A 
ATOM     36  C   UNL A   1      42.125  26.606  28.287  1.00  0.00    -0.014 A 
BRANCH  36  37
ATOM     37  C   UNL A   1      41.704  27.540  29.357  1.00  0.00     0.031 A 
ATOM     38  C   UNL A   1      42.427  27.501  30.674  1.00  0.00     0.074 A 
ATOM     39  C   UNL A   1      40.684  28.396  29.176  1.00  0.00     0.049 A 
ATOM     40  N   UNL A   1      42.203  28.183  31.767  1.00  0.00    -0.248 NA
ATOM     41  C   UNL A   1      43.554  26.558  30.770  1.00  0.00     0.031 C 
ATOM     42  C   UNL A   1      39.911  28.546  27.946  1.00  0.00     0.029 A 
ATOM     43  N   UNL A   1      40.115  29.293  30.046  1.00  0.00    -0.354 N 
ATOM     44  C   UNL A   1      43.159  27.757  32.679  1.00  0.00     0.074 A 
ATOM     45  C   UNL A   1      43.946  26.733  32.023  1.00  0.00     0.031 C 
ATOM     46  C   UNL A   1      38.959  29.475  28.142  1.00  0.00     0.029 A 
ATOM     47  C   UNL A   1      39.040  29.964  29.518  1.00  0.00     0.049 A 
ATOM     48  H   UNL A   1      40.447  29.441  30.960  1.00  0.00     0.167 HD
ATOM     49  C   UNL A   1      43.373  28.184  33.946  1.00  0.00     0.037 A 
ATOM     50  C   UNL A   1      38.210  30.860  30.088  1.00  0.00     0.037 A 
ATOM     51  C   UNL A   1      42.590  29.194  34.607  1.00  0.00     0.049 A 
ATOM     52  C   UNL A   1      38.421  31.268  31.521  1.00  0.00     0.074 A 
ATOM     53  C   UNL A   1      42.746  29.710  35.882  1.00  0.00     0.029 A 
ATOM     54  N   UNL A   1      41.494  29.832  34.047  1.00  0.00    -0.354 N 
ATOM     55  N   UNL A   1      39.352  30.889  32.363  1.00  0.00    -0.248 NA
ATOM     56  C   UNL A   1      37.462  32.231  32.085  1.00  0.00     0.031 C 
ATOM     57  C   UNL A   1      41.718  30.632  36.107  1.00  0.00     0.029 A 
ATOM     58  C   UNL A   1      40.948  30.719  34.960  1.00  0.00     0.049 A 
ATOM     59  H   UNL A   1      41.155  29.678  33.136  1.00  0.00     0.167 HD
ATOM     60  C   UNL A   1      39.109  31.584  33.541  1.00  0.00     0.074 A 
ATOM     61  C   UNL A   1      37.946  32.413  33.307  1.00  0.00     0.031 C 
ATOM     62  C   UNL A   1      39.792  31.541  34.712  1.00  0.00     0.037 A 
BRANCH  49  63
ATOM     63  C   UNL A   1      44.491  27.536  34.704  1.00  0.00     0.057 A 
ATOM     64  C   UNL A   1      45.791  28.058  34.690  1.00  0.00     0.134 A 
ATOM     65  C   UNL A   1      44.264  26.383  35.464  1.00  0.00     0.134 A 
ATOM     66  F   UNL A   1      46.076  29.152  33.968  1.00  0.00    -0.206 F 
ATOM     67  C   UNL A   1      46.831  27.441  35.386  1.00  0.00     0.040 A 
ATOM     68  C   UNL A   1      45.292  25.770  36.182  1.00  0.00     0.040 A 
ATOM     69  F   UNL A   1      43.042  25.834  35.522  1.00  0.00    -0.206 F 
ATOM     70  C   UNL A   1      46.582  26.296  36.138  1.00  0.00     0.006 A 
ENDBRANCH  49  63
BRANCH  50  71
ATOM     71  C   UNL A   1      37.089  31.434  29.303  1.00  0.00     0.057 A 
ATOM     72  C   UNL A   1      37.146  32.744  28.816  1.00  0.00     0.134 A 
ATOM     73  C   UNL A   1      35.929  30.696  29.042  1.00  0.00     0.134 A 
ATOM     74  F   UNL A   1      38.221  33.509  29.060  1.00  0.00    -0.206 F 
ATOM     75  C   UNL A   1      36.084  33.306  28.104  1.00  0.00     0.040 A 
ATOM     76  C   UNL A   1      34.868  31.236  28.314  1.00  0.00     0.040 A 
ATOM     77  F   UNL A   1      35.813  29.436  29.489  1.00  0.00    -0.206 F 
ATOM     78  C   UNL A   1      34.943  32.548  27.847  1.00  0.00     0.006 A 
ENDBRANCH  50  71
BRANCH  62  79
ATOM     79  C   UNL A   1      39.320  32.436  35.819  1.00  0.00     0.057 A 
ATOM     80  C   UNL A   1      39.725  33.773  35.910  1.00  0.00     0.134 A 
ATOM     81  C   UNL A   1      38.412  31.968  36.778  1.00  0.00     0.134 A 
ATOM     82  F   UNL A   1      40.602  34.281  35.030  1.00  0.00    -0.206 F 
ATOM     83  C   UNL A   1      39.256  34.609  36.926  1.00  0.00     0.040 A 
ATOM     84  C   UNL A   1      37.920  32.799  37.784  1.00  0.00     0.040 A 
ATOM     85  F   UNL A   1      37.978  30.699  36.742  1.00  0.00    -0.206 F 
ATOM     86  C   UNL A   1      38.345  34.123  37.863  1.00  0.00     0.006 A 
ENDBRANCH  62  79
ENDBRANCH  36  37
ENDBRANCH  29  31
ENDBRANCH  28  29
ENDBRANCH  27  28
ENDBRANCH  26  27
ENDBRANCH  25  26
ENDBRANCH  24  25
ENDBRANCH   1  24
TORSDOF 21
ENDMDL
MODEL 3
REMARK VINA RESULT:      -9.9      5.052     10.625
REMARK SMILES C[C@@H](OCc1ccccc1Cl)c1ccc(C(=O)OCCOCCOCCOC(=O)c2ccc(-c3c4nc(c(-c5c(F)cccc5F)c5ccc([nH]5)c(-c5c(F)cccc5F)c5nc(c(-c6c(F)cccc6F)c6ccc3[nH]6)C=C5)C=C4)cc2)o1
REMARK SMILES IDX 22 1 21 2 20 3 19 4 18 5 16 6 17 7 15 8 12 9 13 10 84 11
REMARK SMILES IDX 14 12 2 13 1 14 3 15 4 16 5 17 6 18 10 19 7 20 9 21 11 22
REMARK SMILES IDX 8 23 23 24 24 25 25 26 26 27 27 28 28 29 29 30 30 31 31 32
REMARK SMILES IDX 83 33 32 34 82 35 33 36 34 37 35 38 76 39 36 40 81 41 75 42
REMARK SMILES IDX 77 43 37 44 80 45 74 46 73 47 38 49 64 50 47 51 63 52 48 53
REMARK SMILES IDX 51 54 62 55 78 56 49 57 50 58 61 60 79 61 52 62 39 63 40 64
REMARK SMILES IDX 45 65 41 66 42 67 44 68 46 69 43 70 65 71 66 72 71 73 67 74
REMARK SMILES IDX 68 75 70 76 72 77 69 78 53 79 54 80 59 81 55 82 56 83 58 84
REMARK SMILES IDX 60 85 57 86
REMARK H PARENT 77 48 51 59
REMARK Flexibility Score: inf
ROOT
ATOM      1  C   UNL A   1      33.476  35.360  30.446  1.00  0.00     0.188 C 
ENDROOT
BRANCH   1   2
ATOM      2  O   UNL A   1      33.292  34.139  29.736  1.00  0.00    -0.376 OA
BRANCH   2   3
ATOM      3  C   UNL A   1      33.669  34.051  28.368  1.00  0.00     0.202 C 
BRANCH   3   4
ATOM      4  C   UNL A   1      34.504  32.837  27.957  1.00  0.00     0.261 C 
BRANCH   4   5
ATOM      5  O   UNL A   1      33.760  31.611  28.042  1.00  0.00    -0.457 OA
BRANCH   5   6
ATOM      6  C   UNL A   1      34.319  30.529  27.424  1.00  0.00     0.374 C 
ATOM      7  O   UNL A   1      35.482  30.168  27.562  1.00  0.00    -0.242 OA
BRANCH   6   8
ATOM      8  C   UNL A   1      33.304  29.823  26.675  1.00  0.00     0.211 A 
ATOM      9  C   UNL A   1      32.152  28.022  26.119  1.00  0.00     0.133 A 
ATOM     10  C   UNL A   1      31.556  29.082  25.467  1.00  0.00     0.049 A 
ATOM     11  O   UNL A   1      33.208  28.469  26.855  1.00  0.00    -0.451 OA
ATOM     12  C   UNL A   1      32.308  30.233  25.805  1.00  0.00     0.058 A 
BRANCH   9  13
ATOM     13  C   UNL A   1      31.900  26.545  26.094  1.00  0.00     0.181 C 
ATOM     14  C   UNL A   1      30.404  26.237  26.097  1.00  0.00     0.047 C 
BRANCH  13  15
ATOM     15  O   UNL A   1      32.608  26.020  24.972  1.00  0.00    -0.366 OA
BRANCH  15  16
ATOM     16  C   UNL A   1      32.447  24.623  24.692  1.00  0.00     0.198 C 
BRANCH  16  17
ATOM     17  C   UNL A   1      33.158  23.706  25.670  1.00  0.00    -0.004 A 
ATOM     18  C   UNL A   1      32.450  23.158  26.756  1.00  0.00     0.007 A 
ATOM     19  C   UNL A   1      34.497  23.309  25.512  1.00  0.00     0.046 A 
ATOM     20  C   UNL A   1      33.068  22.338  27.702  1.00  0.00     0.000 A 
ATOM     21  C   UNL A   1      35.110  22.459  26.446  1.00  0.00     0.021 A 
ATOM     22  Cl  UNL A   1      35.462  23.793  24.160  1.00  0.00    -0.084 Cl
ATOM     23  C   UNL A   1      34.403  21.993  27.551  1.00  0.00     0.002 A 
ENDBRANCH  16  17
ENDBRANCH  15  16
ENDBRANCH  13  15
ENDBRANCH   9  13
ENDBRANCH   6   8
ENDBRANCH   5   6
ENDBRANCH   4   5
ENDBRANCH   3   4
ENDBRANCH   2   3
ENDBRANCH   1   2
BRANCH   1  24
ATOM     24  C   UNL A   1      33.453  35.365  31.986  1.00  0.00     0.188 C 
BRANCH  24  25
ATOM     25  O   UNL A   1      34.692  35.698  32.595  1.00  0.00    -0.376 OA
BRANCH  25  26
ATOM     26  C   UNL A   1      34.831  35.308  33.954  1.00  0.00     0.202 C 
BRANCH  26  27
ATOM     27  C   UNL A   1      35.704  34.062  34.117  1.00  0.00     0.261 C 
BRANCH  27  28
ATOM     28  O   UNL A   1      36.295  33.587  32.896  1.00  0.00    -0.460 OA
BRANCH  28  29
ATOM     29  C   UNL A   1      35.774  32.458  32.368  1.00  0.00     0.338 C 
ATOM     30  O   UNL A   1      34.599  32.143  32.309  1.00  0.00    -0.246 OA
BRANCH  29  31
ATOM     31  C   UNL A   1      36.873  31.712  31.723  1.00  0.00     0.060 A 
ATOM     32  C   UNL A   1      37.807  31.048  32.525  1.00  0.00     0.016 A 
ATOM     33  C   UNL A   1      36.974  31.672  30.330  1.00  0.00     0.016 A 
ATOM     34  C   UNL A   1      38.869  30.361  31.930  1.00  0.00     0.010 A 
ATOM     35  C   UNL A   1      38.043  30.998  29.738  1.00  0.00     0.010 A 
ATOM     36  C   UNL A   1      39.010  30.360  30.535  1.00  0.00    -0.014 A 
BRANCH  36  37
ATOM     37  C   UNL A   1      40.245  29.836  29.906  1.00  0.00     0.031 A 
ATOM     38  C   UNL A   1      41.410  30.767  29.719  1.00  0.00     0.074 A 
ATOM     39  C   UNL A   1      40.329  28.561  29.489  1.00  0.00     0.049 A 
ATOM     40  N   UNL A   1      42.568  30.547  29.151  1.00  0.00    -0.248 NA
ATOM     41  C   UNL A   1      41.242  32.134  30.239  1.00  0.00     0.031 C 
ATOM     42  C   UNL A   1      39.281  27.553  29.625  1.00  0.00     0.029 A 
ATOM     43  N   UNL A   1      41.350  27.905  28.847  1.00  0.00    -0.354 N 
ATOM     44  C   UNL A   1      43.266  31.743  29.247  1.00  0.00     0.074 A 
ATOM     45  C   UNL A   1      42.391  32.695  29.898  1.00  0.00     0.031 C 
ATOM     46  C   UNL A   1      39.710  26.404  29.072  1.00  0.00     0.029 A 
ATOM     47  C   UNL A   1      41.050  26.605  28.522  1.00  0.00     0.049 A 
ATOM     48  H   UNL A   1      42.215  28.326  28.640  1.00  0.00     0.167 HD
ATOM     49  C   UNL A   1      44.527  32.023  28.840  1.00  0.00     0.037 A 
ATOM     50  C   UNL A   1      41.770  25.690  27.845  1.00  0.00     0.037 A 
ATOM     51  C   UNL A   1      45.398  31.086  28.184  1.00  0.00     0.049 A 
ATOM     52  C   UNL A   1      43.143  26.046  27.338  1.00  0.00     0.074 A 
ATOM     53  C   UNL A   1      46.701  31.271  27.756  1.00  0.00     0.029 A 
ATOM     54  N   UNL A   1      45.048  29.786  27.851  1.00  0.00    -0.354 N 
ATOM     55  N   UNL A   1      43.810  27.166  27.468  1.00  0.00    -0.248 NA
ATOM     56  C   UNL A   1      43.862  25.005  26.586  1.00  0.00     0.031 C 
ATOM     57  C   UNL A   1      47.125  30.095  27.127  1.00  0.00     0.029 A 
ATOM     58  C   UNL A   1      46.101  29.166  27.199  1.00  0.00     0.049 A 
ATOM     59  H   UNL A   1      44.179  29.366  28.048  1.00  0.00     0.167 HD
ATOM     60  C   UNL A   1      45.033  26.958  26.842  1.00  0.00     0.074 A 
ATOM     61  C   UNL A   1      45.020  25.602  26.336  1.00  0.00     0.031 C 
ATOM     62  C   UNL A   1      46.076  27.814  26.703  1.00  0.00     0.037 A 
BRANCH  49  63
ATOM     63  C   UNL A   1      45.025  33.417  29.077  1.00  0.00     0.057 A 
ATOM     64  C   UNL A   1      45.782  33.746  30.209  1.00  0.00     0.134 A 
ATOM     65  C   UNL A   1      44.753  34.438  28.159  1.00  0.00     0.134 A 
ATOM     66  F   UNL A   1      46.062  32.815  31.133  1.00  0.00    -0.206 F 
ATOM     67  C   UNL A   1      46.230  35.049  30.431  1.00  0.00     0.040 A 
ATOM     68  C   UNL A   1      45.215  35.740  28.360  1.00  0.00     0.040 A 
ATOM     69  F   UNL A   1      44.036  34.188  27.054  1.00  0.00    -0.206 F 
ATOM     70  C   UNL A   1      45.950  36.049  29.503  1.00  0.00     0.006 A 
ENDBRANCH  49  63
BRANCH  50  71
ATOM     71  C   UNL A   1      41.207  24.340  27.598  1.00  0.00     0.057 A 
ATOM     72  C   UNL A   1      40.197  24.142  26.650  1.00  0.00     0.134 A 
ATOM     73  C   UNL A   1      41.648  23.223  28.316  1.00  0.00     0.134 A 
ATOM     74  F   UNL A   1      39.713  25.181  25.952  1.00  0.00    -0.206 F 
ATOM     75  C   UNL A   1      39.636  22.882  26.432  1.00  0.00     0.040 A 
ATOM     76  C   UNL A   1      41.113  21.953  28.093  1.00  0.00     0.040 A 
ATOM     77  F   UNL A   1      42.610  23.350  29.242  1.00  0.00    -0.206 F 
ATOM     78  C   UNL A   1      40.100  21.782  27.151  1.00  0.00     0.006 A 
ENDBRANCH  50  71
BRANCH  62  79
ATOM     79  C   UNL A   1      47.300  27.303  26.003  1.00  0.00     0.057 A 
ATOM     80  C   UNL A   1      47.450  27.400  24.615  1.00  0.00     0.134 A 
ATOM     81  C   UNL A   1      48.360  26.750  26.733  1.00  0.00     0.134 A 
ATOM     82  F   UNL A   1      46.467  27.909  23.857  1.00  0.00    -0.206 F 
ATOM     83  C   UNL A   1      48.607  26.950  23.974  1.00  0.00     0.040 A 
ATOM     84  C   UNL A   1      49.529  26.317  26.107  1.00  0.00     0.040 A 
ATOM     85  F   UNL A   1      48.283  26.636  28.068  1.00  0.00    -0.206 F 
ATOM     86  C   UNL A   1      49.653  26.412  24.722  1.00  0.00     0.006 A 
ENDBRANCH  62  79
ENDBRANCH  36  37
ENDBRANCH  29  31
ENDBRANCH  28  29
ENDBRANCH  27  28
ENDBRANCH  26  27
ENDBRANCH  25  26
ENDBRANCH  24  25
ENDBRANCH   1  24
TORSDOF 21
ENDMDL
