MODEL 1
REMARK VINA RESULT:     -11.7      0.000      0.000
REMARK SMILES Cc1ccccc1/C=C1\SC(=S)N(CCC(=O)N[C@@H](C)C(=O)OCCOCCOCCOC(=O)c2ccc(-c3c4nc(c(-c5c(F)cccc5F)c5ccc([nH]5)c(-c5c(F)cccc5F)c5nc(c(-c6c(F)cccc6F)c6ccc3[nH]6)C=C5)C=C4)cc2)C1=O
REMARK SMILES IDX 26 1 25 2 24 3 23 4 21 5 22 6 19 7 20 8 18 9 16 10 17 11
REMARK SMILES IDX 15 13 14 14 13 15 8 16 9 17 10 18 89 19 11 20 90 21 12 22
REMARK SMILES IDX 7 23 1 24 2 25 3 26 4 27 6 28 5 29 27 30 28 31 29 32 30 33
REMARK SMILES IDX 31 34 32 35 33 36 34 37 35 38 36 39 88 40 37 41 87 42 38 43
REMARK SMILES IDX 39 44 40 45 81 46 41 47 86 48 80 49 82 50 42 51 85 52 79 53
REMARK SMILES IDX 78 54 43 56 69 57 52 58 68 59 53 60 56 61 67 62 83 63 54 64
REMARK SMILES IDX 55 65 66 67 84 68 57 69 44 70 45 71 50 72 46 73 47 74 49 75
REMARK SMILES IDX 51 76 48 77 70 78 71 79 76 80 72 81 73 82 75 83 77 84 74 85
REMARK SMILES IDX 58 86 59 87 64 88 60 89 61 90 63 91 65 92 62 93
REMARK H PARENT 18 12 82 55 56 66
REMARK Flexibility Score: inf
ROOT
ATOM      1  O   UNL A   1      34.686  32.442  27.559  1.00  0.00    -0.376 OA
ENDROOT
BRANCH   1   2
ATOM      2  C   UNL A   1      33.542  31.575  27.622  1.00  0.00     0.202 C 
BRANCH   2   3
ATOM      3  C   UNL A   1      32.786  30.354  26.622  1.00  0.00     0.261 C 
BRANCH   3   4
ATOM      4  O   UNL A   1      32.887  29.531  24.941  1.00  0.00    -0.462 OA
BRANCH   4   5
ATOM      5  C   UNL A   1      32.078  29.240  23.572  1.00  0.00     0.328 C 
ATOM      6  O   UNL A   1      32.575  29.034  22.439  1.00  0.00    -0.250 OA
BRANCH   5   7
ATOM      7  C   UNL A   1      30.598  28.973  23.474  1.00  0.00     0.189 C 
ATOM      8  C   UNL A   1      29.881  30.272  23.732  1.00  0.00     0.043 C 
BRANCH   7   9
ATOM      9  N   UNL A   1      29.820  27.789  23.720  1.00  0.00    -0.343 N 
ATOM     10  C   UNL A   1      30.202  26.475  23.704  1.00  0.00     0.222 C 
ATOM     11  O   UNL A   1      29.263  25.665  23.707  1.00  0.00    -0.275 OA
ATOM     12  H   UNL A   1      28.871  27.947  23.931  1.00  0.00     0.164 HD
BRANCH  10  13
ATOM     13  C   UNL A   1      31.656  25.925  23.813  1.00  0.00     0.122 C 
BRANCH  13  14
ATOM     14  C   UNL A   1      32.111  24.538  23.295  1.00  0.00     0.137 C 
BRANCH  14  15
ATOM     15  N   UNL A   1      33.030  23.767  24.189  1.00  0.00    -0.292 N 
ATOM     16  C   UNL A   1      36.493  23.409  25.063  1.00  0.00     0.029 C 
ATOM     17  C   UNL A   1      35.179  23.122  25.011  1.00  0.00     0.081 C 
ATOM     18  S   UNL A   1      34.123  22.354  26.100  1.00  0.00    -0.054 SA
ATOM     19  C   UNL A   1      34.352  23.588  23.835  1.00  0.00     0.266 C 
ATOM     20  C   UNL A   1      32.670  22.993  25.275  1.00  0.00     0.148 C 
ATOM     21  O   UNL A   1      34.786  23.729  22.696  1.00  0.00    -0.268 OA
ATOM     22  S   UNL A   1      31.114  22.597  25.751  1.00  0.00    -0.052 S 
BRANCH  16  23
ATOM     23  C   UNL A   1      37.754  23.273  25.878  1.00  0.00    -0.021 A 
ATOM     24  C   UNL A   1      37.544  20.670  25.042  1.00  0.00     0.045 C 
ATOM     25  C   UNL A   1      38.476  21.733  25.589  1.00  0.00    -0.044 A 
ATOM     26  C   UNL A   1      39.970  21.176  26.261  1.00  0.00     0.004 A 
ATOM     27  C   UNL A   1      40.971  22.039  27.321  1.00  0.00     0.000 A 
ATOM     28  C   UNL A   1      38.710  24.396  26.913  1.00  0.00     0.008 A 
ATOM     29  C   UNL A   1      40.467  23.658  27.782  1.00  0.00     0.001 A 
ENDBRANCH  16  23
ENDBRANCH  14  15
ENDBRANCH  13  14
ENDBRANCH  10  13
ENDBRANCH   7   9
ENDBRANCH   5   7
ENDBRANCH   4   5
ENDBRANCH   3   4
ENDBRANCH   2   3
ENDBRANCH   1   2
BRANCH   1  30
ATOM     30  C   UNL A   1      34.700  33.755  28.070  1.00  0.00     0.188 C 
BRANCH  30  31
ATOM     31  C   UNL A   1      33.698  34.066  29.086  1.00  0.00     0.188 C 
BRANCH  31  32
ATOM     32  O   UNL A   1      34.281  34.796  30.134  1.00  0.00    -0.376 OA
BRANCH  32  33
ATOM     33  C   UNL A   1      34.529  34.109  31.323  1.00  0.00     0.202 C 
BRANCH  33  34
ATOM     34  C   UNL A   1      35.949  34.409  31.799  1.00  0.00     0.261 C 
BRANCH  34  35
ATOM     35  O   UNL A   1      36.822  33.235  31.530  1.00  0.00    -0.460 OA
BRANCH  35  36
ATOM     36  C   UNL A   1      36.414  32.016  30.983  1.00  0.00     0.338 C 
ATOM     37  O   UNL A   1      35.593  31.270  31.490  1.00  0.00    -0.246 OA
BRANCH  36  38
ATOM     38  C   UNL A   1      37.264  31.608  29.749  1.00  0.00     0.060 A 
ATOM     39  C   UNL A   1      37.472  30.255  29.312  1.00  0.00     0.016 A 
ATOM     40  C   UNL A   1      38.369  32.356  29.675  1.00  0.00     0.016 A 
ATOM     41  C   UNL A   1      38.786  29.538  29.357  1.00  0.00     0.010 A 
ATOM     42  C   UNL A   1      39.518  31.621  29.967  1.00  0.00     0.010 A 
ATOM     43  C   UNL A   1      39.888  30.105  29.986  1.00  0.00    -0.014 A 
BRANCH  43  44
ATOM     44  C   UNL A   1      41.587  29.331  30.342  1.00  0.00     0.031 A 
ATOM     45  C   UNL A   1      42.420  28.072  29.129  1.00  0.00     0.074 A 
ATOM     46  C   UNL A   1      42.300  29.722  31.453  1.00  0.00     0.049 A 
ATOM     47  N   UNL A   1      42.395  26.766  29.252  1.00  0.00    -0.248 NA
ATOM     48  C   UNL A   1      42.587  28.111  27.420  1.00  0.00     0.031 C 
ATOM     49  C   UNL A   1      43.743  29.674  31.767  1.00  0.00     0.029 A 
ATOM     50  N   UNL A   1      41.882  30.515  32.524  1.00  0.00    -0.354 N 
ATOM     51  C   UNL A   1      42.913  26.074  28.147  1.00  0.00     0.074 A 
ATOM     52  C   UNL A   1      42.596  26.844  27.017  1.00  0.00     0.031 C 
ATOM     53  C   UNL A   1      43.958  30.014  33.063  1.00  0.00     0.029 A 
ATOM     54  C   UNL A   1      42.669  30.272  33.644  1.00  0.00     0.049 A 
ATOM     55  H   UNL A   1      41.136  31.157  32.490  1.00  0.00     0.167 HD
ATOM     56  C   UNL A   1      43.926  25.161  28.264  1.00  0.00     0.037 A 
ATOM     57  C   UNL A   1      42.078  29.824  34.769  1.00  0.00     0.037 A 
ATOM     58  C   UNL A   1      44.439  25.332  29.662  1.00  0.00     0.049 A 
ATOM     59  C   UNL A   1      42.596  28.409  34.995  1.00  0.00     0.074 A 
ATOM     60  C   UNL A   1      45.082  27.024  29.966  1.00  0.00     0.029 A 
ATOM     61  N   UNL A   1      44.405  24.502  31.504  1.00  0.00    -0.354 N 
ATOM     62  N   UNL A   1      43.291  27.692  34.136  1.00  0.00    -0.248 NA
ATOM     63  C   UNL A   1      42.390  27.710  36.249  1.00  0.00     0.031 C 
ATOM     64  C   UNL A   1      45.380  27.244  31.846  1.00  0.00     0.029 A 
ATOM     65  C   UNL A   1      44.918  25.818  32.747  1.00  0.00     0.049 A 
ATOM     66  H   UNL A   1      44.162  23.572  31.715  1.00  0.00     0.167 HD
ATOM     67  C   UNL A   1      43.677  26.496  34.710  1.00  0.00     0.074 A 
ATOM     68  C   UNL A   1      42.993  26.539  35.993  1.00  0.00     0.031 C 
ATOM     69  C   UNL A   1      44.517  25.569  34.122  1.00  0.00     0.037 A 
BRANCH  56  70
ATOM     70  C   UNL A   1      44.833  24.841  27.035  1.00  0.00     0.057 A 
ATOM     71  C   UNL A   1      44.837  23.561  26.437  1.00  0.00     0.134 A 
ATOM     72  C   UNL A   1      45.735  25.739  26.416  1.00  0.00     0.134 A 
ATOM     73  F   UNL A   1      44.216  22.520  27.004  1.00  0.00    -0.206 F 
ATOM     74  C   UNL A   1      45.536  23.243  25.256  1.00  0.00     0.040 A 
ATOM     75  C   UNL A   1      46.508  25.406  25.275  1.00  0.00     0.040 A 
ATOM     76  F   UNL A   1      45.928  26.976  26.898  1.00  0.00    -0.206 F 
ATOM     77  C   UNL A   1      46.372  24.169  24.661  1.00  0.00     0.006 A 
ENDBRANCH  56  70
BRANCH  57  78
ATOM     78  C   UNL A   1      40.675  30.406  34.859  1.00  0.00     0.057 A 
ATOM     79  C   UNL A   1      40.509  31.763  35.260  1.00  0.00     0.134 A 
ATOM     80  C   UNL A   1      39.638  29.892  34.089  1.00  0.00     0.134 A 
ATOM     81  F   UNL A   1      41.467  32.378  35.973  1.00  0.00    -0.206 F 
ATOM     82  C   UNL A   1      39.477  32.584  34.766  1.00  0.00     0.040 A 
ATOM     83  C   UNL A   1      38.552  30.681  33.665  1.00  0.00     0.040 A 
ATOM     84  F   UNL A   1      39.756  28.666  33.580  1.00  0.00    -0.206 F 
ATOM     85  C   UNL A   1      38.512  32.048  33.931  1.00  0.00     0.006 A 
ENDBRANCH  57  78
BRANCH  69  86
ATOM     86  C   UNL A   1      44.872  24.191  34.623  1.00  0.00     0.057 A 
ATOM     87  C   UNL A   1      44.012  23.123  34.733  1.00  0.00     0.134 A 
ATOM     88  C   UNL A   1      46.211  23.851  34.906  1.00  0.00     0.134 A 
ATOM     89  F   UNL A   1      42.718  23.306  35.004  1.00  0.00    -0.206 F 
ATOM     90  C   UNL A   1      44.477  21.806  34.723  1.00  0.00     0.040 A 
ATOM     91  C   UNL A   1      46.725  22.569  34.778  1.00  0.00     0.040 A 
ATOM     92  F   UNL A   1      47.068  24.753  35.397  1.00  0.00    -0.206 F 
ATOM     93  C   UNL A   1      45.837  21.526  34.645  1.00  0.00     0.006 A 
ENDBRANCH  69  86
ENDBRANCH  43  44
ENDBRANCH  36  38
ENDBRANCH  35  36
ENDBRANCH  34  35
ENDBRANCH  33  34
ENDBRANCH  32  33
ENDBRANCH  31  32
ENDBRANCH  30  31
ENDBRANCH   1  30
TORSDOF 22
ENDMDL
MODEL 2
REMARK VINA RESULT:     -11.5      1.366      2.165
REMARK SMILES Cc1ccccc1/C=C1\SC(=S)N(CCC(=O)N[C@@H](C)C(=O)OCCOCCOCCOC(=O)c2ccc(-c3c4nc(c(-c5c(F)cccc5F)c5ccc([nH]5)c(-c5c(F)cccc5F)c5nc(c(-c6c(F)cccc6F)c6ccc3[nH]6)C=C5)C=C4)cc2)C1=O
REMARK SMILES IDX 26 1 25 2 24 3 23 4 21 5 22 6 19 7 20 8 18 9 16 10 17 11
REMARK SMILES IDX 15 13 14 14 13 15 8 16 9 17 10 18 89 19 11 20 90 21 12 22
REMARK SMILES IDX 7 23 1 24 2 25 3 26 4 27 6 28 5 29 27 30 28 31 29 32 30 33
REMARK SMILES IDX 31 34 32 35 33 36 34 37 35 38 36 39 88 40 37 41 87 42 38 43
REMARK SMILES IDX 39 44 40 45 81 46 41 47 86 48 80 49 82 50 42 51 85 52 79 53
REMARK SMILES IDX 78 54 43 56 69 57 52 58 68 59 53 60 56 61 67 62 83 63 54 64
REMARK SMILES IDX 55 65 66 67 84 68 57 69 44 70 45 71 50 72 46 73 47 74 49 75
REMARK SMILES IDX 51 76 48 77 70 78 71 79 76 80 72 81 73 82 75 83 77 84 74 85
REMARK SMILES IDX 58 86 59 87 64 88 60 89 61 90 63 91 65 92 62 93
REMARK H PARENT 18 12 82 55 56 66
REMARK Flexibility Score: inf
ROOT
ATOM      1  O   UNL A   1      34.072  31.413  27.257  1.00  0.00    -0.376 OA
ENDROOT
BRANCH   1   2
ATOM      2  C   UNL A   1      32.765  30.814  27.257  1.00  0.00     0.202 C 
BRANCH   2   3
ATOM      3  C   UNL A   1      32.017  29.336  26.694  1.00  0.00     0.261 C 
BRANCH   3   4
ATOM      4  O   UNL A   1      32.340  27.796  25.675  1.00  0.00    -0.462 OA
BRANCH   4   5
ATOM      5  C   UNL A   1      31.675  26.739  24.649  1.00  0.00     0.328 C 
ATOM      6  O   UNL A   1      32.131  26.392  23.533  1.00  0.00    -0.250 OA
BRANCH   5   7
ATOM      7  C   UNL A   1      30.499  25.848  24.956  1.00  0.00     0.189 C 
ATOM      8  C   UNL A   1      29.300  26.412  24.242  1.00  0.00     0.043 C 
BRANCH   7   9
ATOM      9  N   UNL A   1      30.197  25.017  26.089  1.00  0.00    -0.343 N 
ATOM     10  C   UNL A   1      30.889  23.951  26.599  1.00  0.00     0.222 C 
ATOM     11  O   UNL A   1      30.260  23.276  27.428  1.00  0.00    -0.275 OA
ATOM     12  H   UNL A   1      29.370  25.248  26.571  1.00  0.00     0.164 HD
BRANCH  10  13
ATOM     13  C   UNL A   1      32.386  23.601  26.341  1.00  0.00     0.122 C 
BRANCH  13  14
ATOM     14  C   UNL A   1      32.966  23.187  24.965  1.00  0.00     0.137 C 
BRANCH  14  15
ATOM     15  N   UNL A   1      34.215  22.364  24.995  1.00  0.00    -0.292 N 
ATOM     16  C   UNL A   1      37.723  22.563  25.726  1.00  0.00     0.029 C 
ATOM     17  C   UNL A   1      36.568  22.047  25.269  1.00  0.00     0.081 C 
ATOM     18  S   UNL A   1      35.997  20.452  25.117  1.00  0.00    -0.054 SA
ATOM     19  C   UNL A   1      35.446  22.969  24.846  1.00  0.00     0.266 C 
ATOM     20  C   UNL A   1      34.298  20.985  24.942  1.00  0.00     0.148 C 
ATOM     21  O   UNL A   1      35.612  24.087  24.371  1.00  0.00    -0.268 OA
ATOM     22  S   UNL A   1      33.040  19.916  24.663  1.00  0.00    -0.052 S 
BRANCH  16  23
ATOM     23  C   UNL A   1      39.089  22.235  26.273  1.00  0.00    -0.021 A 
ATOM     24  C   UNL A   1      38.999  24.878  26.999  1.00  0.00     0.045 C 
ATOM     25  C   UNL A   1      39.655  23.536  27.256  1.00  0.00    -0.044 A 
ATOM     26  C   UNL A   1      41.144  23.562  28.138  1.00  0.00     0.004 A 
ATOM     27  C   UNL A   1      42.300  22.324  28.180  1.00  0.00     0.000 A 
ATOM     28  C   UNL A   1      40.133  20.766  26.254  1.00  0.00     0.008 A 
ATOM     29  C   UNL A   1      41.968  20.866  27.257  1.00  0.00     0.001 A 
ENDBRANCH  16  23
ENDBRANCH  14  15
ENDBRANCH  13  14
ENDBRANCH  10  13
ENDBRANCH   7   9
ENDBRANCH   5   7
ENDBRANCH   4   5
ENDBRANCH   3   4
ENDBRANCH   2   3
ENDBRANCH   1   2
BRANCH   1  30
ATOM     30  C   UNL A   1      34.408  32.556  28.009  1.00  0.00     0.188 C 
BRANCH  30  31
ATOM     31  C   UNL A   1      34.239  32.453  29.456  1.00  0.00     0.188 C 
BRANCH  31  32
ATOM     32  O   UNL A   1      34.510  33.688  30.065  1.00  0.00    -0.376 OA
BRANCH  32  33
ATOM     33  C   UNL A   1      34.872  33.663  31.413  1.00  0.00     0.202 C 
BRANCH  33  34
ATOM     34  C   UNL A   1      36.368  33.940  31.545  1.00  0.00     0.261 C 
BRANCH  34  35
ATOM     35  O   UNL A   1      37.084  32.670  31.845  1.00  0.00    -0.460 OA
BRANCH  35  36
ATOM     36  C   UNL A   1      36.998  31.486  31.110  1.00  0.00     0.338 C 
ATOM     37  O   UNL A   1      36.363  30.503  31.450  1.00  0.00    -0.246 OA
BRANCH  36  38
ATOM     38  C   UNL A   1      37.966  31.475  29.894  1.00  0.00     0.060 A 
ATOM     39  C   UNL A   1      38.267  30.316  29.100  1.00  0.00     0.016 A 
ATOM     40  C   UNL A   1      39.039  32.230  30.145  1.00  0.00     0.016 A 
ATOM     41  C   UNL A   1      39.602  29.639  29.054  1.00  0.00     0.010 A 
ATOM     42  C   UNL A   1      40.190  31.461  30.313  1.00  0.00     0.010 A 
ATOM     43  C   UNL A   1      40.623  30.013  29.921  1.00  0.00    -0.014 A 
BRANCH  43  44
ATOM     44  C   UNL A   1      42.318  29.197  30.189  1.00  0.00     0.031 A 
ATOM     45  C   UNL A   1      43.114  28.018  28.874  1.00  0.00     0.074 A 
ATOM     46  C   UNL A   1      43.055  29.500  31.312  1.00  0.00     0.049 A 
ATOM     47  N   UNL A   1      43.075  26.707  28.904  1.00  0.00    -0.248 NA
ATOM     48  C   UNL A   1      43.251  28.178  27.170  1.00  0.00     0.031 C 
ATOM     49  C   UNL A   1      44.502  29.412  31.595  1.00  0.00     0.029 A 
ATOM     50  N   UNL A   1      42.666  30.219  32.444  1.00  0.00    -0.354 N 
ATOM     51  C   UNL A   1      43.565  26.091  27.743  1.00  0.00     0.074 A 
ATOM     52  C   UNL A   1      43.238  26.943  26.677  1.00  0.00     0.031 C 
ATOM     53  C   UNL A   1      44.745  29.656  32.908  1.00  0.00     0.029 A 
ATOM     54  C   UNL A   1      43.469  29.887  33.530  1.00  0.00     0.049 A 
ATOM     55  H   UNL A   1      41.928  30.870  32.470  1.00  0.00     0.167 HD
ATOM     56  C   UNL A   1      44.568  25.160  27.776  1.00  0.00     0.037 A 
ATOM     57  C   UNL A   1      42.893  29.366  34.631  1.00  0.00     0.037 A 
ATOM     58  C   UNL A   1      45.107  25.225  29.173  1.00  0.00     0.049 A 
ATOM     59  C   UNL A   1      43.397  27.933  34.746  1.00  0.00     0.074 A 
ATOM     60  C   UNL A   1      45.777  26.884  29.586  1.00  0.00     0.029 A 
ATOM     61  N   UNL A   1      45.095  24.266  30.952  1.00  0.00    -0.354 N 
ATOM     62  N   UNL A   1      44.067  27.272  33.825  1.00  0.00    -0.248 NA
ATOM     63  C   UNL A   1      43.204  27.149  35.949  1.00  0.00     0.031 C 
ATOM     64  C   UNL A   1      46.110  26.965  31.471  1.00  0.00     0.029 A 
ATOM     65  C   UNL A   1      45.647  25.484  32.276  1.00  0.00     0.049 A 
ATOM     66  H   UNL A   1      44.844  23.326  31.100  1.00  0.00     0.167 HD
ATOM     67  C   UNL A   1      44.449  26.034  34.305  1.00  0.00     0.074 A 
ATOM     68  C   UNL A   1      43.788  25.992  35.600  1.00  0.00     0.031 C 
ATOM     69  C   UNL A   1      45.267  25.141  33.636  1.00  0.00     0.037 A 
BRANCH  56  70
ATOM     70  C   UNL A   1      45.449  24.919  26.512  1.00  0.00     0.057 A 
ATOM     71  C   UNL A   1      46.469  25.824  26.141  1.00  0.00     0.134 A 
ATOM     72  C   UNL A   1      45.328  23.832  25.613  1.00  0.00     0.134 A 
ATOM     73  F   UNL A   1      46.599  27.015  26.738  1.00  0.00    -0.206 F 
ATOM     74  C   UNL A   1      47.377  25.604  25.088  1.00  0.00     0.040 A 
ATOM     75  C   UNL A   1      46.184  23.640  24.499  1.00  0.00     0.040 A 
ATOM     76  F   UNL A   1      44.362  22.913  25.757  1.00  0.00    -0.206 F 
ATOM     77  C   UNL A   1      47.246  24.503  24.263  1.00  0.00     0.006 A 
ENDBRANCH  56  70
BRANCH  57  78
ATOM     78  C   UNL A   1      41.499  29.956  34.787  1.00  0.00     0.057 A 
ATOM     79  C   UNL A   1      41.357  31.289  35.270  1.00  0.00     0.134 A 
ATOM     80  C   UNL A   1      40.439  29.498  34.013  1.00  0.00     0.134 A 
ATOM     81  F   UNL A   1      42.339  31.851  35.996  1.00  0.00    -0.206 F 
ATOM     82  C   UNL A   1      40.324  32.148  34.850  1.00  0.00     0.040 A 
ATOM     83  C   UNL A   1      39.353  30.322  33.662  1.00  0.00     0.040 A 
ATOM     84  F   UNL A   1      40.530  28.303  33.431  1.00  0.00    -0.206 F 
ATOM     85  C   UNL A   1      39.334  31.671  34.008  1.00  0.00     0.006 A 
ENDBRANCH  57  78
BRANCH  69  86
ATOM     86  C   UNL A   1      45.613  23.727  34.031  1.00  0.00     0.057 A 
ATOM     87  C   UNL A   1      46.845  23.282  34.449  1.00  0.00     0.134 A 
ATOM     88  C   UNL A   1      44.610  22.740  34.127  1.00  0.00     0.134 A 
ATOM     89  F   UNL A   1      47.970  23.836  33.990  1.00  0.00    -0.206 F 
ATOM     90  C   UNL A   1      46.980  22.140  35.242  1.00  0.00     0.040 A 
ATOM     91  C   UNL A   1      44.667  21.666  35.002  1.00  0.00     0.040 A 
ATOM     92  F   UNL A   1      43.553  22.742  33.307  1.00  0.00    -0.206 F 
ATOM     93  C   UNL A   1      45.872  21.383  35.603  1.00  0.00     0.006 A 
ENDBRANCH  69  86
ENDBRANCH  43  44
ENDBRANCH  36  38
ENDBRANCH  35  36
ENDBRANCH  34  35
ENDBRANCH  33  34
ENDBRANCH  32  33
ENDBRANCH  31  32
ENDBRANCH  30  31
ENDBRANCH   1  30
TORSDOF 22
ENDMDL
MODEL 3
REMARK VINA RESULT:     -10.8      2.456      3.803
REMARK SMILES Cc1ccccc1/C=C1\SC(=S)N(CCC(=O)N[C@@H](C)C(=O)OCCOCCOCCOC(=O)c2ccc(-c3c4nc(c(-c5c(F)cccc5F)c5ccc([nH]5)c(-c5c(F)cccc5F)c5nc(c(-c6c(F)cccc6F)c6ccc3[nH]6)C=C5)C=C4)cc2)C1=O
REMARK SMILES IDX 26 1 25 2 24 3 23 4 21 5 22 6 19 7 20 8 18 9 16 10 17 11
REMARK SMILES IDX 15 13 14 14 13 15 8 16 9 17 10 18 89 19 11 20 90 21 12 22
REMARK SMILES IDX 7 23 1 24 2 25 3 26 4 27 6 28 5 29 27 30 28 31 29 32 30 33
REMARK SMILES IDX 31 34 32 35 33 36 34 37 35 38 36 39 88 40 37 41 87 42 38 43
REMARK SMILES IDX 39 44 40 45 81 46 41 47 86 48 80 49 82 50 42 51 85 52 79 53
REMARK SMILES IDX 78 54 43 56 69 57 52 58 68 59 53 60 56 61 67 62 83 63 54 64
REMARK SMILES IDX 55 65 66 67 84 68 57 69 44 70 45 71 50 72 46 73 47 74 49 75
REMARK SMILES IDX 51 76 48 77 70 78 71 79 76 80 72 81 73 82 75 83 77 84 74 85
REMARK SMILES IDX 58 86 59 87 64 88 60 89 61 90 63 91 65 92 62 93
REMARK H PARENT 18 12 82 55 56 66
REMARK Flexibility Score: inf
ROOT
ATOM      1  O   UNL A   1      31.433  32.075  27.236  1.00  0.00    -0.376 OA
ENDROOT
BRANCH   1   2
ATOM      2  C   UNL A   1      31.476  30.870  26.454  1.00  0.00     0.202 C 
BRANCH   2   3
ATOM      3  C   UNL A   1      32.690  29.810  25.773  1.00  0.00     0.261 C 
BRANCH   3   4
ATOM      4  O   UNL A   1      33.422  29.232  24.147  1.00  0.00    -0.462 OA
BRANCH   4   5
ATOM      5  C   UNL A   1      33.113  28.421  22.784  1.00  0.00     0.328 C 
ATOM      6  O   UNL A   1      33.959  27.931  21.997  1.00  0.00    -0.250 OA
BRANCH   5   7
ATOM      7  C   UNL A   1      31.753  27.950  22.339  1.00  0.00     0.189 C 
ATOM      8  C   UNL A   1      30.806  29.114  22.456  1.00  0.00     0.043 C 
BRANCH   7   9
ATOM      9  N   UNL A   1      31.130  26.654  22.369  1.00  0.00    -0.343 N 
ATOM     10  C   UNL A   1      30.911  25.815  23.428  1.00  0.00     0.222 C 
ATOM     11  O   UNL A   1      30.581  24.662  23.113  1.00  0.00    -0.275 OA
ATOM     12  H   UNL A   1      30.814  26.321  21.498  1.00  0.00     0.164 HD
BRANCH  10  13
ATOM     13  C   UNL A   1      30.910  26.200  24.938  1.00  0.00     0.122 C 
BRANCH  13  14
ATOM     14  C   UNL A   1      32.054  25.870  25.929  1.00  0.00     0.137 C 
BRANCH  14  15
ATOM     15  N   UNL A   1      32.699  24.529  25.773  1.00  0.00    -0.292 N 
ATOM     16  C   UNL A   1      35.881  22.961  25.226  1.00  0.00     0.029 C 
ATOM     17  C   UNL A   1      34.545  23.075  25.334  1.00  0.00     0.081 C 
ATOM     18  S   UNL A   1      33.331  21.991  25.825  1.00  0.00    -0.054 SA
ATOM     19  C   UNL A   1      33.878  24.406  25.066  1.00  0.00     0.266 C 
ATOM     20  C   UNL A   1      32.140  23.302  26.077  1.00  0.00     0.148 C 
ATOM     21  O   UNL A   1      34.298  25.243  24.275  1.00  0.00    -0.268 OA
ATOM     22  S   UNL A   1      30.557  23.009  26.534  1.00  0.00    -0.052 S 
BRANCH  16  23
ATOM     23  C   UNL A   1      37.054  22.023  25.361  1.00  0.00    -0.021 A 
ATOM     24  C   UNL A   1      38.262  24.301  26.293  1.00  0.00     0.045 C 
ATOM     25  C   UNL A   1      38.315  22.787  26.258  1.00  0.00    -0.044 A 
ATOM     26  C   UNL A   1      39.817  22.056  26.711  1.00  0.00     0.004 A 
ATOM     27  C   UNL A   1      40.309  20.477  26.345  1.00  0.00     0.000 A 
ATOM     28  C   UNL A   1      37.335  20.292  24.948  1.00  0.00     0.008 A 
ATOM     29  C   UNL A   1      39.198  19.468  25.431  1.00  0.00     0.001 A 
ENDBRANCH  16  23
ENDBRANCH  14  15
ENDBRANCH  13  14
ENDBRANCH  10  13
ENDBRANCH   7   9
ENDBRANCH   5   7
ENDBRANCH   4   5
ENDBRANCH   3   4
ENDBRANCH   2   3
ENDBRANCH   1   2
BRANCH   1  30
ATOM     30  C   UNL A   1      32.156  33.240  26.915  1.00  0.00     0.188 C 
BRANCH  30  31
ATOM     31  C   UNL A   1      32.947  33.829  27.992  1.00  0.00     0.188 C 
BRANCH  31  32
ATOM     32  O   UNL A   1      34.254  33.317  27.970  1.00  0.00    -0.376 OA
BRANCH  32  33
ATOM     33  C   UNL A   1      34.524  32.236  28.810  1.00  0.00     0.202 C 
BRANCH  33  34
ATOM     34  C   UNL A   1      35.275  32.724  30.046  1.00  0.00     0.261 C 
BRANCH  34  35
ATOM     35  O   UNL A   1      34.363  32.702  31.222  1.00  0.00    -0.460 OA
BRANCH  35  36
ATOM     36  C   UNL A   1      34.062  33.788  32.048  1.00  0.00     0.338 C 
ATOM     37  O   UNL A   1      33.092  34.513  31.913  1.00  0.00    -0.246 OA
BRANCH  36  38
ATOM     38  C   UNL A   1      35.206  34.101  33.052  1.00  0.00     0.060 A 
ATOM     39  C   UNL A   1      36.307  34.986  32.785  1.00  0.00     0.016 A 
ATOM     40  C   UNL A   1      35.572  32.993  33.704  1.00  0.00     0.016 A 
ATOM     41  C   UNL A   1      37.733  34.552  32.645  1.00  0.00     0.010 A 
ATOM     42  C   UNL A   1      36.836  32.552  33.314  1.00  0.00     0.010 A 
ATOM     43  C   UNL A   1      38.070  33.203  32.612  1.00  0.00    -0.014 A 
BRANCH  43  44
ATOM     44  C   UNL A   1      39.757  32.404  32.256  1.00  0.00     0.031 A 
ATOM     45  C   UNL A   1      39.979  31.018  30.921  1.00  0.00     0.074 A 
ATOM     46  C   UNL A   1      40.883  32.863  32.901  1.00  0.00     0.049 A 
ATOM     47  N   UNL A   1      40.018  29.729  31.162  1.00  0.00    -0.248 NA
ATOM     48  C   UNL A   1      39.377  30.907  29.317  1.00  0.00     0.031 C 
ATOM     49  C   UNL A   1      42.317  32.791  32.554  1.00  0.00     0.029 A 
ATOM     50  N   UNL A   1      40.974  33.758  33.969  1.00  0.00    -0.354 N 
ATOM     51  C   UNL A   1      40.002  28.928  30.010  1.00  0.00     0.074 A 
ATOM     52  C   UNL A   1      39.216  29.610  29.068  1.00  0.00     0.031 C 
ATOM     53  C   UNL A   1      43.079  33.232  33.587  1.00  0.00     0.029 A 
ATOM     54  C   UNL A   1      42.175  33.583  34.648  1.00  0.00     0.049 A 
ATOM     55  H   UNL A   1      40.286  34.420  34.207  1.00  0.00     0.167 HD
ATOM     56  C   UNL A   1      40.968  27.994  29.754  1.00  0.00     0.037 A 
ATOM     57  C   UNL A   1      42.142  33.253  35.954  1.00  0.00     0.037 A 
ATOM     58  C   UNL A   1      42.043  28.265  30.763  1.00  0.00     0.049 A 
ATOM     59  C   UNL A   1      42.716  31.846  36.058  1.00  0.00     0.074 A 
ATOM     60  C   UNL A   1      42.744  29.953  30.598  1.00  0.00     0.029 A 
ATOM     61  N   UNL A   1      42.827  27.596  32.501  1.00  0.00    -0.354 N 
ATOM     62  N   UNL A   1      42.965  31.035  35.051  1.00  0.00    -0.248 NA
ATOM     63  C   UNL A   1      43.086  31.263  37.333  1.00  0.00     0.031 C 
ATOM     64  C   UNL A   1      43.837  30.321  32.129  1.00  0.00     0.029 A 
ATOM     65  C   UNL A   1      43.827  28.994  33.267  1.00  0.00     0.049 A 
ATOM     66  H   UNL A   1      42.708  26.696  32.881  1.00  0.00     0.167 HD
ATOM     67  C   UNL A   1      43.572  29.879  35.504  1.00  0.00     0.074 A 
ATOM     68  C   UNL A   1      43.521  30.054  36.947  1.00  0.00     0.031 C 
ATOM     69  C   UNL A   1      44.073  28.876  34.695  1.00  0.00     0.037 A 
BRANCH  56  70
ATOM     70  C   UNL A   1      41.245  27.539  28.287  1.00  0.00     0.057 A 
ATOM     71  C   UNL A   1      41.061  26.197  27.886  1.00  0.00     0.134 A 
ATOM     72  C   UNL A   1      41.711  28.366  27.238  1.00  0.00     0.134 A 
ATOM     73  F   UNL A   1      40.831  25.224  28.776  1.00  0.00    -0.206 F 
ATOM     74  C   UNL A   1      41.174  25.747  26.556  1.00  0.00     0.040 A 
ATOM     75  C   UNL A   1      41.908  27.909  25.911  1.00  0.00     0.040 A 
ATOM     76  F   UNL A   1      42.020  29.655  27.451  1.00  0.00    -0.206 F 
ATOM     77  C   UNL A   1      41.591  26.605  25.555  1.00  0.00     0.006 A 
ENDBRANCH  56  70
BRANCH  57  78
ATOM     78  C   UNL A   1      40.918  33.889  36.596  1.00  0.00     0.057 A 
ATOM     79  C   UNL A   1      39.769  33.085  36.851  1.00  0.00     0.134 A 
ATOM     80  C   UNL A   1      41.038  35.012  37.406  1.00  0.00     0.134 A 
ATOM     81  F   UNL A   1      39.571  31.953  36.156  1.00  0.00    -0.206 F 
ATOM     82  C   UNL A   1      38.920  33.295  37.954  1.00  0.00     0.040 A 
ATOM     83  C   UNL A   1      40.140  35.282  38.457  1.00  0.00     0.040 A 
ATOM     84  F   UNL A   1      42.134  35.764  37.312  1.00  0.00    -0.206 F 
ATOM     85  C   UNL A   1      39.130  34.381  38.786  1.00  0.00     0.006 A 
ENDBRANCH  57  78
BRANCH  69  86
ATOM     86  C   UNL A   1      44.621  27.534  35.113  1.00  0.00     0.057 A 
ATOM     87  C   UNL A   1      45.899  27.076  34.892  1.00  0.00     0.134 A 
ATOM     88  C   UNL A   1      43.855  26.663  35.916  1.00  0.00     0.134 A 
ATOM     89  F   UNL A   1      46.586  27.448  33.810  1.00  0.00    -0.206 F 
ATOM     90  C   UNL A   1      46.472  26.090  35.699  1.00  0.00     0.040 A 
ATOM     91  C   UNL A   1      44.404  25.764  36.818  1.00  0.00     0.040 A 
ATOM     92  F   UNL A   1      42.525  26.599  35.798  1.00  0.00    -0.206 F 
ATOM     93  C   UNL A   1      45.752  25.501  36.732  1.00  0.00     0.006 A 
ENDBRANCH  69  86
ENDBRANCH  43  44
ENDBRANCH  36  38
ENDBRANCH  35  36
ENDBRANCH  34  35
ENDBRANCH  33  34
ENDBRANCH  32  33
ENDBRANCH  31  32
ENDBRANCH  30  31
ENDBRANCH   1  30
TORSDOF 22
ENDMDL
