MODEL 1
REMARK VINA RESULT:     -11.6      0.000      0.000
REMARK SMILES Cc1noc(C)c1CCC(=O)N1CCC2(CC1)NC(=O)C[C@@H]2C(=O)OCCOCCOCCOC(=O)c1ccc(-c2c3nc(c(-c4c(F)cccc4F)c4ccc([nH]4)c(-c4c(F)cccc4F)c4nc(c(-c5c(F)cccc5F)c5ccc2[nH]5)C=C4)C=C3)cc1
REMARK SMILES IDX 29 1 28 2 27 3 26 4 25 5 23 6 24 7 22 8 10 9 11 10 12 11
REMARK SMILES IDX 13 12 17 13 14 14 16 15 15 16 18 17 19 18 21 20 20 21 9 22
REMARK SMILES IDX 8 23 7 24 1 25 2 26 3 27 4 28 5 29 6 30 30 31 31 32 32 33
REMARK SMILES IDX 33 34 34 35 35 36 36 37 37 38 38 39 90 40 39 41 89 42 40 43
REMARK SMILES IDX 41 44 42 45 83 46 43 47 88 48 82 49 84 50 44 51 87 52 81 53
REMARK SMILES IDX 80 54 45 56 71 57 54 58 70 59 55 60 58 61 69 62 85 63 56 64
REMARK SMILES IDX 57 65 68 67 86 68 59 69 46 70 47 71 52 72 48 73 49 74 51 75
REMARK SMILES IDX 53 76 50 77 72 78 73 79 78 80 74 81 75 82 77 83 79 84 76 85
REMARK SMILES IDX 60 86 61 87 66 88 62 89 63 90 65 91 67 92 64 93
REMARK H PARENT 18 19 84 55 58 66
REMARK Flexibility Score: inf
ROOT
ATOM      1  C   UNL A   1      37.762  20.509  25.407  1.00  0.00     0.188 C 
ENDROOT
BRANCH   1   2
ATOM      2  O   UNL A   1      37.229  21.105  24.239  1.00  0.00    -0.376 OA
BRANCH   2   3
ATOM      3  C   UNL A   1      36.520  22.330  24.346  1.00  0.00     0.202 C 
BRANCH   3   4
ATOM      4  C   UNL A   1      35.923  22.950  23.081  1.00  0.00     0.261 C 
BRANCH   4   5
ATOM      5  O   UNL A   1      35.082  24.095  23.346  1.00  0.00    -0.463 OA
BRANCH   5   6
ATOM      6  C   UNL A   1      33.809  24.036  22.900  1.00  0.00     0.311 C 
ATOM      7  O   UNL A   1      33.477  24.373  21.768  1.00  0.00    -0.252 OA
BRANCH   6   8
ATOM      8  C   UNL A   1      32.791  23.434  23.861  1.00  0.00     0.134 C 
ATOM      9  C   UNL A   1      32.936  27.652  25.851  1.00  0.00     0.222 C 
ATOM     10  O   UNL A   1      33.987  28.247  25.610  1.00  0.00    -0.275 OA
ATOM     11  N   UNL A   1      32.898  26.268  26.073  1.00  0.00    -0.343 N 
ATOM     12  C   UNL A   1      34.171  25.553  26.060  1.00  0.00     0.122 C 
ATOM     13  C   UNL A   1      31.682  25.543  25.790  1.00  0.00     0.122 C 
ATOM     14  C   UNL A   1      34.067  24.036  26.188  1.00  0.00     0.051 C 
ATOM     15  C   UNL A   1      31.653  24.064  26.049  1.00  0.00     0.051 C 
ATOM     16  C   UNL A   1      32.891  23.400  25.424  1.00  0.00     0.057 C 
ATOM     17  N   UNL A   1      32.777  21.986  25.740  1.00  0.00    -0.350 N 
ATOM     18  C   UNL A   1      32.402  21.201  24.689  1.00  0.00     0.221 C 
ATOM     19  H   UNL A   1      32.955  21.625  26.638  1.00  0.00     0.164 HD
ATOM     20  C   UNL A   1      32.525  21.979  23.423  1.00  0.00     0.117 C 
ATOM     21  O   UNL A   1      32.062  20.029  24.778  1.00  0.00    -0.275 OA
BRANCH   9  22
ATOM     22  C   UNL A   1      31.625  28.429  25.966  1.00  0.00     0.105 C 
BRANCH  22  23
ATOM     23  C   UNL A   1      31.394  29.595  24.999  1.00  0.00     0.051 C 
BRANCH  23  24
ATOM     24  C   UNL A   1      30.634  29.340  23.734  1.00  0.00     0.018 A 
ATOM     25  C   UNL A   1      28.877  31.290  23.812  1.00  0.00     0.071 C 
ATOM     26  C   UNL A   1      29.510  30.076  23.242  1.00  0.00     0.084 A 
ATOM     27  N   UNL A   1      29.092  29.606  22.062  1.00  0.00    -0.085 NA
ATOM     28  O   UNL A   1      29.927  28.558  21.755  1.00  0.00    -0.361 OA
ATOM     29  C   UNL A   1      30.853  28.400  22.738  1.00  0.00     0.137 A 
ATOM     30  C   UNL A   1      31.873  27.366  22.465  1.00  0.00     0.091 C 
ENDBRANCH  23  24
ENDBRANCH  22  23
ENDBRANCH   9  22
ENDBRANCH   6   8
ENDBRANCH   5   6
ENDBRANCH   4   5
ENDBRANCH   3   4
ENDBRANCH   2   3
ENDBRANCH   1   2
BRANCH   1  31
ATOM     31  C   UNL A   1      39.252  20.124  25.459  1.00  0.00     0.188 C 
BRANCH  31  32
ATOM     32  O   UNL A   1      40.192  20.915  26.152  1.00  0.00    -0.376 OA
BRANCH  32  33
ATOM     33  C   UNL A   1      41.420  20.325  26.542  1.00  0.00     0.202 C 
BRANCH  33  34
ATOM     34  C   UNL A   1      42.733  20.781  25.885  1.00  0.00     0.261 C 
BRANCH  34  35
ATOM     35  O   UNL A   1      43.319  21.971  26.444  1.00  0.00    -0.460 OA
BRANCH  35  36
ATOM     36  C   UNL A   1      43.261  23.078  25.654  1.00  0.00     0.338 C 
ATOM     37  O   UNL A   1      43.470  23.135  24.454  1.00  0.00    -0.246 OA
BRANCH  36  38
ATOM     38  C   UNL A   1      42.693  24.211  26.419  1.00  0.00     0.060 A 
ATOM     39  C   UNL A   1      43.367  25.443  26.409  1.00  0.00     0.016 A 
ATOM     40  C   UNL A   1      41.544  24.049  27.189  1.00  0.00     0.016 A 
ATOM     41  C   UNL A   1      42.905  26.512  27.180  1.00  0.00     0.010 A 
ATOM     42  C   UNL A   1      41.102  25.110  27.989  1.00  0.00     0.010 A 
ATOM     43  C   UNL A   1      41.793  26.338  28.010  1.00  0.00    -0.014 A 
BRANCH  43  44
ATOM     44  C   UNL A   1      41.463  27.352  29.046  1.00  0.00     0.031 A 
ATOM     45  C   UNL A   1      42.228  27.324  30.342  1.00  0.00     0.074 A 
ATOM     46  C   UNL A   1      40.501  28.274  28.856  1.00  0.00     0.049 A 
ATOM     47  N   UNL A   1      42.023  27.993  31.447  1.00  0.00    -0.248 NA
ATOM     48  C   UNL A   1      43.379  26.406  30.400  1.00  0.00     0.031 C 
ATOM     49  C   UNL A   1      39.730  28.458  27.629  1.00  0.00     0.029 A 
ATOM     50  N   UNL A   1      39.996  29.221  29.717  1.00  0.00    -0.354 N 
ATOM     51  C   UNL A   1      42.996  27.556  32.339  1.00  0.00     0.074 A 
ATOM     52  C   UNL A   1      43.787  26.561  31.650  1.00  0.00     0.031 C 
ATOM     53  C   UNL A   1      38.829  29.437  27.823  1.00  0.00     0.029 A 
ATOM     54  C   UNL A   1      38.927  29.916  29.201  1.00  0.00     0.049 A 
ATOM     55  H   UNL A   1      40.364  29.386  30.614  1.00  0.00     0.167 HD
ATOM     56  C   UNL A   1      43.205  27.948  33.617  1.00  0.00     0.037 A 
ATOM     57  C   UNL A   1      38.098  30.803  29.790  1.00  0.00     0.037 A 
ATOM     58  C   UNL A   1      42.431  28.955  34.293  1.00  0.00     0.049 A 
ATOM     59  C   UNL A   1      38.313  31.173  31.238  1.00  0.00     0.074 A 
ATOM     60  C   UNL A   1      42.590  29.441  35.579  1.00  0.00     0.029 A 
ATOM     61  N   UNL A   1      41.352  29.626  33.741  1.00  0.00    -0.354 N 
ATOM     62  N   UNL A   1      39.240  30.765  32.071  1.00  0.00    -0.248 NA
ATOM     63  C   UNL A   1      37.362  32.126  31.831  1.00  0.00     0.031 C 
ATOM     64  C   UNL A   1      41.565  30.357  35.830  1.00  0.00     0.029 A 
ATOM     65  C   UNL A   1      40.812  30.495  34.674  1.00  0.00     0.049 A 
ATOM     66  H   UNL A   1      41.019  29.503  32.824  1.00  0.00     0.167 HD
ATOM     67  C   UNL A   1      39.005  31.436  33.267  1.00  0.00     0.074 A 
ATOM     68  C   UNL A   1      37.857  32.288  33.050  1.00  0.00     0.031 C 
ATOM     69  C   UNL A   1      39.679  31.354  34.441  1.00  0.00     0.037 A 
BRANCH  56  70
ATOM     70  C   UNL A   1      44.285  27.253  34.395  1.00  0.00     0.057 A 
ATOM     71  C   UNL A   1      44.065  26.044  35.067  1.00  0.00     0.134 A 
ATOM     72  C   UNL A   1      45.583  27.780  34.419  1.00  0.00     0.134 A 
ATOM     73  F   UNL A   1      42.843  25.492  35.093  1.00  0.00    -0.206 F 
ATOM     74  C   UNL A   1      45.096  25.392  35.747  1.00  0.00     0.040 A 
ATOM     75  C   UNL A   1      46.626  27.123  35.073  1.00  0.00     0.040 A 
ATOM     76  F   UNL A   1      45.862  28.933  33.792  1.00  0.00    -0.206 F 
ATOM     77  C   UNL A   1      46.383  25.928  35.743  1.00  0.00     0.006 A 
ENDBRANCH  56  70
BRANCH  57  78
ATOM     78  C   UNL A   1      36.944  31.372  29.040  1.00  0.00     0.057 A 
ATOM     79  C   UNL A   1      36.931  32.706  28.613  1.00  0.00     0.134 A 
ATOM     80  C   UNL A   1      35.793  30.611  28.795  1.00  0.00     0.134 A 
ATOM     81  F   UNL A   1      37.989  33.498  28.846  1.00  0.00    -0.206 F 
ATOM     82  C   UNL A   1      35.810  33.270  28.002  1.00  0.00     0.040 A 
ATOM     83  C   UNL A   1      34.678  31.153  28.154  1.00  0.00     0.040 A 
ATOM     84  F   UNL A   1      35.732  29.329  29.182  1.00  0.00    -0.206 F 
ATOM     85  C   UNL A   1      34.679  32.491  27.768  1.00  0.00     0.006 A 
ENDBRANCH  57  78
BRANCH  69  86
ATOM     86  C   UNL A   1      39.233  32.245  35.566  1.00  0.00     0.057 A 
ATOM     87  C   UNL A   1      38.331  31.815  36.546  1.00  0.00     0.134 A 
ATOM     88  C   UNL A   1      39.760  33.538  35.696  1.00  0.00     0.134 A 
ATOM     89  F   UNL A   1      37.782  30.593  36.477  1.00  0.00    -0.206 F 
ATOM     90  C   UNL A   1      37.947  32.647  37.600  1.00  0.00     0.040 A 
ATOM     91  C   UNL A   1      39.409  34.367  36.763  1.00  0.00     0.040 A 
ATOM     92  F   UNL A   1      40.640  34.010  34.801  1.00  0.00    -0.206 F 
ATOM     93  C   UNL A   1      38.493  33.924  37.715  1.00  0.00     0.006 A 
ENDBRANCH  69  86
ENDBRANCH  43  44
ENDBRANCH  36  38
ENDBRANCH  35  36
ENDBRANCH  34  35
ENDBRANCH  33  34
ENDBRANCH  32  33
ENDBRANCH  31  32
ENDBRANCH   1  31
TORSDOF 20
ENDMDL
MODEL 2
REMARK VINA RESULT:     -11.5      1.511      6.138
REMARK SMILES Cc1noc(C)c1CCC(=O)N1CCC2(CC1)NC(=O)C[C@@H]2C(=O)OCCOCCOCCOC(=O)c1ccc(-c2c3nc(c(-c4c(F)cccc4F)c4ccc([nH]4)c(-c4c(F)cccc4F)c4nc(c(-c5c(F)cccc5F)c5ccc2[nH]5)C=C4)C=C3)cc1
REMARK SMILES IDX 29 1 28 2 27 3 26 4 25 5 23 6 24 7 22 8 10 9 11 10 12 11
REMARK SMILES IDX 13 12 17 13 14 14 16 15 15 16 18 17 19 18 21 20 20 21 9 22
REMARK SMILES IDX 8 23 7 24 1 25 2 26 3 27 4 28 5 29 6 30 30 31 31 32 32 33
REMARK SMILES IDX 33 34 34 35 35 36 36 37 37 38 38 39 90 40 39 41 89 42 40 43
REMARK SMILES IDX 41 44 42 45 83 46 43 47 88 48 82 49 84 50 44 51 87 52 81 53
REMARK SMILES IDX 80 54 45 56 71 57 54 58 70 59 55 60 58 61 69 62 85 63 56 64
REMARK SMILES IDX 57 65 68 67 86 68 59 69 46 70 47 71 52 72 48 73 49 74 51 75
REMARK SMILES IDX 53 76 50 77 72 78 73 79 78 80 74 81 75 82 77 83 79 84 76 85
REMARK SMILES IDX 60 86 61 87 66 88 62 89 63 90 65 91 67 92 64 93
REMARK H PARENT 18 19 84 55 58 66
REMARK Flexibility Score: inf
ROOT
ATOM      1  C   UNL A   1      40.219  22.258  26.744  1.00  0.00     0.188 C 
ENDROOT
BRANCH   1   2
ATOM      2  O   UNL A   1      38.890  21.844  26.486  1.00  0.00    -0.376 OA
BRANCH   2   3
ATOM      3  C   UNL A   1      38.152  22.484  25.457  1.00  0.00     0.202 C 
BRANCH   3   4
ATOM      4  C   UNL A   1      37.248  23.665  25.821  1.00  0.00     0.261 C 
BRANCH   4   5
ATOM      5  O   UNL A   1      35.921  23.266  26.232  1.00  0.00    -0.463 OA
BRANCH   5   6
ATOM      6  C   UNL A   1      34.888  23.727  25.495  1.00  0.00     0.311 C 
ATOM      7  O   UNL A   1      34.750  24.909  25.197  1.00  0.00    -0.252 OA
BRANCH   6   8
ATOM      8  C   UNL A   1      33.924  22.674  24.963  1.00  0.00     0.134 C 
ATOM      9  C   UNL A   1      30.693  25.923  25.844  1.00  0.00     0.222 C 
ATOM     10  O   UNL A   1      31.063  26.730  26.698  1.00  0.00    -0.275 OA
ATOM     11  N   UNL A   1      31.015  24.561  25.919  1.00  0.00    -0.343 N 
ATOM     12  C   UNL A   1      31.768  24.115  27.086  1.00  0.00     0.122 C 
ATOM     13  C   UNL A   1      31.078  23.786  24.703  1.00  0.00     0.122 C 
ATOM     14  C   UNL A   1      32.195  22.649  27.065  1.00  0.00     0.051 C 
ATOM     15  C   UNL A   1      31.408  22.323  24.802  1.00  0.00     0.051 C 
ATOM     16  C   UNL A   1      32.648  22.127  25.690  1.00  0.00     0.057 C 
ATOM     17  N   UNL A   1      32.872  20.691  25.733  1.00  0.00    -0.350 N 
ATOM     18  C   UNL A   1      33.923  20.261  24.975  1.00  0.00     0.221 C 
ATOM     19  H   UNL A   1      32.314  20.080  26.266  1.00  0.00     0.164 HD
ATOM     20  C   UNL A   1      34.747  21.432  24.563  1.00  0.00     0.117 C 
ATOM     21  O   UNL A   1      34.164  19.089  24.717  1.00  0.00    -0.275 OA
BRANCH   9  22
ATOM     22  C   UNL A   1      29.816  26.387  24.681  1.00  0.00     0.105 C 
BRANCH  22  23
ATOM     23  C   UNL A   1      30.281  27.600  23.869  1.00  0.00     0.051 C 
BRANCH  23  24
ATOM     24  C   UNL A   1      31.731  27.711  23.511  1.00  0.00     0.018 A 
ATOM     25  C   UNL A   1      32.508  29.585  25.179  1.00  0.00     0.071 C 
ATOM     26  C   UNL A   1      32.690  28.612  24.076  1.00  0.00     0.084 A 
ATOM     27  N   UNL A   1      33.907  28.423  23.556  1.00  0.00    -0.085 NA
ATOM     28  O   UNL A   1      33.777  27.402  22.645  1.00  0.00    -0.361 OA
ATOM     29  C   UNL A   1      32.489  26.966  22.620  1.00  0.00     0.137 A 
ATOM     30  C   UNL A   1      32.251  25.795  21.751  1.00  0.00     0.091 C 
ENDBRANCH  23  24
ENDBRANCH  22  23
ENDBRANCH   9  22
ENDBRANCH   6   8
ENDBRANCH   5   6
ENDBRANCH   4   5
ENDBRANCH   3   4
ENDBRANCH   2   3
ENDBRANCH   1   2
BRANCH   1  31
ATOM     31  C   UNL A   1      41.398  21.383  26.282  1.00  0.00     0.188 C 
BRANCH  31  32
ATOM     32  O   UNL A   1      42.734  21.803  26.445  1.00  0.00    -0.376 OA
BRANCH  32  33
ATOM     33  C   UNL A   1      43.664  21.528  25.412  1.00  0.00     0.202 C 
BRANCH  33  34
ATOM     34  C   UNL A   1      44.360  22.685  24.677  1.00  0.00     0.261 C 
BRANCH  34  35
ATOM     35  O   UNL A   1      43.669  23.947  24.722  1.00  0.00    -0.460 OA
BRANCH  35  36
ATOM     36  C   UNL A   1      44.400  24.998  25.183  1.00  0.00     0.338 C 
ATOM     37  O   UNL A   1      45.465  25.399  24.745  1.00  0.00    -0.246 OA
BRANCH  36  38
ATOM     38  C   UNL A   1      43.618  25.752  26.188  1.00  0.00     0.060 A 
ATOM     39  C   UNL A   1      43.997  27.068  26.497  1.00  0.00     0.016 A 
ATOM     40  C   UNL A   1      42.561  25.152  26.869  1.00  0.00     0.016 A 
ATOM     41  C   UNL A   1      43.334  27.784  27.496  1.00  0.00     0.010 A 
ATOM     42  C   UNL A   1      41.919  25.858  27.893  1.00  0.00     0.010 A 
ATOM     43  C   UNL A   1      42.317  27.167  28.232  1.00  0.00    -0.014 A 
BRANCH  43  44
ATOM     44  C   UNL A   1      41.802  27.795  29.476  1.00  0.00     0.031 A 
ATOM     45  C   UNL A   1      40.557  28.637  29.389  1.00  0.00     0.074 A 
ATOM     46  C   UNL A   1      42.422  27.638  30.661  1.00  0.00     0.049 A 
ATOM     47  N   UNL A   1      40.005  29.407  30.291  1.00  0.00    -0.248 NA
ATOM     48  C   UNL A   1      39.842  28.611  28.102  1.00  0.00     0.031 C 
ATOM     49  C   UNL A   1      43.593  26.799  30.902  1.00  0.00     0.029 A 
ATOM     50  N   UNL A   1      42.156  28.204  31.886  1.00  0.00    -0.354 N 
ATOM     51  C   UNL A   1      38.900  29.980  29.672  1.00  0.00     0.074 A 
ATOM     52  C   UNL A   1      38.862  29.475  28.318  1.00  0.00     0.031 C 
ATOM     53  C   UNL A   1      43.963  26.927  32.188  1.00  0.00     0.029 A 
ATOM     54  C   UNL A   1      43.085  27.892  32.849  1.00  0.00     0.049 A 
ATOM     55  H   UNL A   1      41.374  28.777  32.057  1.00  0.00     0.167 HD
ATOM     56  C   UNL A   1      38.003  30.852  30.188  1.00  0.00     0.037 A 
ATOM     57  C   UNL A   1      43.235  28.365  34.103  1.00  0.00     0.037 A 
ATOM     58  C   UNL A   1      38.029  31.335  31.543  1.00  0.00     0.049 A 
ATOM     59  C   UNL A   1      42.258  29.389  34.632  1.00  0.00     0.074 A 
ATOM     60  C   UNL A   1      37.142  32.197  32.165  1.00  0.00     0.029 A 
ATOM     61  N   UNL A   1      38.993  31.005  32.482  1.00  0.00    -0.354 N 
ATOM     62  N   UNL A   1      41.210  29.917  34.046  1.00  0.00    -0.248 NA
ATOM     63  C   UNL A   1      42.486  29.885  35.998  1.00  0.00     0.031 C 
ATOM     64  C   UNL A   1      37.607  32.441  33.460  1.00  0.00     0.029 A 
ATOM     65  C   UNL A   1      38.743  31.675  33.668  1.00  0.00     0.049 A 
ATOM     66  H   UNL A   1      39.743  30.386  32.329  1.00  0.00     0.167 HD
ATOM     67  C   UNL A   1      40.639  30.775  34.981  1.00  0.00     0.074 A 
ATOM     68  C   UNL A   1      41.447  30.688  36.177  1.00  0.00     0.031 C 
ATOM     69  C   UNL A   1      39.544  31.566  34.860  1.00  0.00     0.037 A 
BRANCH  56  70
ATOM     70  C   UNL A   1      36.938  31.384  29.273  1.00  0.00     0.057 A 
ATOM     71  C   UNL A   1      35.815  30.632  28.911  1.00  0.00     0.134 A 
ATOM     72  C   UNL A   1      37.017  32.698  28.794  1.00  0.00     0.134 A 
ATOM     73  F   UNL A   1      35.684  29.362  29.326  1.00  0.00    -0.206 F 
ATOM     74  C   UNL A   1      34.814  31.163  28.095  1.00  0.00     0.040 A 
ATOM     75  C   UNL A   1      36.011  33.249  28.000  1.00  0.00     0.040 A 
ATOM     76  F   UNL A   1      38.066  33.476  29.106  1.00  0.00    -0.206 F 
ATOM     77  C   UNL A   1      34.907  32.479  27.645  1.00  0.00     0.006 A 
ENDBRANCH  56  70
BRANCH  57  78
ATOM     78  C   UNL A   1      44.384  27.930  34.944  1.00  0.00     0.057 A 
ATOM     79  C   UNL A   1      45.620  28.587  34.894  1.00  0.00     0.134 A 
ATOM     80  C   UNL A   1      44.293  26.800  35.767  1.00  0.00     0.134 A 
ATOM     81  F   UNL A   1      45.784  29.656  34.101  1.00  0.00    -0.206 F 
ATOM     82  C   UNL A   1      46.729  28.119  35.602  1.00  0.00     0.040 A 
ATOM     83  C   UNL A   1      45.385  26.342  36.508  1.00  0.00     0.040 A 
ATOM     84  F   UNL A   1      43.142  26.118  35.859  1.00  0.00    -0.206 F 
ATOM     85  C   UNL A   1      46.611  26.994  36.415  1.00  0.00     0.006 A 
ENDBRANCH  57  78
BRANCH  69  86
ATOM     86  C   UNL A   1      39.118  32.358  36.064  1.00  0.00     0.057 A 
ATOM     87  C   UNL A   1      39.522  33.683  36.268  1.00  0.00     0.134 A 
ATOM     88  C   UNL A   1      38.245  31.798  37.007  1.00  0.00     0.134 A 
ATOM     89  F   UNL A   1      40.364  34.277  35.409  1.00  0.00    -0.206 F 
ATOM     90  C   UNL A   1      39.095  34.413  37.378  1.00  0.00     0.040 A 
ATOM     91  C   UNL A   1      37.786  32.528  38.104  1.00  0.00     0.040 A 
ATOM     92  F   UNL A   1      37.806  30.538  36.868  1.00  0.00    -0.206 F 
ATOM     93  C   UNL A   1      38.218  33.839  38.296  1.00  0.00     0.006 A 
ENDBRANCH  69  86
ENDBRANCH  43  44
ENDBRANCH  36  38
ENDBRANCH  35  36
ENDBRANCH  34  35
ENDBRANCH  33  34
ENDBRANCH  32  33
ENDBRANCH  31  32
ENDBRANCH   1  31
TORSDOF 20
ENDMDL
MODEL 3
REMARK VINA RESULT:     -11.5      4.163      9.953
REMARK SMILES Cc1noc(C)c1CCC(=O)N1CCC2(CC1)NC(=O)C[C@@H]2C(=O)OCCOCCOCCOC(=O)c1ccc(-c2c3nc(c(-c4c(F)cccc4F)c4ccc([nH]4)c(-c4c(F)cccc4F)c4nc(c(-c5c(F)cccc5F)c5ccc2[nH]5)C=C4)C=C3)cc1
REMARK SMILES IDX 29 1 28 2 27 3 26 4 25 5 23 6 24 7 22 8 10 9 11 10 12 11
REMARK SMILES IDX 13 12 17 13 14 14 16 15 15 16 18 17 19 18 21 20 20 21 9 22
REMARK SMILES IDX 8 23 7 24 1 25 2 26 3 27 4 28 5 29 6 30 30 31 31 32 32 33
REMARK SMILES IDX 33 34 34 35 35 36 36 37 37 38 38 39 90 40 39 41 89 42 40 43
REMARK SMILES IDX 41 44 42 45 83 46 43 47 88 48 82 49 84 50 44 51 87 52 81 53
REMARK SMILES IDX 80 54 45 56 71 57 54 58 70 59 55 60 58 61 69 62 85 63 56 64
REMARK SMILES IDX 57 65 68 67 86 68 59 69 46 70 47 71 52 72 48 73 49 74 51 75
REMARK SMILES IDX 53 76 50 77 72 78 73 79 78 80 74 81 75 82 77 83 79 84 76 85
REMARK SMILES IDX 60 86 61 87 66 88 62 89 63 90 65 91 67 92 64 93
REMARK H PARENT 18 19 84 55 58 66
REMARK Flexibility Score: inf
ROOT
ATOM      1  C   UNL A   1      34.982  32.201  27.641  1.00  0.00     0.188 C 
ENDROOT
BRANCH   1   2
ATOM      2  O   UNL A   1      33.728  31.547  27.681  1.00  0.00    -0.376 OA
BRANCH   2   3
ATOM      3  C   UNL A   1      33.636  30.195  27.260  1.00  0.00     0.202 C 
BRANCH   3   4
ATOM      4  C   UNL A   1      32.271  29.503  27.289  1.00  0.00     0.261 C 
BRANCH   4   5
ATOM      5  O   UNL A   1      31.837  29.036  25.992  1.00  0.00    -0.463 OA
BRANCH   5   6
ATOM      6  C   UNL A   1      31.147  29.908  25.227  1.00  0.00     0.311 C 
ATOM      7  O   UNL A   1      31.056  31.104  25.486  1.00  0.00    -0.252 OA
BRANCH   6   8
ATOM      8  C   UNL A   1      30.544  29.343  23.947  1.00  0.00     0.134 C 
ATOM      9  C   UNL A   1      33.469  25.795  24.738  1.00  0.00     0.222 C 
ATOM     10  O   UNL A   1      34.427  26.126  25.437  1.00  0.00    -0.275 OA
ATOM     11  N   UNL A   1      32.922  26.650  23.772  1.00  0.00    -0.343 N 
ATOM     12  C   UNL A   1      33.568  27.945  23.582  1.00  0.00     0.122 C 
ATOM     13  C   UNL A   1      31.537  26.494  23.398  1.00  0.00     0.122 C 
ATOM     14  C   UNL A   1      32.867  28.886  22.605  1.00  0.00     0.051 C 
ATOM     15  C   UNL A   1      30.970  27.408  22.348  1.00  0.00     0.051 C 
ATOM     16  C   UNL A   1      31.330  28.866  22.677  1.00  0.00     0.057 C 
ATOM     17  N   UNL A   1      30.754  29.661  21.605  1.00  0.00    -0.350 N 
ATOM     18  C   UNL A   1      29.628  30.349  21.954  1.00  0.00     0.221 C 
ATOM     19  H   UNL A   1      31.144  29.700  20.702  1.00  0.00     0.164 HD
ATOM     20  C   UNL A   1      29.485  30.343  23.438  1.00  0.00     0.117 C 
ATOM     21  O   UNL A   1      28.884  30.917  21.165  1.00  0.00    -0.275 OA
BRANCH   9  22
ATOM     22  C   UNL A   1      32.868  24.396  24.875  1.00  0.00     0.105 C 
BRANCH  22  23
ATOM     23  C   UNL A   1      33.425  23.479  25.969  1.00  0.00     0.051 C 
BRANCH  23  24
ATOM     24  C   UNL A   1      34.376  22.390  25.577  1.00  0.00     0.018 A 
ATOM     25  C   UNL A   1      36.652  23.700  25.583  1.00  0.00     0.071 C 
ATOM     26  C   UNL A   1      35.789  22.512  25.381  1.00  0.00     0.084 A 
ATOM     27  N   UNL A   1      36.346  21.337  25.072  1.00  0.00    -0.085 NA
ATOM     28  O   UNL A   1      35.319  20.422  25.058  1.00  0.00    -0.361 OA
ATOM     29  C   UNL A   1      34.147  21.039  25.367  1.00  0.00     0.137 A 
ATOM     30  C   UNL A   1      32.986  20.133  25.486  1.00  0.00     0.091 C 
ENDBRANCH  23  24
ENDBRANCH  22  23
ENDBRANCH   9  22
ENDBRANCH   6   8
ENDBRANCH   5   6
ENDBRANCH   4   5
ENDBRANCH   3   4
ENDBRANCH   2   3
ENDBRANCH   1   2
BRANCH   1  31
ATOM     31  C   UNL A   1      35.081  33.692  28.011  1.00  0.00     0.188 C 
BRANCH  31  32
ATOM     32  O   UNL A   1      33.972  34.398  28.523  1.00  0.00    -0.376 OA
BRANCH  32  33
ATOM     33  C   UNL A   1      33.951  34.722  29.902  1.00  0.00     0.202 C 
BRANCH  33  34
ATOM     34  C   UNL A   1      34.369  33.673  30.944  1.00  0.00     0.261 C 
BRANCH  34  35
ATOM     35  O   UNL A   1      35.720  33.789  31.427  1.00  0.00    -0.460 OA
BRANCH  35  36
ATOM     36  C   UNL A   1      36.113  32.827  32.304  1.00  0.00     0.338 C 
ATOM     37  O   UNL A   1      35.614  32.573  33.387  1.00  0.00    -0.246 OA
BRANCH  36  38
ATOM     38  C   UNL A   1      37.130  31.957  31.672  1.00  0.00     0.060 A 
ATOM     39  C   UNL A   1      38.020  31.245  32.492  1.00  0.00     0.016 A 
ATOM     40  C   UNL A   1      37.252  31.889  30.287  1.00  0.00     0.016 A 
ATOM     41  C   UNL A   1      39.043  30.476  31.934  1.00  0.00     0.010 A 
ATOM     42  C   UNL A   1      38.299  31.145  29.727  1.00  0.00     0.010 A 
ATOM     43  C   UNL A   1      39.216  30.457  30.546  1.00  0.00    -0.014 A 
BRANCH  43  44
ATOM     44  C   UNL A   1      40.456  29.893  29.950  1.00  0.00     0.031 A 
ATOM     45  C   UNL A   1      41.618  30.819  29.710  1.00  0.00     0.074 A 
ATOM     46  C   UNL A   1      40.557  28.592  29.618  1.00  0.00     0.049 A 
ATOM     47  N   UNL A   1      42.737  30.605  29.068  1.00  0.00    -0.248 NA
ATOM     48  C   UNL A   1      41.493  32.178  30.264  1.00  0.00     0.031 C 
ATOM     49  C   UNL A   1      39.538  27.573  29.856  1.00  0.00     0.029 A 
ATOM     50  N   UNL A   1      41.570  27.913  28.983  1.00  0.00    -0.354 N 
ATOM     51  C   UNL A   1      43.434  31.806  29.113  1.00  0.00     0.074 A 
ATOM     52  C   UNL A   1      42.611  32.748  29.839  1.00  0.00     0.031 C 
ATOM     53  C   UNL A   1      39.965  26.403  29.349  1.00  0.00     0.029 A 
ATOM     54  C   UNL A   1      41.264  26.601  28.708  1.00  0.00     0.049 A 
ATOM     55  H   UNL A   1      42.433  28.326  28.749  1.00  0.00     0.167 HD
ATOM     56  C   UNL A   1      44.648  32.097  28.592  1.00  0.00     0.037 A 
ATOM     57  C   UNL A   1      41.936  25.682  27.985  1.00  0.00     0.037 A 
ATOM     58  C   UNL A   1      45.477  31.153  27.889  1.00  0.00     0.049 A 
ATOM     59  C   UNL A   1      43.259  26.053  27.357  1.00  0.00     0.074 A 
ATOM     60  C   UNL A   1      46.737  31.348  27.352  1.00  0.00     0.029 A 
ATOM     61  N   UNL A   1      45.125  29.840  27.621  1.00  0.00    -0.354 N 
ATOM     62  N   UNL A   1      43.916  27.186  27.413  1.00  0.00    -0.248 NA
ATOM     63  C   UNL A   1      43.932  25.016  26.560  1.00  0.00     0.031 C 
ATOM     64  C   UNL A   1      47.121  30.173  26.701  1.00  0.00     0.029 A 
ATOM     65  C   UNL A   1      46.130  29.223  26.895  1.00  0.00     0.049 A 
ATOM     66  H   UNL A   1      44.287  29.409  27.906  1.00  0.00     0.167 HD
ATOM     67  C   UNL A   1      45.090  26.985  26.694  1.00  0.00     0.074 A 
ATOM     68  C   UNL A   1      45.063  25.619  26.221  1.00  0.00     0.031 C 
ATOM     69  C   UNL A   1      46.101  27.855  26.445  1.00  0.00     0.037 A 
BRANCH  56  70
ATOM     70  C   UNL A   1      45.143  33.509  28.714  1.00  0.00     0.057 A 
ATOM     71  C   UNL A   1      45.982  33.923  29.755  1.00  0.00     0.134 A 
ATOM     72  C   UNL A   1      44.816  34.455  27.733  1.00  0.00     0.134 A 
ATOM     73  F   UNL A   1      46.324  33.070  30.733  1.00  0.00    -0.206 F 
ATOM     74  C   UNL A   1      46.467  35.231  29.825  1.00  0.00     0.040 A 
ATOM     75  C   UNL A   1      45.316  35.757  27.777  1.00  0.00     0.040 A 
ATOM     76  F   UNL A   1      44.020  34.124  26.705  1.00  0.00    -0.206 F 
ATOM     77  C   UNL A   1      46.141  36.149  28.828  1.00  0.00     0.006 A 
ENDBRANCH  56  70
BRANCH  57  78
ATOM     78  C   UNL A   1      41.357  24.329  27.756  1.00  0.00     0.057 A 
ATOM     79  C   UNL A   1      41.849  23.198  28.419  1.00  0.00     0.134 A 
ATOM     80  C   UNL A   1      40.343  24.126  26.811  1.00  0.00     0.134 A 
ATOM     81  F   UNL A   1      42.842  23.319  29.312  1.00  0.00    -0.206 F 
ATOM     82  C   UNL A   1      41.378  21.915  28.130  1.00  0.00     0.040 A 
ATOM     83  C   UNL A   1      39.839  22.853  26.537  1.00  0.00     0.040 A 
ATOM     84  F   UNL A   1      39.829  25.163  26.133  1.00  0.00    -0.206 F 
ATOM     85  C   UNL A   1      40.367  21.741  27.188  1.00  0.00     0.006 A 
ENDBRANCH  57  78
BRANCH  69  86
ATOM     86  C   UNL A   1      47.287  27.346  25.676  1.00  0.00     0.057 A 
ATOM     87  C   UNL A   1      48.332  26.647  26.291  1.00  0.00     0.134 A 
ATOM     88  C   UNL A   1      47.355  27.515  24.286  1.00  0.00     0.134 A 
ATOM     89  F   UNL A   1      48.335  26.458  27.619  1.00  0.00    -0.206 F 
ATOM     90  C   UNL A   1      49.414  26.157  25.557  1.00  0.00     0.040 A 
ATOM     91  C   UNL A   1      48.415  27.002  23.537  1.00  0.00     0.040 A 
ATOM     92  F   UNL A   1      46.382  28.163  23.629  1.00  0.00    -0.206 F 
ATOM     93  C   UNL A   1      49.454  26.327  24.175  1.00  0.00     0.006 A 
ENDBRANCH  69  86
ENDBRANCH  43  44
ENDBRANCH  36  38
ENDBRANCH  35  36
ENDBRANCH  34  35
ENDBRANCH  33  34
ENDBRANCH  32  33
ENDBRANCH  31  32
ENDBRANCH   1  31
TORSDOF 20
ENDMDL
