MODEL 1
REMARK VINA RESULT:      -9.2      0.000      0.000
REMARK SMILES CCOc1ccc(-c2ccc(=O)n(CC(=O)OCCOCCOCCOC(=O)c3ccc(-c4c5nc(c(-c6c(F)cccc6F)c6ccc([nH]6)c(-c6c(F)cccc6F)c6nc(c(-c7c(F)cccc7F)c7ccc4[nH]7)C=C6)C=C5)cc3)n2)cc1
REMARK SMILES IDX 21 1 20 2 19 3 18 4 17 5 15 6 16 7 14 8 13 9 8 10 9 11 83 12
REMARK SMILES IDX 10 13 11 14 12 15 7 16 4 17 5 18 85 19 6 20 84 21 3 22 2 23
REMARK SMILES IDX 1 24 22 25 23 26 24 27 25 28 26 29 27 30 28 31 29 32 30 33
REMARK SMILES IDX 82 34 31 35 81 36 32 37 33 38 34 39 75 40 35 41 80 42 74 43
REMARK SMILES IDX 76 44 36 45 79 46 73 47 72 48 37 50 63 51 46 52 62 53 47 54
REMARK SMILES IDX 50 55 61 56 77 57 48 58 49 59 60 61 78 62 51 63 38 64 39 65
REMARK SMILES IDX 44 66 40 67 41 68 43 69 45 70 42 71 64 72 65 73 70 74 66 75
REMARK SMILES IDX 67 76 69 77 71 78 68 79 52 80 53 81 58 82 54 83 55 84 57 85
REMARK SMILES IDX 59 86 56 87
REMARK H PARENT 76 49 50 60
REMARK Flexibility Score: inf
ROOT
ATOM      1  C   UNL A   1      42.002  18.943  26.544  1.00  0.00     0.188 C 
ENDROOT
BRANCH   1   2
ATOM      2  O   UNL A   1      42.758  18.029  25.751  1.00  0.00    -0.376 OA
BRANCH   2   3
ATOM      3  C   UNL A   1      44.027  18.453  25.269  1.00  0.00     0.202 C 
BRANCH   3   4
ATOM      4  C   UNL A   1      44.282  19.959  25.333  1.00  0.00     0.261 C 
BRANCH   4   5
ATOM      5  O   UNL A   1      44.772  20.496  24.087  1.00  0.00    -0.462 OA
BRANCH   5   6
ATOM      6  C   UNL A   1      44.902  21.845  24.034  1.00  0.00     0.328 C 
ATOM      7  O   UNL A   1      44.194  22.578  23.345  1.00  0.00    -0.250 OA
BRANCH   6   8
ATOM      8  C   UNL A   1      46.007  22.420  24.911  1.00  0.00     0.270 C 
BRANCH   8   9
ATOM      9  N   UNL A   1      45.808  23.686  25.619  1.00  0.00    -0.218 N 
ATOM     10  C   UNL A   1      45.255  24.669  27.607  1.00  0.00     0.091 A 
ATOM     11  C   UNL A   1      45.604  26.019  27.133  1.00  0.00     0.036 A 
ATOM     12  N   UNL A   1      45.296  23.589  26.894  1.00  0.00    -0.169 NA
ATOM     13  C   UNL A   1      46.192  26.074  25.937  1.00  0.00     0.075 A 
ATOM     14  C   UNL A   1      46.390  24.847  25.130  1.00  0.00     0.267 A 
ATOM     15  O   UNL A   1      47.023  24.923  24.080  1.00  0.00    -0.268 OA
BRANCH  10  16
ATOM     16  C   UNL A   1      45.018  24.552  29.056  1.00  0.00     0.002 A 
ATOM     17  C   UNL A   1      44.685  24.546  31.811  1.00  0.00     0.119 A 
ATOM     18  C   UNL A   1      43.912  23.697  31.012  1.00  0.00     0.047 A 
ATOM     19  C   UNL A   1      45.652  25.366  31.236  1.00  0.00     0.047 A 
ATOM     20  C   UNL A   1      44.065  23.704  29.621  1.00  0.00     0.014 A 
ATOM     21  C   UNL A   1      45.810  25.380  29.858  1.00  0.00     0.014 A 
BRANCH  17  22
ATOM     22  O   UNL A   1      44.565  24.458  33.170  1.00  0.00    -0.494 OA
BRANCH  22  23
ATOM     23  C   UNL A   1      44.025  23.205  33.617  1.00  0.00     0.226 C 
ATOM     24  C   UNL A   1      43.028  23.369  34.754  1.00  0.00     0.049 C 
ENDBRANCH  22  23
ENDBRANCH  17  22
ENDBRANCH  10  16
ENDBRANCH   8   9
ENDBRANCH   6   8
ENDBRANCH   5   6
ENDBRANCH   4   5
ENDBRANCH   3   4
ENDBRANCH   2   3
ENDBRANCH   1   2
BRANCH   1  25
ATOM     25  C   UNL A   1      40.606  19.356  26.058  1.00  0.00     0.188 C 
BRANCH  25  26
ATOM     26  O   UNL A   1      40.337  20.729  26.321  1.00  0.00    -0.376 OA
BRANCH  26  27
ATOM     27  C   UNL A   1      41.164  21.300  27.323  1.00  0.00     0.202 C 
BRANCH  27  28
ATOM     28  C   UNL A   1      41.984  22.434  26.705  1.00  0.00     0.261 C 
BRANCH  28  29
ATOM     29  O   UNL A   1      41.203  23.579  26.312  1.00  0.00    -0.460 OA
BRANCH  29  30
ATOM     30  C   UNL A   1      41.886  24.713  26.042  1.00  0.00     0.338 C 
ATOM     31  O   UNL A   1      42.651  24.905  25.114  1.00  0.00    -0.246 OA
BRANCH  30  32
ATOM     32  C   UNL A   1      41.443  25.765  26.981  1.00  0.00     0.060 A 
ATOM     33  C   UNL A   1      42.042  27.026  26.901  1.00  0.00     0.016 A 
ATOM     34  C   UNL A   1      40.477  25.508  27.955  1.00  0.00     0.016 A 
ATOM     35  C   UNL A   1      41.697  28.031  27.806  1.00  0.00     0.010 A 
ATOM     36  C   UNL A   1      40.146  26.507  28.876  1.00  0.00     0.010 A 
ATOM     37  C   UNL A   1      40.773  27.765  28.823  1.00  0.00    -0.014 A 
BRANCH  37  38
ATOM     38  C   UNL A   1      40.584  28.733  29.930  1.00  0.00     0.031 A 
ATOM     39  C   UNL A   1      41.457  28.609  31.150  1.00  0.00     0.074 A 
ATOM     40  C   UNL A   1      39.661  29.708  29.863  1.00  0.00     0.049 A 
ATOM     41  N   UNL A   1      41.407  29.268  32.280  1.00  0.00    -0.248 NA
ATOM     42  C   UNL A   1      42.529  27.605  31.083  1.00  0.00     0.031 C 
ATOM     43  C   UNL A   1      38.791  29.972  28.720  1.00  0.00     0.029 A 
ATOM     44  N   UNL A   1      39.297  30.651  30.791  1.00  0.00    -0.354 N 
ATOM     45  C   UNL A   1      42.429  28.747  33.063  1.00  0.00     0.074 A 
ATOM     46  C   UNL A   1      43.070  27.706  32.289  1.00  0.00     0.031 C 
ATOM     47  C   UNL A   1      37.979  31.002  29.021  1.00  0.00     0.029 A 
ATOM     48  C   UNL A   1      38.249  31.442  30.389  1.00  0.00     0.049 A 
ATOM     49  H   UNL A   1      39.744  30.751  31.662  1.00  0.00     0.167 HD
ATOM     50  C   UNL A   1      42.803  29.106  34.313  1.00  0.00     0.037 A 
ATOM     51  C   UNL A   1      37.567  32.390  31.061  1.00  0.00     0.037 A 
ATOM     52  C   UNL A   1      42.171  30.143  35.085  1.00  0.00     0.049 A 
ATOM     53  C   UNL A   1      37.951  32.719  32.480  1.00  0.00     0.074 A 
ATOM     54  C   UNL A   1      42.485  30.583  36.359  1.00  0.00     0.029 A 
ATOM     55  N   UNL A   1      41.094  30.901  34.653  1.00  0.00    -0.354 N 
ATOM     56  N   UNL A   1      38.918  32.223  33.214  1.00  0.00    -0.248 NA
ATOM     57  C   UNL A   1      37.144  33.740  33.167  1.00  0.00     0.031 C 
ATOM     58  C   UNL A   1      41.569  31.579  36.715  1.00  0.00     0.029 A 
ATOM     59  C   UNL A   1      40.716  31.791  35.644  1.00  0.00     0.049 A 
ATOM     60  H   UNL A   1      40.661  30.818  33.772  1.00  0.00     0.167 HD
ATOM     61  C   UNL A   1      38.853  32.888  34.433  1.00  0.00     0.074 A 
ATOM     62  C   UNL A   1      37.758  33.831  34.339  1.00  0.00     0.031 C 
ATOM     63  C   UNL A   1      39.631  32.732  35.533  1.00  0.00     0.037 A 
BRANCH  50  64
ATOM     64  C   UNL A   1      43.934  28.344  34.937  1.00  0.00     0.057 A 
ATOM     65  C   UNL A   1      45.256  28.801  34.881  1.00  0.00     0.134 A 
ATOM     66  C   UNL A   1      43.692  27.145  35.620  1.00  0.00     0.134 A 
ATOM     67  F   UNL A   1      45.556  29.933  34.226  1.00  0.00    -0.206 F 
ATOM     68  C   UNL A   1      46.302  28.083  35.464  1.00  0.00     0.040 A 
ATOM     69  C   UNL A   1      44.725  26.430  36.228  1.00  0.00     0.040 A 
ATOM     70  F   UNL A   1      42.448  26.652  35.712  1.00  0.00    -0.206 F 
ATOM     71  C   UNL A   1      46.035  26.898  36.145  1.00  0.00     0.006 A 
ENDBRANCH  50  64
BRANCH  51  72
ATOM     72  C   UNL A   1      36.428  33.088  30.413  1.00  0.00     0.057 A 
ATOM     73  C   UNL A   1      36.638  34.093  29.462  1.00  0.00     0.134 A 
ATOM     74  C   UNL A   1      35.103  32.791  30.754  1.00  0.00     0.134 A 
ATOM     75  F   UNL A   1      37.886  34.445  29.117  1.00  0.00    -0.206 F 
ATOM     76  C   UNL A   1      35.574  34.787  28.884  1.00  0.00     0.040 A 
ATOM     77  C   UNL A   1      34.027  33.460  30.167  1.00  0.00     0.040 A 
ATOM     78  F   UNL A   1      34.834  31.844  31.666  1.00  0.00    -0.206 F 
ATOM     79  C   UNL A   1      34.263  34.467  29.233  1.00  0.00     0.006 A 
ENDBRANCH  51  72
BRANCH  63  80
ATOM     80  C   UNL A   1      39.355  33.626  36.707  1.00  0.00     0.057 A 
ATOM     81  C   UNL A   1      38.424  33.283  37.695  1.00  0.00     0.134 A 
ATOM     82  C   UNL A   1      40.065  34.822  36.873  1.00  0.00     0.134 A 
ATOM     83  F   UNL A   1      37.704  32.156  37.589  1.00  0.00    -0.206 F 
ATOM     84  C   UNL A   1      38.195  34.109  38.797  1.00  0.00     0.040 A 
ATOM     85  C   UNL A   1      39.862  35.643  37.982  1.00  0.00     0.040 A 
ATOM     86  F   UNL A   1      40.979  35.203  35.968  1.00  0.00    -0.206 F 
ATOM     87  C   UNL A   1      38.920  35.290  38.946  1.00  0.00     0.006 A 
ENDBRANCH  63  80
ENDBRANCH  37  38
ENDBRANCH  30  32
ENDBRANCH  29  30
ENDBRANCH  28  29
ENDBRANCH  27  28
ENDBRANCH  26  27
ENDBRANCH  25  26
ENDBRANCH   1  25
TORSDOF 21
ENDMDL
MODEL 2
REMARK VINA RESULT:      -9.2      0.604      5.982
REMARK SMILES CCOc1ccc(-c2ccc(=O)n(CC(=O)OCCOCCOCCOC(=O)c3ccc(-c4c5nc(c(-c6c(F)cccc6F)c6ccc([nH]6)c(-c6c(F)cccc6F)c6nc(c(-c7c(F)cccc7F)c7ccc4[nH]7)C=C6)C=C5)cc3)n2)cc1
REMARK SMILES IDX 21 1 20 2 19 3 18 4 17 5 15 6 16 7 14 8 13 9 8 10 9 11 83 12
REMARK SMILES IDX 10 13 11 14 12 15 7 16 4 17 5 18 85 19 6 20 84 21 3 22 2 23
REMARK SMILES IDX 1 24 22 25 23 26 24 27 25 28 26 29 27 30 28 31 29 32 30 33
REMARK SMILES IDX 82 34 31 35 81 36 32 37 33 38 34 39 75 40 35 41 80 42 74 43
REMARK SMILES IDX 76 44 36 45 79 46 73 47 72 48 37 50 63 51 46 52 62 53 47 54
REMARK SMILES IDX 50 55 61 56 77 57 48 58 49 59 60 61 78 62 51 63 38 64 39 65
REMARK SMILES IDX 44 66 40 67 41 68 43 69 45 70 42 71 64 72 65 73 70 74 66 75
REMARK SMILES IDX 67 76 69 77 71 78 68 79 52 80 53 81 58 82 54 83 55 84 57 85
REMARK SMILES IDX 59 86 56 87
REMARK H PARENT 76 49 50 60
REMARK Flexibility Score: inf
ROOT
ATOM      1  C   UNL A   1      42.252  18.952  26.585  1.00  0.00     0.188 C 
ENDROOT
BRANCH   1   2
ATOM      2  O   UNL A   1      43.009  18.037  25.793  1.00  0.00    -0.376 OA
BRANCH   2   3
ATOM      3  C   UNL A   1      44.151  18.534  25.107  1.00  0.00     0.202 C 
BRANCH   3   4
ATOM      4  C   UNL A   1      44.364  20.046  25.199  1.00  0.00     0.261 C 
BRANCH   4   5
ATOM      5  O   UNL A   1      44.928  20.605  23.994  1.00  0.00    -0.462 OA
BRANCH   5   6
ATOM      6  C   UNL A   1      44.904  21.958  23.901  1.00  0.00     0.328 C 
ATOM      7  O   UNL A   1      43.966  22.599  23.431  1.00  0.00    -0.250 OA
BRANCH   6   8
ATOM      8  C   UNL A   1      46.145  22.661  24.437  1.00  0.00     0.270 C 
BRANCH   8   9
ATOM      9  N   UNL A   1      46.018  23.863  25.261  1.00  0.00    -0.218 N 
ATOM     10  C   UNL A   1      45.377  24.701  27.289  1.00  0.00     0.091 A 
ATOM     11  C   UNL A   1      45.923  26.039  27.004  1.00  0.00     0.036 A 
ATOM     12  N   UNL A   1      45.370  23.701  26.466  1.00  0.00    -0.169 NA
ATOM     13  C   UNL A   1      46.633  26.141  25.880  1.00  0.00     0.075 A 
ATOM     14  C   UNL A   1      46.774  24.987  24.961  1.00  0.00     0.267 A 
ATOM     15  O   UNL A   1      47.516  25.091  23.988  1.00  0.00    -0.268 OA
BRANCH  10  16
ATOM     16  C   UNL A   1      44.981  24.468  28.688  1.00  0.00     0.002 A 
ATOM     17  C   UNL A   1      44.196  23.796  31.264  1.00  0.00     0.119 A 
ATOM     18  C   UNL A   1      44.893  24.987  31.035  1.00  0.00     0.047 A 
ATOM     19  C   UNL A   1      43.856  22.964  30.201  1.00  0.00     0.047 A 
ATOM     20  C   UNL A   1      45.303  25.326  29.740  1.00  0.00     0.014 A 
ATOM     21  C   UNL A   1      44.259  23.292  28.915  1.00  0.00     0.014 A 
BRANCH  17  22
ATOM     22  O   UNL A   1      43.743  23.533  32.527  1.00  0.00    -0.494 OA
BRANCH  22  23
ATOM     23  C   UNL A   1      44.566  24.098  33.558  1.00  0.00     0.226 C 
ATOM     24  C   UNL A   1      43.788  24.396  34.832  1.00  0.00     0.049 C 
ENDBRANCH  22  23
ENDBRANCH  17  22
ENDBRANCH  10  16
ENDBRANCH   8   9
ENDBRANCH   6   8
ENDBRANCH   5   6
ENDBRANCH   4   5
ENDBRANCH   3   4
ENDBRANCH   2   3
ENDBRANCH   1   2
BRANCH   1  25
ATOM     25  C   UNL A   1      40.803  19.251  26.177  1.00  0.00     0.188 C 
BRANCH  25  26
ATOM     26  O   UNL A   1      40.480  20.628  26.339  1.00  0.00    -0.376 OA
BRANCH  26  27
ATOM     27  C   UNL A   1      41.459  21.374  27.045  1.00  0.00     0.202 C 
BRANCH  27  28
ATOM     28  C   UNL A   1      41.912  22.549  26.178  1.00  0.00     0.261 C 
BRANCH  28  29
ATOM     29  O   UNL A   1      41.194  23.773  26.423  1.00  0.00    -0.460 OA
BRANCH  29  30
ATOM     30  C   UNL A   1      41.874  24.923  26.224  1.00  0.00     0.338 C 
ATOM     31  O   UNL A   1      42.639  25.175  25.311  1.00  0.00    -0.246 OA
BRANCH  30  32
ATOM     32  C   UNL A   1      41.428  25.914  27.226  1.00  0.00     0.060 A 
ATOM     33  C   UNL A   1      42.123  27.124  27.324  1.00  0.00     0.016 A 
ATOM     34  C   UNL A   1      40.363  25.646  28.088  1.00  0.00     0.016 A 
ATOM     35  C   UNL A   1      41.773  28.063  28.295  1.00  0.00     0.010 A 
ATOM     36  C   UNL A   1      40.025  26.577  29.075  1.00  0.00     0.010 A 
ATOM     37  C   UNL A   1      40.746  27.778  29.201  1.00  0.00    -0.014 A 
BRANCH  37  38
ATOM     38  C   UNL A   1      40.530  28.649  30.383  1.00  0.00     0.031 A 
ATOM     39  C   UNL A   1      39.472  29.715  30.306  1.00  0.00     0.074 A 
ATOM     40  C   UNL A   1      41.253  28.500  31.507  1.00  0.00     0.049 A 
ATOM     41  N   UNL A   1      39.176  30.657  31.165  1.00  0.00    -0.248 NA
ATOM     42  C   UNL A   1      38.639  29.719  29.094  1.00  0.00     0.031 C 
ATOM     43  C   UNL A   1      42.266  27.473  31.733  1.00  0.00     0.029 A 
ATOM     44  N   UNL A   1      41.245  29.231  32.669  1.00  0.00    -0.354 N 
ATOM     45  C   UNL A   1      38.134  31.374  30.591  1.00  0.00     0.074 A 
ATOM     46  C   UNL A   1      37.862  30.772  29.304  1.00  0.00     0.031 C 
ATOM     47  C   UNL A   1      42.799  27.649  32.955  1.00  0.00     0.029 A 
ATOM     48  C   UNL A   1      42.188  28.822  33.580  1.00  0.00     0.049 A 
ATOM     49  H   UNL A   1      40.625  29.976  32.834  1.00  0.00     0.167 HD
ATOM     50  C   UNL A   1      37.460  32.436  31.093  1.00  0.00     0.037 A 
ATOM     51  C   UNL A   1      42.537  29.354  34.768  1.00  0.00     0.037 A 
ATOM     52  C   UNL A   1      37.726  33.035  32.374  1.00  0.00     0.049 A 
ATOM     53  C   UNL A   1      41.826  30.583  35.272  1.00  0.00     0.074 A 
ATOM     54  C   UNL A   1      37.091  34.110  32.971  1.00  0.00     0.029 A 
ATOM     55  N   UNL A   1      38.708  32.609  33.255  1.00  0.00    -0.354 N 
ATOM     56  N   UNL A   1      40.842  31.254  34.725  1.00  0.00    -0.248 NA
ATOM     57  C   UNL A   1      42.279  31.131  36.560  1.00  0.00     0.031 C 
ATOM     58  C   UNL A   1      37.718  34.362  34.196  1.00  0.00     0.029 A 
ATOM     59  C   UNL A   1      38.712  33.415  34.381  1.00  0.00     0.049 A 
ATOM     60  H   UNL A   1      39.313  31.848  33.101  1.00  0.00     0.167 HD
ATOM     61  C   UNL A   1      40.541  32.283  35.610  1.00  0.00     0.074 A 
ATOM     62  C   UNL A   1      41.439  32.142  36.737  1.00  0.00     0.031 C 
ATOM     63  C   UNL A   1      39.604  33.257  35.501  1.00  0.00     0.037 A 
BRANCH  50  64
ATOM     64  C   UNL A   1      36.390  33.038  30.233  1.00  0.00     0.057 A 
ATOM     65  C   UNL A   1      36.691  33.880  29.155  1.00  0.00     0.134 A 
ATOM     66  C   UNL A   1      35.039  32.754  30.475  1.00  0.00     0.134 A 
ATOM     67  F   UNL A   1      37.964  34.205  28.882  1.00  0.00    -0.206 F 
ATOM     68  C   UNL A   1      35.686  34.435  28.361  1.00  0.00     0.040 A 
ATOM     69  C   UNL A   1      34.027  33.283  29.674  1.00  0.00     0.040 A 
ATOM     70  F   UNL A   1      34.683  31.953  31.490  1.00  0.00    -0.206 F 
ATOM     71  C   UNL A   1      34.350  34.131  28.616  1.00  0.00     0.006 A 
ENDBRANCH  50  64
BRANCH  51  72
ATOM     72  C   UNL A   1      43.632  28.744  35.564  1.00  0.00     0.057 A 
ATOM     73  C   UNL A   1      44.968  29.115  35.365  1.00  0.00     0.134 A 
ATOM     74  C   UNL A   1      43.374  27.752  36.517  1.00  0.00     0.134 A 
ATOM     75  F   UNL A   1      45.281  30.037  34.443  1.00  0.00    -0.206 F 
ATOM     76  C   UNL A   1      46.007  28.512  36.074  1.00  0.00     0.040 A 
ATOM     77  C   UNL A   1      44.402  27.157  37.252  1.00  0.00     0.040 A 
ATOM     78  F   UNL A   1      42.117  27.346  36.749  1.00  0.00    -0.206 F 
ATOM     79  C   UNL A   1      45.725  27.533  37.025  1.00  0.00     0.006 A 
ENDBRANCH  51  72
BRANCH  63  80
ATOM     80  C   UNL A   1      39.473  34.222  36.643  1.00  0.00     0.057 A 
ATOM     81  C   UNL A   1      38.771  33.896  37.810  1.00  0.00     0.134 A 
ATOM     82  C   UNL A   1      40.095  35.476  36.590  1.00  0.00     0.134 A 
ATOM     83  F   UNL A   1      38.144  32.716  37.919  1.00  0.00    -0.206 F 
ATOM     84  C   UNL A   1      38.678  34.792  38.877  1.00  0.00     0.040 A 
ATOM     85  C   UNL A   1      40.029  36.369  37.659  1.00  0.00     0.040 A 
ATOM     86  F   UNL A   1      40.792  35.846  35.504  1.00  0.00    -0.206 F 
ATOM     87  C   UNL A   1      39.314  36.031  38.806  1.00  0.00     0.006 A 
ENDBRANCH  63  80
ENDBRANCH  37  38
ENDBRANCH  30  32
ENDBRANCH  29  30
ENDBRANCH  28  29
ENDBRANCH  27  28
ENDBRANCH  26  27
ENDBRANCH  25  26
ENDBRANCH   1  25
TORSDOF 21
ENDMDL
MODEL 3
REMARK VINA RESULT:      -9.2      6.189     12.150
REMARK SMILES CCOc1ccc(-c2ccc(=O)n(CC(=O)OCCOCCOCCOC(=O)c3ccc(-c4c5nc(c(-c6c(F)cccc6F)c6ccc([nH]6)c(-c6c(F)cccc6F)c6nc(c(-c7c(F)cccc7F)c7ccc4[nH]7)C=C6)C=C5)cc3)n2)cc1
REMARK SMILES IDX 21 1 20 2 19 3 18 4 17 5 15 6 16 7 14 8 13 9 8 10 9 11 83 12
REMARK SMILES IDX 10 13 11 14 12 15 7 16 4 17 5 18 85 19 6 20 84 21 3 22 2 23
REMARK SMILES IDX 1 24 22 25 23 26 24 27 25 28 26 29 27 30 28 31 29 32 30 33
REMARK SMILES IDX 82 34 31 35 81 36 32 37 33 38 34 39 75 40 35 41 80 42 74 43
REMARK SMILES IDX 76 44 36 45 79 46 73 47 72 48 37 50 63 51 46 52 62 53 47 54
REMARK SMILES IDX 50 55 61 56 77 57 48 58 49 59 60 61 78 62 51 63 38 64 39 65
REMARK SMILES IDX 44 66 40 67 41 68 43 69 45 70 42 71 64 72 65 73 70 74 66 75
REMARK SMILES IDX 67 76 69 77 71 78 68 79 52 80 53 81 58 82 54 83 55 84 57 85
REMARK SMILES IDX 59 86 56 87
REMARK H PARENT 76 49 50 60
REMARK Flexibility Score: inf
ROOT
ATOM      1  C   UNL A   1      34.246  33.030  28.002  1.00  0.00     0.188 C 
ENDROOT
BRANCH   1   2
ATOM      2  O   UNL A   1      34.307  31.720  28.566  1.00  0.00    -0.376 OA
BRANCH   2   3
ATOM      3  C   UNL A   1      34.633  30.637  27.705  1.00  0.00     0.202 C 
BRANCH   3   4
ATOM      4  C   UNL A   1      33.456  30.032  26.940  1.00  0.00     0.261 C 
BRANCH   4   5
ATOM      5  O   UNL A   1      33.195  28.662  27.307  1.00  0.00    -0.462 OA
BRANCH   5   6
ATOM      6  C   UNL A   1      31.929  28.222  27.096  1.00  0.00     0.328 C 
ATOM      7  O   UNL A   1      31.139  27.941  27.996  1.00  0.00    -0.250 OA
BRANCH   6   8
ATOM      8  C   UNL A   1      31.526  28.101  25.632  1.00  0.00     0.270 C 
BRANCH   8   9
ATOM      9  N   UNL A   1      32.311  27.276  24.713  1.00  0.00    -0.218 N 
ATOM     10  C   UNL A   1      32.947  25.152  24.159  1.00  0.00     0.091 A 
ATOM     11  C   UNL A   1      33.592  25.580  22.907  1.00  0.00     0.036 A 
ATOM     12  N   UNL A   1      32.397  25.938  25.029  1.00  0.00    -0.169 NA
ATOM     13  C   UNL A   1      33.406  26.858  22.574  1.00  0.00     0.075 A 
ATOM     14  C   UNL A   1      32.664  27.778  23.468  1.00  0.00     0.267 A 
ATOM     15  O   UNL A   1      32.429  28.919  23.082  1.00  0.00    -0.268 OA
BRANCH  10  16
ATOM     16  C   UNL A   1      32.776  23.697  24.314  1.00  0.00     0.002 A 
ATOM     17  C   UNL A   1      32.241  21.003  24.716  1.00  0.00     0.119 A 
ATOM     18  C   UNL A   1      33.204  21.392  23.779  1.00  0.00     0.047 A 
ATOM     19  C   UNL A   1      31.577  21.959  25.480  1.00  0.00     0.047 A 
ATOM     20  C   UNL A   1      33.470  22.749  23.561  1.00  0.00     0.014 A 
ATOM     21  C   UNL A   1      31.834  23.306  25.271  1.00  0.00     0.014 A 
BRANCH  17  22
ATOM     22  O   UNL A   1      32.062  19.670  24.959  1.00  0.00    -0.494 OA
BRANCH  22  23
ATOM     23  C   UNL A   1      33.029  18.835  24.306  1.00  0.00     0.226 C 
ATOM     24  C   UNL A   1      32.471  18.147  23.069  1.00  0.00     0.049 C 
ENDBRANCH  22  23
ENDBRANCH  17  22
ENDBRANCH  10  16
ENDBRANCH   8   9
ENDBRANCH   6   8
ENDBRANCH   5   6
ENDBRANCH   4   5
ENDBRANCH   3   4
ENDBRANCH   2   3
ENDBRANCH   1   2
BRANCH   1  25
ATOM     25  C   UNL A   1      34.511  34.235  28.916  1.00  0.00     0.188 C 
BRANCH  25  26
ATOM     26  O   UNL A   1      33.614  34.270  30.020  1.00  0.00    -0.376 OA
BRANCH  26  27
ATOM     27  C   UNL A   1      34.202  34.724  31.230  1.00  0.00     0.202 C 
BRANCH  27  28
ATOM     28  C   UNL A   1      34.041  33.641  32.299  1.00  0.00     0.261 C 
BRANCH  28  29
ATOM     29  O   UNL A   1      34.836  32.463  32.067  1.00  0.00    -0.460 OA
BRANCH  29  30
ATOM     30  C   UNL A   1      35.918  32.298  32.858  1.00  0.00     0.338 C 
ATOM     31  O   UNL A   1      36.019  32.595  34.035  1.00  0.00    -0.246 OA
BRANCH  30  32
ATOM     32  C   UNL A   1      36.945  31.550  32.102  1.00  0.00     0.060 A 
ATOM     33  C   UNL A   1      37.799  30.695  32.805  1.00  0.00     0.016 A 
ATOM     34  C   UNL A   1      37.095  31.714  30.724  1.00  0.00     0.016 A 
ATOM     35  C   UNL A   1      38.820  30.014  32.141  1.00  0.00     0.010 A 
ATOM     36  C   UNL A   1      38.131  31.049  30.061  1.00  0.00     0.010 A 
ATOM     37  C   UNL A   1      39.016  30.217  30.770  1.00  0.00    -0.014 A 
BRANCH  37  38
ATOM     38  C   UNL A   1      40.237  29.701  30.105  1.00  0.00     0.031 A 
ATOM     39  C   UNL A   1      41.404  30.632  29.923  1.00  0.00     0.074 A 
ATOM     40  C   UNL A   1      40.319  28.430  29.673  1.00  0.00     0.049 A 
ATOM     41  N   UNL A   1      42.530  30.441  29.282  1.00  0.00    -0.248 NA
ATOM     42  C   UNL A   1      41.282  31.959  30.545  1.00  0.00     0.031 C 
ATOM     43  C   UNL A   1      39.285  27.412  29.837  1.00  0.00     0.029 A 
ATOM     44  N   UNL A   1      41.324  27.787  28.993  1.00  0.00    -0.354 N 
ATOM     45  C   UNL A   1      43.241  31.627  29.413  1.00  0.00     0.074 A 
ATOM     46  C   UNL A   1      42.415  32.538  30.174  1.00  0.00     0.031 C 
ATOM     47  C   UNL A   1      39.702  26.272  29.257  1.00  0.00     0.029 A 
ATOM     48  C   UNL A   1      41.014  26.494  28.650  1.00  0.00     0.049 A 
ATOM     49  H   UNL A   1      42.183  28.212  28.772  1.00  0.00     0.167 HD
ATOM     50  C   UNL A   1      44.475  31.928  28.943  1.00  0.00     0.037 A 
ATOM     51  C   UNL A   1      41.700  25.604  27.907  1.00  0.00     0.037 A 
ATOM     52  C   UNL A   1      45.301  31.024  28.189  1.00  0.00     0.049 A 
ATOM     53  C   UNL A   1      43.036  25.989  27.329  1.00  0.00     0.074 A 
ATOM     54  C   UNL A   1      46.569  31.239  27.676  1.00  0.00     0.029 A 
ATOM     55  N   UNL A   1      44.940  29.733  27.838  1.00  0.00    -0.354 N 
ATOM     56  N   UNL A   1      43.703  27.111  27.455  1.00  0.00    -0.248 NA
ATOM     57  C   UNL A   1      43.716  24.982  26.499  1.00  0.00     0.031 C 
ATOM     58  C   UNL A   1      46.957  30.090  26.977  1.00  0.00     0.029 A 
ATOM     59  C   UNL A   1      45.951  29.146  27.096  1.00  0.00     0.049 A 
ATOM     60  H   UNL A   1      44.090  29.299  28.079  1.00  0.00     0.167 HD
ATOM     61  C   UNL A   1      44.887  26.936  26.748  1.00  0.00     0.074 A 
ATOM     62  C   UNL A   1      44.853  25.596  26.201  1.00  0.00     0.031 C 
ATOM     63  C   UNL A   1      45.910  27.807  26.567  1.00  0.00     0.037 A 
BRANCH  50  64
ATOM     64  C   UNL A   1      44.990  33.312  29.208  1.00  0.00     0.057 A 
ATOM     65  C   UNL A   1      44.732  34.378  28.336  1.00  0.00     0.134 A 
ATOM     66  C   UNL A   1      45.736  33.585  30.361  1.00  0.00     0.134 A 
ATOM     67  F   UNL A   1      44.039  34.178  27.205  1.00  0.00    -0.206 F 
ATOM     68  C   UNL A   1      45.216  35.662  28.592  1.00  0.00     0.040 A 
ATOM     69  C   UNL A   1      46.205  34.869  30.640  1.00  0.00     0.040 A 
ATOM     70  F   UNL A   1      46.016  32.609  31.238  1.00  0.00    -0.206 F 
ATOM     71  C   UNL A   1      45.950  35.910  29.750  1.00  0.00     0.006 A 
ENDBRANCH  50  64
BRANCH  51  72
ATOM     72  C   UNL A   1      41.128  24.260  27.639  1.00  0.00     0.057 A 
ATOM     73  C   UNL A   1      41.608  23.122  28.298  1.00  0.00     0.134 A 
ATOM     74  C   UNL A   1      40.111  24.077  26.693  1.00  0.00     0.134 A 
ATOM     75  F   UNL A   1      42.602  23.229  29.191  1.00  0.00    -0.206 F 
ATOM     76  C   UNL A   1      41.108  21.849  28.016  1.00  0.00     0.040 A 
ATOM     77  C   UNL A   1      39.585  22.813  26.419  1.00  0.00     0.040 A 
ATOM     78  F   UNL A   1      39.615  25.126  26.021  1.00  0.00    -0.206 F 
ATOM     79  C   UNL A   1      40.090  21.693  27.078  1.00  0.00     0.006 A 
ENDBRANCH  51  72
BRANCH  63  80
ATOM     80  C   UNL A   1      47.096  27.327  25.781  1.00  0.00     0.057 A 
ATOM     81  C   UNL A   1      48.138  26.609  26.378  1.00  0.00     0.134 A 
ATOM     82  C   UNL A   1      47.170  27.550  24.399  1.00  0.00     0.134 A 
ATOM     83  F   UNL A   1      48.132  26.372  27.698  1.00  0.00    -0.206 F 
ATOM     84  C   UNL A   1      49.223  26.145  25.632  1.00  0.00     0.040 A 
ATOM     85  C   UNL A   1      48.238  27.071  23.640  1.00  0.00     0.040 A 
ATOM     86  F   UNL A   1      46.199  28.223  23.764  1.00  0.00    -0.206 F 
ATOM     87  C   UNL A   1      49.272  26.370  24.257  1.00  0.00     0.006 A 
ENDBRANCH  63  80
ENDBRANCH  37  38
ENDBRANCH  30  32
ENDBRANCH  29  30
ENDBRANCH  28  29
ENDBRANCH  27  28
ENDBRANCH  26  27
ENDBRANCH  25  26
ENDBRANCH   1  25
TORSDOF 21
ENDMDL
