MODEL 1
REMARK VINA RESULT:      -9.7      0.000      0.000
REMARK SMILES C=CCN(CC(=O)OCCOCCOCCOC(=O)c1ccc(-c2c3nc(c(-c4c(F)cccc4F)c4ccc([nH]4)c(-c4c(F)cccc4F)c4nc(c(-c5c(F)cccc5F)c5ccc2[nH]5)C=C4)C=C3)cc1)C(=O)N1CC[C@@H]([NH+]2CCCCC2)C1
REMARK SMILES IDX 12 1 11 2 10 3 9 4 8 5 6 6 7 7 5 8 4 9 3 10 2 11 1 12 74 13
REMARK SMILES IDX 75 14 76 15 77 16 86 17 78 18 79 19 80 20 81 21 85 22 82 24
REMARK SMILES IDX 84 25 83 26 13 27 14 28 15 29 16 30 17 31 18 32 19 33 20 34
REMARK SMILES IDX 21 35 73 36 22 37 72 38 23 39 24 40 25 41 66 42 26 43 71 44
REMARK SMILES IDX 65 45 67 46 27 47 70 48 64 49 63 50 28 52 54 53 37 54 53 55
REMARK SMILES IDX 38 56 41 57 52 58 68 59 39 60 40 61 51 63 69 64 42 65 29 66
REMARK SMILES IDX 30 67 35 68 31 69 32 70 34 71 36 72 33 73 55 74 56 75 61 76
REMARK SMILES IDX 57 77 58 78 60 79 62 80 59 81 43 82 44 83 49 84 45 85 46 86
REMARK SMILES IDX 48 87 50 88 47 89
REMARK H PARENT 80 23 67 51 41 62
REMARK Flexibility Score: inf
ROOT
ATOM      1  C   UNL A   1      32.785  29.005  23.641  1.00  0.00     0.188 C 
ENDROOT
BRANCH   1   2
ATOM      2  O   UNL A   1      32.912  27.594  23.685  1.00  0.00    -0.376 OA
BRANCH   2   3
ATOM      3  C   UNL A   1      34.034  27.124  24.426  1.00  0.00     0.202 C 
BRANCH   3   4
ATOM      4  C   UNL A   1      33.742  26.861  25.913  1.00  0.00     0.261 C 
BRANCH   4   5
ATOM      5  O   UNL A   1      32.876  25.710  26.132  1.00  0.00    -0.462 OA
BRANCH   5   6
ATOM      6  C   UNL A   1      31.558  25.997  26.327  1.00  0.00     0.325 C 
ATOM      7  O   UNL A   1      31.138  26.691  27.250  1.00  0.00    -0.250 OA
BRANCH   6   8
ATOM      8  C   UNL A   1      30.579  25.343  25.335  1.00  0.00     0.244 C 
BRANCH   8   9
ATOM      9  N   UNL A   1      30.769  23.970  24.863  1.00  0.00    -0.310 N 
BRANCH   9  10
ATOM     10  C   UNL A   1      30.693  23.783  23.407  1.00  0.00     0.149 C 
BRANCH  10  11
ATOM     11  C   UNL A   1      31.710  24.647  22.702  1.00  0.00    -0.013 C 
ATOM     12  C   UNL A   1      32.946  24.229  22.385  1.00  0.00     0.006 C 
ENDBRANCH  10  11
ENDBRANCH   9  10
BRANCH   9  13
ATOM     13  C   UNL A   1      30.969  22.833  25.617  1.00  0.00     0.321 C 
ATOM     14  O   UNL A   1      30.170  22.554  26.520  1.00  0.00    -0.248 OA
BRANCH  13  15
ATOM     15  N   UNL A   1      32.052  22.005  25.425  1.00  0.00    -0.318 N 
ATOM     16  C   UNL A   1      33.332  21.870  26.076  1.00  0.00     0.128 C 
ATOM     17  C   UNL A   1      32.087  21.264  24.181  1.00  0.00     0.186 C 
ATOM     18  C   UNL A   1      34.070  20.722  25.392  1.00  0.00     0.088 C 
ATOM     19  C   UNL A   1      33.199  20.210  24.228  1.00  0.00     0.205 C 
BRANCH  19  20
ATOM     20  N   UNL A   1      33.093  18.757  24.341  1.00  0.00    -0.331 N 
ATOM     21  C   UNL A   1      32.530  17.992  25.427  1.00  0.00     0.262 C 
ATOM     22  C   UNL A   1      32.913  18.006  23.102  1.00  0.00     0.262 C 
ATOM     23  H   UNL A   1      34.037  18.865  24.713  1.00  0.00     0.348 HD
ATOM     24  C   UNL A   1      33.414  16.774  25.691  1.00  0.00     0.062 C 
ATOM     25  C   UNL A   1      33.991  16.940  23.133  1.00  0.00     0.062 C 
ATOM     26  C   UNL A   1      34.053  16.143  24.445  1.00  0.00     0.012 C 
ENDBRANCH  19  20
ENDBRANCH  13  15
ENDBRANCH   9  13
ENDBRANCH   8   9
ENDBRANCH   6   8
ENDBRANCH   5   6
ENDBRANCH   4   5
ENDBRANCH   3   4
ENDBRANCH   2   3
ENDBRANCH   1   2
BRANCH   1  27
ATOM     27  C   UNL A   1      31.838  29.643  24.671  1.00  0.00     0.188 C 
BRANCH  27  28
ATOM     28  O   UNL A   1      32.436  30.323  25.772  1.00  0.00    -0.376 OA
BRANCH  28  29
ATOM     29  C   UNL A   1      31.447  31.074  26.515  1.00  0.00     0.202 C 
BRANCH  29  30
ATOM     30  C   UNL A   1      31.866  32.529  26.821  1.00  0.00     0.261 C 
BRANCH  30  31
ATOM     31  O   UNL A   1      32.706  32.644  28.000  1.00  0.00    -0.460 OA
BRANCH  31  32
ATOM     32  C   UNL A   1      33.795  33.469  27.935  1.00  0.00     0.338 C 
ATOM     33  O   UNL A   1      33.845  34.554  27.407  1.00  0.00    -0.246 OA
BRANCH  32  34
ATOM     34  C   UNL A   1      35.011  32.730  28.419  1.00  0.00     0.060 A 
ATOM     35  C   UNL A   1      35.015  31.361  28.701  1.00  0.00     0.016 A 
ATOM     36  C   UNL A   1      36.209  33.436  28.563  1.00  0.00     0.016 A 
ATOM     37  C   UNL A   1      36.228  30.698  29.020  1.00  0.00     0.010 A 
ATOM     38  C   UNL A   1      37.425  32.770  28.836  1.00  0.00     0.010 A 
ATOM     39  C   UNL A   1      37.461  31.380  29.055  1.00  0.00    -0.014 A 
BRANCH  39  40
ATOM     40  C   UNL A   1      38.692  30.700  29.606  1.00  0.00     0.031 A 
ATOM     41  C   UNL A   1      39.031  31.049  31.030  1.00  0.00     0.074 A 
ATOM     42  C   UNL A   1      39.468  29.780  28.977  1.00  0.00     0.049 A 
ATOM     43  N   UNL A   1      39.886  30.486  31.844  1.00  0.00    -0.248 NA
ATOM     44  C   UNL A   1      38.284  32.175  31.617  1.00  0.00     0.031 C 
ATOM     45  C   UNL A   1      39.336  29.339  27.601  1.00  0.00     0.029 A 
ATOM     46  N   UNL A   1      40.538  29.022  29.424  1.00  0.00    -0.354 N 
ATOM     47  C   UNL A   1      39.720  31.141  33.054  1.00  0.00     0.074 A 
ATOM     48  C   UNL A   1      38.759  32.201  32.848  1.00  0.00     0.031 C 
ATOM     49  C   UNL A   1      40.235  28.387  27.309  1.00  0.00     0.029 A 
ATOM     50  C   UNL A   1      41.042  28.132  28.489  1.00  0.00     0.049 A 
ATOM     51  H   UNL A   1      40.911  29.109  30.331  1.00  0.00     0.167 HD
ATOM     52  C   UNL A   1      40.282  30.867  34.252  1.00  0.00     0.037 A 
ATOM     53  C   UNL A   1      42.023  27.207  28.561  1.00  0.00     0.037 A 
ATOM     54  C   UNL A   1      41.309  29.892  34.458  1.00  0.00     0.049 A 
ATOM     55  C   UNL A   1      42.737  27.021  29.876  1.00  0.00     0.074 A 
ATOM     56  C   UNL A   1      42.005  29.606  35.618  1.00  0.00     0.029 A 
ATOM     57  N   UNL A   1      41.813  29.062  33.468  1.00  0.00    -0.354 N 
ATOM     58  N   UNL A   1      42.498  27.592  31.030  1.00  0.00    -0.248 NA
ATOM     59  C   UNL A   1      43.844  26.053  29.903  1.00  0.00     0.031 C 
ATOM     60  C   UNL A   1      42.968  28.638  35.317  1.00  0.00     0.029 A 
ATOM     61  C   UNL A   1      42.829  28.279  33.986  1.00  0.00     0.049 A 
ATOM     62  H   UNL A   1      41.495  29.034  32.537  1.00  0.00     0.167 HD
ATOM     63  C   UNL A   1      43.395  27.024  31.926  1.00  0.00     0.074 A 
ATOM     64  C   UNL A   1      44.164  26.046  31.188  1.00  0.00     0.031 C 
ATOM     65  C   UNL A   1      43.569  27.293  33.242  1.00  0.00     0.037 A 
BRANCH  52  66
ATOM     66  C   UNL A   1      39.784  31.684  35.403  1.00  0.00     0.057 A 
ATOM     67  C   UNL A   1      40.486  32.817  35.842  1.00  0.00     0.134 A 
ATOM     68  C   UNL A   1      38.661  31.286  36.133  1.00  0.00     0.134 A 
ATOM     69  F   UNL A   1      41.594  33.221  35.203  1.00  0.00    -0.206 F 
ATOM     70  C   UNL A   1      40.105  33.506  36.993  1.00  0.00     0.040 A 
ATOM     71  C   UNL A   1      38.257  31.983  37.272  1.00  0.00     0.040 A 
ATOM     72  F   UNL A   1      37.962  30.200  35.773  1.00  0.00    -0.206 F 
ATOM     73  C   UNL A   1      38.987  33.088  37.711  1.00  0.00     0.006 A 
ENDBRANCH  52  66
BRANCH  53  74
ATOM     74  C   UNL A   1      42.416  26.355  27.389  1.00  0.00     0.057 A 
ATOM     75  C   UNL A   1      41.926  25.048  27.239  1.00  0.00     0.134 A 
ATOM     76  C   UNL A   1      43.386  26.771  26.468  1.00  0.00     0.134 A 
ATOM     77  F   UNL A   1      41.013  24.566  28.095  1.00  0.00    -0.206 F 
ATOM     78  C   UNL A   1      42.423  24.176  26.263  1.00  0.00     0.040 A 
ATOM     79  C   UNL A   1      43.869  25.920  25.467  1.00  0.00     0.040 A 
ATOM     80  F   UNL A   1      43.903  28.005  26.542  1.00  0.00    -0.206 F 
ATOM     81  C   UNL A   1      43.401  24.611  25.374  1.00  0.00     0.006 A 
ENDBRANCH  53  74
BRANCH  65  82
ATOM     82  C   UNL A   1      44.597  26.489  33.981  1.00  0.00     0.057 A 
ATOM     83  C   UNL A   1      45.920  26.924  34.127  1.00  0.00     0.134 A 
ATOM     84  C   UNL A   1      44.239  25.283  34.598  1.00  0.00     0.134 A 
ATOM     85  F   UNL A   1      46.330  28.064  33.549  1.00  0.00    -0.206 F 
ATOM     86  C   UNL A   1      46.857  26.176  34.840  1.00  0.00     0.040 A 
ATOM     87  C   UNL A   1      45.158  24.544  35.342  1.00  0.00     0.040 A 
ATOM     88  F   UNL A   1      42.986  24.814  34.503  1.00  0.00    -0.206 F 
ATOM     89  C   UNL A   1      46.474  24.988  35.459  1.00  0.00     0.006 A 
ENDBRANCH  65  82
ENDBRANCH  39  40
ENDBRANCH  32  34
ENDBRANCH  31  32
ENDBRANCH  30  31
ENDBRANCH  29  30
ENDBRANCH  28  29
ENDBRANCH  27  28
ENDBRANCH   1  27
TORSDOF 23
ENDMDL
MODEL 2
REMARK VINA RESULT:      -9.5      3.206      8.572
REMARK SMILES C=CCN(CC(=O)OCCOCCOCCOC(=O)c1ccc(-c2c3nc(c(-c4c(F)cccc4F)c4ccc([nH]4)c(-c4c(F)cccc4F)c4nc(c(-c5c(F)cccc5F)c5ccc2[nH]5)C=C4)C=C3)cc1)C(=O)N1CC[C@@H]([NH+]2CCCCC2)C1
REMARK SMILES IDX 12 1 11 2 10 3 9 4 8 5 6 6 7 7 5 8 4 9 3 10 2 11 1 12 74 13
REMARK SMILES IDX 75 14 76 15 77 16 86 17 78 18 79 19 80 20 81 21 85 22 82 24
REMARK SMILES IDX 84 25 83 26 13 27 14 28 15 29 16 30 17 31 18 32 19 33 20 34
REMARK SMILES IDX 21 35 73 36 22 37 72 38 23 39 24 40 25 41 66 42 26 43 71 44
REMARK SMILES IDX 65 45 67 46 27 47 70 48 64 49 63 50 28 52 54 53 37 54 53 55
REMARK SMILES IDX 38 56 41 57 52 58 68 59 39 60 40 61 51 63 69 64 42 65 29 66
REMARK SMILES IDX 30 67 35 68 31 69 32 70 34 71 36 72 33 73 55 74 56 75 61 76
REMARK SMILES IDX 57 77 58 78 60 79 62 80 59 81 43 82 44 83 49 84 45 85 46 86
REMARK SMILES IDX 48 87 50 88 47 89
REMARK H PARENT 80 23 67 51 41 62
REMARK Flexibility Score: inf
ROOT
ATOM      1  C   UNL A   1      41.051  20.494  26.738  1.00  0.00     0.188 C 
ENDROOT
BRANCH   1   2
ATOM      2  O   UNL A   1      40.045  21.381  27.198  1.00  0.00    -0.376 OA
BRANCH   2   3
ATOM      3  C   UNL A   1      39.500  22.230  26.193  1.00  0.00     0.202 C 
BRANCH   3   4
ATOM      4  C   UNL A   1      38.015  21.974  25.888  1.00  0.00     0.261 C 
BRANCH   4   5
ATOM      5  O   UNL A   1      37.400  23.038  25.106  1.00  0.00    -0.462 OA
BRANCH   5   6
ATOM      6  C   UNL A   1      36.040  23.106  25.177  1.00  0.00     0.325 C 
ATOM      7  O   UNL A   1      35.428  23.551  26.146  1.00  0.00    -0.250 OA
BRANCH   6   8
ATOM      8  C   UNL A   1      35.278  22.531  23.970  1.00  0.00     0.244 C 
BRANCH   8   9
ATOM      9  N   UNL A   1      34.069  21.722  24.141  1.00  0.00    -0.310 N 
BRANCH   9  10
ATOM     10  C   UNL A   1      34.285  20.353  24.627  1.00  0.00     0.149 C 
BRANCH  10  11
ATOM     11  C   UNL A   1      32.979  19.713  25.026  1.00  0.00    -0.013 C 
ATOM     12  C   UNL A   1      32.895  18.581  25.745  1.00  0.00     0.006 C 
ENDBRANCH  10  11
ENDBRANCH   9  10
BRANCH   9  13
ATOM     13  C   UNL A   1      32.766  22.076  23.866  1.00  0.00     0.321 C 
ATOM     14  O   UNL A   1      32.173  21.531  22.926  1.00  0.00    -0.248 OA
BRANCH  13  15
ATOM     15  N   UNL A   1      32.100  23.045  24.581  1.00  0.00    -0.318 N 
ATOM     16  C   UNL A   1      32.045  23.392  25.981  1.00  0.00     0.128 C 
ATOM     17  C   UNL A   1      31.026  23.733  23.893  1.00  0.00     0.186 C 
ATOM     18  C   UNL A   1      31.131  24.607  26.111  1.00  0.00     0.088 C 
ATOM     19  C   UNL A   1      30.562  24.940  24.718  1.00  0.00     0.205 C 
BRANCH  19  20
ATOM     20  N   UNL A   1      30.767  26.365  24.468  1.00  0.00    -0.331 N 
ATOM     21  C   UNL A   1      30.031  27.222  23.571  1.00  0.00     0.262 C 
ATOM     22  C   UNL A   1      31.256  27.171  25.584  1.00  0.00     0.262 C 
ATOM     23  H   UNL A   1      31.444  26.000  23.798  1.00  0.00     0.348 HD
ATOM     24  C   UNL A   1      31.009  28.152  22.855  1.00  0.00     0.062 C 
ATOM     25  C   UNL A   1      32.459  27.910  25.032  1.00  0.00     0.062 C 
ATOM     26  C   UNL A   1      32.203  28.626  23.697  1.00  0.00     0.012 C 
ENDBRANCH  19  20
ENDBRANCH  13  15
ENDBRANCH   9  13
ENDBRANCH   8   9
ENDBRANCH   6   8
ENDBRANCH   5   6
ENDBRANCH   4   5
ENDBRANCH   3   4
ENDBRANCH   2   3
ENDBRANCH   1   2
BRANCH   1  27
ATOM     27  C   UNL A   1      42.281  21.134  26.073  1.00  0.00     0.188 C 
BRANCH  27  28
ATOM     28  O   UNL A   1      43.147  20.271  25.340  1.00  0.00    -0.376 OA
BRANCH  28  29
ATOM     29  C   UNL A   1      44.489  20.811  25.284  1.00  0.00     0.202 C 
BRANCH  29  30
ATOM     30  C   UNL A   1      44.556  22.268  24.774  1.00  0.00     0.261 C 
BRANCH  30  31
ATOM     31  O   UNL A   1      45.061  23.197  25.769  1.00  0.00    -0.460 OA
BRANCH  31  32
ATOM     32  C   UNL A   1      45.010  24.534  25.484  1.00  0.00     0.338 C 
ATOM     33  O   UNL A   1      45.633  25.110  24.624  1.00  0.00    -0.246 OA
BRANCH  32  34
ATOM     34  C   UNL A   1      44.231  25.243  26.556  1.00  0.00     0.060 A 
ATOM     35  C   UNL A   1      43.192  24.645  27.273  1.00  0.00     0.016 A 
ATOM     36  C   UNL A   1      44.584  26.558  26.878  1.00  0.00     0.016 A 
ATOM     37  C   UNL A   1      42.590  25.323  28.365  1.00  0.00     0.010 A 
ATOM     38  C   UNL A   1      44.018  27.216  27.993  1.00  0.00     0.010 A 
ATOM     39  C   UNL A   1      43.018  26.603  28.771  1.00  0.00    -0.014 A 
BRANCH  39  40
ATOM     40  C   UNL A   1      42.221  27.383  29.790  1.00  0.00     0.031 A 
ATOM     41  C   UNL A   1      42.769  27.349  31.191  1.00  0.00     0.074 A 
ATOM     42  C   UNL A   1      41.121  28.144  29.559  1.00  0.00     0.049 A 
ATOM     43  N   UNL A   1      42.442  28.071  32.230  1.00  0.00    -0.248 NA
ATOM     44  C   UNL A   1      43.847  26.377  31.441  1.00  0.00     0.031 C 
ATOM     45  C   UNL A   1      40.417  28.279  28.296  1.00  0.00     0.029 A 
ATOM     46  N   UNL A   1      40.390  28.978  30.390  1.00  0.00    -0.354 N 
ATOM     47  C   UNL A   1      43.326  27.693  33.228  1.00  0.00     0.074 A 
ATOM     48  C   UNL A   1      44.137  26.616  32.707  1.00  0.00     0.031 C 
ATOM     49  C   UNL A   1      39.396  29.144  28.401  1.00  0.00     0.029 A 
ATOM     50  C   UNL A   1      39.349  29.645  29.763  1.00  0.00     0.049 A 
ATOM     51  H   UNL A   1      40.592  29.087  31.346  1.00  0.00     0.167 HD
ATOM     52  C   UNL A   1      43.489  28.217  34.463  1.00  0.00     0.037 A 
ATOM     53  C   UNL A   1      38.465  30.562  30.212  1.00  0.00     0.037 A 
ATOM     54  C   UNL A   1      42.634  29.212  35.037  1.00  0.00     0.049 A 
ATOM     55  C   UNL A   1      38.577  31.025  31.641  1.00  0.00     0.074 A 
ATOM     56  C   UNL A   1      42.663  29.739  36.315  1.00  0.00     0.029 A 
ATOM     57  N   UNL A   1      41.570  29.807  34.377  1.00  0.00    -0.354 N 
ATOM     58  N   UNL A   1      39.480  30.716  32.538  1.00  0.00    -0.248 NA
ATOM     59  C   UNL A   1      37.558  31.973  32.118  1.00  0.00     0.031 C 
ATOM     60  C   UNL A   1      41.583  30.617  36.445  1.00  0.00     0.029 A 
ATOM     61  C   UNL A   1      40.921  30.681  35.229  1.00  0.00     0.049 A 
ATOM     62  H   UNL A   1      41.316  29.635  33.442  1.00  0.00     0.167 HD
ATOM     63  C   UNL A   1      39.164  31.462  33.667  1.00  0.00     0.074 A 
ATOM     64  C   UNL A   1      38.001  32.256  33.334  1.00  0.00     0.031 C 
ATOM     65  C   UNL A   1      39.778  31.482  34.874  1.00  0.00     0.037 A 
BRANCH  52  66
ATOM     66  C   UNL A   1      44.634  27.669  35.254  1.00  0.00     0.057 A 
ATOM     67  C   UNL A   1      44.464  26.564  36.102  1.00  0.00     0.134 A 
ATOM     68  C   UNL A   1      45.881  28.301  35.246  1.00  0.00     0.134 A 
ATOM     69  F   UNL A   1      43.277  25.943  36.180  1.00  0.00    -0.206 F 
ATOM     70  C   UNL A   1      45.488  26.129  36.942  1.00  0.00     0.040 A 
ATOM     71  C   UNL A   1      46.920  27.858  36.064  1.00  0.00     0.040 A 
ATOM     72  F   UNL A   1      46.097  29.373  34.470  1.00  0.00    -0.206 F 
ATOM     73  C   UNL A   1      46.721  26.777  36.923  1.00  0.00     0.006 A 
ENDBRANCH  52  66
BRANCH  53  74
ATOM     74  C   UNL A   1      37.390  31.140  29.338  1.00  0.00     0.057 A 
ATOM     75  C   UNL A   1      37.456  32.465  28.877  1.00  0.00     0.134 A 
ATOM     76  C   UNL A   1      36.212  30.436  29.054  1.00  0.00     0.134 A 
ATOM     77  F   UNL A   1      38.540  33.214  29.130  1.00  0.00    -0.206 F 
ATOM     78  C   UNL A   1      36.381  33.079  28.223  1.00  0.00     0.040 A 
ATOM     79  C   UNL A   1      35.142  31.027  28.372  1.00  0.00     0.040 A 
ATOM     80  F   UNL A   1      36.071  29.165  29.457  1.00  0.00    -0.206 F 
ATOM     81  C   UNL A   1      35.217  32.359  27.972  1.00  0.00     0.006 A 
ENDBRANCH  53  74
BRANCH  65  82
ATOM     82  C   UNL A   1      39.237  32.424  35.908  1.00  0.00     0.057 A 
ATOM     83  C   UNL A   1      38.287  32.024  36.856  1.00  0.00     0.134 A 
ATOM     84  C   UNL A   1      39.716  33.738  35.984  1.00  0.00     0.134 A 
ATOM     85  F   UNL A   1      37.779  30.783  36.829  1.00  0.00    -0.206 F 
ATOM     86  C   UNL A   1      37.814  32.906  37.828  1.00  0.00     0.040 A 
ATOM     87  C   UNL A   1      39.276  34.618  36.972  1.00  0.00     0.040 A 
ATOM     88  F   UNL A   1      40.633  34.181  35.111  1.00  0.00    -0.206 F 
ATOM     89  C   UNL A   1      38.317  34.204  37.894  1.00  0.00     0.006 A 
ENDBRANCH  65  82
ENDBRANCH  39  40
ENDBRANCH  32  34
ENDBRANCH  31  32
ENDBRANCH  30  31
ENDBRANCH  29  30
ENDBRANCH  28  29
ENDBRANCH  27  28
ENDBRANCH   1  27
TORSDOF 23
ENDMDL
MODEL 3
REMARK VINA RESULT:      -9.4      2.920      8.562
REMARK SMILES C=CCN(CC(=O)OCCOCCOCCOC(=O)c1ccc(-c2c3nc(c(-c4c(F)cccc4F)c4ccc([nH]4)c(-c4c(F)cccc4F)c4nc(c(-c5c(F)cccc5F)c5ccc2[nH]5)C=C4)C=C3)cc1)C(=O)N1CC[C@@H]([NH+]2CCCCC2)C1
REMARK SMILES IDX 12 1 11 2 10 3 9 4 8 5 6 6 7 7 5 8 4 9 3 10 2 11 1 12 74 13
REMARK SMILES IDX 75 14 76 15 77 16 86 17 78 18 79 19 80 20 81 21 85 22 82 24
REMARK SMILES IDX 84 25 83 26 13 27 14 28 15 29 16 30 17 31 18 32 19 33 20 34
REMARK SMILES IDX 21 35 73 36 22 37 72 38 23 39 24 40 25 41 66 42 26 43 71 44
REMARK SMILES IDX 65 45 67 46 27 47 70 48 64 49 63 50 28 52 54 53 37 54 53 55
REMARK SMILES IDX 38 56 41 57 52 58 68 59 39 60 40 61 51 63 69 64 42 65 29 66
REMARK SMILES IDX 30 67 35 68 31 69 32 70 34 71 36 72 33 73 55 74 56 75 61 76
REMARK SMILES IDX 57 77 58 78 60 79 62 80 59 81 43 82 44 83 49 84 45 85 46 86
REMARK SMILES IDX 48 87 50 88 47 89
REMARK H PARENT 80 23 67 51 41 62
REMARK Flexibility Score: inf
ROOT
ATOM      1  C   UNL A   1      39.107  22.542  26.851  1.00  0.00     0.188 C 
ENDROOT
BRANCH   1   2
ATOM      2  O   UNL A   1      38.681  23.744  26.232  1.00  0.00    -0.376 OA
BRANCH   2   3
ATOM      3  C   UNL A   1      37.800  23.561  25.128  1.00  0.00     0.202 C 
BRANCH   3   4
ATOM      4  C   UNL A   1      36.525  22.770  25.463  1.00  0.00     0.261 C 
BRANCH   4   5
ATOM      5  O   UNL A   1      35.951  22.092  24.309  1.00  0.00    -0.462 OA
BRANCH   5   6
ATOM      6  C   UNL A   1      34.873  22.707  23.744  1.00  0.00     0.325 C 
ATOM      7  O   UNL A   1      34.912  23.828  23.240  1.00  0.00    -0.250 OA
BRANCH   6   8
ATOM      8  C   UNL A   1      33.546  21.930  23.817  1.00  0.00     0.244 C 
BRANCH   8   9
ATOM      9  N   UNL A   1      32.821  21.767  25.079  1.00  0.00    -0.310 N 
BRANCH   9  10
ATOM     10  C   UNL A   1      33.213  20.607  25.890  1.00  0.00     0.149 C 
BRANCH  10  11
ATOM     11  C   UNL A   1      33.233  19.351  25.054  1.00  0.00    -0.013 C 
ATOM     12  C   UNL A   1      32.712  18.181  25.459  1.00  0.00     0.006 C 
ENDBRANCH  10  11
ENDBRANCH   9  10
BRANCH   9  13
ATOM     13  C   UNL A   1      31.797  22.544  25.576  1.00  0.00     0.321 C 
ATOM     14  O   UNL A   1      30.705  22.021  25.830  1.00  0.00    -0.248 OA
BRANCH  13  15
ATOM     15  N   UNL A   1      31.930  23.901  25.770  1.00  0.00    -0.318 N 
ATOM     16  C   UNL A   1      33.025  24.748  26.176  1.00  0.00     0.128 C 
ATOM     17  C   UNL A   1      30.703  24.666  25.844  1.00  0.00     0.186 C 
ATOM     18  C   UNL A   1      32.514  26.186  26.163  1.00  0.00     0.088 C 
ATOM     19  C   UNL A   1      31.016  26.167  25.802  1.00  0.00     0.205 C 
BRANCH  19  20
ATOM     20  N   UNL A   1      30.792  27.129  24.726  1.00  0.00    -0.331 N 
ATOM     21  C   UNL A   1      31.613  28.258  24.363  1.00  0.00     0.262 C 
ATOM     22  C   UNL A   1      30.119  26.639  23.526  1.00  0.00     0.262 C 
ATOM     23  H   UNL A   1      30.232  27.583  25.447  1.00  0.00     0.348 HD
ATOM     24  C   UNL A   1      30.711  29.445  24.027  1.00  0.00     0.062 C 
ATOM     25  C   UNL A   1      28.979  27.610  23.295  1.00  0.00     0.062 C 
ATOM     26  C   UNL A   1      29.392  29.090  23.325  1.00  0.00     0.012 C 
ENDBRANCH  19  20
ENDBRANCH  13  15
ENDBRANCH   9  13
ENDBRANCH   8   9
ENDBRANCH   6   8
ENDBRANCH   5   6
ENDBRANCH   4   5
ENDBRANCH   3   4
ENDBRANCH   2   3
ENDBRANCH   1   2
BRANCH   1  27
ATOM     27  C   UNL A   1      40.018  21.625  26.020  1.00  0.00     0.188 C 
BRANCH  27  28
ATOM     28  O   UNL A   1      40.518  20.452  26.658  1.00  0.00    -0.376 OA
BRANCH  28  29
ATOM     29  C   UNL A   1      41.963  20.483  26.740  1.00  0.00     0.202 C 
BRANCH  29  30
ATOM     30  C   UNL A   1      42.618  21.546  25.830  1.00  0.00     0.261 C 
BRANCH  30  31
ATOM     31  O   UNL A   1      43.136  22.686  26.566  1.00  0.00    -0.460 OA
BRANCH  31  32
ATOM     32  C   UNL A   1      43.036  23.921  25.989  1.00  0.00     0.338 C 
ATOM     33  O   UNL A   1      43.244  24.194  24.831  1.00  0.00    -0.246 OA
BRANCH  32  34
ATOM     34  C   UNL A   1      42.852  24.959  27.062  1.00  0.00     0.060 A 
ATOM     35  C   UNL A   1      43.674  26.081  27.193  1.00  0.00     0.016 A 
ATOM     36  C   UNL A   1      41.785  24.815  27.954  1.00  0.00     0.016 A 
ATOM     37  C   UNL A   1      43.363  27.092  28.139  1.00  0.00     0.010 A 
ATOM     38  C   UNL A   1      41.447  25.842  28.865  1.00  0.00     0.010 A 
ATOM     39  C   UNL A   1      42.223  27.012  28.964  1.00  0.00    -0.014 A 
BRANCH  39  40
ATOM     40  C   UNL A   1      42.037  27.987  30.102  1.00  0.00     0.031 A 
ATOM     41  C   UNL A   1      40.891  28.949  29.938  1.00  0.00     0.074 A 
ATOM     42  C   UNL A   1      42.747  28.040  31.258  1.00  0.00     0.049 A 
ATOM     43  N   UNL A   1      40.350  29.755  30.813  1.00  0.00    -0.248 NA
ATOM     44  C   UNL A   1      40.262  28.986  28.607  1.00  0.00     0.031 C 
ATOM     45  C   UNL A   1      43.907  27.234  31.593  1.00  0.00     0.029 A 
ATOM     46  N   UNL A   1      42.590  28.811  32.398  1.00  0.00    -0.354 N 
ATOM     47  C   UNL A   1      39.273  30.332  30.157  1.00  0.00     0.074 A 
ATOM     48  C   UNL A   1      39.292  29.862  28.791  1.00  0.00     0.031 C 
ATOM     49  C   UNL A   1      44.343  27.506  32.833  1.00  0.00     0.029 A 
ATOM     50  C   UNL A   1      43.494  28.531  33.410  1.00  0.00     0.049 A 
ATOM     51  H   UNL A   1      41.895  29.502  32.482  1.00  0.00     0.167 HD
ATOM     52  C   UNL A   1      38.319  31.151  30.651  1.00  0.00     0.037 A 
ATOM     53  C   UNL A   1      43.626  29.020  34.663  1.00  0.00     0.037 A 
ATOM     54  C   UNL A   1      38.335  31.710  31.968  1.00  0.00     0.049 A 
ATOM     55  C   UNL A   1      42.630  30.045  35.141  1.00  0.00     0.074 A 
ATOM     56  C   UNL A   1      37.461  32.623  32.528  1.00  0.00     0.029 A 
ATOM     57  N   UNL A   1      39.299  31.433  32.926  1.00  0.00    -0.354 N 
ATOM     58  N   UNL A   1      41.567  30.507  34.530  1.00  0.00    -0.248 NA
ATOM     59  C   UNL A   1      42.841  30.606  36.484  1.00  0.00     0.031 C 
ATOM     60  C   UNL A   1      37.926  32.939  33.808  1.00  0.00     0.029 A 
ATOM     61  C   UNL A   1      39.053  32.175  34.066  1.00  0.00     0.049 A 
ATOM     62  H   UNL A   1      40.046  30.801  32.811  1.00  0.00     0.167 HD
ATOM     63  C   UNL A   1      40.963  31.377  35.428  1.00  0.00     0.074 A 
ATOM     64  C   UNL A   1      41.763  31.360  36.634  1.00  0.00     0.031 C 
ATOM     65  C   UNL A   1      39.847  32.129  35.266  1.00  0.00     0.037 A 
BRANCH  52  66
ATOM     66  C   UNL A   1      37.206  31.490  29.709  1.00  0.00     0.057 A 
ATOM     67  C   UNL A   1      36.137  30.605  29.504  1.00  0.00     0.134 A 
ATOM     68  C   UNL A   1      37.249  32.653  28.935  1.00  0.00     0.134 A 
ATOM     69  F   UNL A   1      36.066  29.454  30.191  1.00  0.00    -0.206 F 
ATOM     70  C   UNL A   1      35.167  30.849  28.533  1.00  0.00     0.040 A 
ATOM     71  C   UNL A   1      36.270  32.920  27.978  1.00  0.00     0.040 A 
ATOM     72  F   UNL A   1      38.256  33.528  29.073  1.00  0.00    -0.206 F 
ATOM     73  C   UNL A   1      35.233  32.011  27.767  1.00  0.00     0.006 A 
ENDBRANCH  52  66
BRANCH  53  74
ATOM     74  C   UNL A   1      44.716  28.571  35.592  1.00  0.00     0.057 A 
ATOM     75  C   UNL A   1      46.003  29.129  35.534  1.00  0.00     0.134 A 
ATOM     76  C   UNL A   1      44.541  27.489  36.465  1.00  0.00     0.134 A 
ATOM     77  F   UNL A   1      46.258  30.151  34.704  1.00  0.00    -0.206 F 
ATOM     78  C   UNL A   1      47.077  28.597  36.257  1.00  0.00     0.040 A 
ATOM     79  C   UNL A   1      45.598  26.967  37.220  1.00  0.00     0.040 A 
ATOM     80  F   UNL A   1      43.341  26.901  36.582  1.00  0.00    -0.206 F 
ATOM     81  C   UNL A   1      46.876  27.509  37.102  1.00  0.00     0.006 A 
ENDBRANCH  53  74
BRANCH  65  82
ATOM     82  C   UNL A   1      39.398  32.958  36.433  1.00  0.00     0.057 A 
ATOM     83  C   UNL A   1      38.485  32.479  37.379  1.00  0.00     0.134 A 
ATOM     84  C   UNL A   1      39.932  34.237  36.635  1.00  0.00     0.134 A 
ATOM     85  F   UNL A   1      37.928  31.267  37.236  1.00  0.00    -0.206 F 
ATOM     86  C   UNL A   1      38.098  33.253  38.474  1.00  0.00     0.040 A 
ATOM     87  C   UNL A   1      39.579  35.007  37.744  1.00  0.00     0.040 A 
ATOM     88  F   UNL A   1      40.818  34.752  35.771  1.00  0.00    -0.206 F 
ATOM     89  C   UNL A   1      38.654  34.517  38.663  1.00  0.00     0.006 A 
ENDBRANCH  65  82
ENDBRANCH  39  40
ENDBRANCH  32  34
ENDBRANCH  31  32
ENDBRANCH  30  31
ENDBRANCH  29  30
ENDBRANCH  28  29
ENDBRANCH  27  28
ENDBRANCH   1  27
TORSDOF 23
ENDMDL
