MODEL 1
REMARK VINA RESULT:     -11.2      0.000      0.000
REMARK SMILES O=C(COc1ccc(/C=C2\SC(=O)N(Cc3cc4c(cc3Cl)OCO4)C2=O)cc1)OCCOCCOCCOC(=O)c1ccc(-c2c3nc(c(-c4c(F)cccc4F)c4ccc([nH]4)c(-c4c(F)cccc4F)c4nc(c(-c5c(F)cccc5F)c5ccc2[nH]5)C=C4)C=C3)cc1
REMARK SMILES IDX 33 1 32 2 31 3 30 4 2 5 1 6 3 7 4 8 5 9 6 10 29 11 7 12
REMARK SMILES IDX 28 13 8 14 9 15 10 16 11 17 26 18 12 19 14 20 27 21 13 22
REMARK SMILES IDX 15 23 16 24 17 25 21 26 18 27 20 28 22 29 19 30 25 31 23 32
REMARK SMILES IDX 24 33 34 34 35 35 36 36 37 37 38 38 39 39 40 40 41 41 42 42
REMARK SMILES IDX 43 43 95 44 44 45 94 46 45 47 46 48 47 49 88 50 48 51 93 52
REMARK SMILES IDX 87 53 89 54 49 55 92 56 86 57 85 58 50 60 76 61 59 62 75 63
REMARK SMILES IDX 60 64 63 65 74 66 90 67 61 68 62 69 73 71 91 72 64 73 51 74
REMARK SMILES IDX 52 75 57 76 53 77 54 78 56 79 58 80 55 81 77 82 78 83 83 84
REMARK SMILES IDX 79 85 80 86 82 87 84 88 81 89 65 90 66 91 71 92 67 93 68 94
REMARK SMILES IDX 70 95 72 96 69 97
REMARK H PARENT 89 59 63 70
REMARK Flexibility Score: inf
ROOT
ATOM      1  O   UNL A   1      32.394  29.040  23.938  1.00  0.00    -0.376 OA
ENDROOT
BRANCH   1   2
ATOM      2  C   UNL A   1      33.184  27.873  23.852  1.00  0.00     0.202 C 
BRANCH   2   3
ATOM      3  C   UNL A   1      33.401  27.381  22.427  1.00  0.00     0.261 C 
BRANCH   3   4
ATOM      4  O   UNL A   1      32.615  26.233  22.021  1.00  0.00    -0.461 OA
BRANCH   4   5
ATOM      5  C   UNL A   1      31.578  25.654  22.668  1.00  0.00     0.344 C 
ATOM      6  O   UNL A   1      30.516  26.266  22.781  1.00  0.00    -0.248 OA
BRANCH   5   7
ATOM      7  C   UNL A   1      31.771  24.285  23.323  1.00  0.00     0.351 C 
BRANCH   7   8
ATOM      8  O   UNL A   1      32.522  23.299  22.610  1.00  0.00    -0.482 OA
BRANCH   8   9
ATOM      9  C   UNL A   1      33.551  22.911  23.423  1.00  0.00     0.120 A 
ATOM     10  C   UNL A   1      33.312  21.927  24.377  1.00  0.00     0.047 A 
ATOM     11  C   UNL A   1      34.833  23.371  23.152  1.00  0.00     0.047 A 
ATOM     12  C   UNL A   1      34.399  21.286  24.966  1.00  0.00     0.012 A 
ATOM     13  C   UNL A   1      35.902  22.692  23.679  1.00  0.00     0.012 A 
ATOM     14  C   UNL A   1      35.694  21.648  24.582  1.00  0.00    -0.024 A 
BRANCH  14  15
ATOM     15  C   UNL A   1      36.870  20.885  24.967  1.00  0.00     0.029 C 
ATOM     16  C   UNL A   1      37.962  21.438  25.504  1.00  0.00     0.083 C 
ATOM     17  S   UNL A   1      38.200  22.999  26.188  1.00  0.00    -0.022 SA
ATOM     18  C   UNL A   1      39.197  20.657  25.635  1.00  0.00     0.268 C 
ATOM     19  C   UNL A   1      39.680  22.478  26.980  1.00  0.00     0.293 C 
ATOM     20  N   UNL A   1      39.925  21.172  26.669  1.00  0.00    -0.264 N 
ATOM     21  O   UNL A   1      39.514  19.753  24.878  1.00  0.00    -0.268 OA
ATOM     22  O   UNL A   1      40.349  23.216  27.686  1.00  0.00    -0.261 OA
BRANCH  20  23
ATOM     23  C   UNL A   1      40.902  20.366  27.359  1.00  0.00     0.167 C 
BRANCH  23  24
ATOM     24  C   UNL A   1      42.232  20.441  26.619  1.00  0.00    -0.005 A 
ATOM     25  C   UNL A   1      42.607  19.351  25.807  1.00  0.00     0.057 A 
ATOM     26  C   UNL A   1      43.088  21.578  26.661  1.00  0.00     0.050 A 
ATOM     27  C   UNL A   1      43.798  19.430  25.116  1.00  0.00     0.166 A 
ATOM     28  C   UNL A   1      44.226  21.671  25.857  1.00  0.00     0.071 A 
ATOM     29  Cl  UNL A   1      42.882  22.884  27.767  1.00  0.00    -0.084 Cl
ATOM     30  C   UNL A   1      44.569  20.568  25.121  1.00  0.00     0.167 A 
ATOM     31  O   UNL A   1      44.379  18.432  24.397  1.00  0.00    -0.454 OA
ATOM     32  O   UNL A   1      45.707  20.432  24.391  1.00  0.00    -0.454 OA
ATOM     33  C   UNL A   1      45.683  19.009  24.166  1.00  0.00     0.468 C 
ENDBRANCH  23  24
ENDBRANCH  20  23
ENDBRANCH  14  15
ENDBRANCH   8   9
ENDBRANCH   7   8
ENDBRANCH   5   7
ENDBRANCH   4   5
ENDBRANCH   3   4
ENDBRANCH   2   3
ENDBRANCH   1   2
BRANCH   1  34
ATOM     34  C   UNL A   1      31.432  29.114  24.973  1.00  0.00     0.188 C 
BRANCH  34  35
ATOM     35  C   UNL A   1      31.998  29.566  26.330  1.00  0.00     0.188 C 
BRANCH  35  36
ATOM     36  O   UNL A   1      32.515  30.881  26.502  1.00  0.00    -0.376 OA
BRANCH  36  37
ATOM     37  C   UNL A   1      31.658  31.943  26.886  1.00  0.00     0.202 C 
BRANCH  37  38
ATOM     38  C   UNL A   1      32.296  33.326  27.081  1.00  0.00     0.261 C 
BRANCH  38  39
ATOM     39  O   UNL A   1      32.184  33.882  28.407  1.00  0.00    -0.460 OA
BRANCH  39  40
ATOM     40  C   UNL A   1      33.285  34.522  28.873  1.00  0.00     0.338 C 
ATOM     41  O   UNL A   1      33.326  35.635  29.370  1.00  0.00    -0.246 OA
BRANCH  40  42
ATOM     42  C   UNL A   1      34.478  33.634  28.853  1.00  0.00     0.060 A 
ATOM     43  C   UNL A   1      34.331  32.338  29.368  1.00  0.00     0.016 A 
ATOM     44  C   UNL A   1      35.737  34.077  28.440  1.00  0.00     0.016 A 
ATOM     45  C   UNL A   1      35.446  31.520  29.563  1.00  0.00     0.010 A 
ATOM     46  C   UNL A   1      36.861  33.260  28.653  1.00  0.00     0.010 A 
ATOM     47  C   UNL A   1      36.728  32.005  29.277  1.00  0.00    -0.014 A 
BRANCH  47  48
ATOM     48  C   UNL A   1      37.902  31.331  29.902  1.00  0.00     0.031 A 
ATOM     49  C   UNL A   1      38.153  31.569  31.374  1.00  0.00     0.074 A 
ATOM     50  C   UNL A   1      38.691  30.470  29.232  1.00  0.00     0.049 A 
ATOM     51  N   UNL A   1      39.083  31.079  32.154  1.00  0.00    -0.248 NA
ATOM     52  C   UNL A   1      37.224  32.486  32.052  1.00  0.00     0.031 C 
ATOM     53  C   UNL A   1      38.543  30.100  27.827  1.00  0.00     0.029 A 
ATOM     54  N   UNL A   1      39.778  29.744  29.659  1.00  0.00    -0.354 N 
ATOM     55  C   UNL A   1      38.852  31.632  33.409  1.00  0.00     0.074 A 
ATOM     56  C   UNL A   1      37.722  32.522  33.278  1.00  0.00     0.031 C 
ATOM     57  C   UNL A   1      39.507  29.217  27.507  1.00  0.00     0.029 A 
ATOM     58  C   UNL A   1      40.351  28.973  28.677  1.00  0.00     0.049 A 
ATOM     59  H   UNL A   1      40.115  29.774  30.584  1.00  0.00     0.167 HD
ATOM     60  C   UNL A   1      39.510  31.413  34.573  1.00  0.00     0.037 A 
ATOM     61  C   UNL A   1      41.433  28.169  28.717  1.00  0.00     0.037 A 
ATOM     62  C   UNL A   1      40.631  30.525  34.722  1.00  0.00     0.049 A 
ATOM     63  C   UNL A   1      42.190  27.989  30.010  1.00  0.00     0.074 A 
ATOM     64  C   UNL A   1      41.349  30.229  35.869  1.00  0.00     0.029 A 
ATOM     65  N   UNL A   1      41.199  29.793  33.693  1.00  0.00    -0.354 N 
ATOM     66  N   UNL A   1      41.945  28.497  31.194  1.00  0.00    -0.248 NA
ATOM     67  C   UNL A   1      43.371  27.113  29.972  1.00  0.00     0.031 C 
ATOM     68  C   UNL A   1      42.384  29.354  35.521  1.00  0.00     0.029 A 
ATOM     69  C   UNL A   1      42.274  29.062  34.172  1.00  0.00     0.049 A 
ATOM     70  H   UNL A   1      40.885  29.792  32.760  1.00  0.00     0.167 HD
ATOM     71  C   UNL A   1      42.910  27.968  32.046  1.00  0.00     0.074 A 
ATOM     72  C   UNL A   1      43.742  27.096  31.245  1.00  0.00     0.031 C 
ATOM     73  C   UNL A   1      43.086  28.179  33.373  1.00  0.00     0.037 A 
BRANCH  60  74
ATOM     74  C   UNL A   1      39.044  32.179  35.779  1.00  0.00     0.057 A 
ATOM     75  C   UNL A   1      39.421  33.509  36.006  1.00  0.00     0.134 A 
ATOM     76  C   UNL A   1      38.193  31.579  36.716  1.00  0.00     0.134 A 
ATOM     77  F   UNL A   1      40.248  34.136  35.156  1.00  0.00    -0.206 F 
ATOM     78  C   UNL A   1      38.990  34.206  37.137  1.00  0.00     0.040 A 
ATOM     79  C   UNL A   1      37.732  32.275  37.834  1.00  0.00     0.040 A 
ATOM     80  F   UNL A   1      37.791  30.309  36.556  1.00  0.00    -0.206 F 
ATOM     81  C   UNL A   1      38.138  33.590  38.051  1.00  0.00     0.006 A 
ENDBRANCH  60  74
BRANCH  61  82
ATOM     82  C   UNL A   1      41.881  27.453  27.493  1.00  0.00     0.057 A 
ATOM     83  C   UNL A   1      43.014  27.869  26.781  1.00  0.00     0.134 A 
ATOM     84  C   UNL A   1      41.160  26.370  26.977  1.00  0.00     0.134 A 
ATOM     85  F   UNL A   1      43.729  28.921  27.206  1.00  0.00    -0.206 F 
ATOM     86  C   UNL A   1      43.399  27.251  25.590  1.00  0.00     0.040 A 
ATOM     87  C   UNL A   1      41.548  25.725  25.802  1.00  0.00     0.040 A 
ATOM     88  F   UNL A   1      40.063  25.925  27.607  1.00  0.00    -0.206 F 
ATOM     89  C   UNL A   1      42.667  26.171  25.099  1.00  0.00     0.006 A 
ENDBRANCH  61  82
BRANCH  73  90
ATOM     90  C   UNL A   1      44.180  27.412  34.062  1.00  0.00     0.057 A 
ATOM     91  C   UNL A   1      43.971  26.139  34.609  1.00  0.00     0.134 A 
ATOM     92  C   UNL A   1      45.473  27.945  34.150  1.00  0.00     0.134 A 
ATOM     93  F   UNL A   1      42.756  25.572  34.567  1.00  0.00    -0.206 F 
ATOM     94  C   UNL A   1      44.999  25.440  35.245  1.00  0.00     0.040 A 
ATOM     95  C   UNL A   1      46.515  27.244  34.757  1.00  0.00     0.040 A 
ATOM     96  F   UNL A   1      45.747  29.154  33.635  1.00  0.00    -0.206 F 
ATOM     97  C   UNL A   1      46.278  25.990  35.315  1.00  0.00     0.006 A 
ENDBRANCH  73  90
ENDBRANCH  47  48
ENDBRANCH  40  42
ENDBRANCH  39  40
ENDBRANCH  38  39
ENDBRANCH  37  38
ENDBRANCH  36  37
ENDBRANCH  35  36
ENDBRANCH  34  35
ENDBRANCH   1  34
TORSDOF 22
ENDMDL
MODEL 2
REMARK VINA RESULT:     -10.9      7.260     12.522
REMARK SMILES O=C(COc1ccc(/C=C2\SC(=O)N(Cc3cc4c(cc3Cl)OCO4)C2=O)cc1)OCCOCCOCCOC(=O)c1ccc(-c2c3nc(c(-c4c(F)cccc4F)c4ccc([nH]4)c(-c4c(F)cccc4F)c4nc(c(-c5c(F)cccc5F)c5ccc2[nH]5)C=C4)C=C3)cc1
REMARK SMILES IDX 33 1 32 2 31 3 30 4 2 5 1 6 3 7 4 8 5 9 6 10 29 11 7 12
REMARK SMILES IDX 28 13 8 14 9 15 10 16 11 17 26 18 12 19 14 20 27 21 13 22
REMARK SMILES IDX 15 23 16 24 17 25 21 26 18 27 20 28 22 29 19 30 25 31 23 32
REMARK SMILES IDX 24 33 34 34 35 35 36 36 37 37 38 38 39 39 40 40 41 41 42 42
REMARK SMILES IDX 43 43 95 44 44 45 94 46 45 47 46 48 47 49 88 50 48 51 93 52
REMARK SMILES IDX 87 53 89 54 49 55 92 56 86 57 85 58 50 60 76 61 59 62 75 63
REMARK SMILES IDX 60 64 63 65 74 66 90 67 61 68 62 69 73 71 91 72 64 73 51 74
REMARK SMILES IDX 52 75 57 76 53 77 54 78 56 79 58 80 55 81 77 82 78 83 83 84
REMARK SMILES IDX 79 85 80 86 82 87 84 88 81 89 65 90 66 91 71 92 67 93 68 94
REMARK SMILES IDX 70 95 72 96 69 97
REMARK H PARENT 89 59 63 70
REMARK Flexibility Score: inf
ROOT
ATOM      1  O   UNL A   1      44.450  21.261  23.974  1.00  0.00    -0.376 OA
ENDROOT
BRANCH   1   2
ATOM      2  C   UNL A   1      44.474  20.660  25.252  1.00  0.00     0.202 C 
BRANCH   2   3
ATOM      3  C   UNL A   1      43.640  19.390  25.349  1.00  0.00     0.261 C 
BRANCH   3   4
ATOM      4  O   UNL A   1      42.639  19.361  26.398  1.00  0.00    -0.461 OA
BRANCH   4   5
ATOM      5  C   UNL A   1      41.314  19.613  26.300  1.00  0.00     0.344 C 
ATOM      6  O   UNL A   1      40.609  18.884  25.602  1.00  0.00    -0.248 OA
BRANCH   5   7
ATOM      7  C   UNL A   1      40.731  20.848  26.987  1.00  0.00     0.351 C 
BRANCH   7   8
ATOM      8  O   UNL A   1      40.622  22.052  26.225  1.00  0.00    -0.482 OA
BRANCH   8   9
ATOM      9  C   UNL A   1      39.298  22.396  26.201  1.00  0.00     0.120 A 
ATOM     10  C   UNL A   1      38.935  23.681  26.593  1.00  0.00     0.047 A 
ATOM     11  C   UNL A   1      38.388  21.524  25.618  1.00  0.00     0.047 A 
ATOM     12  C   UNL A   1      37.669  24.151  26.256  1.00  0.00     0.012 A 
ATOM     13  C   UNL A   1      37.167  22.012  25.225  1.00  0.00     0.012 A 
ATOM     14  C   UNL A   1      36.802  23.323  25.536  1.00  0.00    -0.024 A 
BRANCH  14  15
ATOM     15  C   UNL A   1      35.564  23.803  24.948  1.00  0.00     0.029 C 
ATOM     16  C   UNL A   1      34.356  23.535  25.453  1.00  0.00     0.083 C 
ATOM     17  S   UNL A   1      33.905  22.913  26.993  1.00  0.00    -0.022 SA
ATOM     18  C   UNL A   1      33.147  23.835  24.679  1.00  0.00     0.268 C 
ATOM     19  C   UNL A   1      32.244  23.441  26.772  1.00  0.00     0.293 C 
ATOM     20  N   UNL A   1      32.114  24.032  25.549  1.00  0.00    -0.264 N 
ATOM     21  O   UNL A   1      33.101  23.828  23.458  1.00  0.00    -0.268 OA
ATOM     22  O   UNL A   1      31.377  23.274  27.617  1.00  0.00    -0.261 OA
BRANCH  20  23
ATOM     23  C   UNL A   1      30.960  24.806  25.164  1.00  0.00     0.167 C 
BRANCH  23  24
ATOM     24  C   UNL A   1      31.316  26.288  25.181  1.00  0.00    -0.005 A 
ATOM     25  C   UNL A   1      31.502  26.915  26.430  1.00  0.00     0.057 A 
ATOM     26  C   UNL A   1      31.527  27.056  24.001  1.00  0.00     0.050 A 
ATOM     27  C   UNL A   1      31.851  28.249  26.445  1.00  0.00     0.166 A 
ATOM     28  C   UNL A   1      31.994  28.371  24.054  1.00  0.00     0.071 A 
ATOM     29  Cl  UNL A   1      31.127  26.500  22.419  1.00  0.00    -0.084 Cl
ATOM     30  C   UNL A   1      32.115  28.946  25.291  1.00  0.00     0.167 A 
ATOM     31  O   UNL A   1      31.940  29.045  27.545  1.00  0.00    -0.454 OA
ATOM     32  O   UNL A   1      32.425  30.249  25.525  1.00  0.00    -0.454 OA
ATOM     33  C   UNL A   1      32.056  30.340  26.915  1.00  0.00     0.468 C 
ENDBRANCH  23  24
ENDBRANCH  20  23
ENDBRANCH  14  15
ENDBRANCH   8   9
ENDBRANCH   7   8
ENDBRANCH   5   7
ENDBRANCH   4   5
ENDBRANCH   3   4
ENDBRANCH   2   3
ENDBRANCH   1   2
BRANCH   1  34
ATOM     34  C   UNL A   1      44.544  22.671  23.903  1.00  0.00     0.188 C 
BRANCH  34  35
ATOM     35  C   UNL A   1      43.560  23.416  24.822  1.00  0.00     0.188 C 
BRANCH  35  36
ATOM     36  O   UNL A   1      43.335  24.813  24.669  1.00  0.00    -0.376 OA
BRANCH  36  37
ATOM     37  C   UNL A   1      44.082  25.746  25.431  1.00  0.00     0.202 C 
BRANCH  37  38
ATOM     38  C   UNL A   1      44.810  25.216  26.676  1.00  0.00     0.261 C 
BRANCH  38  39
ATOM     39  O   UNL A   1      45.261  26.221  27.607  1.00  0.00    -0.460 OA
BRANCH  39  40
ATOM     40  C   UNL A   1      46.593  26.481  27.593  1.00  0.00     0.338 C 
ATOM     41  O   UNL A   1      47.496  25.662  27.608  1.00  0.00    -0.246 OA
BRANCH  40  42
ATOM     42  C   UNL A   1      46.860  27.931  27.400  1.00  0.00     0.060 A 
ATOM     43  C   UNL A   1      47.531  28.609  28.429  1.00  0.00     0.016 A 
ATOM     44  C   UNL A   1      46.386  28.642  26.295  1.00  0.00     0.016 A 
ATOM     45  C   UNL A   1      47.642  30.002  28.406  1.00  0.00     0.010 A 
ATOM     46  C   UNL A   1      46.482  30.044  26.282  1.00  0.00     0.010 A 
ATOM     47  C   UNL A   1      47.051  30.735  27.369  1.00  0.00    -0.014 A 
BRANCH  47  48
ATOM     48  C   UNL A   1      46.777  32.184  27.586  1.00  0.00     0.031 A 
ATOM     49  C   UNL A   1      47.833  33.176  27.155  1.00  0.00     0.074 A 
ATOM     50  C   UNL A   1      45.608  32.639  28.074  1.00  0.00     0.049 A 
ATOM     51  N   UNL A   1      47.823  34.484  27.205  1.00  0.00    -0.248 NA
ATOM     52  C   UNL A   1      49.066  32.607  26.587  1.00  0.00     0.031 C 
ATOM     53  C   UNL A   1      44.477  31.811  28.484  1.00  0.00     0.029 A 
ATOM     54  N   UNL A   1      45.181  33.927  28.300  1.00  0.00    -0.354 N 
ATOM     55  C   UNL A   1      49.047  34.890  26.685  1.00  0.00     0.074 A 
ATOM     56  C   UNL A   1      49.787  33.693  26.359  1.00  0.00     0.031 C 
ATOM     57  C   UNL A   1      43.485  32.611  28.916  1.00  0.00     0.029 A 
ATOM     58  C   UNL A   1      43.916  34.007  28.830  1.00  0.00     0.049 A 
ATOM     59  H   UNL A   1      45.731  34.719  28.102  1.00  0.00     0.167 HD
ATOM     60  C   UNL A   1      49.513  36.146  26.479  1.00  0.00     0.037 A 
ATOM     61  C   UNL A   1      43.193  35.082  29.206  1.00  0.00     0.037 A 
ATOM     62  C   UNL A   1      48.785  37.347  26.789  1.00  0.00     0.049 A 
ATOM     63  C   UNL A   1      43.758  36.469  29.029  1.00  0.00     0.074 A 
ATOM     64  C   UNL A   1      49.174  38.663  26.600  1.00  0.00     0.029 A 
ATOM     65  N   UNL A   1      47.523  37.379  27.357  1.00  0.00    -0.354 N 
ATOM     66  N   UNL A   1      44.904  36.840  28.510  1.00  0.00    -0.248 NA
ATOM     67  C   UNL A   1      42.919  37.591  29.481  1.00  0.00     0.031 C 
ATOM     68  C   UNL A   1      48.164  39.492  27.101  1.00  0.00     0.029 A 
ATOM     69  C   UNL A   1      47.125  38.693  27.548  1.00  0.00     0.049 A 
ATOM     70  H   UNL A   1      46.988  36.587  27.592  1.00  0.00     0.167 HD
ATOM     71  C   UNL A   1      44.903  38.231  28.533  1.00  0.00     0.074 A 
ATOM     72  C   UNL A   1      43.641  38.640  29.112  1.00  0.00     0.031 C 
ATOM     73  C   UNL A   1      45.859  39.093  28.106  1.00  0.00     0.037 A 
BRANCH  60  74
ATOM     74  C   UNL A   1      50.898  36.280  25.914  1.00  0.00     0.057 A 
ATOM     75  C   UNL A   1      51.127  36.510  24.552  1.00  0.00     0.134 A 
ATOM     76  C   UNL A   1      52.018  36.192  26.752  1.00  0.00     0.134 A 
ATOM     77  F   UNL A   1      50.098  36.587  23.694  1.00  0.00    -0.206 F 
ATOM     78  C   UNL A   1      52.420  36.621  24.037  1.00  0.00     0.040 A 
ATOM     79  C   UNL A   1      53.314  36.331  26.254  1.00  0.00     0.040 A 
ATOM     80  F   UNL A   1      51.870  35.977  28.067  1.00  0.00    -0.206 F 
ATOM     81  C   UNL A   1      53.518  36.538  24.891  1.00  0.00     0.006 A 
ENDBRANCH  60  74
BRANCH  61  82
ATOM     82  C   UNL A   1      41.837  34.906  29.792  1.00  0.00     0.057 A 
ATOM     83  C   UNL A   1      41.666  34.520  31.128  1.00  0.00     0.134 A 
ATOM     84  C   UNL A   1      40.682  35.066  29.017  1.00  0.00     0.134 A 
ATOM     85  F   UNL A   1      42.734  34.318  31.914  1.00  0.00    -0.206 F 
ATOM     86  C   UNL A   1      40.400  34.279  31.665  1.00  0.00     0.040 A 
ATOM     87  C   UNL A   1      39.409  34.855  29.548  1.00  0.00     0.040 A 
ATOM     88  F   UNL A   1      40.776  35.429  27.729  1.00  0.00    -0.206 F 
ATOM     89  C   UNL A   1      39.265  34.451  30.875  1.00  0.00     0.006 A 
ENDBRANCH  61  82
BRANCH  73  90
ATOM     90  C   UNL A   1      45.558  40.564  28.188  1.00  0.00     0.057 A 
ATOM     91  C   UNL A   1      45.896  41.336  29.307  1.00  0.00     0.134 A 
ATOM     92  C   UNL A   1      44.950  41.224  27.111  1.00  0.00     0.134 A 
ATOM     93  F   UNL A   1      46.473  40.768  30.376  1.00  0.00    -0.206 F 
ATOM     94  C   UNL A   1      45.610  42.702  29.365  1.00  0.00     0.040 A 
ATOM     95  C   UNL A   1      44.686  42.593  27.146  1.00  0.00     0.040 A 
ATOM     96  F   UNL A   1      44.612  40.549  26.002  1.00  0.00    -0.206 F 
ATOM     97  C   UNL A   1      45.008  43.335  28.279  1.00  0.00     0.006 A 
ENDBRANCH  73  90
ENDBRANCH  47  48
ENDBRANCH  40  42
ENDBRANCH  39  40
ENDBRANCH  38  39
ENDBRANCH  37  38
ENDBRANCH  36  37
ENDBRANCH  35  36
ENDBRANCH  34  35
ENDBRANCH   1  34
TORSDOF 22
ENDMDL
MODEL 3
REMARK VINA RESULT:     -10.7      5.138     10.680
REMARK SMILES O=C(COc1ccc(/C=C2\SC(=O)N(Cc3cc4c(cc3Cl)OCO4)C2=O)cc1)OCCOCCOCCOC(=O)c1ccc(-c2c3nc(c(-c4c(F)cccc4F)c4ccc([nH]4)c(-c4c(F)cccc4F)c4nc(c(-c5c(F)cccc5F)c5ccc2[nH]5)C=C4)C=C3)cc1
REMARK SMILES IDX 33 1 32 2 31 3 30 4 2 5 1 6 3 7 4 8 5 9 6 10 29 11 7 12
REMARK SMILES IDX 28 13 8 14 9 15 10 16 11 17 26 18 12 19 14 20 27 21 13 22
REMARK SMILES IDX 15 23 16 24 17 25 21 26 18 27 20 28 22 29 19 30 25 31 23 32
REMARK SMILES IDX 24 33 34 34 35 35 36 36 37 37 38 38 39 39 40 40 41 41 42 42
REMARK SMILES IDX 43 43 95 44 44 45 94 46 45 47 46 48 47 49 88 50 48 51 93 52
REMARK SMILES IDX 87 53 89 54 49 55 92 56 86 57 85 58 50 60 76 61 59 62 75 63
REMARK SMILES IDX 60 64 63 65 74 66 90 67 61 68 62 69 73 71 91 72 64 73 51 74
REMARK SMILES IDX 52 75 57 76 53 77 54 78 56 79 58 80 55 81 77 82 78 83 83 84
REMARK SMILES IDX 79 85 80 86 82 87 84 88 81 89 65 90 66 91 71 92 67 93 68 94
REMARK SMILES IDX 70 95 72 96 69 97
REMARK H PARENT 89 59 63 70
REMARK Flexibility Score: inf
ROOT
ATOM      1  O   UNL A   1      44.540  21.315  24.071  1.00  0.00    -0.376 OA
ENDROOT
BRANCH   1   2
ATOM      2  C   UNL A   1      44.381  20.749  25.355  1.00  0.00     0.202 C 
BRANCH   2   3
ATOM      3  C   UNL A   1      43.594  19.446  25.359  1.00  0.00     0.261 C 
BRANCH   3   4
ATOM      4  O   UNL A   1      42.576  19.317  26.383  1.00  0.00    -0.461 OA
BRANCH   4   5
ATOM      5  C   UNL A   1      41.249  19.558  26.282  1.00  0.00     0.344 C 
ATOM      6  O   UNL A   1      40.543  18.792  25.626  1.00  0.00    -0.248 OA
BRANCH   5   7
ATOM      7  C   UNL A   1      40.664  20.823  26.911  1.00  0.00     0.351 C 
BRANCH   7   8
ATOM      8  O   UNL A   1      40.545  21.988  26.092  1.00  0.00    -0.482 OA
BRANCH   8   9
ATOM      9  C   UNL A   1      39.227  22.351  26.096  1.00  0.00     0.120 A 
ATOM     10  C   UNL A   1      38.882  23.602  26.599  1.00  0.00     0.047 A 
ATOM     11  C   UNL A   1      38.305  21.548  25.438  1.00  0.00     0.047 A 
ATOM     12  C   UNL A   1      37.624  24.119  26.304  1.00  0.00     0.012 A 
ATOM     13  C   UNL A   1      37.093  22.087  25.088  1.00  0.00     0.012 A 
ATOM     14  C   UNL A   1      36.746  23.371  25.513  1.00  0.00    -0.024 A 
BRANCH  14  15
ATOM     15  C   UNL A   1      35.516  23.920  24.967  1.00  0.00     0.029 C 
ATOM     16  C   UNL A   1      34.306  23.646  25.463  1.00  0.00     0.083 C 
ATOM     17  S   UNL A   1      33.849  22.933  26.960  1.00  0.00    -0.022 SA
ATOM     18  C   UNL A   1      33.099  24.027  24.720  1.00  0.00     0.268 C 
ATOM     19  C   UNL A   1      32.199  23.514  26.789  1.00  0.00     0.293 C 
ATOM     20  N   UNL A   1      32.077  24.190  25.609  1.00  0.00    -0.264 N 
ATOM     21  O   UNL A   1      33.047  24.103  23.502  1.00  0.00    -0.268 OA
ATOM     22  O   UNL A   1      31.334  23.311  27.626  1.00  0.00    -0.261 OA
BRANCH  20  23
ATOM     23  C   UNL A   1      30.940  25.015  25.286  1.00  0.00     0.167 C 
BRANCH  23  24
ATOM     24  C   UNL A   1      31.326  26.483  25.422  1.00  0.00    -0.005 A 
ATOM     25  C   UNL A   1      32.268  26.836  26.410  1.00  0.00     0.057 A 
ATOM     26  C   UNL A   1      30.827  27.507  24.568  1.00  0.00     0.050 A 
ATOM     27  C   UNL A   1      32.639  28.161  26.516  1.00  0.00     0.166 A 
ATOM     28  C   UNL A   1      31.312  28.815  24.628  1.00  0.00     0.071 A 
ATOM     29  Cl  UNL A   1      29.518  27.277  23.470  1.00  0.00    -0.084 Cl
ATOM     30  C   UNL A   1      32.193  29.114  25.633  1.00  0.00     0.167 A 
ATOM     31  O   UNL A   1      33.425  28.701  27.486  1.00  0.00    -0.454 OA
ATOM     32  O   UNL A   1      32.663  30.356  25.923  1.00  0.00    -0.454 OA
ATOM     33  C   UNL A   1      33.217  30.108  27.230  1.00  0.00     0.468 C 
ENDBRANCH  23  24
ENDBRANCH  20  23
ENDBRANCH  14  15
ENDBRANCH   8   9
ENDBRANCH   7   8
ENDBRANCH   5   7
ENDBRANCH   4   5
ENDBRANCH   3   4
ENDBRANCH   2   3
ENDBRANCH   1   2
BRANCH   1  34
ATOM     34  C   UNL A   1      44.764  22.709  23.984  1.00  0.00     0.188 C 
BRANCH  34  35
ATOM     35  C   UNL A   1      43.653  23.567  24.614  1.00  0.00     0.188 C 
BRANCH  35  36
ATOM     36  O   UNL A   1      43.710  24.988  24.558  1.00  0.00    -0.376 OA
BRANCH  36  37
ATOM     37  C   UNL A   1      43.213  25.767  25.633  1.00  0.00     0.202 C 
BRANCH  37  38
ATOM     38  C   UNL A   1      41.711  25.672  25.935  1.00  0.00     0.261 C 
BRANCH  38  39
ATOM     39  O   UNL A   1      41.145  26.798  26.637  1.00  0.00    -0.460 OA
BRANCH  39  40
ATOM     40  C   UNL A   1      40.675  26.541  27.883  1.00  0.00     0.338 C 
ATOM     41  O   UNL A   1      39.506  26.453  28.218  1.00  0.00    -0.246 OA
BRANCH  40  42
ATOM     42  C   UNL A   1      41.781  26.215  28.823  1.00  0.00     0.060 A 
ATOM     43  C   UNL A   1      42.333  27.270  29.565  1.00  0.00     0.016 A 
ATOM     44  C   UNL A   1      42.339  24.938  28.912  1.00  0.00     0.016 A 
ATOM     45  C   UNL A   1      43.496  27.077  30.315  1.00  0.00     0.010 A 
ATOM     46  C   UNL A   1      43.519  24.749  29.653  1.00  0.00     0.010 A 
ATOM     47  C   UNL A   1      44.139  25.834  30.303  1.00  0.00    -0.014 A 
BRANCH  47  48
ATOM     48  C   UNL A   1      45.573  25.767  30.707  1.00  0.00     0.031 A 
ATOM     49  C   UNL A   1      45.893  25.263  32.096  1.00  0.00     0.074 A 
ATOM     50  C   UNL A   1      46.581  26.063  29.867  1.00  0.00     0.049 A 
ATOM     51  N   UNL A   1      47.054  25.082  32.673  1.00  0.00    -0.248 NA
ATOM     52  C   UNL A   1      44.741  24.914  32.943  1.00  0.00     0.031 C 
ATOM     53  C   UNL A   1      46.433  26.511  28.485  1.00  0.00     0.029 A 
ATOM     54  N   UNL A   1      47.942  26.021  30.062  1.00  0.00    -0.354 N 
ATOM     55  C   UNL A   1      46.770  24.607  33.949  1.00  0.00     0.074 A 
ATOM     56  C   UNL A   1      45.331  24.563  34.074  1.00  0.00     0.031 C 
ATOM     57  C   UNL A   1      47.655  26.707  27.957  1.00  0.00     0.029 A 
ATOM     58  C   UNL A   1      48.673  26.416  28.968  1.00  0.00     0.049 A 
ATOM     59  H   UNL A   1      48.355  25.735  30.909  1.00  0.00     0.167 HD
ATOM     60  C   UNL A   1      47.625  24.226  34.929  1.00  0.00     0.037 A 
ATOM     61  C   UNL A   1      50.006  26.532  28.803  1.00  0.00     0.037 A 
ATOM     62  C   UNL A   1      49.058  24.255  34.817  1.00  0.00     0.049 A 
ATOM     63  C   UNL A   1      50.939  26.163  29.930  1.00  0.00     0.074 A 
ATOM     64  C   UNL A   1      50.003  23.872  35.754  1.00  0.00     0.029 A 
ATOM     65  N   UNL A   1      49.753  24.695  33.703  1.00  0.00    -0.354 N 
ATOM     66  N   UNL A   1      50.658  25.691  31.121  1.00  0.00    -0.248 NA
ATOM     67  C   UNL A   1      52.379  26.336  29.683  1.00  0.00     0.031 C 
ATOM     68  C   UNL A   1      51.272  24.129  35.224  1.00  0.00     0.029 A 
ATOM     69  C   UNL A   1      51.117  24.616  33.937  1.00  0.00     0.049 A 
ATOM     70  H   UNL A   1      49.340  25.017  32.870  1.00  0.00     0.167 HD
ATOM     71  C   UNL A   1      51.882  25.468  31.744  1.00  0.00     0.074 A 
ATOM     72  C   UNL A   1      52.909  25.854  30.799  1.00  0.00     0.031 C 
ATOM     73  C   UNL A   1      52.134  24.982  32.984  1.00  0.00     0.037 A 
BRANCH  60  74
ATOM     74  C   UNL A   1      47.022  23.770  36.227  1.00  0.00     0.057 A 
ATOM     75  C   UNL A   1      46.869  24.633  37.320  1.00  0.00     0.134 A 
ATOM     76  C   UNL A   1      46.573  22.451  36.377  1.00  0.00     0.134 A 
ATOM     77  F   UNL A   1      47.295  25.903  37.247  1.00  0.00    -0.206 F 
ATOM     78  C   UNL A   1      46.317  24.194  38.525  1.00  0.00     0.040 A 
ATOM     79  C   UNL A   1      45.993  22.009  37.567  1.00  0.00     0.040 A 
ATOM     80  F   UNL A   1      46.686  21.575  35.369  1.00  0.00    -0.206 F 
ATOM     81  C   UNL A   1      45.872  22.879  38.648  1.00  0.00     0.006 A 
ENDBRANCH  60  74
BRANCH  61  82
ATOM     82  C   UNL A   1      50.563  27.018  27.512  1.00  0.00     0.057 A 
ATOM     83  C   UNL A   1      50.811  28.380  27.294  1.00  0.00     0.134 A 
ATOM     84  C   UNL A   1      50.810  26.142  26.449  1.00  0.00     0.134 A 
ATOM     85  F   UNL A   1      50.564  29.274  28.262  1.00  0.00    -0.206 F 
ATOM     86  C   UNL A   1      51.261  28.854  26.060  1.00  0.00     0.040 A 
ATOM     87  C   UNL A   1      51.286  26.598  25.219  1.00  0.00     0.040 A 
ATOM     88  F   UNL A   1      50.589  24.826  26.591  1.00  0.00    -0.206 F 
ATOM     89  C   UNL A   1      51.505  27.960  25.019  1.00  0.00     0.006 A 
ENDBRANCH  61  82
BRANCH  73  90
ATOM     90  C   UNL A   1      53.571  24.777  33.375  1.00  0.00     0.057 A 
ATOM     91  C   UNL A   1      54.318  25.767  34.028  1.00  0.00     0.134 A 
ATOM     92  C   UNL A   1      54.206  23.554  33.122  1.00  0.00     0.134 A 
ATOM     93  F   UNL A   1      53.775  26.964  34.294  1.00  0.00    -0.206 F 
ATOM     94  C   UNL A   1      55.652  25.559  34.384  1.00  0.00     0.040 A 
ATOM     95  C   UNL A   1      55.530  23.324  33.500  1.00  0.00     0.040 A 
ATOM     96  F   UNL A   1      53.547  22.557  32.513  1.00  0.00    -0.206 F 
ATOM     97  C   UNL A   1      56.260  24.332  34.126  1.00  0.00     0.006 A 
ENDBRANCH  73  90
ENDBRANCH  47  48
ENDBRANCH  40  42
ENDBRANCH  39  40
ENDBRANCH  38  39
ENDBRANCH  37  38
ENDBRANCH  36  37
ENDBRANCH  35  36
ENDBRANCH  34  35
ENDBRANCH   1  34
TORSDOF 22
ENDMDL
