MODEL 1
REMARK VINA RESULT:     -11.2      0.000      0.000
REMARK SMILES CC1=C(C(=O)OCCOCCOCCOC(=O)c2ccc(-c3c4nc(c(-c5c(F)cccc5F)c5ccc([nH]5)c(-c5c(F)cccc5F)c5nc(c(-c6c(F)cccc6F)c6ccc3[nH]6)C=C5)C=C4)cc2)N2C(=O)[C@@H](NC(=O)c3c(Br)c(C)nn3C)[C@H]2SC1
REMARK SMILES IDX 10 1 9 2 8 3 7 4 6 5 4 6 5 7 3 8 1 9 2 10 89 11 72 12 88 13
REMARK SMILES IDX 73 14 87 15 74 16 75 17 76 18 77 19 78 21 79 22 80 23 85 24
REMARK SMILES IDX 81 25 82 26 84 27 86 28 83 29 11 30 12 31 13 32 14 33 15 34
REMARK SMILES IDX 16 35 17 36 18 37 19 38 71 39 20 40 70 41 21 42 22 43 23 44
REMARK SMILES IDX 64 45 24 46 69 47 63 48 65 49 25 50 68 51 62 52 61 53 26 55
REMARK SMILES IDX 52 56 35 57 51 58 36 59 39 60 50 61 66 62 37 63 38 64 49 66
REMARK SMILES IDX 67 67 40 68 27 69 28 70 33 71 29 72 30 73 32 74 34 75 31 76
REMARK SMILES IDX 53 77 54 78 59 79 55 80 56 81 58 82 60 83 57 84 41 85 42 86
REMARK SMILES IDX 47 87 43 88 44 89 46 90 48 91 45 92
REMARK H PARENT 76 20 65 54 39 65
REMARK Flexibility Score: inf
ROOT
ATOM      1  C   UNL A   1      34.079  32.260  28.510  1.00  0.00     0.188 C 
ENDROOT
BRANCH   1   2
ATOM      2  O   UNL A   1      34.628  31.011  28.118  1.00  0.00    -0.376 OA
BRANCH   2   3
ATOM      3  C   UNL A   1      33.824  30.130  27.336  1.00  0.00     0.202 C 
BRANCH   3   4
ATOM      4  C   UNL A   1      32.819  30.780  26.389  1.00  0.00     0.261 C 
BRANCH   4   5
ATOM      5  O   UNL A   1      31.857  29.806  25.949  1.00  0.00    -0.459 OA
BRANCH   5   6
ATOM      6  C   UNL A   1      32.116  29.252  24.743  1.00  0.00     0.355 C 
ATOM      7  O   UNL A   1      33.164  29.350  24.119  1.00  0.00    -0.244 OA
BRANCH   6   8
ATOM      8  C   UNL A   1      30.985  28.385  24.268  1.00  0.00     0.131 C 
ATOM      9  C   UNL A   1      29.583  30.255  23.297  1.00  0.00     0.043 C 
ATOM     10  C   UNL A   1      29.863  28.815  23.645  1.00  0.00    -0.032 C 
ATOM     11  C   UNL A   1      28.728  27.886  23.225  1.00  0.00     0.105 C 
ATOM     12  N   UNL A   1      31.196  27.054  24.433  1.00  0.00    -0.289 N 
ATOM     13  S   UNL A   1      28.747  26.241  24.021  1.00  0.00    -0.129 SA
ATOM     14  C   UNL A   1      31.674  26.303  25.446  1.00  0.00     0.253 C 
ATOM     15  C   UNL A   1      30.518  25.998  23.724  1.00  0.00     0.181 C 
ATOM     16  O   UNL A   1      32.092  26.584  26.541  1.00  0.00    -0.272 OA
ATOM     17  C   UNL A   1      31.299  25.008  24.648  1.00  0.00     0.206 C 
BRANCH  17  18
ATOM     18  N   UNL A   1      30.534  23.971  25.373  1.00  0.00    -0.336 N 
ATOM     19  C   UNL A   1      30.909  22.674  25.648  1.00  0.00     0.271 C 
ATOM     20  H   UNL A   1      29.647  24.242  25.700  1.00  0.00     0.164 HD
ATOM     21  O   UNL A   1      30.061  21.936  26.143  1.00  0.00    -0.267 OA
BRANCH  19  22
ATOM     22  C   UNL A   1      32.236  22.232  25.299  1.00  0.00     0.140 A 
ATOM     23  C   UNL A   1      33.364  22.160  26.092  1.00  0.00     0.071 A 
ATOM     24  N   UNL A   1      32.699  21.889  24.053  1.00  0.00    -0.262 N 
ATOM     25  Br  UNL A   1      33.529  22.564  27.915  1.00  0.00    -0.046 Br
ATOM     26  C   UNL A   1      34.409  21.677  25.279  1.00  0.00     0.074 A 
ATOM     27  N   UNL A   1      33.973  21.452  24.036  1.00  0.00    -0.177 NA
ATOM     28  C   UNL A   1      32.012  21.951  22.788  1.00  0.00     0.174 C 
ATOM     29  C   UNL A   1      35.825  21.399  25.618  1.00  0.00     0.070 C 
ENDBRANCH  19  22
ENDBRANCH  17  18
ENDBRANCH   6   8
ENDBRANCH   5   6
ENDBRANCH   4   5
ENDBRANCH   3   4
ENDBRANCH   2   3
ENDBRANCH   1   2
BRANCH   1  30
ATOM     30  C   UNL A   1      34.958  33.527  28.469  1.00  0.00     0.188 C 
BRANCH  30  31
ATOM     31  O   UNL A   1      34.645  34.660  29.265  1.00  0.00    -0.376 OA
BRANCH  31  32
ATOM     32  C   UNL A   1      34.090  34.466  30.559  1.00  0.00     0.202 C 
BRANCH  32  33
ATOM     33  C   UNL A   1      35.021  34.109  31.716  1.00  0.00     0.261 C 
BRANCH  33  34
ATOM     34  O   UNL A   1      35.089  32.699  31.976  1.00  0.00    -0.460 OA
BRANCH  34  35
ATOM     35  C   UNL A   1      36.094  32.317  32.799  1.00  0.00     0.338 C 
ATOM     36  O   UNL A   1      36.155  32.445  34.010  1.00  0.00    -0.246 OA
BRANCH  35  37
ATOM     37  C   UNL A   1      37.089  31.548  32.031  1.00  0.00     0.060 A 
ATOM     38  C   UNL A   1      38.134  30.935  32.734  1.00  0.00     0.016 A 
ATOM     39  C   UNL A   1      37.032  31.487  30.637  1.00  0.00     0.016 A 
ATOM     40  C   UNL A   1      39.148  30.280  32.038  1.00  0.00     0.010 A 
ATOM     41  C   UNL A   1      38.062  30.852  29.940  1.00  0.00     0.010 A 
ATOM     42  C   UNL A   1      39.137  30.274  30.637  1.00  0.00    -0.014 A 
BRANCH  42  43
ATOM     43  C   UNL A   1      40.332  29.803  29.902  1.00  0.00     0.031 A 
ATOM     44  C   UNL A   1      41.496  30.735  29.741  1.00  0.00     0.074 A 
ATOM     45  C   UNL A   1      40.376  28.569  29.376  1.00  0.00     0.049 A 
ATOM     46  N   UNL A   1      42.637  30.539  29.135  1.00  0.00    -0.248 NA
ATOM     47  C   UNL A   1      41.339  32.081  30.316  1.00  0.00     0.031 C 
ATOM     48  C   UNL A   1      39.295  27.593  29.434  1.00  0.00     0.029 A 
ATOM     49  N   UNL A   1      41.378  27.928  28.691  1.00  0.00    -0.354 N 
ATOM     50  C   UNL A   1      43.322  31.741  29.228  1.00  0.00     0.074 A 
ATOM     51  C   UNL A   1      42.469  32.662  29.948  1.00  0.00     0.031 C 
ATOM     52  C   UNL A   1      39.704  26.462  28.835  1.00  0.00     0.029 A 
ATOM     53  C   UNL A   1      41.075  26.630  28.364  1.00  0.00     0.049 A 
ATOM     54  H   UNL A   1      42.231  28.358  28.457  1.00  0.00     0.167 HD
ATOM     55  C   UNL A   1      44.545  32.056  28.739  1.00  0.00     0.037 A 
ATOM     56  C   UNL A   1      41.827  25.684  27.770  1.00  0.00     0.037 A 
ATOM     57  C   UNL A   1      45.389  31.142  28.015  1.00  0.00     0.049 A 
ATOM     58  C   UNL A   1      43.201  26.045  27.272  1.00  0.00     0.074 A 
ATOM     59  C   UNL A   1      46.647  31.366  27.485  1.00  0.00     0.029 A 
ATOM     60  N   UNL A   1      45.055  29.830  27.715  1.00  0.00    -0.354 N 
ATOM     61  N   UNL A   1      43.850  27.179  27.380  1.00  0.00    -0.248 NA
ATOM     62  C   UNL A   1      43.931  25.004  26.534  1.00  0.00     0.031 C 
ATOM     63  C   UNL A   1      47.056  30.201  26.827  1.00  0.00     0.029 A 
ATOM     64  C   UNL A   1      46.073  29.239  26.986  1.00  0.00     0.049 A 
ATOM     65  H   UNL A   1      44.218  29.385  27.981  1.00  0.00     0.167 HD
ATOM     66  C   UNL A   1      45.058  26.991  26.721  1.00  0.00     0.074 A 
ATOM     67  C   UNL A   1      45.068  25.622  26.247  1.00  0.00     0.031 C 
ATOM     68  C   UNL A   1      46.062  27.879  26.512  1.00  0.00     0.037 A 
BRANCH  55  69
ATOM     69  C   UNL A   1      45.008  33.468  28.927  1.00  0.00     0.057 A 
ATOM     70  C   UNL A   1      44.703  34.479  28.008  1.00  0.00     0.134 A 
ATOM     71  C   UNL A   1      45.780  33.817  30.043  1.00  0.00     0.134 A 
ATOM     72  F   UNL A   1      43.986  34.204  26.909  1.00  0.00    -0.206 F 
ATOM     73  C   UNL A   1      45.170  35.783  28.179  1.00  0.00     0.040 A 
ATOM     74  C   UNL A   1      46.233  35.122  30.237  1.00  0.00     0.040 A 
ATOM     75  F   UNL A   1      46.109  32.895  30.960  1.00  0.00    -0.206 F 
ATOM     76  C   UNL A   1      45.934  36.108  29.299  1.00  0.00     0.006 A 
ENDBRANCH  55  69
BRANCH  56  77
ATOM     77  C   UNL A   1      41.319  24.296  27.634  1.00  0.00     0.057 A 
ATOM     78  C   UNL A   1      41.833  23.267  28.434  1.00  0.00     0.134 A 
ATOM     79  C   UNL A   1      40.326  23.957  26.708  1.00  0.00     0.134 A 
ATOM     80  F   UNL A   1      42.811  23.522  29.316  1.00  0.00    -0.206 F 
ATOM     81  C   UNL A   1      41.385  21.951  28.310  1.00  0.00     0.040 A 
ATOM     82  C   UNL A   1      39.851  22.649  26.591  1.00  0.00     0.040 A 
ATOM     83  F   UNL A   1      39.793  24.896  25.913  1.00  0.00    -0.206 F 
ATOM     84  C   UNL A   1      40.386  21.641  27.390  1.00  0.00     0.006 A 
ENDBRANCH  56  77
BRANCH  68  85
ATOM     85  C   UNL A   1      47.248  27.399  25.728  1.00  0.00     0.057 A 
ATOM     86  C   UNL A   1      47.328  27.572  24.340  1.00  0.00     0.134 A 
ATOM     87  C   UNL A   1      48.340  26.805  26.372  1.00  0.00     0.134 A 
ATOM     88  F   UNL A   1      46.310  28.125  23.663  1.00  0.00    -0.206 F 
ATOM     89  C   UNL A   1      48.446  27.151  23.617  1.00  0.00     0.040 A 
ATOM     90  C   UNL A   1      49.473  26.402  25.663  1.00  0.00     0.040 A 
ATOM     91  F   UNL A   1      48.329  26.620  27.701  1.00  0.00    -0.206 F 
ATOM     92  C   UNL A   1      49.526  26.570  24.281  1.00  0.00     0.006 A 
ENDBRANCH  68  85
ENDBRANCH  42  43
ENDBRANCH  35  37
ENDBRANCH  34  35
ENDBRANCH  33  34
ENDBRANCH  32  33
ENDBRANCH  31  32
ENDBRANCH  30  31
ENDBRANCH   1  30
TORSDOF 19
ENDMDL
MODEL 2
REMARK VINA RESULT:     -10.5      4.937      9.883
REMARK SMILES CC1=C(C(=O)OCCOCCOCCOC(=O)c2ccc(-c3c4nc(c(-c5c(F)cccc5F)c5ccc([nH]5)c(-c5c(F)cccc5F)c5nc(c(-c6c(F)cccc6F)c6ccc3[nH]6)C=C5)C=C4)cc2)N2C(=O)[C@@H](NC(=O)c3c(Br)c(C)nn3C)[C@H]2SC1
REMARK SMILES IDX 10 1 9 2 8 3 7 4 6 5 4 6 5 7 3 8 1 9 2 10 89 11 72 12 88 13
REMARK SMILES IDX 73 14 87 15 74 16 75 17 76 18 77 19 78 21 79 22 80 23 85 24
REMARK SMILES IDX 81 25 82 26 84 27 86 28 83 29 11 30 12 31 13 32 14 33 15 34
REMARK SMILES IDX 16 35 17 36 18 37 19 38 71 39 20 40 70 41 21 42 22 43 23 44
REMARK SMILES IDX 64 45 24 46 69 47 63 48 65 49 25 50 68 51 62 52 61 53 26 55
REMARK SMILES IDX 52 56 35 57 51 58 36 59 39 60 50 61 66 62 37 63 38 64 49 66
REMARK SMILES IDX 67 67 40 68 27 69 28 70 33 71 29 72 30 73 32 74 34 75 31 76
REMARK SMILES IDX 53 77 54 78 59 79 55 80 56 81 58 82 60 83 57 84 41 85 42 86
REMARK SMILES IDX 47 87 43 88 44 89 46 90 48 91 45 92
REMARK H PARENT 76 20 65 54 39 65
REMARK Flexibility Score: inf
ROOT
ATOM      1  C   UNL A   1      40.453  22.048  27.210  1.00  0.00     0.188 C 
ENDROOT
BRANCH   1   2
ATOM      2  O   UNL A   1      39.697  23.234  27.018  1.00  0.00    -0.376 OA
BRANCH   2   3
ATOM      3  C   UNL A   1      38.565  23.185  26.152  1.00  0.00     0.202 C 
BRANCH   3   4
ATOM      4  C   UNL A   1      38.083  21.800  25.733  1.00  0.00     0.261 C 
BRANCH   4   5
ATOM      5  O   UNL A   1      36.645  21.761  25.723  1.00  0.00    -0.459 OA
BRANCH   5   6
ATOM      6  C   UNL A   1      36.106  20.737  25.022  1.00  0.00     0.355 C 
ATOM      7  O   UNL A   1      36.634  19.653  24.817  1.00  0.00    -0.244 OA
BRANCH   6   8
ATOM      8  C   UNL A   1      34.700  21.034  24.587  1.00  0.00     0.131 C 
ATOM      9  C   UNL A   1      33.713  18.809  25.278  1.00  0.00     0.043 C 
ATOM     10  C   UNL A   1      33.645  20.192  24.680  1.00  0.00    -0.032 C 
ATOM     11  C   UNL A   1      32.247  20.538  24.179  1.00  0.00     0.105 C 
ATOM     12  N   UNL A   1      34.512  22.302  24.140  1.00  0.00    -0.289 N 
ATOM     13  S   UNL A   1      32.173  21.955  23.026  1.00  0.00    -0.129 SA
ATOM     14  C   UNL A   1      35.203  23.113  23.313  1.00  0.00     0.253 C 
ATOM     15  C   UNL A   1      33.247  22.988  24.056  1.00  0.00     0.181 C 
ATOM     16  O   UNL A   1      36.239  22.973  22.712  1.00  0.00    -0.272 OA
ATOM     17  C   UNL A   1      34.034  24.155  23.376  1.00  0.00     0.206 C 
BRANCH  17  18
ATOM     18  N   UNL A   1      33.536  24.682  22.088  1.00  0.00    -0.336 N 
ATOM     19  C   UNL A   1      32.626  25.697  21.879  1.00  0.00     0.271 C 
ATOM     20  H   UNL A   1      33.899  24.256  21.279  1.00  0.00     0.164 HD
ATOM     21  O   UNL A   1      32.245  25.881  20.725  1.00  0.00    -0.267 OA
BRANCH  19  22
ATOM     22  C   UNL A   1      32.129  26.444  23.005  1.00  0.00     0.140 A 
ATOM     23  C   UNL A   1      32.650  27.582  23.591  1.00  0.00     0.071 A 
ATOM     24  N   UNL A   1      31.077  26.116  23.825  1.00  0.00    -0.262 N 
ATOM     25  Br  UNL A   1      34.157  28.569  23.072  1.00  0.00    -0.046 Br
ATOM     26  C   UNL A   1      31.803  27.915  24.668  1.00  0.00     0.074 A 
ATOM     27  N   UNL A   1      30.798  27.040  24.765  1.00  0.00    -0.177 NA
ATOM     28  C   UNL A   1      30.262  24.929  23.811  1.00  0.00     0.174 C 
ATOM     29  C   UNL A   1      31.885  29.043  25.627  1.00  0.00     0.070 C 
ENDBRANCH  19  22
ENDBRANCH  17  18
ENDBRANCH   6   8
ENDBRANCH   5   6
ENDBRANCH   4   5
ENDBRANCH   3   4
ENDBRANCH   2   3
ENDBRANCH   1   2
BRANCH   1  30
ATOM     30  C   UNL A   1      41.469  21.608  26.135  1.00  0.00     0.188 C 
BRANCH  30  31
ATOM     31  O   UNL A   1      42.749  22.215  26.046  1.00  0.00    -0.376 OA
BRANCH  31  32
ATOM     32  C   UNL A   1      43.054  23.027  24.920  1.00  0.00     0.202 C 
BRANCH  32  33
ATOM     33  C   UNL A   1      44.518  23.256  24.549  1.00  0.00     0.261 C 
BRANCH  33  34
ATOM     34  O   UNL A   1      45.090  24.411  25.180  1.00  0.00    -0.460 OA
BRANCH  34  35
ATOM     35  C   UNL A   1      45.397  24.253  26.490  1.00  0.00     0.338 C 
ATOM     36  O   UNL A   1      46.320  23.614  26.967  1.00  0.00    -0.246 OA
BRANCH  35  37
ATOM     37  C   UNL A   1      44.527  25.120  27.303  1.00  0.00     0.060 A 
ATOM     38  C   UNL A   1      44.773  26.500  27.289  1.00  0.00     0.016 A 
ATOM     39  C   UNL A   1      43.528  24.580  28.115  1.00  0.00     0.016 A 
ATOM     40  C   UNL A   1      44.036  27.344  28.116  1.00  0.00     0.010 A 
ATOM     41  C   UNL A   1      42.807  25.424  28.962  1.00  0.00     0.010 A 
ATOM     42  C   UNL A   1      43.080  26.802  28.987  1.00  0.00    -0.014 A 
BRANCH  42  43
ATOM     43  C   UNL A   1      42.482  27.660  30.034  1.00  0.00     0.031 A 
ATOM     44  C   UNL A   1      43.191  27.795  31.350  1.00  0.00     0.074 A 
ATOM     45  C   UNL A   1      41.320  28.298  29.824  1.00  0.00     0.049 A 
ATOM     46  N   UNL A   1      42.850  28.485  32.407  1.00  0.00    -0.248 NA
ATOM     47  C   UNL A   1      44.435  27.026  31.502  1.00  0.00     0.031 C 
ATOM     48  C   UNL A   1      40.524  28.211  28.605  1.00  0.00     0.029 A 
ATOM     49  N   UNL A   1      40.612  29.151  30.633  1.00  0.00    -0.354 N 
ATOM     50  C   UNL A   1      43.819  28.210  33.360  1.00  0.00     0.074 A 
ATOM     51  C   UNL A   1      44.761  27.291  32.757  1.00  0.00     0.031 C 
ATOM     52  C   UNL A   1      39.449  29.006  28.736  1.00  0.00     0.029 A 
ATOM     53  C   UNL A   1      39.487  29.665  30.038  1.00  0.00     0.049 A 
ATOM     54  H   UNL A   1      40.885  29.373  31.552  1.00  0.00     0.167 HD
ATOM     55  C   UNL A   1      43.906  28.668  34.632  1.00  0.00     0.037 A 
ATOM     56  C   UNL A   1      38.604  30.575  30.488  1.00  0.00     0.037 A 
ATOM     57  C   UNL A   1      42.964  29.574  35.234  1.00  0.00     0.049 A 
ATOM     58  C   UNL A   1      38.744  31.102  31.891  1.00  0.00     0.074 A 
ATOM     59  C   UNL A   1      42.971  30.100  36.513  1.00  0.00     0.029 A 
ATOM     60  N   UNL A   1      41.844  30.085  34.595  1.00  0.00    -0.354 N 
ATOM     61  N   UNL A   1      39.674  30.853  32.781  1.00  0.00    -0.248 NA
ATOM     62  C   UNL A   1      37.688  32.009  32.365  1.00  0.00     0.031 C 
ATOM     63  C   UNL A   1      41.829  30.895  36.663  1.00  0.00     0.029 A 
ATOM     64  C   UNL A   1      41.138  30.901  35.463  1.00  0.00     0.049 A 
ATOM     65  H   UNL A   1      41.589  29.896  33.664  1.00  0.00     0.167 HD
ATOM     66  C   UNL A   1      39.313  31.563  33.919  1.00  0.00     0.074 A 
ATOM     67  C   UNL A   1      38.099  32.284  33.596  1.00  0.00     0.031 C 
ATOM     68  C   UNL A   1      39.924  31.601  35.129  1.00  0.00     0.037 A 
BRANCH  55  69
ATOM     69  C   UNL A   1      45.032  28.141  35.467  1.00  0.00     0.057 A 
ATOM     70  C   UNL A   1      46.270  28.790  35.540  1.00  0.00     0.134 A 
ATOM     71  C   UNL A   1      44.875  26.960  36.204  1.00  0.00     0.134 A 
ATOM     72  F   UNL A   1      46.492  29.914  34.841  1.00  0.00    -0.206 F 
ATOM     73  C   UNL A   1      47.322  28.269  36.296  1.00  0.00     0.040 A 
ATOM     74  C   UNL A   1      45.911  26.442  36.981  1.00  0.00     0.040 A 
ATOM     75  F   UNL A   1      43.714  26.289  36.176  1.00  0.00    -0.206 F 
ATOM     76  C   UNL A   1      47.142  27.093  37.023  1.00  0.00     0.006 A 
ENDBRANCH  55  69
BRANCH  56  77
ATOM     77  C   UNL A   1      37.522  31.075  29.602  1.00  0.00     0.057 A 
ATOM     78  C   UNL A   1      37.628  32.328  28.985  1.00  0.00     0.134 A 
ATOM     79  C   UNL A   1      36.363  30.331  29.356  1.00  0.00     0.134 A 
ATOM     80  F   UNL A   1      38.699  33.104  29.210  1.00  0.00    -0.206 F 
ATOM     81  C   UNL A   1      36.615  32.827  28.165  1.00  0.00     0.040 A 
ATOM     82  C   UNL A   1      35.353  30.807  28.517  1.00  0.00     0.040 A 
ATOM     83  F   UNL A   1      36.201  29.124  29.916  1.00  0.00    -0.206 F 
ATOM     84  C   UNL A   1      35.475  32.061  27.924  1.00  0.00     0.006 A 
ENDBRANCH  56  77
BRANCH  68  85
ATOM     85  C   UNL A   1      39.283  32.441  36.194  1.00  0.00     0.057 A 
ATOM     86  C   UNL A   1      38.268  31.933  37.015  1.00  0.00     0.134 A 
ATOM     87  C   UNL A   1      39.716  33.751  36.433  1.00  0.00     0.134 A 
ATOM     88  F   UNL A   1      37.800  30.689  36.830  1.00  0.00    -0.206 F 
ATOM     89  C   UNL A   1      37.693  32.707  38.025  1.00  0.00     0.040 A 
ATOM     90  C   UNL A   1      39.165  34.525  37.455  1.00  0.00     0.040 A 
ATOM     91  F   UNL A   1      40.691  34.292  35.688  1.00  0.00    -0.206 F 
ATOM     92  C   UNL A   1      38.147  34.006  38.252  1.00  0.00     0.006 A 
ENDBRANCH  68  85
ENDBRANCH  42  43
ENDBRANCH  35  37
ENDBRANCH  34  35
ENDBRANCH  33  34
ENDBRANCH  32  33
ENDBRANCH  31  32
ENDBRANCH  30  31
ENDBRANCH   1  30
TORSDOF 19
ENDMDL
MODEL 3
REMARK VINA RESULT:     -10.4      3.600      7.921
REMARK SMILES CC1=C(C(=O)OCCOCCOCCOC(=O)c2ccc(-c3c4nc(c(-c5c(F)cccc5F)c5ccc([nH]5)c(-c5c(F)cccc5F)c5nc(c(-c6c(F)cccc6F)c6ccc3[nH]6)C=C5)C=C4)cc2)N2C(=O)[C@@H](NC(=O)c3c(Br)c(C)nn3C)[C@H]2SC1
REMARK SMILES IDX 10 1 9 2 8 3 7 4 6 5 4 6 5 7 3 8 1 9 2 10 89 11 72 12 88 13
REMARK SMILES IDX 73 14 87 15 74 16 75 17 76 18 77 19 78 21 79 22 80 23 85 24
REMARK SMILES IDX 81 25 82 26 84 27 86 28 83 29 11 30 12 31 13 32 14 33 15 34
REMARK SMILES IDX 16 35 17 36 18 37 19 38 71 39 20 40 70 41 21 42 22 43 23 44
REMARK SMILES IDX 64 45 24 46 69 47 63 48 65 49 25 50 68 51 62 52 61 53 26 55
REMARK SMILES IDX 52 56 35 57 51 58 36 59 39 60 50 61 66 62 37 63 38 64 49 66
REMARK SMILES IDX 67 67 40 68 27 69 28 70 33 71 29 72 30 73 32 74 34 75 31 76
REMARK SMILES IDX 53 77 54 78 59 79 55 80 56 81 58 82 60 83 57 84 41 85 42 86
REMARK SMILES IDX 47 87 43 88 44 89 46 90 48 91 45 92
REMARK H PARENT 76 20 65 54 39 65
REMARK Flexibility Score: inf
ROOT
ATOM      1  C   UNL A   1      33.169  26.267  22.222  1.00  0.00     0.188 C 
ENDROOT
BRANCH   1   2
ATOM      2  O   UNL A   1      34.057  27.314  21.863  1.00  0.00    -0.376 OA
BRANCH   2   3
ATOM      3  C   UNL A   1      34.339  28.326  22.827  1.00  0.00     0.202 C 
BRANCH   3   4
ATOM      4  C   UNL A   1      33.210  29.301  23.145  1.00  0.00     0.261 C 
BRANCH   4   5
ATOM      5  O   UNL A   1      33.136  29.523  24.565  1.00  0.00    -0.459 OA
BRANCH   5   6
ATOM      6  C   UNL A   1      31.887  29.700  25.052  1.00  0.00     0.355 C 
ATOM      7  O   UNL A   1      31.514  30.637  25.745  1.00  0.00    -0.244 OA
BRANCH   6   8
ATOM      8  C   UNL A   1      30.937  28.647  24.558  1.00  0.00     0.131 C 
ATOM      9  C   UNL A   1      29.665  30.139  22.958  1.00  0.00     0.043 C 
ATOM     10  C   UNL A   1      29.950  28.830  23.651  1.00  0.00    -0.032 C 
ATOM     11  C   UNL A   1      28.988  27.726  23.222  1.00  0.00     0.105 C 
ATOM     12  N   UNL A   1      31.187  27.402  25.039  1.00  0.00    -0.289 N 
ATOM     13  S   UNL A   1      28.935  26.278  24.336  1.00  0.00    -0.129 SA
ATOM     14  C   UNL A   1      31.483  26.915  26.262  1.00  0.00     0.253 C 
ATOM     15  C   UNL A   1      30.740  26.165  24.450  1.00  0.00     0.181 C 
ATOM     16  O   UNL A   1      31.640  27.445  27.333  1.00  0.00    -0.272 OA
ATOM     17  C   UNL A   1      31.365  25.458  25.697  1.00  0.00     0.206 C 
BRANCH  17  18
ATOM     18  N   UNL A   1      30.527  24.509  26.461  1.00  0.00    -0.336 N 
ATOM     19  C   UNL A   1      30.577  23.132  26.452  1.00  0.00     0.271 C 
ATOM     20  H   UNL A   1      29.849  24.912  27.049  1.00  0.00     0.164 HD
ATOM     21  O   UNL A   1      29.692  22.532  27.058  1.00  0.00    -0.267 OA
BRANCH  19  22
ATOM     22  C   UNL A   1      31.612  22.467  25.701  1.00  0.00     0.140 A 
ATOM     23  C   UNL A   1      32.824  21.974  26.142  1.00  0.00     0.071 A 
ATOM     24  N   UNL A   1      31.665  22.279  24.342  1.00  0.00    -0.262 N 
ATOM     25  Br  UNL A   1      33.505  21.957  27.888  1.00  0.00    -0.046 Br
ATOM     26  C   UNL A   1      33.480  21.428  25.018  1.00  0.00     0.074 A 
ATOM     27  N   UNL A   1      32.728  21.564  23.923  1.00  0.00    -0.177 NA
ATOM     28  C   UNL A   1      30.755  22.752  23.331  1.00  0.00     0.174 C 
ATOM     29  C   UNL A   1      34.800  20.762  24.921  1.00  0.00     0.070 C 
ENDBRANCH  19  22
ENDBRANCH  17  18
ENDBRANCH   6   8
ENDBRANCH   5   6
ENDBRANCH   4   5
ENDBRANCH   3   4
ENDBRANCH   2   3
ENDBRANCH   1   2
BRANCH   1  30
ATOM     30  C   UNL A   1      33.735  24.932  22.750  1.00  0.00     0.188 C 
BRANCH  30  31
ATOM     31  O   UNL A   1      34.434  24.871  23.983  1.00  0.00    -0.376 OA
BRANCH  31  32
ATOM     32  C   UNL A   1      35.529  23.974  24.115  1.00  0.00     0.202 C 
BRANCH  32  33
ATOM     33  C   UNL A   1      36.379  24.029  25.384  1.00  0.00     0.261 C 
BRANCH  33  34
ATOM     34  O   UNL A   1      37.790  24.049  25.122  1.00  0.00    -0.460 OA
BRANCH  34  35
ATOM     35  C   UNL A   1      38.559  23.492  26.088  1.00  0.00     0.338 C 
ATOM     36  O   UNL A   1      38.833  22.313  26.234  1.00  0.00    -0.246 OA
BRANCH  35  37
ATOM     37  C   UNL A   1      39.182  24.559  26.891  1.00  0.00     0.060 A 
ATOM     38  C   UNL A   1      38.915  24.587  28.267  1.00  0.00     0.016 A 
ATOM     39  C   UNL A   1      39.959  25.551  26.292  1.00  0.00     0.016 A 
ATOM     40  C   UNL A   1      39.405  25.633  29.046  1.00  0.00     0.010 A 
ATOM     41  C   UNL A   1      40.428  26.612  27.070  1.00  0.00     0.010 A 
ATOM     42  C   UNL A   1      40.127  26.671  28.441  1.00  0.00    -0.014 A 
BRANCH  42  43
ATOM     43  C   UNL A   1      40.427  27.896  29.216  1.00  0.00     0.031 A 
ATOM     44  C   UNL A   1      41.799  28.064  29.799  1.00  0.00     0.074 A 
ATOM     45  C   UNL A   1      39.490  28.837  29.410  1.00  0.00     0.049 A 
ATOM     46  N   UNL A   1      42.281  29.047  30.513  1.00  0.00    -0.248 NA
ATOM     47  C   UNL A   1      42.745  26.961  29.569  1.00  0.00     0.031 C 
ATOM     48  C   UNL A   1      38.117  28.765  28.927  1.00  0.00     0.029 A 
ATOM     49  N   UNL A   1      39.560  30.042  30.063  1.00  0.00    -0.354 N 
ATOM     50  C   UNL A   1      43.574  28.670  30.845  1.00  0.00     0.074 A 
ATOM     51  C   UNL A   1      43.802  27.369  30.254  1.00  0.00     0.031 C 
ATOM     52  C   UNL A   1      37.478  29.895  29.276  1.00  0.00     0.029 A 
ATOM     53  C   UNL A   1      38.400  30.772  29.992  1.00  0.00     0.049 A 
ATOM     54  H   UNL A   1      40.365  30.354  30.535  1.00  0.00     0.167 HD
ATOM     55  C   UNL A   1      44.483  29.340  31.591  1.00  0.00     0.037 A 
ATOM     56  C   UNL A   1      38.123  32.011  30.440  1.00  0.00     0.037 A 
ATOM     57  C   UNL A   1      44.253  30.630  32.186  1.00  0.00     0.049 A 
ATOM     58  C   UNL A   1      39.164  32.755  31.232  1.00  0.00     0.074 A 
ATOM     59  C   UNL A   1      45.115  31.392  32.954  1.00  0.00     0.029 A 
ATOM     60  N   UNL A   1      43.069  31.345  32.082  1.00  0.00    -0.354 N 
ATOM     61  N   UNL A   1      40.392  32.400  31.525  1.00  0.00    -0.248 NA
ATOM     62  C   UNL A   1      38.767  34.057  31.788  1.00  0.00     0.031 C 
ATOM     63  C   UNL A   1      44.437  32.550  33.351  1.00  0.00     0.029 A 
ATOM     64  C   UNL A   1      43.170  32.530  32.791  1.00  0.00     0.049 A 
ATOM     65  H   UNL A   1      42.276  31.054  31.577  1.00  0.00     0.167 HD
ATOM     66  C   UNL A   1      40.910  33.428  32.303  1.00  0.00     0.074 A 
ATOM     67  C   UNL A   1      39.876  34.438  32.406  1.00  0.00     0.031 C 
ATOM     68  C   UNL A   1      42.127  33.518  32.894  1.00  0.00     0.037 A 
BRANCH  55  69
ATOM     69  C   UNL A   1      45.789  28.652  31.849  1.00  0.00     0.057 A 
ATOM     70  C   UNL A   1      45.977  27.801  32.944  1.00  0.00     0.134 A 
ATOM     71  C   UNL A   1      46.877  28.854  30.990  1.00  0.00     0.134 A 
ATOM     72  F   UNL A   1      44.981  27.584  33.816  1.00  0.00    -0.206 F 
ATOM     73  C   UNL A   1      47.209  27.193  33.191  1.00  0.00     0.040 A 
ATOM     74  C   UNL A   1      48.106  28.234  31.213  1.00  0.00     0.040 A 
ATOM     75  F   UNL A   1      46.763  29.659  29.923  1.00  0.00    -0.206 F 
ATOM     76  C   UNL A   1      48.277  27.406  32.321  1.00  0.00     0.006 A 
ENDBRANCH  55  69
BRANCH  56  77
ATOM     77  C   UNL A   1      36.817  32.647  30.131  1.00  0.00     0.057 A 
ATOM     78  C   UNL A   1      36.688  33.517  29.041  1.00  0.00     0.134 A 
ATOM     79  C   UNL A   1      35.677  32.416  30.909  1.00  0.00     0.134 A 
ATOM     80  F   UNL A   1      37.753  33.806  28.277  1.00  0.00    -0.206 F 
ATOM     81  C   UNL A   1      35.476  34.142  28.744  1.00  0.00     0.040 A 
ATOM     82  C   UNL A   1      34.452  33.015  30.608  1.00  0.00     0.040 A 
ATOM     83  F   UNL A   1      35.734  31.593  31.966  1.00  0.00    -0.206 F 
ATOM     84  C   UNL A   1      34.351  33.886  29.526  1.00  0.00     0.006 A 
ENDBRANCH  56  77
BRANCH  68  85
ATOM     85  C   UNL A   1      42.401  34.746  33.712  1.00  0.00     0.057 A 
ATOM     86  C   UNL A   1      42.184  34.768  35.096  1.00  0.00     0.134 A 
ATOM     87  C   UNL A   1      42.933  35.898  33.121  1.00  0.00     0.134 A 
ATOM     88  F   UNL A   1      41.666  33.700  35.721  1.00  0.00    -0.206 F 
ATOM     89  C   UNL A   1      42.468  35.902  35.860  1.00  0.00     0.040 A 
ATOM     90  C   UNL A   1      43.243  37.029  33.878  1.00  0.00     0.040 A 
ATOM     91  F   UNL A   1      43.173  35.938  31.801  1.00  0.00    -0.206 F 
ATOM     92  C   UNL A   1      43.006  37.035  35.251  1.00  0.00     0.006 A 
ENDBRANCH  68  85
ENDBRANCH  42  43
ENDBRANCH  35  37
ENDBRANCH  34  35
ENDBRANCH  33  34
ENDBRANCH  32  33
ENDBRANCH  31  32
ENDBRANCH  30  31
ENDBRANCH   1  30
TORSDOF 19
ENDMDL
