MODEL 1
REMARK VINA RESULT:     -11.4      0.000      0.000
REMARK SMILES O=C(OCCOCCOCCOC(=O)c1cc(-c2ccc(F)c(C(F)(F)F)c2)cnc1O)c1ccc(-c2c3nc(c(-c4c(F)cccc4F)c4ccc([nH]4)c(-c4c(F)cccc4F)c4nc(c(-c5c(F)cccc5F)c5ccc2[nH]5)C=C4)C=C3)cc1
REMARK SMILES IDX 7 1 6 2 5 3 4 4 3 5 2 6 1 7 33 8 34 9 86 10 35 11 85 12
REMARK SMILES IDX 36 13 37 14 38 15 79 16 39 17 84 18 78 19 80 20 40 21 83 22
REMARK SMILES IDX 77 23 76 24 41 26 67 27 50 28 66 29 51 30 54 31 65 32 81 33
REMARK SMILES IDX 52 34 53 35 64 37 82 38 55 39 42 40 43 41 48 42 44 43 45 44
REMARK SMILES IDX 47 45 49 46 46 47 68 48 69 49 74 50 70 51 71 52 73 53 75 54
REMARK SMILES IDX 72 55 56 56 57 57 62 58 58 59 59 60 61 61 63 62 60 63 8 64
REMARK SMILES IDX 9 65 10 66 11 67 12 68 13 69 14 70 15 71 16 72 31 73 17 74
REMARK SMILES IDX 30 75 29 76 32 77 18 79 19 80 28 81 20 82 23 83 21 84 22 85
REMARK SMILES IDX 24 86 25 87 26 88 27 89
REMARK H PARENT 80 25 54 36 32 78
REMARK Flexibility Score: inf
ROOT
ATOM      1  C   UNL A   1      38.273  23.363  26.020  1.00  0.00     0.188 C 
ENDROOT
BRANCH   1   2
ATOM      2  O   UNL A   1      38.770  22.065  26.365  1.00  0.00    -0.376 OA
BRANCH   2   3
ATOM      3  C   UNL A   1      38.499  21.087  25.357  1.00  0.00     0.202 C 
BRANCH   3   4
ATOM      4  C   UNL A   1      38.872  19.655  25.767  1.00  0.00     0.261 C 
BRANCH   4   5
ATOM      5  O   UNL A   1      40.178  19.237  25.342  1.00  0.00    -0.460 OA
BRANCH   5   6
ATOM      6  C   UNL A   1      41.380  19.375  25.949  1.00  0.00     0.338 C 
ATOM      7  O   UNL A   1      42.058  18.356  26.092  1.00  0.00    -0.246 OA
BRANCH   6   8
ATOM      8  C   UNL A   1      41.937  20.657  26.508  1.00  0.00     0.060 A 
ATOM      9  C   UNL A   1      42.455  21.565  25.565  1.00  0.00     0.016 A 
ATOM     10  C   UNL A   1      41.993  21.038  27.850  1.00  0.00     0.016 A 
ATOM     11  C   UNL A   1      43.015  22.791  25.949  1.00  0.00     0.010 A 
ATOM     12  C   UNL A   1      42.565  22.251  28.244  1.00  0.00     0.010 A 
ATOM     13  C   UNL A   1      43.071  23.139  27.296  1.00  0.00    -0.014 A 
BRANCH  13  14
ATOM     14  C   UNL A   1      43.442  24.501  27.724  1.00  0.00     0.031 A 
ATOM     15  C   UNL A   1      42.428  25.577  27.941  1.00  0.00     0.074 A 
ATOM     16  C   UNL A   1      44.753  24.790  27.752  1.00  0.00     0.049 A 
ATOM     17  N   UNL A   1      42.614  26.816  28.317  1.00  0.00    -0.248 NA
ATOM     18  C   UNL A   1      41.028  25.220  27.688  1.00  0.00     0.031 C 
ATOM     19  C   UNL A   1      45.826  23.839  27.454  1.00  0.00     0.029 A 
ATOM     20  N   UNL A   1      45.397  25.976  27.967  1.00  0.00    -0.354 N 
ATOM     21  C   UNL A   1      41.346  27.371  28.414  1.00  0.00     0.074 A 
ATOM     22  C   UNL A   1      40.416  26.365  27.963  1.00  0.00     0.031 C 
ATOM     23  C   UNL A   1      46.993  24.497  27.435  1.00  0.00     0.029 A 
ATOM     24  C   UNL A   1      46.741  25.907  27.717  1.00  0.00     0.049 A 
ATOM     25  H   UNL A   1      44.941  26.795  28.269  1.00  0.00     0.167 HD
ATOM     26  C   UNL A   1      40.991  28.600  28.859  1.00  0.00     0.037 A 
ATOM     27  C   UNL A   1      47.666  26.880  27.685  1.00  0.00     0.037 A 
ATOM     28  C   UNL A   1      41.939  29.639  29.167  1.00  0.00     0.049 A 
ATOM     29  C   UNL A   1      47.264  28.276  28.043  1.00  0.00     0.074 A 
ATOM     30  C   UNL A   1      41.715  30.906  29.674  1.00  0.00     0.029 A 
ATOM     31  N   UNL A   1      43.300  29.540  28.919  1.00  0.00    -0.354 N 
ATOM     32  N   UNL A   1      46.075  28.736  28.349  1.00  0.00    -0.248 NA
ATOM     33  C   UNL A   1      48.331  29.280  28.074  1.00  0.00     0.031 C 
ATOM     34  C   UNL A   1      42.933  31.600  29.659  1.00  0.00     0.029 A 
ATOM     35  C   UNL A   1      43.921  30.748  29.186  1.00  0.00     0.049 A 
ATOM     36  H   UNL A   1      43.758  28.729  28.600  1.00  0.00     0.167 HD
ATOM     37  C   UNL A   1      46.248  30.085  28.618  1.00  0.00     0.074 A 
ATOM     38  C   UNL A   1      47.663  30.361  28.455  1.00  0.00     0.031 C 
ATOM     39  C   UNL A   1      45.322  31.011  28.973  1.00  0.00     0.037 A 
BRANCH  26  40
ATOM     40  C   UNL A   1      39.523  28.874  29.019  1.00  0.00     0.057 A 
ATOM     41  C   UNL A   1      38.872  28.672  30.241  1.00  0.00     0.134 A 
ATOM     42  C   UNL A   1      38.748  29.340  27.945  1.00  0.00     0.134 A 
ATOM     43  F   UNL A   1      39.549  28.223  31.309  1.00  0.00    -0.206 F 
ATOM     44  C   UNL A   1      37.507  28.932  30.394  1.00  0.00     0.040 A 
ATOM     45  C   UNL A   1      37.388  29.625  28.093  1.00  0.00     0.040 A 
ATOM     46  F   UNL A   1      39.307  29.547  26.742  1.00  0.00    -0.206 F 
ATOM     47  C   UNL A   1      36.764  29.419  29.321  1.00  0.00     0.006 A 
ENDBRANCH  26  40
BRANCH  27  48
ATOM     48  C   UNL A   1      49.049  26.523  27.303  1.00  0.00     0.057 A 
ATOM     49  C   UNL A   1      49.443  26.496  25.959  1.00  0.00     0.134 A 
ATOM     50  C   UNL A   1      49.970  26.092  28.261  1.00  0.00     0.134 A 
ATOM     51  F   UNL A   1      48.591  26.876  24.995  1.00  0.00    -0.206 F 
ATOM     52  C   UNL A   1      50.701  26.030  25.580  1.00  0.00     0.040 A 
ATOM     53  C   UNL A   1      51.238  25.640  27.896  1.00  0.00     0.040 A 
ATOM     54  F   UNL A   1      49.642  26.098  29.562  1.00  0.00    -0.206 F 
ATOM     55  C   UNL A   1      51.603  25.599  26.551  1.00  0.00     0.006 A 
ENDBRANCH  27  48
BRANCH  39  56
ATOM     56  C   UNL A   1      45.815  32.411  29.167  1.00  0.00     0.057 A 
ATOM     57  C   UNL A   1      46.264  32.850  30.418  1.00  0.00     0.134 A 
ATOM     58  C   UNL A   1      45.834  33.328  28.109  1.00  0.00     0.134 A 
ATOM     59  F   UNL A   1      46.267  32.020  31.471  1.00  0.00    -0.206 F 
ATOM     60  C   UNL A   1      46.714  34.157  30.609  1.00  0.00     0.040 A 
ATOM     61  C   UNL A   1      46.304  34.630  28.283  1.00  0.00     0.040 A 
ATOM     62  F   UNL A   1      45.433  32.961  26.883  1.00  0.00    -0.206 F 
ATOM     63  C   UNL A   1      46.741  35.049  29.539  1.00  0.00     0.006 A 
ENDBRANCH  39  56
ENDBRANCH  13  14
ENDBRANCH   6   8
ENDBRANCH   5   6
ENDBRANCH   4   5
ENDBRANCH   3   4
ENDBRANCH   2   3
ENDBRANCH   1   2
BRANCH   1  64
ATOM     64  C   UNL A   1      36.759  23.393  25.804  1.00  0.00     0.188 C 
BRANCH  64  65
ATOM     65  O   UNL A   1      36.422  23.743  24.464  1.00  0.00    -0.376 OA
BRANCH  65  66
ATOM     66  C   UNL A   1      35.014  23.754  24.213  1.00  0.00     0.202 C 
BRANCH  66  67
ATOM     67  C   UNL A   1      34.301  22.447  24.601  1.00  0.00     0.261 C 
BRANCH  67  68
ATOM     68  O   UNL A   1      32.981  22.287  24.033  1.00  0.00    -0.459 OA
BRANCH  68  69
ATOM     69  C   UNL A   1      31.999  22.025  24.916  1.00  0.00     0.343 C 
ATOM     70  O   UNL A   1      31.650  20.917  25.307  1.00  0.00    -0.246 OA
BRANCH  69  71
ATOM     71  C   UNL A   1      31.221  23.230  25.188  1.00  0.00     0.122 A 
ATOM     72  C   UNL A   1      31.081  24.278  24.261  1.00  0.00     0.031 A 
ATOM     73  C   UNL A   1      30.683  23.379  26.461  1.00  0.00     0.225 A 
ATOM     74  C   UNL A   1      30.421  25.457  24.648  1.00  0.00     0.001 A 
ATOM     75  N   UNL A   1      30.043  24.488  26.858  1.00  0.00    -0.221 NA
ATOM     76  C   UNL A   1      29.922  25.488  25.955  1.00  0.00     0.124 A 
BRANCH  73  77
ATOM     77  O   UNL A   1      30.677  22.396  27.407  1.00  0.00    -0.493 OA
ATOM     78  H   UNL A   1      31.288  22.424  28.117  1.00  0.00     0.295 HD
ENDBRANCH  73  77
BRANCH  74  79
ATOM     79  C   UNL A   1      30.298  26.658  23.805  1.00  0.00    -0.016 A 
ATOM     80  C   UNL A   1      31.461  27.234  23.258  1.00  0.00     0.012 A 
ATOM     81  C   UNL A   1      29.078  27.328  23.609  1.00  0.00     0.025 A 
ATOM     82  C   UNL A   1      31.413  28.444  22.565  1.00  0.00     0.040 A 
ATOM     83  C   UNL A   1      29.023  28.562  22.922  1.00  0.00     0.092 A 
ATOM     84  C   UNL A   1      30.200  29.098  22.410  1.00  0.00     0.135 A 
ATOM     85  F   UNL A   1      30.178  30.275  21.771  1.00  0.00    -0.206 F 
BRANCH  83  86
ATOM     86  C   UNL A   1      27.763  29.357  22.748  1.00  0.00     0.419 C 
ATOM     87  F   UNL A   1      27.750  30.495  23.496  1.00  0.00    -0.166 F 
ATOM     88  F   UNL A   1      27.547  29.743  21.461  1.00  0.00    -0.166 F 
ATOM     89  F   UNL A   1      26.644  28.675  23.113  1.00  0.00    -0.166 F 
ENDBRANCH  83  86
ENDBRANCH  74  79
ENDBRANCH  69  71
ENDBRANCH  68  69
ENDBRANCH  67  68
ENDBRANCH  66  67
ENDBRANCH  65  66
ENDBRANCH  64  65
ENDBRANCH   1  64
TORSDOF 20
ENDMDL
MODEL 2
REMARK VINA RESULT:     -11.0      5.313      8.211
REMARK SMILES O=C(OCCOCCOCCOC(=O)c1cc(-c2ccc(F)c(C(F)(F)F)c2)cnc1O)c1ccc(-c2c3nc(c(-c4c(F)cccc4F)c4ccc([nH]4)c(-c4c(F)cccc4F)c4nc(c(-c5c(F)cccc5F)c5ccc2[nH]5)C=C4)C=C3)cc1
REMARK SMILES IDX 7 1 6 2 5 3 4 4 3 5 2 6 1 7 33 8 34 9 86 10 35 11 85 12
REMARK SMILES IDX 36 13 37 14 38 15 79 16 39 17 84 18 78 19 80 20 40 21 83 22
REMARK SMILES IDX 77 23 76 24 41 26 67 27 50 28 66 29 51 30 54 31 65 32 81 33
REMARK SMILES IDX 52 34 53 35 64 37 82 38 55 39 42 40 43 41 48 42 44 43 45 44
REMARK SMILES IDX 47 45 49 46 46 47 68 48 69 49 74 50 70 51 71 52 73 53 75 54
REMARK SMILES IDX 72 55 56 56 57 57 62 58 58 59 59 60 61 61 63 62 60 63 8 64
REMARK SMILES IDX 9 65 10 66 11 67 12 68 13 69 14 70 15 71 16 72 31 73 17 74
REMARK SMILES IDX 30 75 29 76 32 77 18 79 19 80 28 81 20 82 23 83 21 84 22 85
REMARK SMILES IDX 24 86 25 87 26 88 27 89
REMARK H PARENT 80 25 54 36 32 78
REMARK Flexibility Score: inf
ROOT
ATOM      1  C   UNL A   1      45.228  19.696  25.260  1.00  0.00     0.188 C 
ENDROOT
BRANCH   1   2
ATOM      2  O   UNL A   1      44.903  21.084  25.398  1.00  0.00    -0.376 OA
BRANCH   2   3
ATOM      3  C   UNL A   1      45.936  21.942  24.907  1.00  0.00     0.202 C 
BRANCH   3   4
ATOM      4  C   UNL A   1      46.150  23.203  25.757  1.00  0.00     0.261 C 
BRANCH   4   5
ATOM      5  O   UNL A   1      45.414  24.353  25.312  1.00  0.00    -0.460 OA
BRANCH   5   6
ATOM      6  C   UNL A   1      44.093  24.631  25.400  1.00  0.00     0.338 C 
ATOM      7  O   UNL A   1      43.357  24.140  24.542  1.00  0.00    -0.246 OA
BRANCH   6   8
ATOM      8  C   UNL A   1      43.452  25.527  26.426  1.00  0.00     0.060 A 
ATOM      9  C   UNL A   1      42.359  24.979  27.125  1.00  0.00     0.016 A 
ATOM     10  C   UNL A   1      43.823  26.832  26.756  1.00  0.00     0.016 A 
ATOM     11  C   UNL A   1      41.664  25.707  28.099  1.00  0.00     0.010 A 
ATOM     12  C   UNL A   1      43.124  27.573  27.713  1.00  0.00     0.010 A 
ATOM     13  C   UNL A   1      42.046  27.012  28.397  1.00  0.00    -0.014 A 
BRANCH  13  14
ATOM     14  C   UNL A   1      41.492  27.730  29.561  1.00  0.00     0.031 A 
ATOM     15  C   UNL A   1      40.371  28.709  29.439  1.00  0.00     0.074 A 
ATOM     16  C   UNL A   1      42.150  27.593  30.723  1.00  0.00     0.049 A 
ATOM     17  N   UNL A   1      39.788  29.410  30.377  1.00  0.00    -0.248 NA
ATOM     18  C   UNL A   1      39.849  28.945  28.089  1.00  0.00     0.031 C 
ATOM     19  C   UNL A   1      43.324  26.741  30.927  1.00  0.00     0.029 A 
ATOM     20  N   UNL A   1      41.973  28.224  31.923  1.00  0.00    -0.354 N 
ATOM     21  C   UNL A   1      38.780  30.120  29.742  1.00  0.00     0.074 A 
ATOM     22  C   UNL A   1      38.900  29.840  28.331  1.00  0.00     0.031 C 
ATOM     23  C   UNL A   1      43.806  26.957  32.158  1.00  0.00     0.029 A 
ATOM     24  C   UNL A   1      42.975  27.959  32.819  1.00  0.00     0.049 A 
ATOM     25  H   UNL A   1      41.206  28.809  32.123  1.00  0.00     0.167 HD
ATOM     26  C   UNL A   1      37.830  30.916  30.288  1.00  0.00     0.037 A 
ATOM     27  C   UNL A   1      43.217  28.490  34.028  1.00  0.00     0.037 A 
ATOM     28  C   UNL A   1      37.814  31.298  31.675  1.00  0.00     0.049 A 
ATOM     29  C   UNL A   1      42.246  29.477  34.594  1.00  0.00     0.074 A 
ATOM     30  C   UNL A   1      36.883  32.054  32.365  1.00  0.00     0.029 A 
ATOM     31  N   UNL A   1      38.833  31.005  32.568  1.00  0.00    -0.354 N 
ATOM     32  N   UNL A   1      41.163  29.975  34.045  1.00  0.00    -0.248 NA
ATOM     33  C   UNL A   1      42.516  29.961  35.951  1.00  0.00     0.031 C 
ATOM     34  C   UNL A   1      37.381  32.281  33.656  1.00  0.00     0.029 A 
ATOM     35  C   UNL A   1      38.598  31.628  33.781  1.00  0.00     0.049 A 
ATOM     36  H   UNL A   1      39.612  30.436  32.369  1.00  0.00     0.167 HD
ATOM     37  C   UNL A   1      40.614  30.824  34.993  1.00  0.00     0.074 A 
ATOM     38  C   UNL A   1      41.477  30.760  36.157  1.00  0.00     0.031 C 
ATOM     39  C   UNL A   1      39.494  31.586  34.910  1.00  0.00     0.037 A 
BRANCH  26  40
ATOM     40  C   UNL A   1      36.752  31.424  29.373  1.00  0.00     0.057 A 
ATOM     41  C   UNL A   1      36.761  32.739  28.893  1.00  0.00     0.134 A 
ATOM     42  C   UNL A   1      35.693  30.597  28.966  1.00  0.00     0.134 A 
ATOM     43  F   UNL A   1      37.740  33.586  29.245  1.00  0.00    -0.206 F 
ATOM     44  C   UNL A   1      35.763  33.211  28.036  1.00  0.00     0.040 A 
ATOM     45  C   UNL A   1      34.703  31.051  28.092  1.00  0.00     0.040 A 
ATOM     46  F   UNL A   1      35.618  29.327  29.395  1.00  0.00    -0.206 F 
ATOM     47  C   UNL A   1      34.736  32.364  27.626  1.00  0.00     0.006 A 
ENDBRANCH  26  40
BRANCH  27  48
ATOM     48  C   UNL A   1      44.434  28.067  34.751  1.00  0.00     0.057 A 
ATOM     49  C   UNL A   1      45.669  28.687  34.513  1.00  0.00     0.134 A 
ATOM     50  C   UNL A   1      44.415  26.962  35.606  1.00  0.00     0.134 A 
ATOM     51  F   UNL A   1      45.751  29.736  33.682  1.00  0.00    -0.206 F 
ATOM     52  C   UNL A   1      46.845  28.207  35.086  1.00  0.00     0.040 A 
ATOM     53  C   UNL A   1      45.582  26.482  36.199  1.00  0.00     0.040 A 
ATOM     54  F   UNL A   1      43.259  26.333  35.866  1.00  0.00    -0.206 F 
ATOM     55  C   UNL A   1      46.804  27.099  35.931  1.00  0.00     0.006 A 
ENDBRANCH  27  48
BRANCH  39  56
ATOM     56  C   UNL A   1      39.172  32.435  36.100  1.00  0.00     0.057 A 
ATOM     57  C   UNL A   1      38.315  31.971  37.104  1.00  0.00     0.134 A 
ATOM     58  C   UNL A   1      39.707  33.721  36.242  1.00  0.00     0.134 A 
ATOM     59  F   UNL A   1      37.767  30.749  37.024  1.00  0.00    -0.206 F 
ATOM     60  C   UNL A   1      38.000  32.760  38.211  1.00  0.00     0.040 A 
ATOM     61  C   UNL A   1      39.418  34.509  37.356  1.00  0.00     0.040 A 
ATOM     62  F   UNL A   1      40.548  34.213  35.321  1.00  0.00    -0.206 F 
ATOM     63  C   UNL A   1      38.557  34.031  38.342  1.00  0.00     0.006 A 
ENDBRANCH  39  56
ENDBRANCH  13  14
ENDBRANCH   6   8
ENDBRANCH   5   6
ENDBRANCH   4   5
ENDBRANCH   3   4
ENDBRANCH   2   3
ENDBRANCH   1   2
BRANCH   1  64
ATOM     64  C   UNL A   1      44.035  18.835  24.842  1.00  0.00     0.188 C 
BRANCH  64  65
ATOM     65  O   UNL A   1      42.796  19.506  25.061  1.00  0.00    -0.376 OA
BRANCH  65  66
ATOM     66  C   UNL A   1      42.006  18.923  26.102  1.00  0.00     0.202 C 
BRANCH  66  67
ATOM     67  C   UNL A   1      41.368  19.951  27.050  1.00  0.00     0.261 C 
BRANCH  67  68
ATOM     68  O   UNL A   1      40.016  20.334  26.705  1.00  0.00    -0.459 OA
BRANCH  68  69
ATOM     69  C   UNL A   1      39.897  21.491  26.028  1.00  0.00     0.343 C 
ATOM     70  O   UNL A   1      40.803  22.271  25.758  1.00  0.00    -0.246 OA
BRANCH  69  71
ATOM     71  C   UNL A   1      38.490  21.837  25.847  1.00  0.00     0.122 A 
ATOM     72  C   UNL A   1      37.501  20.885  25.541  1.00  0.00     0.031 A 
ATOM     73  C   UNL A   1      38.145  23.182  25.882  1.00  0.00     0.225 A 
ATOM     74  C   UNL A   1      36.194  21.317  25.257  1.00  0.00     0.001 A 
ATOM     75  N   UNL A   1      36.906  23.624  25.623  1.00  0.00    -0.221 NA
ATOM     76  C   UNL A   1      35.968  22.696  25.326  1.00  0.00     0.124 A 
BRANCH  73  77
ATOM     77  O   UNL A   1      38.996  24.180  26.257  1.00  0.00    -0.493 OA
ATOM     78  H   UNL A   1      38.786  24.724  26.991  1.00  0.00     0.295 HD
ENDBRANCH  73  77
BRANCH  74  79
ATOM     79  C   UNL A   1      35.100  20.431  24.828  1.00  0.00    -0.016 A 
ATOM     80  C   UNL A   1      33.817  20.975  24.620  1.00  0.00     0.012 A 
ATOM     81  C   UNL A   1      35.246  19.037  24.720  1.00  0.00     0.025 A 
ATOM     82  C   UNL A   1      32.719  20.160  24.342  1.00  0.00     0.040 A 
ATOM     83  C   UNL A   1      34.137  18.203  24.454  1.00  0.00     0.092 A 
ATOM     84  C   UNL A   1      32.888  18.786  24.270  1.00  0.00     0.135 A 
ATOM     85  F   UNL A   1      31.817  18.016  24.035  1.00  0.00    -0.206 F 
BRANCH  83  86
ATOM     86  C   UNL A   1      34.220  16.705  24.403  1.00  0.00     0.419 C 
ATOM     87  F   UNL A   1      35.418  16.229  24.841  1.00  0.00    -0.166 F 
ATOM     88  F   UNL A   1      33.266  16.090  25.153  1.00  0.00    -0.166 F 
ATOM     89  F   UNL A   1      34.072  16.204  23.147  1.00  0.00    -0.166 F 
ENDBRANCH  83  86
ENDBRANCH  74  79
ENDBRANCH  69  71
ENDBRANCH  68  69
ENDBRANCH  67  68
ENDBRANCH  66  67
ENDBRANCH  65  66
ENDBRANCH  64  65
ENDBRANCH   1  64
TORSDOF 20
ENDMDL
MODEL 3
REMARK VINA RESULT:     -10.9      5.047      9.826
REMARK SMILES O=C(OCCOCCOCCOC(=O)c1cc(-c2ccc(F)c(C(F)(F)F)c2)cnc1O)c1ccc(-c2c3nc(c(-c4c(F)cccc4F)c4ccc([nH]4)c(-c4c(F)cccc4F)c4nc(c(-c5c(F)cccc5F)c5ccc2[nH]5)C=C4)C=C3)cc1
REMARK SMILES IDX 7 1 6 2 5 3 4 4 3 5 2 6 1 7 33 8 34 9 86 10 35 11 85 12
REMARK SMILES IDX 36 13 37 14 38 15 79 16 39 17 84 18 78 19 80 20 40 21 83 22
REMARK SMILES IDX 77 23 76 24 41 26 67 27 50 28 66 29 51 30 54 31 65 32 81 33
REMARK SMILES IDX 52 34 53 35 64 37 82 38 55 39 42 40 43 41 48 42 44 43 45 44
REMARK SMILES IDX 47 45 49 46 46 47 68 48 69 49 74 50 70 51 71 52 73 53 75 54
REMARK SMILES IDX 72 55 56 56 57 57 62 58 58 59 59 60 61 61 63 62 60 63 8 64
REMARK SMILES IDX 9 65 10 66 11 67 12 68 13 69 14 70 15 71 16 72 31 73 17 74
REMARK SMILES IDX 30 75 29 76 32 77 18 79 19 80 28 81 20 82 23 83 21 84 22 85
REMARK SMILES IDX 24 86 25 87 26 88 27 89
REMARK H PARENT 80 25 54 36 32 78
REMARK Flexibility Score: inf
ROOT
ATOM      1  C   UNL A   1      31.860  26.470  25.967  1.00  0.00     0.188 C 
ENDROOT
BRANCH   1   2
ATOM      2  O   UNL A   1      31.672  26.780  24.582  1.00  0.00    -0.376 OA
BRANCH   2   3
ATOM      3  C   UNL A   1      31.707  28.187  24.323  1.00  0.00     0.202 C 
BRANCH   3   4
ATOM      4  C   UNL A   1      31.654  29.050  25.592  1.00  0.00     0.261 C 
BRANCH   4   5
ATOM      5  O   UNL A   1      32.739  29.980  25.724  1.00  0.00    -0.460 OA
BRANCH   5   6
ATOM      6  C   UNL A   1      33.021  30.858  26.715  1.00  0.00     0.338 C 
ATOM      7  O   UNL A   1      32.176  31.721  26.959  1.00  0.00    -0.246 OA
BRANCH   6   8
ATOM      8  C   UNL A   1      34.299  30.900  27.511  1.00  0.00     0.060 A 
ATOM      9  C   UNL A   1      34.688  29.689  28.115  1.00  0.00     0.016 A 
ATOM     10  C   UNL A   1      35.130  32.002  27.714  1.00  0.00     0.016 A 
ATOM     11  C   UNL A   1      35.848  29.589  28.893  1.00  0.00     0.010 A 
ATOM     12  C   UNL A   1      36.281  31.918  28.503  1.00  0.00     0.010 A 
ATOM     13  C   UNL A   1      36.652  30.709  29.089  1.00  0.00    -0.014 A 
BRANCH  13  14
ATOM     14  C   UNL A   1      37.987  30.599  29.707  1.00  0.00     0.031 A 
ATOM     15  C   UNL A   1      39.057  29.717  29.153  1.00  0.00     0.074 A 
ATOM     16  C   UNL A   1      38.154  31.202  30.896  1.00  0.00     0.049 A 
ATOM     17  N   UNL A   1      40.274  29.525  29.594  1.00  0.00    -0.248 NA
ATOM     18  C   UNL A   1      38.712  28.938  27.959  1.00  0.00     0.031 C 
ATOM     19  C   UNL A   1      37.136  32.004  31.579  1.00  0.00     0.029 A 
ATOM     20  N   UNL A   1      39.206  31.169  31.768  1.00  0.00    -0.354 N 
ATOM     21  C   UNL A   1      40.866  28.654  28.691  1.00  0.00     0.074 A 
ATOM     22  C   UNL A   1      39.845  28.282  27.741  1.00  0.00     0.031 C 
ATOM     23  C   UNL A   1      37.588  32.327  32.798  1.00  0.00     0.029 A 
ATOM     24  C   UNL A   1      38.919  31.755  32.972  1.00  0.00     0.049 A 
ATOM     25  H   UNL A   1      40.078  30.766  31.554  1.00  0.00     0.167 HD
ATOM     26  C   UNL A   1      42.149  28.221  28.647  1.00  0.00     0.037 A 
ATOM     27  C   UNL A   1      39.637  31.796  34.106  1.00  0.00     0.037 A 
ATOM     28  C   UNL A   1      43.112  28.486  29.682  1.00  0.00     0.049 A 
ATOM     29  C   UNL A   1      41.010  31.201  34.119  1.00  0.00     0.074 A 
ATOM     30  C   UNL A   1      44.454  28.152  29.736  1.00  0.00     0.029 A 
ATOM     31  N   UNL A   1      42.802  29.096  30.889  1.00  0.00    -0.354 N 
ATOM     32  N   UNL A   1      41.638  30.563  33.161  1.00  0.00    -0.248 NA
ATOM     33  C   UNL A   1      41.779  31.350  35.357  1.00  0.00     0.031 C 
ATOM     34  C   UNL A   1      44.933  28.491  31.009  1.00  0.00     0.029 A 
ATOM     35  C   UNL A   1      43.902  29.078  31.728  1.00  0.00     0.049 A 
ATOM     36  H   UNL A   1      41.926  29.484  31.116  1.00  0.00     0.167 HD
ATOM     37  C   UNL A   1      42.884  30.240  33.675  1.00  0.00     0.074 A 
ATOM     38  C   UNL A   1      42.926  30.769  35.025  1.00  0.00     0.031 C 
ATOM     39  C   UNL A   1      43.905  29.570  33.083  1.00  0.00     0.037 A 
BRANCH  26  40
ATOM     40  C   UNL A   1      42.559  27.413  27.449  1.00  0.00     0.057 A 
ATOM     41  C   UNL A   1      42.916  28.026  26.243  1.00  0.00     0.134 A 
ATOM     42  C   UNL A   1      42.597  26.011  27.496  1.00  0.00     0.134 A 
ATOM     43  F   UNL A   1      42.898  29.362  26.125  1.00  0.00    -0.206 F 
ATOM     44  C   UNL A   1      43.305  27.275  25.129  1.00  0.00     0.040 A 
ATOM     45  C   UNL A   1      43.006  25.252  26.397  1.00  0.00     0.040 A 
ATOM     46  F   UNL A   1      42.259  25.357  28.620  1.00  0.00    -0.206 F 
ATOM     47  C   UNL A   1      43.360  25.885  25.208  1.00  0.00     0.006 A 
ENDBRANCH  26  40
BRANCH  27  48
ATOM     48  C   UNL A   1      39.037  32.439  35.295  1.00  0.00     0.057 A 
ATOM     49  C   UNL A   1      39.243  33.799  35.562  1.00  0.00     0.134 A 
ATOM     50  C   UNL A   1      38.347  31.685  36.248  1.00  0.00     0.134 A 
ATOM     51  F   UNL A   1      39.921  34.565  34.694  1.00  0.00    -0.206 F 
ATOM     52  C   UNL A   1      38.798  34.382  36.748  1.00  0.00     0.040 A 
ATOM     53  C   UNL A   1      37.882  32.260  37.430  1.00  0.00     0.040 A 
ATOM     54  F   UNL A   1      38.124  30.379  36.041  1.00  0.00    -0.206 F 
ATOM     55  C   UNL A   1      38.116  33.610  37.687  1.00  0.00     0.006 A 
ENDBRANCH  27  48
BRANCH  39  56
ATOM     56  C   UNL A   1      45.129  29.344  33.914  1.00  0.00     0.057 A 
ATOM     57  C   UNL A   1      46.166  30.283  33.940  1.00  0.00     0.134 A 
ATOM     58  C   UNL A   1      45.282  28.183  34.683  1.00  0.00     0.134 A 
ATOM     59  F   UNL A   1      46.081  31.413  33.223  1.00  0.00    -0.206 F 
ATOM     60  C   UNL A   1      47.315  30.075  34.703  1.00  0.00     0.040 A 
ATOM     61  C   UNL A   1      46.416  27.975  35.468  1.00  0.00     0.040 A 
ATOM     62  F   UNL A   1      44.314  27.255  34.713  1.00  0.00    -0.206 F 
ATOM     63  C   UNL A   1      47.439  28.921  35.475  1.00  0.00     0.006 A 
ENDBRANCH  39  56
ENDBRANCH  13  14
ENDBRANCH   6   8
ENDBRANCH   5   6
ENDBRANCH   4   5
ENDBRANCH   3   4
ENDBRANCH   2   3
ENDBRANCH   1   2
BRANCH   1  64
ATOM     64  C   UNL A   1      32.107  24.983  26.225  1.00  0.00     0.188 C 
BRANCH  64  65
ATOM     65  O   UNL A   1      31.197  24.454  27.186  1.00  0.00    -0.376 OA
BRANCH  65  66
ATOM     66  C   UNL A   1      30.681  23.166  26.837  1.00  0.00     0.202 C 
BRANCH  66  67
ATOM     67  C   UNL A   1      31.142  22.662  25.458  1.00  0.00     0.261 C 
BRANCH  67  68
ATOM     68  O   UNL A   1      32.130  21.607  25.500  1.00  0.00    -0.459 OA
BRANCH  68  69
ATOM     69  C   UNL A   1      32.618  21.224  24.306  1.00  0.00     0.343 C 
ATOM     70  O   UNL A   1      32.207  20.299  23.615  1.00  0.00    -0.246 OA
BRANCH  69  71
ATOM     71  C   UNL A   1      33.876  21.910  24.023  1.00  0.00     0.122 A 
ATOM     72  C   UNL A   1      35.010  21.802  24.848  1.00  0.00     0.031 A 
ATOM     73  C   UNL A   1      33.908  22.782  22.942  1.00  0.00     0.225 A 
ATOM     74  C   UNL A   1      36.138  22.593  24.575  1.00  0.00     0.001 A 
ATOM     75  N   UNL A   1      34.972  23.545  22.651  1.00  0.00    -0.221 NA
ATOM     76  C   UNL A   1      36.052  23.432  23.458  1.00  0.00     0.124 A 
BRANCH  73  77
ATOM     77  O   UNL A   1      32.907  22.898  22.023  1.00  0.00    -0.493 OA
ATOM     78  H   UNL A   1      32.932  22.391  21.235  1.00  0.00     0.295 HD
ENDBRANCH  73  77
BRANCH  74  79
ATOM     79  C   UNL A   1      37.343  22.645  25.419  1.00  0.00    -0.016 A 
ATOM     80  C   UNL A   1      37.711  23.865  26.017  1.00  0.00     0.012 A 
ATOM     81  C   UNL A   1      38.214  21.551  25.569  1.00  0.00     0.025 A 
ATOM     82  C   UNL A   1      38.912  23.999  26.715  1.00  0.00     0.040 A 
ATOM     83  C   UNL A   1      39.440  21.682  26.261  1.00  0.00     0.092 A 
ATOM     84  C   UNL A   1      39.765  22.912  26.823  1.00  0.00     0.135 A 
ATOM     85  F   UNL A   1      40.929  23.066  27.468  1.00  0.00    -0.206 F 
BRANCH  83  86
ATOM     86  C   UNL A   1      40.441  20.571  26.389  1.00  0.00     0.419 C 
ATOM     87  F   UNL A   1      41.625  20.856  25.779  1.00  0.00    -0.166 F 
ATOM     88  F   UNL A   1      40.740  20.266  27.681  1.00  0.00    -0.166 F 
ATOM     89  F   UNL A   1      40.021  19.405  25.829  1.00  0.00    -0.166 F 
ENDBRANCH  83  86
ENDBRANCH  74  79
ENDBRANCH  69  71
ENDBRANCH  68  69
ENDBRANCH  67  68
ENDBRANCH  66  67
ENDBRANCH  65  66
ENDBRANCH  64  65
ENDBRANCH   1  64
TORSDOF 20
ENDMDL
