MODEL 1
REMARK VINA RESULT:      -9.2      0.000      0.000
REMARK SMILES CC(C)CCN(C(=O)N[C@H](C(=O)OCCOCCOCCOC(=O)c1ccc(-c2c3nc(c(-c4c(F)cccc4F)c4ccc([nH]4)c(-c4c(F)cccc4F)c4nc(c(-c5c(F)cccc5F)c5ccc2[nH]5)C=C4)C=C3)cc1)[C@H](C)O)C1CCCC1
REMARK SMILES IDX 16 1 15 2 14 3 13 4 11 5 12 6 10 7 9 8 7 9 8 10 6 12 5 13
REMARK SMILES IDX 4 14 2 15 1 16 3 17 82 18 83 19 86 20 84 21 85 22 79 23
REMARK SMILES IDX 80 24 81 25 17 27 18 28 19 29 20 30 21 31 22 32 23 33 24 34
REMARK SMILES IDX 25 35 26 36 78 37 27 38 77 39 28 40 29 41 30 42 71 43 31 44
REMARK SMILES IDX 76 45 70 46 72 47 32 48 75 49 69 50 68 51 33 53 59 54 42 55
REMARK SMILES IDX 58 56 43 57 46 58 57 59 73 60 44 61 45 62 56 64 74 65 47 66
REMARK SMILES IDX 34 67 35 68 40 69 36 70 37 71 39 72 41 73 38 74 60 75 61 76
REMARK SMILES IDX 66 77 62 78 63 79 65 80 67 81 64 82 48 83 49 84 54 85 50 86
REMARK SMILES IDX 51 87 53 88 55 89 52 90
REMARK H PARENT 9 11 81 26 72 52 46 63
REMARK Flexibility Score: inf
ROOT
ATOM      1  O   UNL A   1      34.471  30.935  27.520  1.00  0.00    -0.376 OA
ENDROOT
BRANCH   1   2
ATOM      2  C   UNL A   1      33.535  30.122  26.809  1.00  0.00     0.202 C 
BRANCH   2   3
ATOM      3  C   UNL A   1      33.962  28.708  26.363  1.00  0.00     0.261 C 
BRANCH   3   4
ATOM      4  O   UNL A   1      33.055  28.109  25.414  1.00  0.00    -0.462 OA
BRANCH   4   5
ATOM      5  C   UNL A   1      33.534  27.879  24.147  1.00  0.00     0.331 C 
ATOM      6  O   UNL A   1      34.281  28.639  23.545  1.00  0.00    -0.250 OA
BRANCH   5   7
ATOM      7  C   UNL A   1      33.204  26.429  23.724  1.00  0.00     0.222 C 
BRANCH   7   8
ATOM      8  N   UNL A   1      33.216  25.463  24.835  1.00  0.00    -0.322 N 
ATOM      9  C   UNL A   1      33.557  24.220  25.168  1.00  0.00     0.318 C 
ATOM     10  O   UNL A   1      33.459  24.008  26.383  1.00  0.00    -0.249 OA
ATOM     11  H   UNL A   1      32.827  25.898  25.627  1.00  0.00     0.166 HD
BRANCH   9  12
ATOM     12  N   UNL A   1      33.994  23.254  24.298  1.00  0.00    -0.322 N 
BRANCH  12  13
ATOM     13  C   UNL A   1      35.118  23.424  23.353  1.00  0.00     0.122 C 
BRANCH  13  14
ATOM     14  C   UNL A   1      36.556  23.450  23.928  1.00  0.00     0.024 C 
BRANCH  14  15
ATOM     15  C   UNL A   1      36.935  22.709  25.221  1.00  0.00    -0.016 C 
ATOM     16  C   UNL A   1      37.547  21.333  24.968  1.00  0.00     0.007 C 
ATOM     17  C   UNL A   1      37.892  23.561  26.063  1.00  0.00     0.007 C 
ENDBRANCH  14  15
ENDBRANCH  13  14
ENDBRANCH  12  13
BRANCH  12  18
ATOM     18  C   UNL A   1      32.968  22.215  24.021  1.00  0.00     0.087 C 
ATOM     19  C   UNL A   1      32.587  22.102  22.538  1.00  0.00     0.025 C 
ATOM     20  C   UNL A   1      33.333  20.792  24.377  1.00  0.00     0.025 C 
ATOM     21  C   UNL A   1      31.978  20.706  22.380  1.00  0.00     0.002 C 
ATOM     22  C   UNL A   1      32.387  19.897  23.606  1.00  0.00     0.002 C 
ENDBRANCH  12  18
ENDBRANCH   9  12
ENDBRANCH   7   8
BRANCH   7  23
ATOM     23  C   UNL A   1      32.187  26.295  22.587  1.00  0.00     0.145 C 
ATOM     24  C   UNL A   1      32.714  25.476  21.409  1.00  0.00     0.041 C 
BRANCH  23  25
ATOM     25  O   UNL A   1      31.910  27.601  22.044  1.00  0.00    -0.391 OA
ATOM     26  H   UNL A   1      31.089  27.945  22.432  1.00  0.00     0.211 HD
ENDBRANCH  23  25
ENDBRANCH   7  23
ENDBRANCH   5   7
ENDBRANCH   4   5
ENDBRANCH   3   4
ENDBRANCH   2   3
ENDBRANCH   1   2
BRANCH   1  27
ATOM     27  C   UNL A   1      34.033  32.188  28.032  1.00  0.00     0.188 C 
BRANCH  27  28
ATOM     28  C   UNL A   1      34.905  32.886  29.085  1.00  0.00     0.188 C 
BRANCH  28  29
ATOM     29  O   UNL A   1      34.657  34.256  29.241  1.00  0.00    -0.376 OA
BRANCH  29  30
ATOM     30  C   UNL A   1      33.307  34.691  29.242  1.00  0.00     0.202 C 
BRANCH  30  31
ATOM     31  C   UNL A   1      32.894  36.099  29.731  1.00  0.00     0.261 C 
BRANCH  31  32
ATOM     32  O   UNL A   1      33.235  36.486  31.076  1.00  0.00    -0.460 OA
BRANCH  32  33
ATOM     33  C   UNL A   1      32.813  35.683  32.087  1.00  0.00     0.338 C 
ATOM     34  O   UNL A   1      31.664  35.431  32.387  1.00  0.00    -0.246 OA
BRANCH  33  35
ATOM     35  C   UNL A   1      33.997  34.950  32.612  1.00  0.00     0.060 A 
ATOM     36  C   UNL A   1      35.272  35.526  32.473  1.00  0.00     0.016 A 
ATOM     37  C   UNL A   1      33.855  33.715  33.244  1.00  0.00     0.016 A 
ATOM     38  C   UNL A   1      36.406  34.859  32.948  1.00  0.00     0.010 A 
ATOM     39  C   UNL A   1      34.995  33.035  33.691  1.00  0.00     0.010 A 
ATOM     40  C   UNL A   1      36.279  33.588  33.522  1.00  0.00    -0.014 A 
BRANCH  40  41
ATOM     41  C   UNL A   1      37.484  32.756  33.776  1.00  0.00     0.031 A 
ATOM     42  C   UNL A   1      38.289  33.018  35.020  1.00  0.00     0.074 A 
ATOM     43  C   UNL A   1      37.871  31.789  32.926  1.00  0.00     0.049 A 
ATOM     44  N   UNL A   1      39.421  32.489  35.410  1.00  0.00    -0.248 NA
ATOM     45  C   UNL A   1      37.740  34.021  35.946  1.00  0.00     0.031 C 
ATOM     46  C   UNL A   1      37.166  31.399  31.708  1.00  0.00     0.029 A 
ATOM     47  N   UNL A   1      38.975  30.971  32.954  1.00  0.00    -0.354 N 
ATOM     48  C   UNL A   1      39.726  33.103  36.618  1.00  0.00     0.074 A 
ATOM     49  C   UNL A   1      38.677  34.066  36.880  1.00  0.00     0.031 C 
ATOM     50  C   UNL A   1      37.867  30.430  31.093  1.00  0.00     0.029 A 
ATOM     51  C   UNL A   1      39.086  30.158  31.853  1.00  0.00     0.049 A 
ATOM     52  H   UNL A   1      39.625  30.967  33.694  1.00  0.00     0.167 HD
ATOM     53  C   UNL A   1      40.780  32.883  37.441  1.00  0.00     0.037 A 
ATOM     54  C   UNL A   1      40.072  29.314  31.486  1.00  0.00     0.037 A 
ATOM     55  C   UNL A   1      41.831  31.934  37.178  1.00  0.00     0.049 A 
ATOM     56  C   UNL A   1      41.278  29.142  32.372  1.00  0.00     0.074 A 
ATOM     57  C   UNL A   1      42.930  31.625  37.960  1.00  0.00     0.029 A 
ATOM     58  N   UNL A   1      41.921  31.150  36.037  1.00  0.00    -0.354 N 
ATOM     59  N   UNL A   1      41.547  29.707  33.525  1.00  0.00    -0.248 NA
ATOM     60  C   UNL A   1      42.317  28.211  31.907  1.00  0.00     0.031 C 
ATOM     61  C   UNL A   1      43.718  30.702  37.264  1.00  0.00     0.029 A 
ATOM     62  C   UNL A   1      43.075  30.383  36.078  1.00  0.00     0.049 A 
ATOM     63  H   UNL A   1      41.263  31.140  35.305  1.00  0.00     0.167 HD
ATOM     64  C   UNL A   1      42.770  29.182  33.933  1.00  0.00     0.074 A 
ATOM     65  C   UNL A   1      43.181  28.242  32.912  1.00  0.00     0.031 C 
ATOM     66  C   UNL A   1      43.482  29.452  35.056  1.00  0.00     0.037 A 
BRANCH  53  67
ATOM     67  C   UNL A   1      40.863  33.720  38.687  1.00  0.00     0.057 A 
ATOM     68  C   UNL A   1      41.647  34.879  38.755  1.00  0.00     0.134 A 
ATOM     69  C   UNL A   1      40.145  33.360  39.834  1.00  0.00     0.134 A 
ATOM     70  F   UNL A   1      42.372  35.275  37.698  1.00  0.00    -0.206 F 
ATOM     71  C   UNL A   1      41.744  35.628  39.931  1.00  0.00     0.040 A 
ATOM     72  C   UNL A   1      40.208  34.118  41.005  1.00  0.00     0.040 A 
ATOM     73  F   UNL A   1      39.370  32.265  39.838  1.00  0.00    -0.206 F 
ATOM     74  C   UNL A   1      41.019  35.250  41.058  1.00  0.00     0.006 A 
ENDBRANCH  53  67
BRANCH  54  75
ATOM     75  C   UNL A   1      39.968  28.574  30.201  1.00  0.00     0.057 A 
ATOM     76  C   UNL A   1      39.255  27.373  30.110  1.00  0.00     0.134 A 
ATOM     77  C   UNL A   1      40.583  29.049  29.035  1.00  0.00     0.134 A 
ATOM     78  F   UNL A   1      38.669  26.851  31.197  1.00  0.00    -0.206 F 
ATOM     79  C   UNL A   1      39.164  26.667  28.909  1.00  0.00     0.040 A 
ATOM     80  C   UNL A   1      40.477  28.368  27.822  1.00  0.00     0.040 A 
ATOM     81  F   UNL A   1      41.285  30.191  29.058  1.00  0.00    -0.206 F 
ATOM     82  C   UNL A   1      39.769  27.170  27.758  1.00  0.00     0.006 A 
ENDBRANCH  54  75
BRANCH  66  83
ATOM     83  C   UNL A   1      44.769  28.699  35.260  1.00  0.00     0.057 A 
ATOM     84  C   UNL A   1      46.005  29.209  34.842  1.00  0.00     0.134 A 
ATOM     85  C   UNL A   1      44.773  27.462  35.918  1.00  0.00     0.134 A 
ATOM     86  F   UNL A   1      46.073  30.383  34.197  1.00  0.00    -0.206 F 
ATOM     87  C   UNL A   1      47.193  28.504  35.048  1.00  0.00     0.040 A 
ATOM     88  C   UNL A   1      45.958  26.762  36.156  1.00  0.00     0.040 A 
ATOM     89  F   UNL A   1      43.627  26.917  36.355  1.00  0.00    -0.206 F 
ATOM     90  C   UNL A   1      47.172  27.280  35.714  1.00  0.00     0.006 A 
ENDBRANCH  66  83
ENDBRANCH  40  41
ENDBRANCH  33  35
ENDBRANCH  32  33
ENDBRANCH  31  32
ENDBRANCH  30  31
ENDBRANCH  29  30
ENDBRANCH  28  29
ENDBRANCH  27  28
ENDBRANCH   1  27
TORSDOF 25
ENDMDL
MODEL 2
REMARK VINA RESULT:      -8.8      5.287      9.084
REMARK SMILES CC(C)CCN(C(=O)N[C@H](C(=O)OCCOCCOCCOC(=O)c1ccc(-c2c3nc(c(-c4c(F)cccc4F)c4ccc([nH]4)c(-c4c(F)cccc4F)c4nc(c(-c5c(F)cccc5F)c5ccc2[nH]5)C=C4)C=C3)cc1)[C@H](C)O)C1CCCC1
REMARK SMILES IDX 16 1 15 2 14 3 13 4 11 5 12 6 10 7 9 8 7 9 8 10 6 12 5 13
REMARK SMILES IDX 4 14 2 15 1 16 3 17 82 18 83 19 86 20 84 21 85 22 79 23
REMARK SMILES IDX 80 24 81 25 17 27 18 28 19 29 20 30 21 31 22 32 23 33 24 34
REMARK SMILES IDX 25 35 26 36 78 37 27 38 77 39 28 40 29 41 30 42 71 43 31 44
REMARK SMILES IDX 76 45 70 46 72 47 32 48 75 49 69 50 68 51 33 53 59 54 42 55
REMARK SMILES IDX 58 56 43 57 46 58 57 59 73 60 44 61 45 62 56 64 74 65 47 66
REMARK SMILES IDX 34 67 35 68 40 69 36 70 37 71 39 72 41 73 38 74 60 75 61 76
REMARK SMILES IDX 66 77 62 78 63 79 65 80 67 81 64 82 48 83 49 84 54 85 50 86
REMARK SMILES IDX 51 87 53 88 55 89 52 90
REMARK H PARENT 9 11 81 26 72 52 46 63
REMARK Flexibility Score: inf
ROOT
ATOM      1  O   UNL A   1      33.246  30.827  27.280  1.00  0.00    -0.376 OA
ENDROOT
BRANCH   1   2
ATOM      2  C   UNL A   1      33.674  29.523  26.878  1.00  0.00     0.202 C 
BRANCH   2   3
ATOM      3  C   UNL A   1      32.744  28.320  27.140  1.00  0.00     0.261 C 
BRANCH   3   4
ATOM      4  O   UNL A   1      31.434  28.470  26.554  1.00  0.00    -0.462 OA
BRANCH   4   5
ATOM      5  C   UNL A   1      31.188  27.791  25.385  1.00  0.00     0.331 C 
ATOM      6  O   UNL A   1      30.600  28.267  24.423  1.00  0.00    -0.250 OA
BRANCH   5   7
ATOM      7  C   UNL A   1      31.982  26.464  25.380  1.00  0.00     0.222 C 
BRANCH   7   8
ATOM      8  N   UNL A   1      31.323  25.369  26.113  1.00  0.00    -0.322 N 
ATOM      9  C   UNL A   1      31.465  24.104  26.500  1.00  0.00     0.318 C 
ATOM     10  O   UNL A   1      30.579  23.742  27.283  1.00  0.00    -0.249 OA
ATOM     11  H   UNL A   1      30.453  25.695  26.438  1.00  0.00     0.166 HD
BRANCH   9  12
ATOM     12  N   UNL A   1      32.477  23.263  26.114  1.00  0.00    -0.322 N 
BRANCH  12  13
ATOM     13  C   UNL A   1      33.917  23.571  26.245  1.00  0.00     0.122 C 
BRANCH  13  14
ATOM     14  C   UNL A   1      34.764  23.659  24.951  1.00  0.00     0.024 C 
BRANCH  14  15
ATOM     15  C   UNL A   1      36.103  22.921  24.796  1.00  0.00    -0.016 C 
ATOM     16  C   UNL A   1      36.080  21.505  25.367  1.00  0.00     0.007 C 
ATOM     17  C   UNL A   1      36.525  22.884  23.322  1.00  0.00     0.007 C 
ENDBRANCH  14  15
ENDBRANCH  13  14
ENDBRANCH  12  13
BRANCH  12  18
ATOM     18  C   UNL A   1      32.042  22.248  25.120  1.00  0.00     0.087 C 
ATOM     19  C   UNL A   1      32.440  22.585  23.676  1.00  0.00     0.025 C 
ATOM     20  C   UNL A   1      32.591  20.850  25.295  1.00  0.00     0.025 C 
ATOM     21  C   UNL A   1      32.402  21.253  22.922  1.00  0.00     0.002 C 
ATOM     22  C   UNL A   1      32.410  20.145  23.968  1.00  0.00     0.002 C 
ENDBRANCH  12  18
ENDBRANCH   9  12
ENDBRANCH   7   8
BRANCH   7  23
ATOM     23  C   UNL A   1      32.772  26.179  24.100  1.00  0.00     0.145 C 
ATOM     24  C   UNL A   1      33.652  27.351  23.669  1.00  0.00     0.041 C 
BRANCH  23  25
ATOM     25  O   UNL A   1      31.849  25.979  23.010  1.00  0.00    -0.391 OA
ATOM     26  H   UNL A   1      31.385  25.135  23.129  1.00  0.00     0.211 HD
ENDBRANCH  23  25
ENDBRANCH   7  23
ENDBRANCH   5   7
ENDBRANCH   4   5
ENDBRANCH   3   4
ENDBRANCH   2   3
ENDBRANCH   1   2
BRANCH   1  27
ATOM     27  C   UNL A   1      34.184  31.681  27.923  1.00  0.00     0.188 C 
BRANCH  27  28
ATOM     28  C   UNL A   1      33.840  33.173  28.046  1.00  0.00     0.188 C 
BRANCH  28  29
ATOM     29  O   UNL A   1      34.369  33.808  29.178  1.00  0.00    -0.376 OA
BRANCH  29  30
ATOM     30  C   UNL A   1      34.433  33.067  30.385  1.00  0.00     0.202 C 
BRANCH  30  31
ATOM     31  C   UNL A   1      35.754  32.879  31.169  1.00  0.00     0.261 C 
BRANCH  31  32
ATOM     32  O   UNL A   1      36.786  32.057  30.588  1.00  0.00    -0.460 OA
BRANCH  32  33
ATOM     33  C   UNL A   1      36.828  30.750  30.955  1.00  0.00     0.338 C 
ATOM     34  O   UNL A   1      35.938  30.109  31.474  1.00  0.00    -0.246 OA
BRANCH  33  35
ATOM     35  C   UNL A   1      38.065  30.155  30.379  1.00  0.00     0.060 A 
ATOM     36  C   UNL A   1      39.059  29.674  31.248  1.00  0.00     0.016 A 
ATOM     37  C   UNL A   1      38.241  30.062  28.998  1.00  0.00     0.016 A 
ATOM     38  C   UNL A   1      40.237  29.117  30.739  1.00  0.00     0.010 A 
ATOM     39  C   UNL A   1      39.434  29.532  28.491  1.00  0.00     0.010 A 
ATOM     40  C   UNL A   1      40.450  29.082  29.355  1.00  0.00    -0.014 A 
BRANCH  40  41
ATOM     41  C   UNL A   1      41.795  28.754  28.812  1.00  0.00     0.031 A 
ATOM     42  C   UNL A   1      42.065  27.343  28.368  1.00  0.00     0.074 A 
ATOM     43  C   UNL A   1      42.767  29.679  28.716  1.00  0.00     0.049 A 
ATOM     44  N   UNL A   1      43.178  26.797  27.948  1.00  0.00    -0.248 NA
ATOM     45  C   UNL A   1      40.920  26.420  28.411  1.00  0.00     0.031 C 
ATOM     46  C   UNL A   1      42.632  31.089  29.068  1.00  0.00     0.029 A 
ATOM     47  N   UNL A   1      44.073  29.555  28.307  1.00  0.00    -0.354 N 
ATOM     48  C   UNL A   1      42.872  25.467  27.690  1.00  0.00     0.074 A 
ATOM     49  C   UNL A   1      41.476  25.282  28.031  1.00  0.00     0.031 C 
ATOM     50  C   UNL A   1      43.817  31.698  28.881  1.00  0.00     0.029 A 
ATOM     51  C   UNL A   1      44.801  30.713  28.432  1.00  0.00     0.049 A 
ATOM     52  H   UNL A   1      44.452  28.716  27.958  1.00  0.00     0.167 HD
ATOM     53  C   UNL A   1      43.674  24.488  27.207  1.00  0.00     0.037 A 
ATOM     54  C   UNL A   1      46.114  30.945  28.235  1.00  0.00     0.037 A 
ATOM     55  C   UNL A   1      45.064  24.667  26.878  1.00  0.00     0.049 A 
ATOM     56  C   UNL A   1      47.011  29.824  27.777  1.00  0.00     0.074 A 
ATOM     57  C   UNL A   1      45.955  23.741  26.363  1.00  0.00     0.029 A 
ATOM     58  N   UNL A   1      45.771  25.849  27.045  1.00  0.00    -0.354 N 
ATOM     59  N   UNL A   1      46.708  28.576  27.511  1.00  0.00    -0.248 NA
ATOM     60  C   UNL A   1      48.434  30.146  27.588  1.00  0.00     0.031 C 
ATOM     61  C   UNL A   1      47.215  24.343  26.280  1.00  0.00     0.029 A 
ATOM     62  C   UNL A   1      47.095  25.666  26.676  1.00  0.00     0.049 A 
ATOM     63  H   UNL A   1      45.389  26.693  27.377  1.00  0.00     0.167 HD
ATOM     64  C   UNL A   1      47.894  27.973  27.099  1.00  0.00     0.074 A 
ATOM     65  C   UNL A   1      48.916  28.997  27.137  1.00  0.00     0.031 C 
ATOM     66  C   UNL A   1      48.110  26.688  26.721  1.00  0.00     0.037 A 
BRANCH  53  67
ATOM     67  C   UNL A   1      43.068  23.122  27.046  1.00  0.00     0.057 A 
ATOM     68  C   UNL A   1      42.703  22.611  25.792  1.00  0.00     0.134 A 
ATOM     69  C   UNL A   1      42.847  22.305  28.162  1.00  0.00     0.134 A 
ATOM     70  F   UNL A   1      42.874  23.346  24.683  1.00  0.00    -0.206 F 
ATOM     71  C   UNL A   1      42.108  21.355  25.660  1.00  0.00     0.040 A 
ATOM     72  C   UNL A   1      42.283  21.035  28.039  1.00  0.00     0.040 A 
ATOM     73  F   UNL A   1      43.177  22.728  29.392  1.00  0.00    -0.206 F 
ATOM     74  C   UNL A   1      41.901  20.561  26.786  1.00  0.00     0.006 A 
ENDBRANCH  53  67
BRANCH  54  75
ATOM     75  C   UNL A   1      46.670  32.300  28.489  1.00  0.00     0.057 A 
ATOM     76  C   UNL A   1      47.206  32.643  29.736  1.00  0.00     0.134 A 
ATOM     77  C   UNL A   1      46.672  33.284  27.493  1.00  0.00     0.134 A 
ATOM     78  F   UNL A   1      47.207  31.754  30.739  1.00  0.00    -0.206 F 
ATOM     79  C   UNL A   1      47.718  33.918  29.985  1.00  0.00     0.040 A 
ATOM     80  C   UNL A   1      47.205  34.554  27.720  1.00  0.00     0.040 A 
ATOM     81  F   UNL A   1      46.166  33.020  26.279  1.00  0.00    -0.206 F 
ATOM     82  C   UNL A   1      47.726  34.875  28.971  1.00  0.00     0.006 A 
ENDBRANCH  54  75
BRANCH  66  83
ATOM     83  C   UNL A   1      49.502  26.319  26.284  1.00  0.00     0.057 A 
ATOM     84  C   UNL A   1      50.002  26.660  25.020  1.00  0.00     0.134 A 
ATOM     85  C   UNL A   1      50.368  25.647  27.158  1.00  0.00     0.134 A 
ATOM     86  F   UNL A   1      49.225  27.295  24.130  1.00  0.00    -0.206 F 
ATOM     87  C   UNL A   1      51.301  26.321  24.633  1.00  0.00     0.040 A 
ATOM     88  C   UNL A   1      51.677  25.330  26.792  1.00  0.00     0.040 A 
ATOM     89  F   UNL A   1      49.960  25.299  28.388  1.00  0.00    -0.206 F 
ATOM     90  C   UNL A   1      52.144  25.660  25.523  1.00  0.00     0.006 A 
ENDBRANCH  66  83
ENDBRANCH  40  41
ENDBRANCH  33  35
ENDBRANCH  32  33
ENDBRANCH  31  32
ENDBRANCH  30  31
ENDBRANCH  29  30
ENDBRANCH  28  29
ENDBRANCH  27  28
ENDBRANCH   1  27
TORSDOF 25
ENDMDL
MODEL 3
REMARK VINA RESULT:      -8.3      2.791      4.582
REMARK SMILES CC(C)CCN(C(=O)N[C@H](C(=O)OCCOCCOCCOC(=O)c1ccc(-c2c3nc(c(-c4c(F)cccc4F)c4ccc([nH]4)c(-c4c(F)cccc4F)c4nc(c(-c5c(F)cccc5F)c5ccc2[nH]5)C=C4)C=C3)cc1)[C@H](C)O)C1CCCC1
REMARK SMILES IDX 16 1 15 2 14 3 13 4 11 5 12 6 10 7 9 8 7 9 8 10 6 12 5 13
REMARK SMILES IDX 4 14 2 15 1 16 3 17 82 18 83 19 86 20 84 21 85 22 79 23
REMARK SMILES IDX 80 24 81 25 17 27 18 28 19 29 20 30 21 31 22 32 23 33 24 34
REMARK SMILES IDX 25 35 26 36 78 37 27 38 77 39 28 40 29 41 30 42 71 43 31 44
REMARK SMILES IDX 76 45 70 46 72 47 32 48 75 49 69 50 68 51 33 53 59 54 42 55
REMARK SMILES IDX 58 56 43 57 46 58 57 59 73 60 44 61 45 62 56 64 74 65 47 66
REMARK SMILES IDX 34 67 35 68 40 69 36 70 37 71 39 72 41 73 38 74 60 75 61 76
REMARK SMILES IDX 66 77 62 78 63 79 65 80 67 81 64 82 48 83 49 84 54 85 50 86
REMARK SMILES IDX 51 87 53 88 55 89 52 90
REMARK H PARENT 9 11 81 26 72 52 46 63
REMARK Flexibility Score: inf
ROOT
ATOM      1  O   UNL A   1      32.923  29.217  27.164  1.00  0.00    -0.376 OA
ENDROOT
BRANCH   1   2
ATOM      2  C   UNL A   1      32.032  28.129  27.420  1.00  0.00     0.202 C 
BRANCH   2   3
ATOM      3  C   UNL A   1      31.463  27.334  26.226  1.00  0.00     0.261 C 
BRANCH   3   4
ATOM      4  O   UNL A   1      31.091  25.982  26.564  1.00  0.00    -0.462 OA
BRANCH   4   5
ATOM      5  C   UNL A   1      30.263  25.322  25.689  1.00  0.00     0.331 C 
ATOM      6  O   UNL A   1      29.361  25.856  25.056  1.00  0.00    -0.250 OA
BRANCH   5   7
ATOM      7  C   UNL A   1      30.807  23.896  25.436  1.00  0.00     0.222 C 
BRANCH   7   8
ATOM      8  N   UNL A   1      31.937  23.844  24.494  1.00  0.00    -0.322 N 
ATOM      9  C   UNL A   1      33.054  23.184  24.199  1.00  0.00     0.318 C 
ATOM     10  O   UNL A   1      33.543  23.531  23.117  1.00  0.00    -0.249 OA
ATOM     11  H   UNL A   1      31.825  24.568  23.837  1.00  0.00     0.166 HD
BRANCH   9  12
ATOM     12  N   UNL A   1      33.627  22.204  24.970  1.00  0.00    -0.322 N 
BRANCH  12  13
ATOM     13  C   UNL A   1      34.681  22.443  25.979  1.00  0.00     0.122 C 
BRANCH  13  14
ATOM     14  C   UNL A   1      35.514  23.744  25.871  1.00  0.00     0.024 C 
BRANCH  14  15
ATOM     15  C   UNL A   1      36.881  23.786  25.170  1.00  0.00    -0.016 C 
ATOM     16  C   UNL A   1      38.053  23.564  26.123  1.00  0.00     0.007 C 
ATOM     17  C   UNL A   1      36.929  22.758  24.033  1.00  0.00     0.007 C 
ENDBRANCH  14  15
ENDBRANCH  13  14
ENDBRANCH  12  13
BRANCH  12  18
ATOM     18  C   UNL A   1      33.476  20.845  24.389  1.00  0.00     0.087 C 
ATOM     19  C   UNL A   1      34.650  19.906  24.699  1.00  0.00     0.025 C 
ATOM     20  C   UNL A   1      32.281  20.041  24.847  1.00  0.00     0.025 C 
ATOM     21  C   UNL A   1      34.099  18.490  24.508  1.00  0.00     0.002 C 
ATOM     22  C   UNL A   1      32.579  18.595  24.516  1.00  0.00     0.002 C 
ENDBRANCH  12  18
ENDBRANCH   9  12
ENDBRANCH   7   8
BRANCH   7  23
ATOM     23  C   UNL A   1      30.754  22.953  26.641  1.00  0.00     0.145 C 
ATOM     24  C   UNL A   1      29.362  22.859  27.264  1.00  0.00     0.041 C 
BRANCH  23  25
ATOM     25  O   UNL A   1      31.600  23.473  27.686  1.00  0.00    -0.391 OA
ATOM     26  H   UNL A   1      31.701  22.805  28.383  1.00  0.00     0.211 HD
ENDBRANCH  23  25
ENDBRANCH   7  23
ENDBRANCH   5   7
ENDBRANCH   4   5
ENDBRANCH   3   4
ENDBRANCH   2   3
ENDBRANCH   1   2
BRANCH   1  27
ATOM     27  C   UNL A   1      34.292  29.073  27.522  1.00  0.00     0.188 C 
BRANCH  27  28
ATOM     28  C   UNL A   1      35.164  30.335  27.575  1.00  0.00     0.188 C 
BRANCH  28  29
ATOM     29  O   UNL A   1      34.453  31.541  27.644  1.00  0.00    -0.376 OA
BRANCH  29  30
ATOM     30  C   UNL A   1      35.064  32.636  28.307  1.00  0.00     0.202 C 
BRANCH  30  31
ATOM     31  C   UNL A   1      34.863  32.902  29.818  1.00  0.00     0.261 C 
BRANCH  31  32
ATOM     32  O   UNL A   1      35.857  32.412  30.739  1.00  0.00    -0.460 OA
BRANCH  32  33
ATOM     33  C   UNL A   1      36.343  33.284  31.660  1.00  0.00     0.338 C 
ATOM     34  O   UNL A   1      35.880  34.366  31.956  1.00  0.00    -0.246 OA
BRANCH  33  35
ATOM     35  C   UNL A   1      37.398  32.582  32.441  1.00  0.00     0.060 A 
ATOM     36  C   UNL A   1      37.021  31.794  33.542  1.00  0.00     0.016 A 
ATOM     37  C   UNL A   1      38.743  32.687  32.086  1.00  0.00     0.016 A 
ATOM     38  C   UNL A   1      37.988  31.128  34.301  1.00  0.00     0.010 A 
ATOM     39  C   UNL A   1      39.712  32.044  32.866  1.00  0.00     0.010 A 
ATOM     40  C   UNL A   1      39.346  31.284  33.993  1.00  0.00    -0.014 A 
BRANCH  40  41
ATOM     41  C   UNL A   1      40.388  30.816  34.943  1.00  0.00     0.031 A 
ATOM     42  C   UNL A   1      40.835  31.748  36.037  1.00  0.00     0.074 A 
ATOM     43  C   UNL A   1      40.941  29.594  34.846  1.00  0.00     0.049 A 
ATOM     44  N   UNL A   1      41.786  31.601  36.923  1.00  0.00    -0.248 NA
ATOM     45  C   UNL A   1      40.109  33.023  36.136  1.00  0.00     0.031 C 
ATOM     46  C   UNL A   1      40.577  28.575  33.865  1.00  0.00     0.029 A 
ATOM     47  N   UNL A   1      41.949  29.014  35.578  1.00  0.00    -0.354 N 
ATOM     48  C   UNL A   1      41.782  32.769  37.677  1.00  0.00     0.074 A 
ATOM     49  C   UNL A   1      40.755  33.625  37.122  1.00  0.00     0.031 C 
ATOM     50  C   UNL A   1      41.366  27.501  34.042  1.00  0.00     0.029 A 
ATOM     51  C   UNL A   1      42.314  27.770  35.123  1.00  0.00     0.049 A 
ATOM     52  H   UNL A   1      42.370  29.447  36.355  1.00  0.00     0.167 HD
ATOM     53  C   UNL A   1      42.557  33.099  38.738  1.00  0.00     0.037 A 
ATOM     54  C   UNL A   1      43.315  26.956  35.513  1.00  0.00     0.037 A 
ATOM     55  C   UNL A   1      43.587  32.253  39.285  1.00  0.00     0.049 A 
ATOM     56  C   UNL A   1      44.222  27.374  36.642  1.00  0.00     0.074 A 
ATOM     57  C   UNL A   1      44.411  32.490  40.371  1.00  0.00     0.029 A 
ATOM     58  N   UNL A   1      43.944  31.012  38.777  1.00  0.00    -0.354 N 
ATOM     59  N   UNL A   1      44.195  28.468  37.365  1.00  0.00    -0.248 NA
ATOM     60  C   UNL A   1      45.296  26.440  37.012  1.00  0.00     0.031 C 
ATOM     61  C   UNL A   1      45.309  31.423  40.481  1.00  0.00     0.029 A 
ATOM     62  C   UNL A   1      44.999  30.487  39.507  1.00  0.00     0.049 A 
ATOM     63  H   UNL A   1      43.511  30.570  38.012  1.00  0.00     0.167 HD
ATOM     64  C   UNL A   1      45.229  28.342  38.289  1.00  0.00     0.074 A 
ATOM     65  C   UNL A   1      45.852  27.059  38.043  1.00  0.00     0.031 C 
ATOM     66  C   UNL A   1      45.620  29.211  39.255  1.00  0.00     0.037 A 
BRANCH  53  67
ATOM     67  C   UNL A   1      42.341  34.454  39.350  1.00  0.00     0.057 A 
ATOM     68  C   UNL A   1      41.443  34.661  40.406  1.00  0.00     0.134 A 
ATOM     69  C   UNL A   1      43.044  35.569  38.875  1.00  0.00     0.134 A 
ATOM     70  F   UNL A   1      40.727  33.640  40.900  1.00  0.00    -0.206 F 
ATOM     71  C   UNL A   1      41.225  35.933  40.942  1.00  0.00     0.040 A 
ATOM     72  C   UNL A   1      42.858  36.839  39.424  1.00  0.00     0.040 A 
ATOM     73  F   UNL A   1      43.923  35.443  37.870  1.00  0.00    -0.206 F 
ATOM     74  C   UNL A   1      41.938  37.025  40.453  1.00  0.00     0.006 A 
ENDBRANCH  53  67
BRANCH  54  75
ATOM     75  C   UNL A   1      43.528  25.661  34.815  1.00  0.00     0.057 A 
ATOM     76  C   UNL A   1      42.920  24.484  35.267  1.00  0.00     0.134 A 
ATOM     77  C   UNL A   1      44.346  25.571  33.682  1.00  0.00     0.134 A 
ATOM     78  F   UNL A   1      42.149  24.499  36.363  1.00  0.00    -0.206 F 
ATOM     79  C   UNL A   1      43.125  23.262  34.623  1.00  0.00     0.040 A 
ATOM     80  C   UNL A   1      44.538  24.362  33.012  1.00  0.00     0.040 A 
ATOM     81  F   UNL A   1      44.961  26.662  33.203  1.00  0.00    -0.206 F 
ATOM     82  C   UNL A   1      43.929  23.201  33.485  1.00  0.00     0.006 A 
ENDBRANCH  54  75
BRANCH  66  83
ATOM     83  C   UNL A   1      46.759  28.792  40.145  1.00  0.00     0.057 A 
ATOM     84  C   UNL A   1      46.558  28.030  41.303  1.00  0.00     0.134 A 
ATOM     85  C   UNL A   1      48.080  29.125  39.815  1.00  0.00     0.134 A 
ATOM     86  F   UNL A   1      45.319  27.685  41.685  1.00  0.00    -0.206 F 
ATOM     87  C   UNL A   1      47.627  27.639  42.114  1.00  0.00     0.040 A 
ATOM     88  C   UNL A   1      49.157  28.713  40.601  1.00  0.00     0.040 A 
ATOM     89  F   UNL A   1      48.347  29.843  38.713  1.00  0.00    -0.206 F 
ATOM     90  C   UNL A   1      48.931  27.974  41.759  1.00  0.00     0.006 A 
ENDBRANCH  66  83
ENDBRANCH  40  41
ENDBRANCH  33  35
ENDBRANCH  32  33
ENDBRANCH  31  32
ENDBRANCH  30  31
ENDBRANCH  29  30
ENDBRANCH  28  29
ENDBRANCH  27  28
ENDBRANCH   1  27
TORSDOF 25
ENDMDL
