MODEL 1
REMARK VINA RESULT:      -8.8      0.000      0.000
REMARK SMILES O=C(OCCOCCOCCOC(=O)[C@H]1CCCN(C(=O)C2CCN(S(=O)(=O)c3ccccc3)CC2)C1)c1ccc(-c2c3nc(c(-c4c(F)cccc4F)c4ccc([nH]4)c(-c4c(F)cccc4F)c4nc(c(-c5c(F)cccc5F)c5ccc2[nH]5)C=C4)C=C3)cc1
REMARK SMILES IDX 8 1 7 2 6 3 5 4 4 5 3 6 2 7 1 8 38 9 39 10 91 11 40 12 90 13
REMARK SMILES IDX 41 14 42 15 43 16 84 17 44 18 89 19 83 20 85 21 45 22 88 23
REMARK SMILES IDX 82 24 81 25 46 27 72 28 55 29 71 30 56 31 59 32 70 33 86 34
REMARK SMILES IDX 57 35 58 36 69 38 87 39 60 40 47 41 48 42 53 43 49 44 50 45
REMARK SMILES IDX 52 46 54 47 51 48 73 49 74 50 79 51 75 52 76 53 78 54 80 55
REMARK SMILES IDX 77 56 61 57 62 58 67 59 63 60 64 61 66 62 68 63 65 64 9 65
REMARK SMILES IDX 10 66 11 67 12 68 13 69 14 70 15 71 16 72 37 73 17 74 19 75
REMARK SMILES IDX 18 76 20 77 21 78 22 79 23 80 36 81 24 82 35 83 25 84 26 85
REMARK SMILES IDX 27 86 28 87 29 88 30 89 34 90 31 91 33 92 32 93
REMARK H PARENT 85 26 59 37
REMARK Flexibility Score: inf
ROOT
ATOM      1  C   UNL A   1      34.404  35.634  33.118  1.00  0.00     0.188 C 
ENDROOT
BRANCH   1   2
ATOM      2  C   UNL A   1      33.938  37.089  33.058  1.00  0.00     0.188 C 
BRANCH   2   3
ATOM      3  O   UNL A   1      32.915  37.270  32.070  1.00  0.00    -0.376 OA
BRANCH   3   4
ATOM      4  C   UNL A   1      32.899  36.248  31.071  1.00  0.00     0.202 C 
BRANCH   4   5
ATOM      5  C   UNL A   1      32.723  36.753  29.626  1.00  0.00     0.261 C 
BRANCH   5   6
ATOM      6  O   UNL A   1      33.263  35.843  28.648  1.00  0.00    -0.460 OA
BRANCH   6   7
ATOM      7  C   UNL A   1      33.298  34.492  28.666  1.00  0.00     0.338 C 
ATOM      8  O   UNL A   1      32.263  33.865  28.462  1.00  0.00    -0.246 OA
BRANCH   7   9
ATOM      9  C   UNL A   1      34.542  33.744  29.023  1.00  0.00     0.060 A 
ATOM     10  C   UNL A   1      34.707  32.977  30.176  1.00  0.00     0.016 A 
ATOM     11  C   UNL A   1      35.598  33.769  28.099  1.00  0.00     0.016 A 
ATOM     12  C   UNL A   1      35.917  32.353  30.467  1.00  0.00     0.010 A 
ATOM     13  C   UNL A   1      36.794  33.087  28.349  1.00  0.00     0.010 A 
ATOM     14  C   UNL A   1      36.979  32.420  29.564  1.00  0.00    -0.014 A 
BRANCH  14  15
ATOM     15  C   UNL A   1      38.316  31.948  29.989  1.00  0.00     0.031 A 
ATOM     16  C   UNL A   1      38.794  30.621  29.467  1.00  0.00     0.074 A 
ATOM     17  C   UNL A   1      39.127  32.736  30.720  1.00  0.00     0.049 A 
ATOM     18  N   UNL A   1      39.922  29.997  29.689  1.00  0.00    -0.248 NA
ATOM     19  C   UNL A   1      37.879  29.900  28.566  1.00  0.00     0.031 C 
ATOM     20  C   UNL A   1      38.791  34.074  31.212  1.00  0.00     0.029 A 
ATOM     21  N   UNL A   1      40.413  32.539  31.148  1.00  0.00    -0.354 N 
ATOM     22  C   UNL A   1      39.840  28.811  28.969  1.00  0.00     0.074 A 
ATOM     23  C   UNL A   1      38.540  28.779  28.339  1.00  0.00     0.031 C 
ATOM     24  C   UNL A   1      39.859  34.592  31.841  1.00  0.00     0.029 A 
ATOM     25  C   UNL A   1      40.937  33.607  31.838  1.00  0.00     0.049 A 
ATOM     26  H   UNL A   1      40.917  31.710  30.978  1.00  0.00     0.167 HD
ATOM     27  C   UNL A   1      40.771  27.839  28.828  1.00  0.00     0.037 A 
ATOM     28  C   UNL A   1      42.149  33.758  32.406  1.00  0.00     0.037 A 
ATOM     29  C   UNL A   1      42.064  27.881  29.449  1.00  0.00     0.049 A 
ATOM     30  C   UNL A   1      43.140  32.625  32.299  1.00  0.00     0.074 A 
ATOM     31  C   UNL A   1      43.065  26.928  29.437  1.00  0.00     0.029 A 
ATOM     32  N   UNL A   1      42.538  28.956  30.189  1.00  0.00    -0.354 N 
ATOM     33  N   UNL A   1      43.031  31.487  31.657  1.00  0.00    -0.248 NA
ATOM     34  C   UNL A   1      44.418  32.796  33.005  1.00  0.00     0.031 C 
ATOM     35  C   UNL A   1      44.137  27.417  30.195  1.00  0.00     0.029 A 
ATOM     36  C   UNL A   1      43.815  28.689  30.643  1.00  0.00     0.049 A 
ATOM     37  H   UNL A   1      42.036  29.785  30.366  1.00  0.00     0.167 HD
ATOM     38  C   UNL A   1      44.233  30.819  31.858  1.00  0.00     0.074 A 
ATOM     39  C   UNL A   1      45.062  31.688  32.666  1.00  0.00     0.031 C 
ATOM     40  C   UNL A   1      44.618  29.592  31.426  1.00  0.00     0.037 A 
BRANCH  27  41
ATOM     41  C   UNL A   1      40.390  26.654  27.994  1.00  0.00     0.057 A 
ATOM     42  C   UNL A   1      40.859  26.492  26.683  1.00  0.00     0.134 A 
ATOM     43  C   UNL A   1      39.502  25.691  28.486  1.00  0.00     0.134 A 
ATOM     44  F   UNL A   1      41.689  27.398  26.141  1.00  0.00    -0.206 F 
ATOM     45  C   UNL A   1      40.431  25.433  25.880  1.00  0.00     0.040 A 
ATOM     46  C   UNL A   1      39.086  24.613  27.702  1.00  0.00     0.040 A 
ATOM     47  F   UNL A   1      39.011  25.790  29.731  1.00  0.00    -0.206 F 
ATOM     48  C   UNL A   1      39.542  24.489  26.391  1.00  0.00     0.006 A 
ENDBRANCH  27  41
BRANCH  28  49
ATOM     49  C   UNL A   1      42.503  35.002  33.140  1.00  0.00     0.057 A 
ATOM     50  C   UNL A   1      42.110  35.197  34.471  1.00  0.00     0.134 A 
ATOM     51  C   UNL A   1      43.184  36.053  32.513  1.00  0.00     0.134 A 
ATOM     52  F   UNL A   1      41.438  34.237  35.124  1.00  0.00    -0.206 F 
ATOM     53  C   UNL A   1      42.348  36.401  35.137  1.00  0.00     0.040 A 
ATOM     54  C   UNL A   1      43.447  37.254  33.176  1.00  0.00     0.040 A 
ATOM     55  F   UNL A   1      43.602  35.931  31.244  1.00  0.00    -0.206 F 
ATOM     56  C   UNL A   1      43.018  37.435  34.488  1.00  0.00     0.006 A 
ENDBRANCH  28  49
BRANCH  40  57
ATOM     57  C   UNL A   1      46.004  29.148  31.786  1.00  0.00     0.057 A 
ATOM     58  C   UNL A   1      46.296  28.580  33.031  1.00  0.00     0.134 A 
ATOM     59  C   UNL A   1      47.044  29.244  30.853  1.00  0.00     0.134 A 
ATOM     60  F   UNL A   1      45.343  28.473  33.970  1.00  0.00    -0.206 F 
ATOM     61  C   UNL A   1      47.582  28.141  33.345  1.00  0.00     0.040 A 
ATOM     62  C   UNL A   1      48.328  28.787  31.147  1.00  0.00     0.040 A 
ATOM     63  F   UNL A   1      46.825  29.772  29.639  1.00  0.00    -0.206 F 
ATOM     64  C   UNL A   1      48.600  28.237  32.398  1.00  0.00     0.006 A 
ENDBRANCH  40  57
ENDBRANCH  14  15
ENDBRANCH   7   9
ENDBRANCH   6   7
ENDBRANCH   5   6
ENDBRANCH   4   5
ENDBRANCH   3   4
ENDBRANCH   2   3
ENDBRANCH   1   2
BRANCH   1  65
ATOM     65  O   UNL A   1      35.331  35.240  34.131  1.00  0.00    -0.376 OA
BRANCH  65  66
ATOM     66  C   UNL A   1      36.215  34.161  33.878  1.00  0.00     0.202 C 
BRANCH  66  67
ATOM     67  C   UNL A   1      37.357  33.982  34.886  1.00  0.00     0.261 C 
BRANCH  67  68
ATOM     68  O   UNL A   1      38.345  32.998  34.526  1.00  0.00    -0.463 OA
BRANCH  68  69
ATOM     69  C   UNL A   1      38.670  32.160  35.548  1.00  0.00     0.310 C 
ATOM     70  O   UNL A   1      38.868  32.523  36.700  1.00  0.00    -0.252 OA
BRANCH  69  71
ATOM     71  C   UNL A   1      38.876  30.735  35.071  1.00  0.00     0.119 C 
ATOM     72  C   UNL A   1      38.352  30.682  33.623  1.00  0.00     0.019 C 
ATOM     73  C   UNL A   1      40.336  30.268  35.192  1.00  0.00     0.134 C 
ATOM     74  C   UNL A   1      38.691  29.375  32.946  1.00  0.00     0.022 C 
ATOM     75  N   UNL A   1      40.601  29.038  34.415  1.00  0.00    -0.342 N 
ATOM     76  C   UNL A   1      40.187  29.144  33.033  1.00  0.00     0.119 C 
BRANCH  75  77
ATOM     77  C   UNL A   1      41.666  28.221  34.768  1.00  0.00     0.225 C 
ATOM     78  O   UNL A   1      42.369  27.728  33.879  1.00  0.00    -0.275 OA
BRANCH  77  79
ATOM     79  C   UNL A   1      42.046  27.945  36.252  1.00  0.00     0.081 C 
ATOM     80  C   UNL A   1      43.451  28.318  36.704  1.00  0.00     0.030 C 
ATOM     81  C   UNL A   1      41.620  26.646  36.912  1.00  0.00     0.030 C 
ATOM     82  C   UNL A   1      44.490  27.216  36.589  1.00  0.00     0.103 C 
ATOM     83  C   UNL A   1      42.608  25.502  36.793  1.00  0.00     0.103 C 
ATOM     84  N   UNL A   1      44.039  25.840  36.998  1.00  0.00    -0.198 NA
BRANCH  84  85
ATOM     85  S   UNL A   1      45.173  24.665  36.365  1.00  0.00     0.243 S 
ATOM     86  O   UNL A   1      46.479  25.303  36.325  1.00  0.00    -0.207 OA
ATOM     87  O   UNL A   1      44.989  23.451  37.125  1.00  0.00    -0.207 OA
BRANCH  85  88
ATOM     88  C   UNL A   1      44.735  24.349  34.671  1.00  0.00     0.082 A 
ATOM     89  C   UNL A   1      43.948  23.241  34.352  1.00  0.00     0.022 A 
ATOM     90  C   UNL A   1      45.350  25.085  33.649  1.00  0.00     0.022 A 
ATOM     91  C   UNL A   1      43.740  22.909  33.011  1.00  0.00     0.001 A 
ATOM     92  C   UNL A   1      45.113  24.769  32.313  1.00  0.00     0.001 A 
ATOM     93  C   UNL A   1      44.307  23.680  31.995  1.00  0.00     0.000 A 
ENDBRANCH  85  88
ENDBRANCH  84  85
ENDBRANCH  77  79
ENDBRANCH  75  77
ENDBRANCH  69  71
ENDBRANCH  68  69
ENDBRANCH  67  68
ENDBRANCH  66  67
ENDBRANCH  65  66
ENDBRANCH   1  65
TORSDOF 21
ENDMDL
MODEL 2
REMARK VINA RESULT:      -8.0      0.676      5.971
REMARK SMILES O=C(OCCOCCOCCOC(=O)[C@H]1CCCN(C(=O)C2CCN(S(=O)(=O)c3ccccc3)CC2)C1)c1ccc(-c2c3nc(c(-c4c(F)cccc4F)c4ccc([nH]4)c(-c4c(F)cccc4F)c4nc(c(-c5c(F)cccc5F)c5ccc2[nH]5)C=C4)C=C3)cc1
REMARK SMILES IDX 8 1 7 2 6 3 5 4 4 5 3 6 2 7 1 8 38 9 39 10 91 11 40 12 90 13
REMARK SMILES IDX 41 14 42 15 43 16 84 17 44 18 89 19 83 20 85 21 45 22 88 23
REMARK SMILES IDX 82 24 81 25 46 27 72 28 55 29 71 30 56 31 59 32 70 33 86 34
REMARK SMILES IDX 57 35 58 36 69 38 87 39 60 40 47 41 48 42 53 43 49 44 50 45
REMARK SMILES IDX 52 46 54 47 51 48 73 49 74 50 79 51 75 52 76 53 78 54 80 55
REMARK SMILES IDX 77 56 61 57 62 58 67 59 63 60 64 61 66 62 68 63 65 64 9 65
REMARK SMILES IDX 10 66 11 67 12 68 13 69 14 70 15 71 16 72 37 73 17 74 19 75
REMARK SMILES IDX 18 76 20 77 21 78 22 79 23 80 36 81 24 82 35 83 25 84 26 85
REMARK SMILES IDX 27 86 28 87 29 88 30 89 34 90 31 91 33 92 32 93
REMARK H PARENT 85 26 59 37
REMARK Flexibility Score: inf
ROOT
ATOM      1  C   UNL A   1      34.116  35.902  33.169  1.00  0.00     0.188 C 
ENDROOT
BRANCH   1   2
ATOM      2  C   UNL A   1      34.006  37.355  32.703  1.00  0.00     0.188 C 
BRANCH   2   3
ATOM      3  O   UNL A   1      33.046  37.494  31.647  1.00  0.00    -0.376 OA
BRANCH   3   4
ATOM      4  C   UNL A   1      32.864  36.302  30.880  1.00  0.00     0.202 C 
BRANCH   4   5
ATOM      5  C   UNL A   1      32.476  36.529  29.407  1.00  0.00     0.261 C 
BRANCH   5   6
ATOM      6  O   UNL A   1      33.122  35.604  28.511  1.00  0.00    -0.460 OA
BRANCH   6   7
ATOM      7  C   UNL A   1      33.434  34.304  28.706  1.00  0.00     0.338 C 
ATOM      8  O   UNL A   1      32.538  33.466  28.697  1.00  0.00    -0.246 OA
BRANCH   7   9
ATOM      9  C   UNL A   1      34.829  33.871  29.027  1.00  0.00     0.060 A 
ATOM     10  C   UNL A   1      35.980  34.397  28.442  1.00  0.00     0.016 A 
ATOM     11  C   UNL A   1      34.990  32.908  30.034  1.00  0.00     0.016 A 
ATOM     12  C   UNL A   1      37.245  33.903  28.754  1.00  0.00     0.010 A 
ATOM     13  C   UNL A   1      36.261  32.454  30.405  1.00  0.00     0.010 A 
ATOM     14  C   UNL A   1      37.393  32.912  29.724  1.00  0.00    -0.014 A 
BRANCH  14  15
ATOM     15  C   UNL A   1      38.707  32.246  29.876  1.00  0.00     0.031 A 
ATOM     16  C   UNL A   1      39.740  32.913  30.742  1.00  0.00     0.074 A 
ATOM     17  C   UNL A   1      38.926  31.023  29.357  1.00  0.00     0.049 A 
ATOM     18  N   UNL A   1      40.955  32.529  31.033  1.00  0.00    -0.248 NA
ATOM     19  C   UNL A   1      39.348  34.187  31.369  1.00  0.00     0.031 C 
ATOM     20  C   UNL A   1      37.962  30.251  28.569  1.00  0.00     0.029 A 
ATOM     21  N   UNL A   1      40.017  30.198  29.445  1.00  0.00    -0.354 N 
ATOM     22  C   UNL A   1      41.471  33.519  31.862  1.00  0.00     0.074 A 
ATOM     23  C   UNL A   1      40.459  34.541  31.993  1.00  0.00     0.031 C 
ATOM     24  C   UNL A   1      38.493  29.052  28.278  1.00  0.00     0.029 A 
ATOM     25  C   UNL A   1      39.848  28.987  28.818  1.00  0.00     0.049 A 
ATOM     26  H   UNL A   1      40.846  30.450  29.914  1.00  0.00     0.167 HD
ATOM     27  C   UNL A   1      42.676  33.566  32.476  1.00  0.00     0.037 A 
ATOM     28  C   UNL A   1      40.701  27.952  28.694  1.00  0.00     0.037 A 
ATOM     29  C   UNL A   1      43.674  32.544  32.349  1.00  0.00     0.049 A 
ATOM     30  C   UNL A   1      42.067  28.066  29.324  1.00  0.00     0.074 A 
ATOM     31  C   UNL A   1      44.955  32.512  32.865  1.00  0.00     0.029 A 
ATOM     32  N   UNL A   1      43.487  31.355  31.657  1.00  0.00    -0.354 N 
ATOM     33  N   UNL A   1      42.561  29.030  30.064  1.00  0.00    -0.248 NA
ATOM     34  C   UNL A   1      42.996  26.951  29.092  1.00  0.00     0.031 C 
ATOM     35  C   UNL A   1      45.554  31.311  32.462  1.00  0.00     0.029 A 
ATOM     36  C   UNL A   1      44.631  30.583  31.730  1.00  0.00     0.049 A 
ATOM     37  H   UNL A   1      42.661  31.101  31.184  1.00  0.00     0.167 HD
ATOM     38  C   UNL A   1      43.845  28.628  30.408  1.00  0.00     0.074 A 
ATOM     39  C   UNL A   1      44.047  27.323  29.811  1.00  0.00     0.031 C 
ATOM     40  C   UNL A   1      44.783  29.277  31.141  1.00  0.00     0.037 A 
BRANCH  27  41
ATOM     41  C   UNL A   1      42.963  34.782  33.305  1.00  0.00     0.057 A 
ATOM     42  C   UNL A   1      42.704  34.815  34.682  1.00  0.00     0.134 A 
ATOM     43  C   UNL A   1      43.455  35.951  32.712  1.00  0.00     0.134 A 
ATOM     44  F   UNL A   1      42.203  33.736  35.306  1.00  0.00    -0.206 F 
ATOM     45  C   UNL A   1      42.892  35.976  35.434  1.00  0.00     0.040 A 
ATOM     46  C   UNL A   1      43.669  37.112  33.457  1.00  0.00     0.040 A 
ATOM     47  F   UNL A   1      43.718  35.988  31.397  1.00  0.00    -0.206 F 
ATOM     48  C   UNL A   1      43.377  37.130  34.819  1.00  0.00     0.006 A 
ENDBRANCH  27  41
BRANCH  28  49
ATOM     49  C   UNL A   1      40.319  26.729  27.939  1.00  0.00     0.057 A 
ATOM     50  C   UNL A   1      39.504  25.744  28.515  1.00  0.00     0.134 A 
ATOM     51  C   UNL A   1      40.809  26.481  26.651  1.00  0.00     0.134 A 
ATOM     52  F   UNL A   1      39.017  25.912  29.753  1.00  0.00    -0.206 F 
ATOM     53  C   UNL A   1      39.222  24.547  27.855  1.00  0.00     0.040 A 
ATOM     54  C   UNL A   1      40.516  25.296  25.971  1.00  0.00     0.040 A 
ATOM     55  F   UNL A   1      41.583  27.385  26.033  1.00  0.00    -0.206 F 
ATOM     56  C   UNL A   1      39.730  24.320  26.578  1.00  0.00     0.006 A 
ENDBRANCH  28  49
BRANCH  40  57
ATOM     57  C   UNL A   1      46.084  28.567  31.366  1.00  0.00     0.057 A 
ATOM     58  C   UNL A   1      47.069  28.499  30.374  1.00  0.00     0.134 A 
ATOM     59  C   UNL A   1      46.370  27.990  32.610  1.00  0.00     0.134 A 
ATOM     60  F   UNL A   1      46.846  29.022  29.159  1.00  0.00    -0.206 F 
ATOM     61  C   UNL A   1      48.288  27.863  30.605  1.00  0.00     0.040 A 
ATOM     62  C   UNL A   1      47.595  27.373  32.859  1.00  0.00     0.040 A 
ATOM     63  F   UNL A   1      45.470  28.029  33.604  1.00  0.00    -0.206 F 
ATOM     64  C   UNL A   1      48.557  27.304  31.853  1.00  0.00     0.006 A 
ENDBRANCH  40  57
ENDBRANCH  14  15
ENDBRANCH   7   9
ENDBRANCH   6   7
ENDBRANCH   5   6
ENDBRANCH   4   5
ENDBRANCH   3   4
ENDBRANCH   2   3
ENDBRANCH   1   2
BRANCH   1  65
ATOM     65  O   UNL A   1      35.282  35.485  33.881  1.00  0.00    -0.376 OA
BRANCH  65  66
ATOM     66  C   UNL A   1      36.115  34.485  33.318  1.00  0.00     0.202 C 
BRANCH  66  67
ATOM     67  C   UNL A   1      37.292  34.028  34.188  1.00  0.00     0.261 C 
BRANCH  67  68
ATOM     68  O   UNL A   1      37.829  32.732  33.863  1.00  0.00    -0.463 OA
BRANCH  68  69
ATOM     69  C   UNL A   1      37.784  31.853  34.902  1.00  0.00     0.310 C 
ATOM     70  O   UNL A   1      37.438  32.147  36.039  1.00  0.00    -0.252 OA
BRANCH  69  71
ATOM     71  C   UNL A   1      38.326  30.490  34.517  1.00  0.00     0.119 C 
ATOM     72  C   UNL A   1      37.975  30.287  33.030  1.00  0.00     0.019 C 
ATOM     73  C   UNL A   1      39.832  30.345  34.796  1.00  0.00     0.134 C 
ATOM     74  C   UNL A   1      38.644  29.061  32.453  1.00  0.00     0.022 C 
ATOM     75  N   UNL A   1      40.423  29.176  34.109  1.00  0.00    -0.342 N 
ATOM     76  C   UNL A   1      40.138  29.153  32.692  1.00  0.00     0.119 C 
BRANCH  75  77
ATOM     77  C   UNL A   1      41.591  28.611  34.600  1.00  0.00     0.225 C 
ATOM     78  O   UNL A   1      42.488  28.298  33.810  1.00  0.00    -0.275 OA
BRANCH  77  79
ATOM     79  C   UNL A   1      41.841  28.408  36.123  1.00  0.00     0.081 C 
ATOM     80  C   UNL A   1      43.111  29.000  36.718  1.00  0.00     0.030 C 
ATOM     81  C   UNL A   1      41.552  27.062  36.763  1.00  0.00     0.030 C 
ATOM     82  C   UNL A   1      44.316  28.075  36.743  1.00  0.00     0.103 C 
ATOM     83  C   UNL A   1      42.713  26.087  36.780  1.00  0.00     0.103 C 
ATOM     84  N   UNL A   1      44.042  26.648  37.133  1.00  0.00    -0.198 NA
BRANCH  84  85
ATOM     85  S   UNL A   1      45.408  25.662  36.656  1.00  0.00     0.243 S 
ATOM     86  O   UNL A   1      46.427  26.559  36.136  1.00  0.00    -0.207 OA
ATOM     87  O   UNL A   1      45.713  24.797  37.772  1.00  0.00    -0.207 OA
BRANCH  85  88
ATOM     88  C   UNL A   1      44.896  24.658  35.280  1.00  0.00     0.082 A 
ATOM     89  C   UNL A   1      44.440  25.265  34.110  1.00  0.00     0.022 A 
ATOM     90  C   UNL A   1      44.754  23.274  35.450  1.00  0.00     0.022 A 
ATOM     91  C   UNL A   1      43.891  24.477  33.095  1.00  0.00     0.001 A 
ATOM     92  C   UNL A   1      44.237  22.489  34.421  1.00  0.00     0.001 A 
ATOM     93  C   UNL A   1      43.805  23.092  33.243  1.00  0.00     0.000 A 
ENDBRANCH  85  88
ENDBRANCH  84  85
ENDBRANCH  77  79
ENDBRANCH  75  77
ENDBRANCH  69  71
ENDBRANCH  68  69
ENDBRANCH  67  68
ENDBRANCH  66  67
ENDBRANCH  65  66
ENDBRANCH   1  65
TORSDOF 21
ENDMDL
MODEL 3
REMARK VINA RESULT:      -7.9      6.857     11.426
REMARK SMILES O=C(OCCOCCOCCOC(=O)[C@H]1CCCN(C(=O)C2CCN(S(=O)(=O)c3ccccc3)CC2)C1)c1ccc(-c2c3nc(c(-c4c(F)cccc4F)c4ccc([nH]4)c(-c4c(F)cccc4F)c4nc(c(-c5c(F)cccc5F)c5ccc2[nH]5)C=C4)C=C3)cc1
REMARK SMILES IDX 8 1 7 2 6 3 5 4 4 5 3 6 2 7 1 8 38 9 39 10 91 11 40 12 90 13
REMARK SMILES IDX 41 14 42 15 43 16 84 17 44 18 89 19 83 20 85 21 45 22 88 23
REMARK SMILES IDX 82 24 81 25 46 27 72 28 55 29 71 30 56 31 59 32 70 33 86 34
REMARK SMILES IDX 57 35 58 36 69 38 87 39 60 40 47 41 48 42 53 43 49 44 50 45
REMARK SMILES IDX 52 46 54 47 51 48 73 49 74 50 79 51 75 52 76 53 78 54 80 55
REMARK SMILES IDX 77 56 61 57 62 58 67 59 63 60 64 61 66 62 68 63 65 64 9 65
REMARK SMILES IDX 10 66 11 67 12 68 13 69 14 70 15 71 16 72 37 73 17 74 19 75
REMARK SMILES IDX 18 76 20 77 21 78 22 79 23 80 36 81 24 82 35 83 25 84 26 85
REMARK SMILES IDX 27 86 28 87 29 88 30 89 34 90 31 91 33 92 32 93
REMARK H PARENT 85 26 59 37
REMARK Flexibility Score: inf
ROOT
ATOM      1  C   UNL A   1      38.228  28.787  28.115  1.00  0.00     0.188 C 
ENDROOT
BRANCH   1   2
ATOM      2  C   UNL A   1      39.067  27.669  28.736  1.00  0.00     0.188 C 
BRANCH   2   3
ATOM      3  O   UNL A   1      39.700  26.869  27.729  1.00  0.00    -0.376 OA
BRANCH   3   4
ATOM      4  C   UNL A   1      40.326  25.693  28.244  1.00  0.00     0.202 C 
BRANCH   4   5
ATOM      5  C   UNL A   1      39.844  24.371  27.617  1.00  0.00     0.261 C 
BRANCH   5   6
ATOM      6  O   UNL A   1      40.685  23.927  26.535  1.00  0.00    -0.460 OA
BRANCH   6   7
ATOM      7  C   UNL A   1      41.971  23.513  26.567  1.00  0.00     0.338 C 
ATOM      8  O   UNL A   1      42.211  22.312  26.640  1.00  0.00    -0.246 OA
BRANCH   7   9
ATOM      9  C   UNL A   1      43.107  24.484  26.614  1.00  0.00     0.060 A 
ATOM     10  C   UNL A   1      43.889  24.741  27.739  1.00  0.00     0.016 A 
ATOM     11  C   UNL A   1      43.446  25.139  25.420  1.00  0.00     0.016 A 
ATOM     12  C   UNL A   1      44.896  25.702  27.721  1.00  0.00     0.010 A 
ATOM     13  C   UNL A   1      44.502  26.055  25.372  1.00  0.00     0.010 A 
ATOM     14  C   UNL A   1      45.198  26.383  26.540  1.00  0.00    -0.014 A 
BRANCH  14  15
ATOM     15  C   UNL A   1      46.108  27.549  26.595  1.00  0.00     0.031 A 
ATOM     16  C   UNL A   1      47.580  27.305  26.407  1.00  0.00     0.074 A 
ATOM     17  C   UNL A   1      45.621  28.801  26.688  1.00  0.00     0.049 A 
ATOM     18  N   UNL A   1      48.572  28.158  26.408  1.00  0.00    -0.248 NA
ATOM     19  C   UNL A   1      47.991  25.909  26.182  1.00  0.00     0.031 C 
ATOM     20  C   UNL A   1      44.203  29.154  26.794  1.00  0.00     0.029 A 
ATOM     21  N   UNL A   1      46.263  30.012  26.671  1.00  0.00    -0.354 N 
ATOM     22  C   UNL A   1      49.717  27.398  26.200  1.00  0.00     0.074 A 
ATOM     23  C   UNL A   1      49.307  26.015  26.120  1.00  0.00     0.031 C 
ATOM     24  C   UNL A   1      44.083  30.493  26.796  1.00  0.00     0.029 A 
ATOM     25  C   UNL A   1      45.414  31.090  26.737  1.00  0.00     0.049 A 
ATOM     26  H   UNL A   1      47.243  30.101  26.618  1.00  0.00     0.167 HD
ATOM     27  C   UNL A   1      50.997  27.815  26.067  1.00  0.00     0.037 A 
ATOM     28  C   UNL A   1      45.691  32.409  26.754  1.00  0.00     0.037 A 
ATOM     29  C   UNL A   1      51.397  29.191  26.139  1.00  0.00     0.049 A 
ATOM     30  C   UNL A   1      47.134  32.841  26.684  1.00  0.00     0.074 A 
ATOM     31  C   UNL A   1      52.668  29.730  26.089  1.00  0.00     0.029 A 
ATOM     32  N   UNL A   1      50.512  30.253  26.264  1.00  0.00    -0.354 N 
ATOM     33  N   UNL A   1      48.213  32.110  26.537  1.00  0.00    -0.248 NA
ATOM     34  C   UNL A   1      47.398  34.283  26.793  1.00  0.00     0.031 C 
ATOM     35  C   UNL A   1      52.553  31.121  26.211  1.00  0.00     0.029 A 
ATOM     36  C   UNL A   1      51.209  31.446  26.296  1.00  0.00     0.049 A 
ATOM     37  H   UNL A   1      49.532  30.168  26.322  1.00  0.00     0.167 HD
ATOM     38  C   UNL A   1      49.278  33.000  26.508  1.00  0.00     0.074 A 
ATOM     39  C   UNL A   1      48.714  34.328  26.634  1.00  0.00     0.031 C 
ATOM     40  C   UNL A   1      50.607  32.750  26.399  1.00  0.00     0.037 A 
BRANCH  27  41
ATOM     41  C   UNL A   1      52.036  26.753  25.864  1.00  0.00     0.057 A 
ATOM     42  C   UNL A   1      52.722  26.176  26.942  1.00  0.00     0.134 A 
ATOM     43  C   UNL A   1      52.393  26.341  24.575  1.00  0.00     0.134 A 
ATOM     44  F   UNL A   1      52.447  26.550  28.201  1.00  0.00    -0.206 F 
ATOM     45  C   UNL A   1      53.749  25.251  26.743  1.00  0.00     0.040 A 
ATOM     46  C   UNL A   1      53.402  25.400  24.364  1.00  0.00     0.040 A 
ATOM     47  F   UNL A   1      51.780  26.859  23.500  1.00  0.00    -0.206 F 
ATOM     48  C   UNL A   1      54.090  24.861  25.449  1.00  0.00     0.006 A 
ENDBRANCH  27  41
BRANCH  28  49
ATOM     49  C   UNL A   1      44.605  33.420  26.860  1.00  0.00     0.057 A 
ATOM     50  C   UNL A   1      43.985  33.940  25.716  1.00  0.00     0.134 A 
ATOM     51  C   UNL A   1      44.207  33.939  28.097  1.00  0.00     0.134 A 
ATOM     52  F   UNL A   1      44.334  33.499  24.498  1.00  0.00    -0.206 F 
ATOM     53  C   UNL A   1      43.036  34.962  25.797  1.00  0.00     0.040 A 
ATOM     54  C   UNL A   1      43.244  34.947  28.192  1.00  0.00     0.040 A 
ATOM     55  F   UNL A   1      44.748  33.479  29.234  1.00  0.00    -0.206 F 
ATOM     56  C   UNL A   1      42.664  35.469  27.039  1.00  0.00     0.006 A 
ENDBRANCH  28  49
BRANCH  40  57
ATOM     57  C   UNL A   1      51.523  33.936  26.370  1.00  0.00     0.057 A 
ATOM     58  C   UNL A   1      52.038  34.499  27.544  1.00  0.00     0.134 A 
ATOM     59  C   UNL A   1      51.933  34.487  25.149  1.00  0.00     0.134 A 
ATOM     60  F   UNL A   1      51.672  34.023  28.743  1.00  0.00    -0.206 F 
ATOM     61  C   UNL A   1      52.915  35.583  27.504  1.00  0.00     0.040 A 
ATOM     62  C   UNL A   1      52.827  35.555  25.097  1.00  0.00     0.040 A 
ATOM     63  F   UNL A   1      51.480  33.986  23.989  1.00  0.00    -0.206 F 
ATOM     64  C   UNL A   1      53.317  36.109  26.278  1.00  0.00     0.006 A 
ENDBRANCH  40  57
ENDBRANCH  14  15
ENDBRANCH   7   9
ENDBRANCH   6   7
ENDBRANCH   5   6
ENDBRANCH   4   5
ENDBRANCH   3   4
ENDBRANCH   2   3
ENDBRANCH   1   2
BRANCH   1  65
ATOM     65  O   UNL A   1      37.683  29.802  28.960  1.00  0.00    -0.376 OA
BRANCH  65  66
ATOM     66  C   UNL A   1      36.280  29.864  29.150  1.00  0.00     0.202 C 
BRANCH  66  67
ATOM     67  C   UNL A   1      35.452  30.224  27.911  1.00  0.00     0.261 C 
BRANCH  67  68
ATOM     68  O   UNL A   1      34.464  29.249  27.528  1.00  0.00    -0.463 OA
BRANCH  68  69
ATOM     69  C   UNL A   1      33.308  29.804  27.068  1.00  0.00     0.310 C 
ATOM     70  O   UNL A   1      32.935  30.938  27.335  1.00  0.00    -0.252 OA
BRANCH  69  71
ATOM     71  C   UNL A   1      32.475  28.811  26.280  1.00  0.00     0.119 C 
ATOM     72  C   UNL A   1      31.692  29.632  25.238  1.00  0.00     0.019 C 
ATOM     73  C   UNL A   1      33.321  27.694  25.643  1.00  0.00     0.134 C 
ATOM     74  C   UNL A   1      30.983  28.748  24.238  1.00  0.00     0.022 C 
ATOM     75  N   UNL A   1      32.578  26.948  24.604  1.00  0.00    -0.342 N 
ATOM     76  C   UNL A   1      31.990  27.810  23.603  1.00  0.00     0.119 C 
BRANCH  75  77
ATOM     77  C   UNL A   1      32.968  25.657  24.278  1.00  0.00     0.225 C 
ATOM     78  O   UNL A   1      34.172  25.379  24.253  1.00  0.00    -0.275 OA
BRANCH  77  79
ATOM     79  C   UNL A   1      31.940  24.524  23.995  1.00  0.00     0.081 C 
ATOM     80  C   UNL A   1      31.236  23.892  25.187  1.00  0.00     0.030 C 
ATOM     81  C   UNL A   1      32.255  23.459  22.959  1.00  0.00     0.030 C 
ATOM     82  C   UNL A   1      31.913  22.665  25.773  1.00  0.00     0.103 C 
ATOM     83  C   UNL A   1      32.966  22.228  23.488  1.00  0.00     0.103 C 
ATOM     84  N   UNL A   1      32.474  21.685  24.779  1.00  0.00    -0.198 NA
BRANCH  84  85
ATOM     85  S   UNL A   1      33.595  20.623  25.607  1.00  0.00     0.243 S 
ATOM     86  O   UNL A   1      33.320  20.731  27.031  1.00  0.00    -0.207 OA
ATOM     87  O   UNL A   1      33.517  19.338  24.954  1.00  0.00    -0.207 OA
BRANCH  85  88
ATOM     88  C   UNL A   1      35.232  21.281  25.378  1.00  0.00     0.082 A 
ATOM     89  C   UNL A   1      36.260  20.447  24.937  1.00  0.00     0.022 A 
ATOM     90  C   UNL A   1      35.529  22.571  25.838  1.00  0.00     0.022 A 
ATOM     91  C   UNL A   1      37.572  20.926  24.911  1.00  0.00     0.001 A 
ATOM     92  C   UNL A   1      36.834  23.056  25.780  1.00  0.00     0.001 A 
ATOM     93  C   UNL A   1      37.855  22.232  25.315  1.00  0.00     0.000 A 
ENDBRANCH  85  88
ENDBRANCH  84  85
ENDBRANCH  77  79
ENDBRANCH  75  77
ENDBRANCH  69  71
ENDBRANCH  68  69
ENDBRANCH  67  68
ENDBRANCH  66  67
ENDBRANCH  65  66
ENDBRANCH   1  65
TORSDOF 21
ENDMDL
