MODEL 1
REMARK VINA RESULT:     -10.5      0.000      0.000
REMARK SMILES CC(C)(C)c1ccc(NS(=O)(=O)c2cccc(C(=O)OCCOCCOCCOC(=O)c3ccc(-c4c5nc(c(-c6c(F)cccc6F)c6ccc([nH]6)c(-c6c(F)cccc6F)c6nc(c(-c7c(F)cccc7F)c7ccc4[nH]7)C=C6)C=C5)cc3)c2)cc1
REMARK SMILES IDX 24 1 23 2 22 3 21 4 20 5 18 6 19 7 17 8 13 9 14 10 86 11
REMARK SMILES IDX 15 12 16 13 10 14 11 15 12 16 9 17 8 19 5 20 6 21 88 22 7 23
REMARK SMILES IDX 87 24 2 25 1 26 3 27 4 28 25 29 26 30 27 31 28 32 29 33
REMARK SMILES IDX 30 34 31 35 32 36 33 37 85 38 34 39 84 40 35 41 36 42 37 43
REMARK SMILES IDX 78 44 38 45 83 46 77 47 79 48 39 49 82 50 76 51 75 52 40 54
REMARK SMILES IDX 66 55 49 56 65 57 50 58 53 59 64 60 80 61 51 62 52 63 63 65
REMARK SMILES IDX 81 66 54 67 41 68 42 69 47 70 43 71 44 72 46 73 48 74 45 75
REMARK SMILES IDX 67 76 68 77 73 78 69 79 70 80 72 81 74 82 71 83 55 84 56 85
REMARK SMILES IDX 61 86 57 87 58 88 60 89 62 90 59 91
REMARK H PARENT 9 18 79 53 53 64
REMARK Flexibility Score: inf
ROOT
ATOM      1  C   UNL A   1      34.136  33.407  27.994  1.00  0.00     0.188 C 
ENDROOT
BRANCH   1   2
ATOM      2  O   UNL A   1      34.253  32.077  28.482  1.00  0.00    -0.376 OA
BRANCH   2   3
ATOM      3  C   UNL A   1      35.127  31.166  27.833  1.00  0.00     0.202 C 
BRANCH   3   4
ATOM      4  C   UNL A   1      34.633  29.734  27.569  1.00  0.00     0.261 C 
BRANCH   4   5
ATOM      5  O   UNL A   1      33.934  29.535  26.323  1.00  0.00    -0.460 OA
BRANCH   5   6
ATOM      6  C   UNL A   1      32.586  29.412  26.418  1.00  0.00     0.338 C 
ATOM      7  O   UNL A   1      31.806  30.261  26.817  1.00  0.00    -0.246 OA
BRANCH   6   8
ATOM      8  C   UNL A   1      32.112  28.161  25.765  1.00  0.00     0.061 A 
ATOM      9  C   UNL A   1      31.986  25.772  25.468  1.00  0.00     0.088 A 
ATOM     10  C   UNL A   1      31.093  25.942  24.397  1.00  0.00     0.022 A 
ATOM     11  C   UNL A   1      32.496  26.875  26.170  1.00  0.00     0.038 A 
ATOM     12  C   UNL A   1      30.753  27.221  23.975  1.00  0.00     0.002 A 
ATOM     13  C   UNL A   1      31.258  28.324  24.658  1.00  0.00     0.016 A 
BRANCH   9  14
ATOM     14  S   UNL A   1      32.493  24.113  25.869  1.00  0.00     0.261 S 
ATOM     15  O   UNL A   1      31.339  23.378  26.339  1.00  0.00    -0.201 OA
ATOM     16  O   UNL A   1      33.680  24.236  26.689  1.00  0.00    -0.201 OA
BRANCH  14  17
ATOM     17  N   UNL A   1      32.995  23.441  24.419  1.00  0.00    -0.280 N 
ATOM     18  H   UNL A   1      33.072  24.042  23.644  1.00  0.00     0.180 HD
BRANCH  17  19
ATOM     19  C   UNL A   1      33.320  22.064  24.219  1.00  0.00     0.049 A 
ATOM     20  C   UNL A   1      33.667  19.216  24.255  1.00  0.00    -0.042 A 
ATOM     21  C   UNL A   1      34.694  20.092  24.627  1.00  0.00     0.006 A 
ATOM     22  C   UNL A   1      32.466  19.817  23.830  1.00  0.00     0.006 A 
ATOM     23  C   UNL A   1      34.521  21.488  24.611  1.00  0.00     0.027 A 
ATOM     24  C   UNL A   1      32.293  21.211  23.819  1.00  0.00     0.027 A 
BRANCH  20  25
ATOM     25  C   UNL A   1      33.754  17.677  24.395  1.00  0.00    -0.013 C 
ATOM     26  C   UNL A   1      33.601  17.062  22.975  1.00  0.00     0.016 C 
ATOM     27  C   UNL A   1      32.748  17.005  25.381  1.00  0.00     0.016 C 
ATOM     28  C   UNL A   1      35.150  17.270  24.914  1.00  0.00     0.016 C 
ENDBRANCH  20  25
ENDBRANCH  17  19
ENDBRANCH  14  17
ENDBRANCH   9  14
ENDBRANCH   6   8
ENDBRANCH   5   6
ENDBRANCH   4   5
ENDBRANCH   3   4
ENDBRANCH   2   3
ENDBRANCH   1   2
BRANCH   1  29
ATOM     29  C   UNL A   1      33.257  34.444  28.724  1.00  0.00     0.188 C 
BRANCH  29  30
ATOM     30  O   UNL A   1      33.964  35.318  29.581  1.00  0.00    -0.376 OA
BRANCH  30  31
ATOM     31  C   UNL A   1      33.668  35.197  30.963  1.00  0.00     0.202 C 
BRANCH  31  32
ATOM     32  C   UNL A   1      34.228  33.935  31.649  1.00  0.00     0.261 C 
BRANCH  32  33
ATOM     33  O   UNL A   1      35.460  33.394  31.121  1.00  0.00    -0.460 OA
BRANCH  33  34
ATOM     34  C   UNL A   1      36.115  32.574  31.966  1.00  0.00     0.338 C 
ATOM     35  O   UNL A   1      35.664  32.116  32.993  1.00  0.00    -0.246 OA
BRANCH  34  36
ATOM     36  C   UNL A   1      37.424  32.150  31.455  1.00  0.00     0.060 A 
ATOM     37  C   UNL A   1      37.647  32.151  30.070  1.00  0.00     0.016 A 
ATOM     38  C   UNL A   1      38.358  31.602  32.327  1.00  0.00     0.016 A 
ATOM     39  C   UNL A   1      38.823  31.617  29.551  1.00  0.00     0.010 A 
ATOM     40  C   UNL A   1      39.533  31.062  31.806  1.00  0.00     0.010 A 
ATOM     41  C   UNL A   1      39.770  31.062  30.418  1.00  0.00    -0.014 A 
BRANCH  41  42
ATOM     42  C   UNL A   1      41.014  30.450  29.901  1.00  0.00     0.031 A 
ATOM     43  C   UNL A   1      42.227  31.303  29.683  1.00  0.00     0.074 A 
ATOM     44  C   UNL A   1      41.022  29.149  29.563  1.00  0.00     0.049 A 
ATOM     45  N   UNL A   1      43.327  31.025  29.035  1.00  0.00    -0.248 NA
ATOM     46  C   UNL A   1      42.188  32.653  30.265  1.00  0.00     0.031 C 
ATOM     47  C   UNL A   1      39.921  28.211  29.781  1.00  0.00     0.029 A 
ATOM     48  N   UNL A   1      41.982  28.402  28.928  1.00  0.00    -0.354 N 
ATOM     49  C   UNL A   1      44.106  32.173  29.107  1.00  0.00     0.074 A 
ATOM     50  C   UNL A   1      43.345  33.154  29.852  1.00  0.00     0.031 C 
ATOM     51  C   UNL A   1      40.253  27.021  29.257  1.00  0.00     0.029 A 
ATOM     52  C   UNL A   1      41.562  27.131  28.619  1.00  0.00     0.049 A 
ATOM     53  H   UNL A   1      42.881  28.742  28.715  1.00  0.00     0.167 HD
ATOM     54  C   UNL A   1      45.339  32.385  28.590  1.00  0.00     0.037 A 
ATOM     55  C   UNL A   1      42.145  26.184  27.861  1.00  0.00     0.037 A 
ATOM     56  C   UNL A   1      46.080  31.398  27.844  1.00  0.00     0.049 A 
ATOM     57  C   UNL A   1      43.477  26.473  27.222  1.00  0.00     0.074 A 
ATOM     58  C   UNL A   1      47.341  31.508  27.283  1.00  0.00     0.029 A 
ATOM     59  N   UNL A   1      45.622  30.122  27.549  1.00  0.00    -0.354 N 
ATOM     60  N   UNL A   1      44.208  27.559  27.287  1.00  0.00    -0.248 NA
ATOM     61  C   UNL A   1      44.062  25.404  26.400  1.00  0.00     0.031 C 
ATOM     62  C   UNL A   1      47.621  30.319  26.602  1.00  0.00     0.029 A 
ATOM     63  C   UNL A   1      46.565  29.443  26.795  1.00  0.00     0.049 A 
ATOM     64  H   UNL A   1      44.755  29.753  27.833  1.00  0.00     0.167 HD
ATOM     65  C   UNL A   1      45.356  27.290  26.553  1.00  0.00     0.074 A 
ATOM     66  C   UNL A   1      45.224  25.937  26.052  1.00  0.00     0.031 C 
ATOM     67  C   UNL A   1      46.428  28.088  26.321  1.00  0.00     0.037 A 
BRANCH  54  68
ATOM     68  C   UNL A   1      45.948  33.745  28.775  1.00  0.00     0.057 A 
ATOM     69  C   UNL A   1      45.716  34.794  27.878  1.00  0.00     0.134 A 
ATOM     70  C   UNL A   1      46.754  34.017  29.890  1.00  0.00     0.134 A 
ATOM     71  F   UNL A   1      44.965  34.599  26.784  1.00  0.00    -0.206 F 
ATOM     72  C   UNL A   1      46.282  36.056  28.067  1.00  0.00     0.040 A 
ATOM     73  C   UNL A   1      47.301  35.282  30.106  1.00  0.00     0.040 A 
ATOM     74  F   UNL A   1      47.012  33.060  30.793  1.00  0.00    -0.206 F 
ATOM     75  C   UNL A   1      47.072  36.305  29.187  1.00  0.00     0.006 A 
ENDBRANCH  54  68
BRANCH  55  76
ATOM     76  C   UNL A   1      41.463  24.883  27.641  1.00  0.00     0.057 A 
ATOM     77  C   UNL A   1      40.427  24.762  26.708  1.00  0.00     0.134 A 
ATOM     78  C   UNL A   1      41.820  23.737  28.361  1.00  0.00     0.134 A 
ATOM     79  F   UNL A   1      40.026  25.829  26.002  1.00  0.00    -0.206 F 
ATOM     80  C   UNL A   1      39.756  23.553  26.514  1.00  0.00     0.040 A 
ATOM     81  C   UNL A   1      41.179  22.515  28.157  1.00  0.00     0.040 A 
ATOM     82  F   UNL A   1      42.809  23.785  29.267  1.00  0.00    -0.206 F 
ATOM     83  C   UNL A   1      40.136  22.423  27.236  1.00  0.00     0.006 A 
ENDBRANCH  55  76
BRANCH  67  84
ATOM     84  C   UNL A   1      47.575  27.501  25.551  1.00  0.00     0.057 A 
ATOM     85  C   UNL A   1      48.653  26.865  26.180  1.00  0.00     0.134 A 
ATOM     86  C   UNL A   1      47.572  27.530  24.149  1.00  0.00     0.134 A 
ATOM     87  F   UNL A   1      48.724  26.814  27.519  1.00  0.00    -0.206 F 
ATOM     88  C   UNL A   1      49.694  26.296  25.445  1.00  0.00     0.040 A 
ATOM     89  C   UNL A   1      48.592  26.939  23.403  1.00  0.00     0.040 A 
ATOM     90  F   UNL A   1      46.565  28.116  23.482  1.00  0.00    -0.206 F 
ATOM     91  C   UNL A   1      49.660  26.324  24.051  1.00  0.00     0.006 A 
ENDBRANCH  67  84
ENDBRANCH  41  42
ENDBRANCH  34  36
ENDBRANCH  33  34
ENDBRANCH  32  33
ENDBRANCH  31  32
ENDBRANCH  30  31
ENDBRANCH  29  30
ENDBRANCH   1  29
TORSDOF 21
ENDMDL
MODEL 2
REMARK VINA RESULT:     -10.5      1.982      6.553
REMARK SMILES CC(C)(C)c1ccc(NS(=O)(=O)c2cccc(C(=O)OCCOCCOCCOC(=O)c3ccc(-c4c5nc(c(-c6c(F)cccc6F)c6ccc([nH]6)c(-c6c(F)cccc6F)c6nc(c(-c7c(F)cccc7F)c7ccc4[nH]7)C=C6)C=C5)cc3)c2)cc1
REMARK SMILES IDX 24 1 23 2 22 3 21 4 20 5 18 6 19 7 17 8 13 9 14 10 86 11
REMARK SMILES IDX 15 12 16 13 10 14 11 15 12 16 9 17 8 19 5 20 6 21 88 22 7 23
REMARK SMILES IDX 87 24 2 25 1 26 3 27 4 28 25 29 26 30 27 31 28 32 29 33
REMARK SMILES IDX 30 34 31 35 32 36 33 37 85 38 34 39 84 40 35 41 36 42 37 43
REMARK SMILES IDX 78 44 38 45 83 46 77 47 79 48 39 49 82 50 76 51 75 52 40 54
REMARK SMILES IDX 66 55 49 56 65 57 50 58 53 59 64 60 80 61 51 62 52 63 63 65
REMARK SMILES IDX 81 66 54 67 41 68 42 69 47 70 43 71 44 72 46 73 48 74 45 75
REMARK SMILES IDX 67 76 68 77 73 78 69 79 70 80 72 81 74 82 71 83 55 84 56 85
REMARK SMILES IDX 61 86 57 87 58 88 60 89 62 90 59 91
REMARK H PARENT 9 18 79 53 53 64
REMARK Flexibility Score: inf
ROOT
ATOM      1  C   UNL A   1      35.362  30.011  28.075  1.00  0.00     0.188 C 
ENDROOT
BRANCH   1   2
ATOM      2  O   UNL A   1      34.630  29.074  27.297  1.00  0.00    -0.376 OA
BRANCH   2   3
ATOM      3  C   UNL A   1      33.925  29.514  26.146  1.00  0.00     0.202 C 
BRANCH   3   4
ATOM      4  C   UNL A   1      32.454  29.935  26.301  1.00  0.00     0.261 C 
BRANCH   4   5
ATOM      5  O   UNL A   1      31.478  28.932  25.951  1.00  0.00    -0.460 OA
BRANCH   5   6
ATOM      6  C   UNL A   1      31.420  27.856  26.775  1.00  0.00     0.338 C 
ATOM      7  O   UNL A   1      31.374  27.878  27.994  1.00  0.00    -0.246 OA
BRANCH   6   8
ATOM      8  C   UNL A   1      31.194  26.601  26.007  1.00  0.00     0.061 A 
ATOM      9  C   UNL A   1      30.775  24.238  25.771  1.00  0.00     0.088 A 
ATOM     10  C   UNL A   1      30.788  24.366  24.372  1.00  0.00     0.022 A 
ATOM     11  C   UNL A   1      30.966  25.353  26.603  1.00  0.00     0.038 A 
ATOM     12  C   UNL A   1      31.057  25.598  23.791  1.00  0.00     0.002 A 
ATOM     13  C   UNL A   1      31.257  26.710  24.606  1.00  0.00     0.016 A 
BRANCH   9  14
ATOM     14  S   UNL A   1      30.565  22.608  26.453  1.00  0.00     0.261 S 
ATOM     15  O   UNL A   1      30.653  21.642  25.379  1.00  0.00    -0.201 OA
ATOM     16  O   UNL A   1      29.394  22.668  27.303  1.00  0.00    -0.201 OA
BRANCH  14  17
ATOM     17  N   UNL A   1      31.873  22.383  27.475  1.00  0.00    -0.280 N 
ATOM     18  H   UNL A   1      31.692  22.355  28.442  1.00  0.00     0.180 HD
BRANCH  17  19
ATOM     19  C   UNL A   1      33.230  22.229  27.055  1.00  0.00     0.049 A 
ATOM     20  C   UNL A   1      35.799  22.205  25.778  1.00  0.00    -0.042 A 
ATOM     21  C   UNL A   1      34.989  21.064  25.834  1.00  0.00     0.006 A 
ATOM     22  C   UNL A   1      35.292  23.354  26.415  1.00  0.00     0.006 A 
ATOM     23  C   UNL A   1      33.729  21.079  26.458  1.00  0.00     0.027 A 
ATOM     24  C   UNL A   1      34.032  23.369  27.034  1.00  0.00     0.027 A 
BRANCH  20  25
ATOM     25  C   UNL A   1      37.122  22.284  24.979  1.00  0.00    -0.013 C 
ATOM     26  C   UNL A   1      37.775  20.873  25.000  1.00  0.00     0.016 C 
ATOM     27  C   UNL A   1      38.155  23.360  25.438  1.00  0.00     0.016 C 
ATOM     28  C   UNL A   1      36.830  22.622  23.500  1.00  0.00     0.016 C 
ENDBRANCH  20  25
ENDBRANCH  17  19
ENDBRANCH  14  17
ENDBRANCH   9  14
ENDBRANCH   6   8
ENDBRANCH   5   6
ENDBRANCH   4   5
ENDBRANCH   3   4
ENDBRANCH   2   3
ENDBRANCH   1   2
BRANCH   1  29
ATOM     29  C   UNL A   1      35.130  31.527  27.914  1.00  0.00     0.188 C 
BRANCH  29  30
ATOM     30  O   UNL A   1      34.407  32.129  28.970  1.00  0.00    -0.376 OA
BRANCH  30  31
ATOM     31  C   UNL A   1      35.191  32.738  29.983  1.00  0.00     0.202 C 
BRANCH  31  32
ATOM     32  C   UNL A   1      35.186  32.016  31.345  1.00  0.00     0.261 C 
BRANCH  32  33
ATOM     33  O   UNL A   1      35.903  30.763  31.426  1.00  0.00    -0.460 OA
BRANCH  33  34
ATOM     34  C   UNL A   1      37.068  30.832  32.099  1.00  0.00     0.338 C 
ATOM     35  O   UNL A   1      37.199  31.204  33.244  1.00  0.00    -0.246 OA
BRANCH  34  36
ATOM     36  C   UNL A   1      38.197  30.267  31.350  1.00  0.00     0.060 A 
ATOM     37  C   UNL A   1      39.262  29.689  32.058  1.00  0.00     0.016 A 
ATOM     38  C   UNL A   1      38.274  30.457  29.975  1.00  0.00     0.016 A 
ATOM     39  C   UNL A   1      40.409  29.280  31.383  1.00  0.00     0.010 A 
ATOM     40  C   UNL A   1      39.426  30.052  29.301  1.00  0.00     0.010 A 
ATOM     41  C   UNL A   1      40.499  29.466  29.999  1.00  0.00    -0.014 A 
BRANCH  41  42
ATOM     42  C   UNL A   1      41.717  29.080  29.254  1.00  0.00     0.031 A 
ATOM     43  C   UNL A   1      41.863  27.679  28.744  1.00  0.00     0.074 A 
ATOM     44  C   UNL A   1      42.713  29.970  29.104  1.00  0.00     0.049 A 
ATOM     45  N   UNL A   1      42.923  27.075  28.276  1.00  0.00    -0.248 NA
ATOM     46  C   UNL A   1      40.652  26.844  28.775  1.00  0.00     0.031 C 
ATOM     47  C   UNL A   1      42.662  31.374  29.510  1.00  0.00     0.029 A 
ATOM     48  N   UNL A   1      43.980  29.810  28.602  1.00  0.00    -0.354 N 
ATOM     49  C   UNL A   1      42.518  25.780  27.980  1.00  0.00     0.074 A 
ATOM     50  C   UNL A   1      41.117  25.684  28.332  1.00  0.00     0.031 C 
ATOM     51  C   UNL A   1      43.855  31.941  29.273  1.00  0.00     0.029 A 
ATOM     52  C   UNL A   1      44.768  30.925  28.754  1.00  0.00     0.049 A 
ATOM     53  H   UNL A   1      44.293  28.980  28.176  1.00  0.00     0.167 HD
ATOM     54  C   UNL A   1      43.256  24.766  27.467  1.00  0.00     0.037 A 
ATOM     55  C   UNL A   1      46.087  31.090  28.548  1.00  0.00     0.037 A 
ATOM     56  C   UNL A   1      44.653  24.878  27.128  1.00  0.00     0.049 A 
ATOM     57  C   UNL A   1      46.906  29.925  28.062  1.00  0.00     0.074 A 
ATOM     58  C   UNL A   1      45.491  23.913  26.596  1.00  0.00     0.029 A 
ATOM     59  N   UNL A   1      45.418  26.023  27.298  1.00  0.00    -0.354 N 
ATOM     60  N   UNL A   1      46.523  28.702  27.787  1.00  0.00    -0.248 NA
ATOM     61  C   UNL A   1      48.343  30.163  27.862  1.00  0.00     0.031 C 
ATOM     62  C   UNL A   1      46.775  24.458  26.496  1.00  0.00     0.029 A 
ATOM     63  C   UNL A   1      46.723  25.782  26.902  1.00  0.00     0.049 A 
ATOM     64  H   UNL A   1      45.083  26.880  27.648  1.00  0.00     0.167 HD
ATOM     65  C   UNL A   1      47.659  28.037  27.342  1.00  0.00     0.074 A 
ATOM     66  C   UNL A   1      48.745  28.995  27.383  1.00  0.00     0.031 C 
ATOM     67  C   UNL A   1      47.790  26.753  26.928  1.00  0.00     0.037 A 
BRANCH  54  68
ATOM     68  C   UNL A   1      42.580  23.438  27.281  1.00  0.00     0.057 A 
ATOM     69  C   UNL A   1      42.209  22.961  26.019  1.00  0.00     0.134 A 
ATOM     70  C   UNL A   1      42.325  22.610  28.383  1.00  0.00     0.134 A 
ATOM     71  F   UNL A   1      42.413  23.708  24.923  1.00  0.00    -0.206 F 
ATOM     72  C   UNL A   1      41.588  21.720  25.860  1.00  0.00     0.040 A 
ATOM     73  C   UNL A   1      41.731  21.356  28.235  1.00  0.00     0.040 A 
ATOM     74  F   UNL A   1      42.660  23.002  29.622  1.00  0.00    -0.206 F 
ATOM     75  C   UNL A   1      41.353  20.911  26.969  1.00  0.00     0.006 A 
ENDBRANCH  54  68
BRANCH  55  76
ATOM     76  C   UNL A   1      46.724  32.403  28.826  1.00  0.00     0.057 A 
ATOM     77  C   UNL A   1      47.220  32.708  30.098  1.00  0.00     0.134 A 
ATOM     78  C   UNL A   1      46.843  33.385  27.834  1.00  0.00     0.134 A 
ATOM     79  F   UNL A   1      47.117  31.816  31.095  1.00  0.00    -0.206 F 
ATOM     80  C   UNL A   1      47.793  33.950  30.381  1.00  0.00     0.040 A 
ATOM     81  C   UNL A   1      47.440  34.619  28.095  1.00  0.00     0.040 A 
ATOM     82  F   UNL A   1      46.392  33.153  26.592  1.00  0.00    -0.206 F 
ATOM     83  C   UNL A   1      47.909  34.907  29.376  1.00  0.00     0.006 A 
ENDBRANCH  55  76
BRANCH  67  84
ATOM     84  C   UNL A   1      49.135  26.322  26.419  1.00  0.00     0.057 A 
ATOM     85  C   UNL A   1      49.574  26.616  25.122  1.00  0.00     0.134 A 
ATOM     86  C   UNL A   1      50.025  25.645  27.264  1.00  0.00     0.134 A 
ATOM     87  F   UNL A   1      48.767  27.250  24.258  1.00  0.00    -0.206 F 
ATOM     88  C   UNL A   1      50.842  26.236  24.678  1.00  0.00     0.040 A 
ATOM     89  C   UNL A   1      51.306  25.287  26.841  1.00  0.00     0.040 A 
ATOM     90  F   UNL A   1      49.672  25.340  28.522  1.00  0.00    -0.206 F 
ATOM     91  C   UNL A   1      51.715  25.577  25.542  1.00  0.00     0.006 A 
ENDBRANCH  67  84
ENDBRANCH  41  42
ENDBRANCH  34  36
ENDBRANCH  33  34
ENDBRANCH  32  33
ENDBRANCH  31  32
ENDBRANCH  30  31
ENDBRANCH  29  30
ENDBRANCH   1  29
TORSDOF 21
ENDMDL
MODEL 3
REMARK VINA RESULT:     -10.5      1.542      6.313
REMARK SMILES CC(C)(C)c1ccc(NS(=O)(=O)c2cccc(C(=O)OCCOCCOCCOC(=O)c3ccc(-c4c5nc(c(-c6c(F)cccc6F)c6ccc([nH]6)c(-c6c(F)cccc6F)c6nc(c(-c7c(F)cccc7F)c7ccc4[nH]7)C=C6)C=C5)cc3)c2)cc1
REMARK SMILES IDX 24 1 23 2 22 3 21 4 20 5 18 6 19 7 17 8 13 9 14 10 86 11
REMARK SMILES IDX 15 12 16 13 10 14 11 15 12 16 9 17 8 19 5 20 6 21 88 22 7 23
REMARK SMILES IDX 87 24 2 25 1 26 3 27 4 28 25 29 26 30 27 31 28 32 29 33
REMARK SMILES IDX 30 34 31 35 32 36 33 37 85 38 34 39 84 40 35 41 36 42 37 43
REMARK SMILES IDX 78 44 38 45 83 46 77 47 79 48 39 49 82 50 76 51 75 52 40 54
REMARK SMILES IDX 66 55 49 56 65 57 50 58 53 59 64 60 80 61 51 62 52 63 63 65
REMARK SMILES IDX 81 66 54 67 41 68 42 69 47 70 43 71 44 72 46 73 48 74 45 75
REMARK SMILES IDX 67 76 68 77 73 78 69 79 70 80 72 81 74 82 71 83 55 84 56 85
REMARK SMILES IDX 61 86 57 87 58 88 60 89 62 90 59 91
REMARK H PARENT 9 18 79 53 53 64
REMARK Flexibility Score: inf
ROOT
ATOM      1  C   UNL A   1      33.378  35.311  29.139  1.00  0.00     0.188 C 
ENDROOT
BRANCH   1   2
ATOM      2  O   UNL A   1      32.877  34.216  28.385  1.00  0.00    -0.376 OA
BRANCH   2   3
ATOM      3  C   UNL A   1      33.775  33.401  27.647  1.00  0.00     0.202 C 
BRANCH   3   4
ATOM      4  C   UNL A   1      33.932  31.925  28.052  1.00  0.00     0.261 C 
BRANCH   4   5
ATOM      5  O   UNL A   1      33.811  30.969  26.979  1.00  0.00    -0.460 OA
BRANCH   5   6
ATOM      6  C   UNL A   1      34.366  29.753  27.211  1.00  0.00     0.338 C 
ATOM      7  O   UNL A   1      35.427  29.535  27.774  1.00  0.00    -0.246 OA
BRANCH   6   8
ATOM      8  C   UNL A   1      33.415  28.655  26.885  1.00  0.00     0.061 A 
ATOM      9  C   UNL A   1      32.747  26.596  25.823  1.00  0.00     0.088 A 
ATOM     10  C   UNL A   1      31.474  26.696  26.407  1.00  0.00     0.022 A 
ATOM     11  C   UNL A   1      33.735  27.565  26.063  1.00  0.00     0.038 A 
ATOM     12  C   UNL A   1      31.153  27.801  27.185  1.00  0.00     0.002 A 
ATOM     13  C   UNL A   1      32.121  28.774  27.424  1.00  0.00     0.016 A 
BRANCH   9  14
ATOM     14  S   UNL A   1      33.050  25.230  24.724  1.00  0.00     0.261 S 
ATOM     15  O   UNL A   1      34.285  25.475  24.010  1.00  0.00    -0.201 OA
ATOM     16  O   UNL A   1      31.812  24.998  24.008  1.00  0.00    -0.201 OA
BRANCH  14  17
ATOM     17  N   UNL A   1      33.270  23.900  25.719  1.00  0.00    -0.280 N 
ATOM     18  H   UNL A   1      33.591  24.068  26.634  1.00  0.00     0.180 HD
BRANCH  17  19
ATOM     19  C   UNL A   1      33.028  22.543  25.346  1.00  0.00     0.049 A 
ATOM     20  C   UNL A   1      33.079  19.762  24.640  1.00  0.00    -0.042 A 
ATOM     21  C   UNL A   1      32.840  20.763  23.690  1.00  0.00     0.006 A 
ATOM     22  C   UNL A   1      33.258  20.200  25.966  1.00  0.00     0.006 A 
ATOM     23  C   UNL A   1      32.818  22.126  24.038  1.00  0.00     0.027 A 
ATOM     24  C   UNL A   1      33.240  21.561  26.312  1.00  0.00     0.027 A 
BRANCH  20  25
ATOM     25  C   UNL A   1      33.260  18.266  24.288  1.00  0.00    -0.013 C 
ATOM     26  C   UNL A   1      32.404  17.436  25.286  1.00  0.00     0.016 C 
ATOM     27  C   UNL A   1      34.724  17.725  24.258  1.00  0.00     0.016 C 
ATOM     28  C   UNL A   1      32.704  17.983  22.874  1.00  0.00     0.016 C 
ENDBRANCH  20  25
ENDBRANCH  17  19
ENDBRANCH  14  17
ENDBRANCH   9  14
ENDBRANCH   6   8
ENDBRANCH   5   6
ENDBRANCH   4   5
ENDBRANCH   3   4
ENDBRANCH   2   3
ENDBRANCH   1   2
BRANCH   1  29
ATOM     29  C   UNL A   1      32.910  35.556  30.588  1.00  0.00     0.188 C 
BRANCH  29  30
ATOM     30  O   UNL A   1      33.397  34.621  31.531  1.00  0.00    -0.376 OA
BRANCH  30  31
ATOM     31  C   UNL A   1      34.672  34.067  31.246  1.00  0.00     0.202 C 
BRANCH  31  32
ATOM     32  C   UNL A   1      34.809  32.556  31.518  1.00  0.00     0.261 C 
BRANCH  32  33
ATOM     33  O   UNL A   1      35.915  31.873  30.884  1.00  0.00    -0.460 OA
BRANCH  33  34
ATOM     34  C   UNL A   1      36.702  31.184  31.732  1.00  0.00     0.338 C 
ATOM     35  O   UNL A   1      36.452  30.951  32.894  1.00  0.00    -0.246 OA
BRANCH  34  36
ATOM     36  C   UNL A   1      37.874  30.593  31.075  1.00  0.00     0.060 A 
ATOM     37  C   UNL A   1      38.903  30.062  31.867  1.00  0.00     0.016 A 
ATOM     38  C   UNL A   1      38.024  30.715  29.698  1.00  0.00     0.016 A 
ATOM     39  C   UNL A   1      40.088  29.630  31.277  1.00  0.00     0.010 A 
ATOM     40  C   UNL A   1      39.213  30.287  29.109  1.00  0.00     0.010 A 
ATOM     41  C   UNL A   1      40.251  29.748  29.892  1.00  0.00    -0.014 A 
BRANCH  41  42
ATOM     42  C   UNL A   1      41.510  29.337  29.233  1.00  0.00     0.031 A 
ATOM     43  C   UNL A   1      41.681  27.920  28.776  1.00  0.00     0.074 A 
ATOM     44  C   UNL A   1      42.517  30.220  29.117  1.00  0.00     0.049 A 
ATOM     45  N   UNL A   1      42.766  27.300  28.392  1.00  0.00    -0.248 NA
ATOM     46  C   UNL A   1      40.467  27.089  28.759  1.00  0.00     0.031 C 
ATOM     47  C   UNL A   1      42.447  31.636  29.477  1.00  0.00     0.029 A 
ATOM     48  N   UNL A   1      43.811  30.041  28.698  1.00  0.00    -0.354 N 
ATOM     49  C   UNL A   1      42.374  25.997  28.111  1.00  0.00     0.074 A 
ATOM     50  C   UNL A   1      40.954  25.915  28.381  1.00  0.00     0.031 C 
ATOM     51  C   UNL A   1      43.655  32.192  29.295  1.00  0.00     0.029 A 
ATOM     52  C   UNL A   1      44.593  31.159  28.863  1.00  0.00     0.049 A 
ATOM     53  H   UNL A   1      44.147  29.198  28.317  1.00  0.00     0.167 HD
ATOM     54  C   UNL A   1      43.138  24.967  27.675  1.00  0.00     0.037 A 
ATOM     55  C   UNL A   1      45.923  31.315  28.733  1.00  0.00     0.037 A 
ATOM     56  C   UNL A   1      44.552  25.065  27.418  1.00  0.00     0.049 A 
ATOM     57  C   UNL A   1      46.765  30.134  28.333  1.00  0.00     0.074 A 
ATOM     58  C   UNL A   1      45.417  24.083  26.967  1.00  0.00     0.029 A 
ATOM     59  N   UNL A   1      45.311  26.213  27.598  1.00  0.00    -0.354 N 
ATOM     60  N   UNL A   1      46.395  28.904  28.072  1.00  0.00    -0.248 NA
ATOM     61  C   UNL A   1      48.212  30.362  28.213  1.00  0.00     0.031 C 
ATOM     62  C   UNL A   1      46.708  24.622  26.928  1.00  0.00     0.029 A 
ATOM     63  C   UNL A   1      46.637  25.958  27.290  1.00  0.00     0.049 A 
ATOM     64  H   UNL A   1      44.959  27.081  27.901  1.00  0.00     0.167 HD
ATOM     65  C   UNL A   1      47.553  28.223  27.717  1.00  0.00     0.074 A 
ATOM     66  C   UNL A   1      48.638  29.179  27.794  1.00  0.00     0.031 C 
ATOM     67  C   UNL A   1      47.703  26.926  27.351  1.00  0.00     0.037 A 
BRANCH  54  68
ATOM     68  C   UNL A   1      42.469  23.635  27.489  1.00  0.00     0.057 A 
ATOM     69  C   UNL A   1      42.239  22.760  28.557  1.00  0.00     0.134 A 
ATOM     70  C   UNL A   1      42.018  23.237  26.222  1.00  0.00     0.134 A 
ATOM     71  F   UNL A   1      42.656  23.073  29.793  1.00  0.00    -0.206 F 
ATOM     72  C   UNL A   1      41.609  21.528  28.370  1.00  0.00     0.040 A 
ATOM     73  C   UNL A   1      41.360  22.022  26.028  1.00  0.00     0.040 A 
ATOM     74  F   UNL A   1      42.199  24.030  25.155  1.00  0.00    -0.206 F 
ATOM     75  C   UNL A   1      41.161  21.159  27.104  1.00  0.00     0.006 A 
ENDBRANCH  54  68
BRANCH  55  76
ATOM     76  C   UNL A   1      46.548  32.634  29.009  1.00  0.00     0.057 A 
ATOM     77  C   UNL A   1      46.973  32.974  30.298  1.00  0.00     0.134 A 
ATOM     78  C   UNL A   1      46.723  33.588  27.998  1.00  0.00     0.134 A 
ATOM     79  F   UNL A   1      46.813  32.111  31.311  1.00  0.00    -0.206 F 
ATOM     80  C   UNL A   1      47.533  34.222  30.577  1.00  0.00     0.040 A 
ATOM     81  C   UNL A   1      47.308  34.828  28.257  1.00  0.00     0.040 A 
ATOM     82  F   UNL A   1      46.341  33.322  26.740  1.00  0.00    -0.206 F 
ATOM     83  C   UNL A   1      47.706  35.152  29.553  1.00  0.00     0.006 A 
ENDBRANCH  55  76
BRANCH  67  84
ATOM     84  C   UNL A   1      49.075  26.478  26.937  1.00  0.00     0.057 A 
ATOM     85  C   UNL A   1      49.953  25.840  27.822  1.00  0.00     0.134 A 
ATOM     86  C   UNL A   1      49.501  26.644  25.612  1.00  0.00     0.134 A 
ATOM     87  F   UNL A   1      49.613  25.662  29.108  1.00  0.00    -0.206 F 
ATOM     88  C   UNL A   1      51.213  25.400  27.409  1.00  0.00     0.040 A 
ATOM     89  C   UNL A   1      50.745  26.182  25.180  1.00  0.00     0.040 A 
ATOM     90  F   UNL A   1      48.705  27.239  24.710  1.00  0.00    -0.206 F 
ATOM     91  C   UNL A   1      51.607  25.563  26.081  1.00  0.00     0.006 A 
ENDBRANCH  67  84
ENDBRANCH  41  42
ENDBRANCH  34  36
ENDBRANCH  33  34
ENDBRANCH  32  33
ENDBRANCH  31  32
ENDBRANCH  30  31
ENDBRANCH  29  30
ENDBRANCH   1  29
TORSDOF 21
ENDMDL
