MODEL 1
REMARK VINA RESULT:     -11.4      0.000      0.000
REMARK SMILES Cc1nn([C@H]2CCS(=O)(=O)C2)c(C)c1/C=C(\CC(=O)OCCOCCOCCOC(=O)c1ccc(-c2c3nc(c(-c4c(F)cccc4F)c4ccc([nH]4)c(-c4c(F)cccc4F)c4nc(c(-c5c(F)cccc5F)c5ccc2[nH]5)C=C4)C=C3)cc1)c1nc2ccccc2s1
REMARK SMILES IDX 24 1 23 2 22 3 21 4 20 5 18 6 19 7 17 8 16 9 15 10 14 11
REMARK SMILES IDX 1 12 2 13 3 14 4 15 12 16 13 17 5 18 6 19 11 20 7 21 8 22
REMARK SMILES IDX 9 23 10 24 86 25 87 26 94 27 88 28 93 29 89 30 92 31 90 32
REMARK SMILES IDX 91 33 25 34 26 35 27 36 28 37 29 38 30 39 31 40 32 41 33 42
REMARK SMILES IDX 85 43 34 44 84 45 35 46 36 47 37 48 78 49 38 50 83 51 77 52
REMARK SMILES IDX 79 53 39 54 82 55 76 56 75 57 40 59 66 60 49 61 65 62 50 63
REMARK SMILES IDX 53 64 64 65 80 66 51 67 52 68 63 70 81 71 54 72 41 73 42 74
REMARK SMILES IDX 47 75 43 76 44 77 46 78 48 79 45 80 67 81 68 82 73 83 69 84
REMARK SMILES IDX 70 85 72 86 74 87 71 88 55 89 56 90 61 91 57 92 58 93 60 94
REMARK SMILES IDX 62 95 59 96
REMARK H PARENT 79 58 53 69
REMARK Flexibility Score: inf
ROOT
ATOM      1  C   UNL A   1      34.707  33.206  27.970  1.00  0.00     0.188 C 
ENDROOT
BRANCH   1   2
ATOM      2  O   UNL A   1      34.140  32.129  27.232  1.00  0.00    -0.376 OA
BRANCH   2   3
ATOM      3  C   UNL A   1      34.492  30.789  27.604  1.00  0.00     0.202 C 
BRANCH   3   4
ATOM      4  C   UNL A   1      33.528  29.637  27.224  1.00  0.00     0.261 C 
BRANCH   4   5
ATOM      5  O   UNL A   1      34.162  28.445  26.670  1.00  0.00    -0.463 OA
BRANCH   5   6
ATOM      6  C   UNL A   1      33.330  27.420  26.450  1.00  0.00     0.310 C 
ATOM      7  O   UNL A   1      32.131  27.463  26.753  1.00  0.00    -0.252 OA
BRANCH   6   8
ATOM      8  C   UNL A   1      33.801  26.191  25.661  1.00  0.00     0.161 C 
BRANCH   8   9
ATOM      9  C   UNL A   1      33.786  24.657  25.625  1.00  0.00    -0.000 C 
ATOM     10  C   UNL A   1      32.692  24.006  25.119  1.00  0.00     0.019 C 
BRANCH  10  11
ATOM     11  C   UNL A   1      31.454  24.628  24.741  1.00  0.00     0.019 A 
ATOM     12  C   UNL A   1      29.946  24.136  26.809  1.00  0.00     0.069 C 
ATOM     13  C   UNL A   1      30.297  24.796  25.529  1.00  0.00     0.067 A 
ATOM     14  N   UNL A   1      29.488  25.720  24.990  1.00  0.00    -0.177 NA
ATOM     15  N   UNL A   1      30.130  26.111  23.867  1.00  0.00    -0.265 N 
ATOM     16  C   UNL A   1      31.136  25.231  23.527  1.00  0.00     0.043 A 
ATOM     17  C   UNL A   1      31.788  25.178  22.187  1.00  0.00     0.067 C 
BRANCH  15  18
ATOM     18  C   UNL A   1      29.711  27.329  23.185  1.00  0.00     0.123 C 
ATOM     19  C   UNL A   1      28.218  27.686  23.393  1.00  0.00     0.044 C 
ATOM     20  C   UNL A   1      30.419  28.608  23.643  1.00  0.00     0.164 C 
ATOM     21  C   UNL A   1      27.983  29.025  22.702  1.00  0.00     0.139 C 
ATOM     22  S   UNL A   1      29.520  29.912  22.843  1.00  0.00     0.152 S 
ATOM     23  O   UNL A   1      30.073  30.080  21.514  1.00  0.00    -0.229 OA
ATOM     24  O   UNL A   1      29.354  31.020  23.757  1.00  0.00    -0.229 OA
ENDBRANCH  15  18
ENDBRANCH  10  11
BRANCH   9  25
ATOM     25  C   UNL A   1      34.971  23.819  25.685  1.00  0.00     0.121 A 
ATOM     26  N   UNL A   1      36.160  24.120  26.174  1.00  0.00    -0.236 NA
ATOM     27  S   UNL A   1      34.840  22.157  25.167  1.00  0.00    -0.114 S 
ATOM     28  C   UNL A   1      37.065  23.065  25.986  1.00  0.00     0.082 A 
ATOM     29  C   UNL A   1      36.518  21.902  25.445  1.00  0.00     0.055 A 
ATOM     30  C   UNL A   1      38.463  23.100  26.213  1.00  0.00     0.030 A 
ATOM     31  C   UNL A   1      37.305  20.769  25.151  1.00  0.00     0.021 A 
ATOM     32  C   UNL A   1      39.268  22.012  25.832  1.00  0.00     0.002 A 
ATOM     33  C   UNL A   1      38.692  20.859  25.310  1.00  0.00     0.002 A 
ENDBRANCH   9  25
ENDBRANCH   8   9
ENDBRANCH   6   8
ENDBRANCH   5   6
ENDBRANCH   4   5
ENDBRANCH   3   4
ENDBRANCH   2   3
ENDBRANCH   1   2
BRANCH   1  34
ATOM     34  C   UNL A   1      33.979  33.601  29.261  1.00  0.00     0.188 C 
BRANCH  34  35
ATOM     35  O   UNL A   1      33.023  34.617  29.037  1.00  0.00    -0.376 OA
BRANCH  35  36
ATOM     36  C   UNL A   1      33.314  35.993  29.163  1.00  0.00     0.202 C 
BRANCH  36  37
ATOM     37  C   UNL A   1      33.215  36.534  30.596  1.00  0.00     0.261 C 
BRANCH  37  38
ATOM     38  O   UNL A   1      34.010  35.803  31.523  1.00  0.00    -0.460 OA
BRANCH  38  39
ATOM     39  C   UNL A   1      33.250  35.112  32.394  1.00  0.00     0.338 C 
ATOM     40  O   UNL A   1      32.041  35.053  32.407  1.00  0.00    -0.246 OA
BRANCH  39  41
ATOM     41  C   UNL A   1      34.066  34.363  33.349  1.00  0.00     0.060 A 
ATOM     42  C   UNL A   1      35.076  35.137  33.928  1.00  0.00     0.016 A 
ATOM     43  C   UNL A   1      34.187  33.004  33.083  1.00  0.00     0.016 A 
ATOM     44  C   UNL A   1      36.351  34.687  33.757  1.00  0.00     0.010 A 
ATOM     45  C   UNL A   1      35.461  32.543  32.934  1.00  0.00     0.010 A 
ATOM     46  C   UNL A   1      36.507  33.449  33.133  1.00  0.00    -0.014 A 
BRANCH  46  47
ATOM     47  C   UNL A   1      37.840  33.080  32.736  1.00  0.00     0.031 A 
ATOM     48  C   UNL A   1      38.795  33.219  33.852  1.00  0.00     0.074 A 
ATOM     49  C   UNL A   1      38.049  32.540  31.522  1.00  0.00     0.049 A 
ATOM     50  N   UNL A   1      39.898  33.887  33.896  1.00  0.00    -0.248 NA
ATOM     51  C   UNL A   1      38.350  32.696  35.161  1.00  0.00     0.031 C 
ATOM     52  C   UNL A   1      37.042  32.166  30.518  1.00  0.00     0.029 A 
ATOM     53  N   UNL A   1      39.195  32.050  30.991  1.00  0.00    -0.354 N 
ATOM     54  C   UNL A   1      40.388  33.670  35.180  1.00  0.00     0.074 A 
ATOM     55  C   UNL A   1      39.305  33.152  35.964  1.00  0.00     0.031 C 
ATOM     56  C   UNL A   1      37.587  31.275  29.662  1.00  0.00     0.029 A 
ATOM     57  C   UNL A   1      38.989  31.103  30.000  1.00  0.00     0.049 A 
ATOM     58  H   UNL A   1      40.090  32.338  31.283  1.00  0.00     0.167 HD
ATOM     59  C   UNL A   1      41.724  33.607  35.408  1.00  0.00     0.037 A 
ATOM     60  C   UNL A   1      39.884  30.166  29.605  1.00  0.00     0.037 A 
ATOM     61  C   UNL A   1      42.458  34.319  34.394  1.00  0.00     0.049 A 
ATOM     62  C   UNL A   1      41.214  30.568  30.141  1.00  0.00     0.074 A 
ATOM     63  C   UNL A   1      42.456  35.623  33.937  1.00  0.00     0.029 A 
ATOM     64  N   UNL A   1      43.107  33.585  33.432  1.00  0.00    -0.354 N 
ATOM     65  N   UNL A   1      41.890  31.603  29.730  1.00  0.00    -0.248 NA
ATOM     66  C   UNL A   1      41.592  30.066  31.457  1.00  0.00     0.031 C 
ATOM     67  C   UNL A   1      42.702  35.532  32.537  1.00  0.00     0.029 A 
ATOM     68  C   UNL A   1      42.875  34.185  32.221  1.00  0.00     0.049 A 
ATOM     69  H   UNL A   1      43.642  32.773  33.584  1.00  0.00     0.167 HD
ATOM     70  C   UNL A   1      42.476  32.129  30.874  1.00  0.00     0.074 A 
ATOM     71  C   UNL A   1      42.341  31.086  31.885  1.00  0.00     0.031 C 
ATOM     72  C   UNL A   1      42.748  33.464  30.976  1.00  0.00     0.037 A 
BRANCH  59  73
ATOM     73  C   UNL A   1      42.341  32.546  36.290  1.00  0.00     0.057 A 
ATOM     74  C   UNL A   1      43.267  32.943  37.267  1.00  0.00     0.134 A 
ATOM     75  C   UNL A   1      42.296  31.154  36.043  1.00  0.00     0.134 A 
ATOM     76  F   UNL A   1      43.412  34.237  37.591  1.00  0.00    -0.206 F 
ATOM     77  C   UNL A   1      44.142  32.038  37.881  1.00  0.00     0.040 A 
ATOM     78  C   UNL A   1      43.125  30.238  36.690  1.00  0.00     0.040 A 
ATOM     79  F   UNL A   1      41.527  30.601  35.099  1.00  0.00    -0.206 F 
ATOM     80  C   UNL A   1      44.079  30.683  37.586  1.00  0.00     0.006 A 
ENDBRANCH  59  73
BRANCH  60  81
ATOM     81  C   UNL A   1      39.610  28.800  29.102  1.00  0.00     0.057 A 
ATOM     82  C   UNL A   1      40.050  28.401  27.834  1.00  0.00     0.134 A 
ATOM     83  C   UNL A   1      39.117  27.775  29.932  1.00  0.00     0.134 A 
ATOM     84  F   UNL A   1      40.580  29.296  26.987  1.00  0.00    -0.206 F 
ATOM     85  C   UNL A   1      40.013  27.063  27.417  1.00  0.00     0.040 A 
ATOM     86  C   UNL A   1      39.059  26.439  29.524  1.00  0.00     0.040 A 
ATOM     87  F   UNL A   1      38.754  28.016  31.199  1.00  0.00    -0.206 F 
ATOM     88  C   UNL A   1      39.520  26.077  28.266  1.00  0.00     0.006 A 
ENDBRANCH  60  81
BRANCH  72  89
ATOM     89  C   UNL A   1      42.644  34.291  29.725  1.00  0.00     0.057 A 
ATOM     90  C   UNL A   1      41.470  34.944  29.318  1.00  0.00     0.134 A 
ATOM     91  C   UNL A   1      43.801  34.554  28.988  1.00  0.00     0.134 A 
ATOM     92  F   UNL A   1      40.339  34.841  30.027  1.00  0.00    -0.206 F 
ATOM     93  C   UNL A   1      41.439  35.779  28.199  1.00  0.00     0.040 A 
ATOM     94  C   UNL A   1      43.792  35.415  27.887  1.00  0.00     0.040 A 
ATOM     95  F   UNL A   1      44.975  34.015  29.355  1.00  0.00    -0.206 F 
ATOM     96  C   UNL A   1      42.606  36.020  27.481  1.00  0.00     0.006 A 
ENDBRANCH  72  89
ENDBRANCH  46  47
ENDBRANCH  39  41
ENDBRANCH  38  39
ENDBRANCH  37  38
ENDBRANCH  36  37
ENDBRANCH  35  36
ENDBRANCH  34  35
ENDBRANCH   1  34
TORSDOF 21
ENDMDL
MODEL 2
REMARK VINA RESULT:     -11.2      3.947      6.178
REMARK SMILES Cc1nn([C@H]2CCS(=O)(=O)C2)c(C)c1/C=C(\CC(=O)OCCOCCOCCOC(=O)c1ccc(-c2c3nc(c(-c4c(F)cccc4F)c4ccc([nH]4)c(-c4c(F)cccc4F)c4nc(c(-c5c(F)cccc5F)c5ccc2[nH]5)C=C4)C=C3)cc1)c1nc2ccccc2s1
REMARK SMILES IDX 24 1 23 2 22 3 21 4 20 5 18 6 19 7 17 8 16 9 15 10 14 11
REMARK SMILES IDX 1 12 2 13 3 14 4 15 12 16 13 17 5 18 6 19 11 20 7 21 8 22
REMARK SMILES IDX 9 23 10 24 86 25 87 26 94 27 88 28 93 29 89 30 92 31 90 32
REMARK SMILES IDX 91 33 25 34 26 35 27 36 28 37 29 38 30 39 31 40 32 41 33 42
REMARK SMILES IDX 85 43 34 44 84 45 35 46 36 47 37 48 78 49 38 50 83 51 77 52
REMARK SMILES IDX 79 53 39 54 82 55 76 56 75 57 40 59 66 60 49 61 65 62 50 63
REMARK SMILES IDX 53 64 64 65 80 66 51 67 52 68 63 70 81 71 54 72 41 73 42 74
REMARK SMILES IDX 47 75 43 76 44 77 46 78 48 79 45 80 67 81 68 82 73 83 69 84
REMARK SMILES IDX 70 85 72 86 74 87 71 88 55 89 56 90 61 91 57 92 58 93 60 94
REMARK SMILES IDX 62 95 59 96
REMARK H PARENT 79 58 53 69
REMARK Flexibility Score: inf
ROOT
ATOM      1  C   UNL A   1      33.837  32.468  28.363  1.00  0.00     0.188 C 
ENDROOT
BRANCH   1   2
ATOM      2  O   UNL A   1      34.383  31.155  28.409  1.00  0.00    -0.376 OA
BRANCH   2   3
ATOM      3  C   UNL A   1      34.350  30.361  27.215  1.00  0.00     0.202 C 
BRANCH   3   4
ATOM      4  C   UNL A   1      33.036  29.627  26.849  1.00  0.00     0.261 C 
BRANCH   4   5
ATOM      5  O   UNL A   1      33.166  28.562  25.860  1.00  0.00    -0.463 OA
BRANCH   5   6
ATOM      6  C   UNL A   1      32.869  27.337  26.315  1.00  0.00     0.310 C 
ATOM      7  O   UNL A   1      31.952  27.135  27.120  1.00  0.00    -0.252 OA
BRANCH   6   8
ATOM      8  C   UNL A   1      33.562  26.100  25.728  1.00  0.00     0.161 C 
BRANCH   8   9
ATOM      9  C   UNL A   1      33.484  24.573  25.608  1.00  0.00    -0.000 C 
ATOM     10  C   UNL A   1      32.368  23.996  25.062  1.00  0.00     0.019 C 
BRANCH  10  11
ATOM     11  C   UNL A   1      31.160  24.689  24.713  1.00  0.00     0.019 A 
ATOM     12  C   UNL A   1      29.664  24.257  26.803  1.00  0.00     0.069 C 
ATOM     13  C   UNL A   1      30.027  24.911  25.523  1.00  0.00     0.067 A 
ATOM     14  N   UNL A   1      29.261  25.883  25.009  1.00  0.00    -0.177 NA
ATOM     15  N   UNL A   1      29.903  26.252  23.878  1.00  0.00    -0.265 N 
ATOM     16  C   UNL A   1      30.854  25.323  23.510  1.00  0.00     0.043 A 
ATOM     17  C   UNL A   1      31.479  25.249  22.158  1.00  0.00     0.067 C 
BRANCH  15  18
ATOM     18  C   UNL A   1      29.539  27.498  23.216  1.00  0.00     0.123 C 
ATOM     19  C   UNL A   1      28.052  27.894  23.391  1.00  0.00     0.044 C 
ATOM     20  C   UNL A   1      30.270  28.744  23.728  1.00  0.00     0.164 C 
ATOM     21  C   UNL A   1      27.875  29.256  22.728  1.00  0.00     0.139 C 
ATOM     22  S   UNL A   1      29.432  30.094  22.936  1.00  0.00     0.152 S 
ATOM     23  O   UNL A   1      30.029  30.279  21.629  1.00  0.00    -0.229 OA
ATOM     24  O   UNL A   1      29.271  31.182  23.874  1.00  0.00    -0.229 OA
ENDBRANCH  15  18
ENDBRANCH  10  11
BRANCH   9  25
ATOM     25  C   UNL A   1      34.634  23.684  25.627  1.00  0.00     0.121 A 
ATOM     26  N   UNL A   1      35.872  23.959  25.992  1.00  0.00    -0.236 NA
ATOM     27  S   UNL A   1      34.387  22.000  25.243  1.00  0.00    -0.114 S 
ATOM     28  C   UNL A   1      36.712  22.852  25.803  1.00  0.00     0.082 A 
ATOM     29  C   UNL A   1      36.071  21.683  25.394  1.00  0.00     0.055 A 
ATOM     30  C   UNL A   1      38.125  22.834  25.908  1.00  0.00     0.030 A 
ATOM     31  C   UNL A   1      36.780  20.495  25.117  1.00  0.00     0.021 A 
ATOM     32  C   UNL A   1      38.847  21.685  25.539  1.00  0.00     0.002 A 
ATOM     33  C   UNL A   1      38.178  20.529  25.152  1.00  0.00     0.002 A 
ENDBRANCH   9  25
ENDBRANCH   8   9
ENDBRANCH   6   8
ENDBRANCH   5   6
ENDBRANCH   4   5
ENDBRANCH   3   4
ENDBRANCH   2   3
ENDBRANCH   1   2
BRANCH   1  34
ATOM     34  C   UNL A   1      34.490  33.507  29.284  1.00  0.00     0.188 C 
BRANCH  34  35
ATOM     35  O   UNL A   1      34.347  33.167  30.648  1.00  0.00    -0.376 OA
BRANCH  35  36
ATOM     36  C   UNL A   1      35.445  32.910  31.499  1.00  0.00     0.202 C 
BRANCH  36  37
ATOM     37  C   UNL A   1      35.937  31.457  31.478  1.00  0.00     0.261 C 
BRANCH  37  38
ATOM     38  O   UNL A   1      36.985  31.237  30.539  1.00  0.00    -0.460 OA
BRANCH  38  39
ATOM     39  C   UNL A   1      37.273  29.928  30.413  1.00  0.00     0.338 C 
ATOM     40  O   UNL A   1      36.993  29.048  31.196  1.00  0.00    -0.246 OA
BRANCH  39  41
ATOM     41  C   UNL A   1      37.956  29.644  29.151  1.00  0.00     0.060 A 
ATOM     42  C   UNL A   1      37.841  28.307  28.758  1.00  0.00     0.016 A 
ATOM     43  C   UNL A   1      39.067  30.437  28.890  1.00  0.00     0.016 A 
ATOM     44  C   UNL A   1      39.010  27.631  28.580  1.00  0.00     0.010 A 
ATOM     45  C   UNL A   1      40.236  29.765  28.688  1.00  0.00     0.010 A 
ATOM     46  C   UNL A   1      40.190  28.367  28.688  1.00  0.00    -0.014 A 
BRANCH  46  47
ATOM     47  C   UNL A   1      41.423  27.626  28.740  1.00  0.00     0.031 A 
ATOM     48  C   UNL A   1      42.156  27.882  29.994  1.00  0.00     0.074 A 
ATOM     49  C   UNL A   1      41.699  26.722  27.783  1.00  0.00     0.049 A 
ATOM     50  N   UNL A   1      43.370  28.286  30.155  1.00  0.00    -0.248 NA
ATOM     51  C   UNL A   1      41.351  27.873  31.234  1.00  0.00     0.031 C 
ATOM     52  C   UNL A   1      40.832  26.290  26.677  1.00  0.00     0.029 A 
ATOM     53  N   UNL A   1      42.746  25.868  27.691  1.00  0.00    -0.354 N 
ATOM     54  C   UNL A   1      43.537  28.358  31.535  1.00  0.00     0.074 A 
ATOM     55  C   UNL A   1      42.229  28.333  32.119  1.00  0.00     0.031 C 
ATOM     56  C   UNL A   1      41.263  25.093  26.224  1.00  0.00     0.029 A 
ATOM     57  C   UNL A   1      42.478  24.738  26.935  1.00  0.00     0.049 A 
ATOM     58  H   UNL A   1      43.616  26.034  28.122  1.00  0.00     0.167 HD
ATOM     59  C   UNL A   1      44.739  28.085  32.100  1.00  0.00     0.037 A 
ATOM     60  C   UNL A   1      43.143  23.560  27.015  1.00  0.00     0.037 A 
ATOM     61  C   UNL A   1      45.814  28.297  31.165  1.00  0.00     0.049 A 
ATOM     62  C   UNL A   1      44.408  23.812  27.757  1.00  0.00     0.074 A 
ATOM     63  C   UNL A   1      46.250  29.380  30.425  1.00  0.00     0.029 A 
ATOM     64  N   UNL A   1      46.405  27.193  30.601  1.00  0.00    -0.354 N 
ATOM     65  N   UNL A   1      45.404  24.514  27.295  1.00  0.00    -0.248 NA
ATOM     66  C   UNL A   1      44.386  23.651  29.206  1.00  0.00     0.031 C 
ATOM     67  C   UNL A   1      46.717  28.832  29.196  1.00  0.00     0.029 A 
ATOM     68  C   UNL A   1      46.573  27.446  29.264  1.00  0.00     0.049 A 
ATOM     69  H   UNL A   1      46.663  26.368  31.073  1.00  0.00     0.167 HD
ATOM     70  C   UNL A   1      45.888  25.217  28.391  1.00  0.00     0.074 A 
ATOM     71  C   UNL A   1      45.290  24.570  29.553  1.00  0.00     0.031 C 
ATOM     72  C   UNL A   1      46.489  26.435  28.237  1.00  0.00     0.037 A 
BRANCH  59  73
ATOM     73  C   UNL A   1      44.871  27.225  33.336  1.00  0.00     0.057 A 
ATOM     74  C   UNL A   1      45.596  27.727  34.428  1.00  0.00     0.134 A 
ATOM     75  C   UNL A   1      44.578  25.842  33.402  1.00  0.00     0.134 A 
ATOM     76  F   UNL A   1      45.942  29.022  34.484  1.00  0.00    -0.206 F 
ATOM     77  C   UNL A   1      46.071  26.903  35.455  1.00  0.00     0.040 A 
ATOM     78  C   UNL A   1      44.999  25.023  34.449  1.00  0.00     0.040 A 
ATOM     79  F   UNL A   1      43.959  25.177  32.421  1.00  0.00    -0.206 F 
ATOM     80  C   UNL A   1      45.782  25.545  35.462  1.00  0.00     0.006 A 
ENDBRANCH  59  73
BRANCH  60  81
ATOM     81  C   UNL A   1      42.606  22.195  26.799  1.00  0.00     0.057 A 
ATOM     82  C   UNL A   1      43.190  21.335  25.862  1.00  0.00     0.134 A 
ATOM     83  C   UNL A   1      41.658  21.612  27.662  1.00  0.00     0.134 A 
ATOM     84  F   UNL A   1      44.139  21.784  25.027  1.00  0.00    -0.206 F 
ATOM     85  C   UNL A   1      42.862  19.974  25.792  1.00  0.00     0.040 A 
ATOM     86  C   UNL A   1      41.309  20.260  27.593  1.00  0.00     0.040 A 
ATOM     87  F   UNL A   1      41.099  22.311  28.660  1.00  0.00    -0.206 F 
ATOM     88  C   UNL A   1      41.922  19.432  26.663  1.00  0.00     0.006 A 
ENDBRANCH  60  81
BRANCH  72  89
ATOM     89  C   UNL A   1      46.846  26.860  26.840  1.00  0.00     0.057 A 
ATOM     90  C   UNL A   1      48.030  26.480  26.188  1.00  0.00     0.134 A 
ATOM     91  C   UNL A   1      45.901  27.554  26.080  1.00  0.00     0.134 A 
ATOM     92  F   UNL A   1      48.944  25.719  26.801  1.00  0.00    -0.206 F 
ATOM     93  C   UNL A   1      48.282  26.820  24.857  1.00  0.00     0.040 A 
ATOM     94  C   UNL A   1      46.125  27.869  24.737  1.00  0.00     0.040 A 
ATOM     95  F   UNL A   1      44.719  27.895  26.617  1.00  0.00    -0.206 F 
ATOM     96  C   UNL A   1      47.323  27.514  24.125  1.00  0.00     0.006 A 
ENDBRANCH  72  89
ENDBRANCH  46  47
ENDBRANCH  39  41
ENDBRANCH  38  39
ENDBRANCH  37  38
ENDBRANCH  36  37
ENDBRANCH  35  36
ENDBRANCH  34  35
ENDBRANCH   1  34
TORSDOF 21
ENDMDL
MODEL 3
REMARK VINA RESULT:     -10.7      1.796      2.720
REMARK SMILES Cc1nn([C@H]2CCS(=O)(=O)C2)c(C)c1/C=C(\CC(=O)OCCOCCOCCOC(=O)c1ccc(-c2c3nc(c(-c4c(F)cccc4F)c4ccc([nH]4)c(-c4c(F)cccc4F)c4nc(c(-c5c(F)cccc5F)c5ccc2[nH]5)C=C4)C=C3)cc1)c1nc2ccccc2s1
REMARK SMILES IDX 24 1 23 2 22 3 21 4 20 5 18 6 19 7 17 8 16 9 15 10 14 11
REMARK SMILES IDX 1 12 2 13 3 14 4 15 12 16 13 17 5 18 6 19 11 20 7 21 8 22
REMARK SMILES IDX 9 23 10 24 86 25 87 26 94 27 88 28 93 29 89 30 92 31 90 32
REMARK SMILES IDX 91 33 25 34 26 35 27 36 28 37 29 38 30 39 31 40 32 41 33 42
REMARK SMILES IDX 85 43 34 44 84 45 35 46 36 47 37 48 78 49 38 50 83 51 77 52
REMARK SMILES IDX 79 53 39 54 82 55 76 56 75 57 40 59 66 60 49 61 65 62 50 63
REMARK SMILES IDX 53 64 64 65 80 66 51 67 52 68 63 70 81 71 54 72 41 73 42 74
REMARK SMILES IDX 47 75 43 76 44 77 46 78 48 79 45 80 67 81 68 82 73 83 69 84
REMARK SMILES IDX 70 85 72 86 74 87 71 88 55 89 56 90 61 91 57 92 58 93 60 94
REMARK SMILES IDX 62 95 59 96
REMARK H PARENT 79 58 53 69
REMARK Flexibility Score: inf
ROOT
ATOM      1  C   UNL A   1      32.716  30.816  27.258  1.00  0.00     0.188 C 
ENDROOT
BRANCH   1   2
ATOM      2  O   UNL A   1      33.415  29.914  26.408  1.00  0.00    -0.376 OA
BRANCH   2   3
ATOM      3  C   UNL A   1      33.492  28.535  26.794  1.00  0.00     0.202 C 
BRANCH   3   4
ATOM      4  C   UNL A   1      33.425  27.451  25.689  1.00  0.00     0.261 C 
BRANCH   4   5
ATOM      5  O   UNL A   1      33.340  26.074  26.165  1.00  0.00    -0.463 OA
BRANCH   5   6
ATOM      6  C   UNL A   1      34.145  25.212  25.531  1.00  0.00     0.310 C 
ATOM      7  O   UNL A   1      35.326  25.044  25.859  1.00  0.00    -0.252 OA
BRANCH   6   8
ATOM      8  C   UNL A   1      33.584  24.271  24.455  1.00  0.00     0.161 C 
BRANCH   8   9
ATOM      9  C   UNL A   1      32.380  23.403  24.071  1.00  0.00    -0.000 C 
ATOM     10  C   UNL A   1      31.372  23.944  23.317  1.00  0.00     0.019 C 
BRANCH  10  11
ATOM     11  C   UNL A   1      31.251  25.331  22.962  1.00  0.00     0.019 A 
ATOM     12  C   UNL A   1      32.919  25.528  20.970  1.00  0.00     0.069 C 
ATOM     13  C   UNL A   1      31.828  25.992  21.859  1.00  0.00     0.067 A 
ATOM     14  N   UNL A   1      31.219  27.167  21.642  1.00  0.00    -0.177 NA
ATOM     15  N   UNL A   1      30.282  27.242  22.612  1.00  0.00    -0.265 N 
ATOM     16  C   UNL A   1      30.510  26.317  23.609  1.00  0.00     0.043 A 
ATOM     17  C   UNL A   1      29.885  26.368  24.962  1.00  0.00     0.067 C 
BRANCH  15  18
ATOM     18  C   UNL A   1      29.214  28.229  22.508  1.00  0.00     0.123 C 
ATOM     19  C   UNL A   1      28.003  27.948  23.432  1.00  0.00     0.044 C 
ATOM     20  C   UNL A   1      29.606  29.655  22.908  1.00  0.00     0.164 C 
ATOM     21  C   UNL A   1      27.041  29.120  23.270  1.00  0.00     0.139 C 
ATOM     22  S   UNL A   1      28.065  30.537  22.935  1.00  0.00     0.152 S 
ATOM     23  O   UNL A   1      27.792  30.990  21.586  1.00  0.00    -0.229 OA
ATOM     24  O   UNL A   1      28.037  31.431  24.071  1.00  0.00    -0.229 OA
ENDBRANCH  15  18
ENDBRANCH  10  11
BRANCH   9  25
ATOM     25  C   UNL A   1      32.379  21.950  24.064  1.00  0.00     0.121 A 
ATOM     26  N   UNL A   1      32.472  21.129  25.093  1.00  0.00    -0.236 NA
ATOM     27  S   UNL A   1      32.109  21.127  22.549  1.00  0.00    -0.114 S 
ATOM     28  C   UNL A   1      32.505  19.791  24.671  1.00  0.00     0.082 A 
ATOM     29  C   UNL A   1      32.319  19.596  23.303  1.00  0.00     0.055 A 
ATOM     30  C   UNL A   1      32.784  18.658  25.474  1.00  0.00     0.030 A 
ATOM     31  C   UNL A   1      32.371  18.314  22.714  1.00  0.00     0.021 A 
ATOM     32  C   UNL A   1      32.935  17.392  24.881  1.00  0.00     0.002 A 
ATOM     33  C   UNL A   1      32.727  17.225  23.517  1.00  0.00     0.002 A 
ENDBRANCH   9  25
ENDBRANCH   8   9
ENDBRANCH   6   8
ENDBRANCH   5   6
ENDBRANCH   4   5
ENDBRANCH   3   4
ENDBRANCH   2   3
ENDBRANCH   1   2
BRANCH   1  34
ATOM     34  C   UNL A   1      33.167  32.282  27.209  1.00  0.00     0.188 C 
BRANCH  34  35
ATOM     35  O   UNL A   1      34.397  32.478  27.875  1.00  0.00    -0.376 OA
BRANCH  35  36
ATOM     36  C   UNL A   1      34.853  33.747  28.297  1.00  0.00     0.202 C 
BRANCH  36  37
ATOM     37  C   UNL A   1      33.916  34.463  29.279  1.00  0.00     0.261 C 
BRANCH  37  38
ATOM     38  O   UNL A   1      33.717  33.738  30.488  1.00  0.00    -0.460 OA
BRANCH  38  39
ATOM     39  C   UNL A   1      33.473  34.560  31.527  1.00  0.00     0.338 C 
ATOM     40  O   UNL A   1      32.623  35.421  31.581  1.00  0.00    -0.246 OA
BRANCH  39  41
ATOM     41  C   UNL A   1      34.348  34.272  32.662  1.00  0.00     0.060 A 
ATOM     42  C   UNL A   1      35.277  35.288  32.906  1.00  0.00     0.016 A 
ATOM     43  C   UNL A   1      34.597  32.923  32.887  1.00  0.00     0.016 A 
ATOM     44  C   UNL A   1      36.589  34.923  32.871  1.00  0.00     0.010 A 
ATOM     45  C   UNL A   1      35.909  32.556  32.877  1.00  0.00     0.010 A 
ATOM     46  C   UNL A   1      36.865  33.564  32.718  1.00  0.00    -0.014 A 
BRANCH  46  47
ATOM     47  C   UNL A   1      38.230  33.200  32.441  1.00  0.00     0.031 A 
ATOM     48  C   UNL A   1      39.091  33.391  33.624  1.00  0.00     0.074 A 
ATOM     49  C   UNL A   1      38.542  32.621  31.267  1.00  0.00     0.049 A 
ATOM     50  N   UNL A   1      40.179  34.075  33.732  1.00  0.00    -0.248 NA
ATOM     51  C   UNL A   1      38.548  32.907  34.911  1.00  0.00     0.031 C 
ATOM     52  C   UNL A   1      37.622  32.199  30.201  1.00  0.00     0.029 A 
ATOM     53  N   UNL A   1      39.732  32.129  30.847  1.00  0.00    -0.354 N 
ATOM     54  C   UNL A   1      40.568  33.909  35.058  1.00  0.00     0.074 A 
ATOM     55  C   UNL A   1      39.431  33.404  35.770  1.00  0.00     0.031 C 
ATOM     56  C   UNL A   1      38.244  31.287  29.423  1.00  0.00     0.029 A 
ATOM     57  C   UNL A   1      39.616  31.147  29.877  1.00  0.00     0.049 A 
ATOM     58  H   UNL A   1      40.597  32.440  31.199  1.00  0.00     0.167 HD
ATOM     59  C   UNL A   1      41.881  33.872  35.393  1.00  0.00     0.037 A 
ATOM     60  C   UNL A   1      40.550  30.209  29.588  1.00  0.00     0.037 A 
ATOM     61  C   UNL A   1      42.687  34.560  34.417  1.00  0.00     0.049 A 
ATOM     62  C   UNL A   1      41.828  30.647  30.214  1.00  0.00     0.074 A 
ATOM     63  C   UNL A   1      42.706  35.847  33.915  1.00  0.00     0.029 A 
ATOM     64  N   UNL A   1      43.418  33.802  33.535  1.00  0.00    -0.354 N 
ATOM     65  N   UNL A   1      42.523  31.677  29.821  1.00  0.00    -0.248 NA
ATOM     66  C   UNL A   1      42.105  30.196  31.572  1.00  0.00     0.031 C 
ATOM     67  C   UNL A   1      43.064  35.712  32.543  1.00  0.00     0.029 A 
ATOM     68  C   UNL A   1      43.277  34.357  32.290  1.00  0.00     0.049 A 
ATOM     69  H   UNL A   1      43.949  33.003  33.758  1.00  0.00     0.167 HD
ATOM     70  C   UNL A   1      43.010  32.250  30.989  1.00  0.00     0.074 A 
ATOM     71  C   UNL A   1      42.806  31.241  32.022  1.00  0.00     0.031 C 
ATOM     72  C   UNL A   1      43.259  33.591  31.065  1.00  0.00     0.037 A 
BRANCH  59  73
ATOM     73  C   UNL A   1      42.437  32.852  36.358  1.00  0.00     0.057 A 
ATOM     74  C   UNL A   1      43.258  33.298  37.407  1.00  0.00     0.134 A 
ATOM     75  C   UNL A   1      42.450  31.453  36.148  1.00  0.00     0.134 A 
ATOM     76  F   UNL A   1      43.340  34.603  37.706  1.00  0.00    -0.206 F 
ATOM     77  C   UNL A   1      44.092  32.433  38.125  1.00  0.00     0.040 A 
ATOM     78  C   UNL A   1      43.235  30.576  36.895  1.00  0.00     0.040 A 
ATOM     79  F   UNL A   1      41.786  30.856  35.151  1.00  0.00    -0.206 F 
ATOM     80  C   UNL A   1      44.090  31.069  37.864  1.00  0.00     0.006 A 
ENDBRANCH  59  73
BRANCH  60  81
ATOM     81  C   UNL A   1      40.332  28.822  29.114  1.00  0.00     0.057 A 
ATOM     82  C   UNL A   1      39.735  27.866  29.945  1.00  0.00     0.134 A 
ATOM     83  C   UNL A   1      40.485  28.454  27.764  1.00  0.00     0.134 A 
ATOM     84  F   UNL A   1      39.502  28.140  31.237  1.00  0.00    -0.206 F 
ATOM     85  C   UNL A   1      39.305  26.622  29.462  1.00  0.00     0.040 A 
ATOM     86  C   UNL A   1      40.077  27.210  27.272  1.00  0.00     0.040 A 
ATOM     87  F   UNL A   1      40.957  29.316  26.853  1.00  0.00    -0.206 F 
ATOM     88  C   UNL A   1      39.472  26.293  28.121  1.00  0.00     0.006 A 
ENDBRANCH  60  81
BRANCH  72  89
ATOM     89  C   UNL A   1      43.245  34.373  29.781  1.00  0.00     0.057 A 
ATOM     90  C   UNL A   1      44.340  34.452  28.905  1.00  0.00     0.134 A 
ATOM     91  C   UNL A   1      42.046  34.942  29.346  1.00  0.00     0.134 A 
ATOM     92  F   UNL A   1      45.497  33.842  29.186  1.00  0.00    -0.206 F 
ATOM     93  C   UNL A   1      44.257  35.112  27.677  1.00  0.00     0.040 A 
ATOM     94  C   UNL A   1      41.939  35.574  28.105  1.00  0.00     0.040 A 
ATOM     95  F   UNL A   1      40.940  34.850  30.102  1.00  0.00    -0.206 F 
ATOM     96  C   UNL A   1      43.050  35.673  27.271  1.00  0.00     0.006 A 
ENDBRANCH  72  89
ENDBRANCH  46  47
ENDBRANCH  39  41
ENDBRANCH  38  39
ENDBRANCH  37  38
ENDBRANCH  36  37
ENDBRANCH  35  36
ENDBRANCH  34  35
ENDBRANCH   1  34
TORSDOF 21
ENDMDL
