MODEL 1
REMARK VINA RESULT:     -12.1      0.000      0.000
REMARK SMILES Cc1ccc(NC(=O)[C@H]2CC=CC[C@H]2C(=O)OCCOCCOCCOC(=O)c2ccc(-c3c4nc(c(-c5c(F)cccc5F)c5ccc([nH]5)c(-c5c(F)cccc5F)c5nc(c(-c6c(F)cccc6F)c6ccc3[nH]6)C=C5)C=C4)cc2)cc1F
REMARK SMILES IDX 21 1 20 2 19 3 18 4 17 5 15 6 16 7 14 8 9 9 10 10 11 11
REMARK SMILES IDX 13 12 12 13 7 14 6 15 8 17 5 18 1 19 2 20 3 21 84 22 4 23
REMARK SMILES IDX 83 24 85 25 22 26 23 27 24 28 25 29 26 30 27 31 28 32 29 33
REMARK SMILES IDX 30 34 82 35 31 36 81 37 32 38 33 39 34 40 75 41 35 42 80 43
REMARK SMILES IDX 74 44 76 45 36 46 79 47 73 48 72 49 37 51 63 52 46 53 62 54
REMARK SMILES IDX 47 55 50 56 61 57 77 58 48 59 49 60 60 62 78 63 51 64 38 65
REMARK SMILES IDX 39 66 44 67 40 68 41 69 43 70 45 71 42 72 64 73 65 74 70 75
REMARK SMILES IDX 66 76 67 77 69 78 71 79 68 80 52 81 53 82 58 83 54 84 55 85
REMARK SMILES IDX 57 86 59 87 56 88
REMARK H PARENT 6 16 76 50 50 61
REMARK Flexibility Score: inf
ROOT
ATOM      1  C   UNL A   1      33.676  33.773  28.700  1.00  0.00     0.188 C 
ENDROOT
BRANCH   1   2
ATOM      2  O   UNL A   1      34.662  33.112  27.672  1.00  0.00    -0.376 OA
BRANCH   2   3
ATOM      3  C   UNL A   1      34.930  31.694  27.654  1.00  0.00     0.202 C 
BRANCH   3   4
ATOM      4  C   UNL A   1      33.809  30.637  27.672  1.00  0.00     0.261 C 
BRANCH   4   5
ATOM      5  O   UNL A   1      33.278  30.244  26.384  1.00  0.00    -0.463 OA
BRANCH   5   6
ATOM      6  C   UNL A   1      33.460  28.958  26.000  1.00  0.00     0.310 C 
ATOM      7  O   UNL A   1      34.394  28.264  26.392  1.00  0.00    -0.252 OA
BRANCH   6   8
ATOM      8  C   UNL A   1      32.452  28.419  24.975  1.00  0.00     0.116 C 
ATOM      9  C   UNL A   1      31.796  27.015  25.069  1.00  0.00     0.097 C 
ATOM     10  C   UNL A   1      30.743  26.760  23.963  1.00  0.00     0.041 C 
ATOM     11  C   UNL A   1      30.128  27.972  23.341  1.00  0.00    -0.030 C 
ATOM     12  C   UNL A   1      31.415  29.529  24.791  1.00  0.00     0.043 C 
ATOM     13  C   UNL A   1      30.418  29.220  23.720  1.00  0.00    -0.030 C 
BRANCH   9  14
ATOM     14  C   UNL A   1      31.443  26.584  26.476  1.00  0.00     0.228 C 
ATOM     15  N   UNL A   1      31.976  25.415  26.972  1.00  0.00    -0.326 N 
ATOM     16  H   UNL A   1      31.794  25.261  27.928  1.00  0.00     0.169 HD
ATOM     17  O   UNL A   1      30.697  27.253  27.191  1.00  0.00    -0.274 OA
BRANCH  15  18
ATOM     18  C   UNL A   1      32.741  24.390  26.353  1.00  0.00     0.044 A 
ATOM     19  C   UNL A   1      35.927  20.672  24.901  1.00  0.00     0.047 C 
ATOM     20  C   UNL A   1      35.038  21.832  25.225  1.00  0.00    -0.015 A 
ATOM     21  C   UNL A   1      35.464  23.557  24.958  1.00  0.00     0.008 A 
ATOM     22  C   UNL A   1      33.488  21.389  25.951  1.00  0.00     0.128 A 
ATOM     23  C   UNL A   1      34.344  24.859  25.572  1.00  0.00     0.026 A 
ATOM     24  C   UNL A   1      32.371  22.624  26.546  1.00  0.00     0.065 A 
ATOM     25  F   UNL A   1      33.188  20.099  26.153  1.00  0.00    -0.207 F 
ENDBRANCH  15  18
ENDBRANCH   9  14
ENDBRANCH   6   8
ENDBRANCH   5   6
ENDBRANCH   4   5
ENDBRANCH   3   4
ENDBRANCH   2   3
ENDBRANCH   1   2
BRANCH   1  26
ATOM     26  C   UNL A   1      33.097  35.857  29.001  1.00  0.00     0.188 C 
BRANCH  26  27
ATOM     27  O   UNL A   1      32.892  36.662  30.377  1.00  0.00    -0.376 OA
BRANCH  27  28
ATOM     28  C   UNL A   1      32.463  36.083  31.631  1.00  0.00     0.202 C 
BRANCH  28  29
ATOM     29  C   UNL A   1      33.524  35.549  32.596  1.00  0.00     0.261 C 
BRANCH  29  30
ATOM     30  O   UNL A   1      34.837  35.585  32.082  1.00  0.00    -0.460 OA
BRANCH  30  31
ATOM     31  C   UNL A   1      35.711  34.799  32.740  1.00  0.00     0.338 C 
ATOM     32  O   UNL A   1      36.183  34.989  33.843  1.00  0.00    -0.246 OA
BRANCH  31  33
ATOM     33  C   UNL A   1      35.896  33.606  31.915  1.00  0.00     0.060 A 
ATOM     34  C   UNL A   1      35.487  32.359  32.413  1.00  0.00     0.016 A 
ATOM     35  C   UNL A   1      36.592  33.741  30.712  1.00  0.00     0.016 A 
ATOM     36  C   UNL A   1      36.174  31.255  32.000  1.00  0.00     0.010 A 
ATOM     37  C   UNL A   1      37.253  32.650  30.273  1.00  0.00     0.010 A 
ATOM     38  C   UNL A   1      37.193  31.529  31.112  1.00  0.00    -0.014 A 
BRANCH  38  39
ATOM     39  C   UNL A   1      38.515  30.998  31.339  1.00  0.00     0.031 A 
ATOM     40  C   UNL A   1      38.768  29.786  30.569  1.00  0.00     0.074 A 
ATOM     41  C   UNL A   1      39.342  31.915  31.914  1.00  0.00     0.049 A 
ATOM     42  N   UNL A   1      39.668  28.921  30.844  1.00  0.00    -0.248 NA
ATOM     43  C   UNL A   1      37.872  29.336  29.487  1.00  0.00     0.031 C 
ATOM     44  C   UNL A   1      40.752  32.203  31.684  1.00  0.00     0.029 A 
ATOM     45  N   UNL A   1      38.993  32.853  32.912  1.00  0.00    -0.354 N 
ATOM     46  C   UNL A   1      39.795  28.180  29.690  1.00  0.00     0.074 A 
ATOM     47  C   UNL A   1      38.508  28.244  29.061  1.00  0.00     0.031 C 
ATOM     48  C   UNL A   1      41.208  33.023  32.655  1.00  0.00     0.029 A 
ATOM     49  C   UNL A   1      40.149  33.188  33.641  1.00  0.00     0.049 A 
ATOM     50  H   UNL A   1      38.089  33.211  33.072  1.00  0.00     0.167 HD
ATOM     51  C   UNL A   1      41.056  27.906  29.254  1.00  0.00     0.037 A 
ATOM     52  C   UNL A   1      40.257  32.826  34.958  1.00  0.00     0.037 A 
ATOM     53  C   UNL A   1      42.016  28.488  30.202  1.00  0.00     0.049 A 
ATOM     54  C   UNL A   1      41.145  31.627  35.111  1.00  0.00     0.074 A 
ATOM     55  C   UNL A   1      42.752  29.661  30.174  1.00  0.00     0.029 A 
ATOM     56  N   UNL A   1      41.991  28.073  31.529  1.00  0.00    -0.354 N 
ATOM     57  N   UNL A   1      41.454  30.833  34.126  1.00  0.00    -0.248 NA
ATOM     58  C   UNL A   1      41.736  31.228  36.380  1.00  0.00     0.031 C 
ATOM     59  C   UNL A   1      43.106  29.980  31.517  1.00  0.00     0.029 A 
ATOM     60  C   UNL A   1      42.588  29.006  32.356  1.00  0.00     0.049 A 
ATOM     61  H   UNL A   1      41.600  27.225  31.840  1.00  0.00     0.167 HD
ATOM     62  C   UNL A   1      42.228  29.820  34.594  1.00  0.00     0.074 A 
ATOM     63  C   UNL A   1      42.411  30.131  36.002  1.00  0.00     0.031 C 
ATOM     64  C   UNL A   1      42.620  28.786  33.798  1.00  0.00     0.037 A 
BRANCH  51  65
ATOM     65  C   UNL A   1      41.467  27.399  27.891  1.00  0.00     0.057 A 
ATOM     66  C   UNL A   1      41.818  26.040  27.753  1.00  0.00     0.134 A 
ATOM     67  C   UNL A   1      41.560  28.137  26.696  1.00  0.00     0.134 A 
ATOM     68  F   UNL A   1      41.756  25.191  28.789  1.00  0.00    -0.206 F 
ATOM     69  C   UNL A   1      42.239  25.474  26.545  1.00  0.00     0.040 A 
ATOM     70  C   UNL A   1      41.967  27.579  25.476  1.00  0.00     0.040 A 
ATOM     71  F   UNL A   1      41.272  29.438  26.619  1.00  0.00    -0.206 F 
ATOM     72  C   UNL A   1      42.311  26.242  25.396  1.00  0.00     0.006 A 
ENDBRANCH  51  65
BRANCH  52  73
ATOM     73  C   UNL A   1      38.988  32.997  35.718  1.00  0.00     0.057 A 
ATOM     74  C   UNL A   1      38.307  31.818  36.051  1.00  0.00     0.134 A 
ATOM     75  C   UNL A   1      38.813  34.115  36.540  1.00  0.00     0.134 A 
ATOM     76  F   UNL A   1      38.372  30.745  35.247  1.00  0.00    -0.206 F 
ATOM     77  C   UNL A   1      37.721  31.671  37.301  1.00  0.00     0.040 A 
ATOM     78  C   UNL A   1      38.226  33.980  37.795  1.00  0.00     0.040 A 
ATOM     79  F   UNL A   1      39.341  35.301  36.209  1.00  0.00    -0.206 F 
ATOM     80  C   UNL A   1      37.736  32.739  38.197  1.00  0.00     0.006 A 
ENDBRANCH  52  73
BRANCH  64  81
ATOM     81  C   UNL A   1      43.142  27.494  34.352  1.00  0.00     0.057 A 
ATOM     82  C   UNL A   1      42.320  26.455  34.810  1.00  0.00     0.134 A 
ATOM     83  C   UNL A   1      44.522  27.211  34.338  1.00  0.00     0.134 A 
ATOM     84  F   UNL A   1      40.985  26.501  34.693  1.00  0.00    -0.206 F 
ATOM     85  C   UNL A   1      42.837  25.289  35.374  1.00  0.00     0.040 A 
ATOM     86  C   UNL A   1      45.043  26.007  34.804  1.00  0.00     0.040 A 
ATOM     87  F   UNL A   1      45.423  28.078  33.855  1.00  0.00    -0.206 F 
ATOM     88  C   UNL A   1      44.205  25.061  35.370  1.00  0.00     0.006 A 
ENDBRANCH  64  81
ENDBRANCH  38  39
ENDBRANCH  31  33
ENDBRANCH  30  31
ENDBRANCH  29  30
ENDBRANCH  28  29
ENDBRANCH  27  28
ENDBRANCH  26  27
ENDBRANCH   1  26
TORSDOF 19
ENDMDL
MODEL 2
REMARK VINA RESULT:     -11.9      4.826     10.832
REMARK SMILES Cc1ccc(NC(=O)[C@H]2CC=CC[C@H]2C(=O)OCCOCCOCCOC(=O)c2ccc(-c3c4nc(c(-c5c(F)cccc5F)c5ccc([nH]5)c(-c5c(F)cccc5F)c5nc(c(-c6c(F)cccc6F)c6ccc3[nH]6)C=C5)C=C4)cc2)cc1F
REMARK SMILES IDX 21 1 20 2 19 3 18 4 17 5 15 6 16 7 14 8 9 9 10 10 11 11
REMARK SMILES IDX 13 12 12 13 7 14 6 15 8 17 5 18 1 19 2 20 3 21 84 22 4 23
REMARK SMILES IDX 83 24 85 25 22 26 23 27 24 28 25 29 26 30 27 31 28 32 29 33
REMARK SMILES IDX 30 34 82 35 31 36 81 37 32 38 33 39 34 40 75 41 35 42 80 43
REMARK SMILES IDX 74 44 76 45 36 46 79 47 73 48 72 49 37 51 63 52 46 53 62 54
REMARK SMILES IDX 47 55 50 56 61 57 77 58 48 59 49 60 60 62 78 63 51 64 38 65
REMARK SMILES IDX 39 66 44 67 40 68 41 69 43 70 45 71 42 72 64 73 65 74 70 75
REMARK SMILES IDX 66 76 67 77 69 78 71 79 68 80 52 81 53 82 58 83 54 84 55 85
REMARK SMILES IDX 57 86 59 87 56 88
REMARK H PARENT 6 16 76 50 50 61
REMARK Flexibility Score: inf
ROOT
ATOM      1  C   UNL A   1      40.759  19.790  25.906  1.00  0.00     0.188 C 
ENDROOT
BRANCH   1   2
ATOM      2  O   UNL A   1      39.333  19.191  25.637  1.00  0.00    -0.376 OA
BRANCH   2   3
ATOM      3  C   UNL A   1      38.286  19.940  24.984  1.00  0.00     0.202 C 
BRANCH   3   4
ATOM      4  C   UNL A   1      38.005  21.422  25.299  1.00  0.00     0.261 C 
BRANCH   4   5
ATOM      5  O   UNL A   1      36.885  22.022  24.607  1.00  0.00    -0.463 OA
BRANCH   5   6
ATOM      6  C   UNL A   1      36.019  22.760  25.341  1.00  0.00     0.310 C 
ATOM      7  O   UNL A   1      36.373  23.676  26.078  1.00  0.00    -0.252 OA
BRANCH   6   8
ATOM      8  C   UNL A   1      34.544  22.342  25.254  1.00  0.00     0.116 C 
ATOM      9  C   UNL A   1      33.450  23.188  24.548  1.00  0.00     0.097 C 
ATOM     10  C   UNL A   1      32.068  22.491  24.518  1.00  0.00     0.041 C 
ATOM     11  C   UNL A   1      32.072  21.003  24.650  1.00  0.00    -0.030 C 
ATOM     12  C   UNL A   1      34.553  20.890  24.770  1.00  0.00     0.043 C 
ATOM     13  C   UNL A   1      33.190  20.277  24.750  1.00  0.00    -0.030 C 
BRANCH   9  14
ATOM     14  C   UNL A   1      33.911  23.869  23.278  1.00  0.00     0.228 C 
ATOM     15  N   UNL A   1      33.833  25.241  23.188  1.00  0.00    -0.326 N 
ATOM     16  H   UNL A   1      34.255  25.619  22.382  1.00  0.00     0.169 HD
ATOM     17  O   UNL A   1      34.359  23.231  22.325  1.00  0.00    -0.274 OA
BRANCH  15  18
ATOM     18  C   UNL A   1      33.252  26.212  24.049  1.00  0.00     0.044 A 
ATOM     19  C   UNL A   1      31.724  30.264  26.755  1.00  0.00     0.047 C 
ATOM     20  C   UNL A   1      32.200  29.018  26.076  1.00  0.00    -0.015 A 
ATOM     21  C   UNL A   1      33.529  27.967  26.674  1.00  0.00     0.008 A 
ATOM     22  C   UNL A   1      31.365  28.641  24.564  1.00  0.00     0.128 A 
ATOM     23  C   UNL A   1      34.109  26.583  25.638  1.00  0.00     0.026 A 
ATOM     24  C   UNL A   1      31.890  27.299  23.540  1.00  0.00     0.065 A 
ATOM     25  F   UNL A   1      30.383  29.439  24.126  1.00  0.00    -0.207 F 
ENDBRANCH  15  18
ENDBRANCH   9  14
ENDBRANCH   6   8
ENDBRANCH   5   6
ENDBRANCH   4   5
ENDBRANCH   3   4
ENDBRANCH   2   3
ENDBRANCH   1   2
BRANCH   1  26
ATOM     26  C   UNL A   1      42.692  18.820  26.209  1.00  0.00     0.188 C 
BRANCH  26  27
ATOM     27  O   UNL A   1      43.756  18.319  25.113  1.00  0.00    -0.376 OA
BRANCH  27  28
ATOM     28  C   UNL A   1      44.618  19.176  24.327  1.00  0.00     0.202 C 
BRANCH  28  29
ATOM     29  C   UNL A   1      45.414  20.271  25.041  1.00  0.00     0.261 C 
BRANCH  29  30
ATOM     30  O   UNL A   1      44.945  21.578  24.789  1.00  0.00    -0.460 OA
BRANCH  30  31
ATOM     31  C   UNL A   1      45.180  22.451  25.787  1.00  0.00     0.338 C 
ATOM     32  O   UNL A   1      46.239  22.668  26.339  1.00  0.00    -0.246 OA
BRANCH  31  33
ATOM     33  C   UNL A   1      43.928  23.176  26.002  1.00  0.00     0.060 A 
ATOM     34  C   UNL A   1      43.454  24.036  24.999  1.00  0.00     0.016 A 
ATOM     35  C   UNL A   1      43.320  23.080  27.256  1.00  0.00     0.016 A 
ATOM     36  C   UNL A   1      42.722  25.121  25.387  1.00  0.00     0.010 A 
ATOM     37  C   UNL A   1      42.568  24.132  27.643  1.00  0.00     0.010 A 
ATOM     38  C   UNL A   1      42.535  25.211  26.750  1.00  0.00    -0.014 A 
BRANCH  38  39
ATOM     39  C   UNL A   1      42.817  26.446  27.440  1.00  0.00     0.031 A 
ATOM     40  C   UNL A   1      41.615  27.233  27.688  1.00  0.00     0.074 A 
ATOM     41  C   UNL A   1      44.049  26.436  28.022  1.00  0.00     0.049 A 
ATOM     42  N   UNL A   1      41.601  28.488  27.928  1.00  0.00    -0.248 NA
ATOM     43  C   UNL A   1      40.259  26.684  27.498  1.00  0.00     0.031 C 
ATOM     44  C   UNL A   1      44.501  26.958  29.305  1.00  0.00     0.029 A 
ATOM     45  N   UNL A   1      45.228  25.874  27.482  1.00  0.00    -0.354 N 
ATOM     46  C   UNL A   1      40.349  28.723  28.453  1.00  0.00     0.074 A 
ATOM     47  C   UNL A   1      39.505  27.720  27.872  1.00  0.00     0.031 C 
ATOM     48  C   UNL A   1      45.850  26.940  29.347  1.00  0.00     0.029 A 
ATOM     49  C   UNL A   1      46.339  26.539  28.036  1.00  0.00     0.049 A 
ATOM     50  H   UNL A   1      45.267  25.141  26.827  1.00  0.00     0.167 HD
ATOM     51  C   UNL A   1      40.271  29.508  29.563  1.00  0.00     0.037 A 
ATOM     52  C   UNL A   1      47.139  27.315  27.239  1.00  0.00     0.037 A 
ATOM     53  C   UNL A   1      41.626  29.949  29.922  1.00  0.00     0.049 A 
ATOM     54  C   UNL A   1      46.834  28.770  27.433  1.00  0.00     0.074 A 
ATOM     55  C   UNL A   1      42.531  29.493  30.866  1.00  0.00     0.029 A 
ATOM     56  N   UNL A   1      42.359  30.691  29.003  1.00  0.00    -0.354 N 
ATOM     57  N   UNL A   1      45.735  29.206  27.980  1.00  0.00    -0.248 NA
ATOM     58  C   UNL A   1      47.732  29.837  27.014  1.00  0.00     0.031 C 
ATOM     59  C   UNL A   1      43.829  29.913  30.456  1.00  0.00     0.029 A 
ATOM     60  C   UNL A   1      43.714  30.622  29.271  1.00  0.00     0.049 A 
ATOM     61  H   UNL A   1      41.965  31.201  28.258  1.00  0.00     0.167 HD
ATOM     62  C   UNL A   1      45.737  30.564  27.966  1.00  0.00     0.074 A 
ATOM     63  C   UNL A   1      47.024  30.914  27.389  1.00  0.00     0.031 C 
ATOM     64  C   UNL A   1      44.665  31.291  28.390  1.00  0.00     0.037 A 
BRANCH  51  65
ATOM     65  C   UNL A   1      39.093  29.662  30.498  1.00  0.00     0.057 A 
ATOM     66  C   UNL A   1      38.458  30.917  30.583  1.00  0.00     0.134 A 
ATOM     67  C   UNL A   1      38.533  28.679  31.337  1.00  0.00     0.134 A 
ATOM     68  F   UNL A   1      38.850  31.955  29.829  1.00  0.00    -0.206 F 
ATOM     69  C   UNL A   1      37.378  31.177  31.435  1.00  0.00     0.040 A 
ATOM     70  C   UNL A   1      37.442  28.922  32.185  1.00  0.00     0.040 A 
ATOM     71  F   UNL A   1      38.992  27.429  31.402  1.00  0.00    -0.206 F 
ATOM     72  C   UNL A   1      36.861  30.176  32.239  1.00  0.00     0.006 A 
ENDBRANCH  51  65
BRANCH  52  73
ATOM     73  C   UNL A   1      47.394  26.712  25.902  1.00  0.00     0.057 A 
ATOM     74  C   UNL A   1      46.716  27.295  24.823  1.00  0.00     0.134 A 
ATOM     75  C   UNL A   1      48.612  26.073  25.647  1.00  0.00     0.134 A 
ATOM     76  F   UNL A   1      45.503  27.843  25.000  1.00  0.00    -0.206 F 
ATOM     77  C   UNL A   1      47.359  27.494  23.610  1.00  0.00     0.040 A 
ATOM     78  C   UNL A   1      49.267  26.264  24.433  1.00  0.00     0.040 A 
ATOM     79  F   UNL A   1      49.249  25.395  26.613  1.00  0.00    -0.206 F 
ATOM     80  C   UNL A   1      48.661  27.029  23.437  1.00  0.00     0.006 A 
ENDBRANCH  52  73
BRANCH  64  81
ATOM     81  C   UNL A   1      44.486  32.739  28.048  1.00  0.00     0.057 A 
ATOM     82  C   UNL A   1      44.133  33.200  26.772  1.00  0.00     0.134 A 
ATOM     83  C   UNL A   1      44.560  33.729  29.047  1.00  0.00     0.134 A 
ATOM     84  F   UNL A   1      43.826  32.359  25.772  1.00  0.00    -0.206 F 
ATOM     85  C   UNL A   1      44.030  34.557  26.471  1.00  0.00     0.040 A 
ATOM     86  C   UNL A   1      44.359  35.080  28.779  1.00  0.00     0.040 A 
ATOM     87  F   UNL A   1      44.812  33.430  30.330  1.00  0.00    -0.206 F 
ATOM     88  C   UNL A   1      44.141  35.504  27.478  1.00  0.00     0.006 A 
ENDBRANCH  64  81
ENDBRANCH  38  39
ENDBRANCH  31  33
ENDBRANCH  30  31
ENDBRANCH  29  30
ENDBRANCH  28  29
ENDBRANCH  27  28
ENDBRANCH  26  27
ENDBRANCH   1  26
TORSDOF 19
ENDMDL
MODEL 3
REMARK VINA RESULT:     -11.5      4.299      9.609
REMARK SMILES Cc1ccc(NC(=O)[C@H]2CC=CC[C@H]2C(=O)OCCOCCOCCOC(=O)c2ccc(-c3c4nc(c(-c5c(F)cccc5F)c5ccc([nH]5)c(-c5c(F)cccc5F)c5nc(c(-c6c(F)cccc6F)c6ccc3[nH]6)C=C5)C=C4)cc2)cc1F
REMARK SMILES IDX 21 1 20 2 19 3 18 4 17 5 15 6 16 7 14 8 9 9 10 10 11 11
REMARK SMILES IDX 13 12 12 13 7 14 6 15 8 17 5 18 1 19 2 20 3 21 84 22 4 23
REMARK SMILES IDX 83 24 85 25 22 26 23 27 24 28 25 29 26 30 27 31 28 32 29 33
REMARK SMILES IDX 30 34 82 35 31 36 81 37 32 38 33 39 34 40 75 41 35 42 80 43
REMARK SMILES IDX 74 44 76 45 36 46 79 47 73 48 72 49 37 51 63 52 46 53 62 54
REMARK SMILES IDX 47 55 50 56 61 57 77 58 48 59 49 60 60 62 78 63 51 64 38 65
REMARK SMILES IDX 39 66 44 67 40 68 41 69 43 70 45 71 42 72 64 73 65 74 70 75
REMARK SMILES IDX 66 76 67 77 69 78 71 79 68 80 52 81 53 82 58 83 54 84 55 85
REMARK SMILES IDX 57 86 59 87 56 88
REMARK H PARENT 6 16 76 50 50 61
REMARK Flexibility Score: inf
ROOT
ATOM      1  C   UNL A   1      40.630  19.904  26.211  1.00  0.00     0.188 C 
ENDROOT
BRANCH   1   2
ATOM      2  O   UNL A   1      39.751  21.123  26.665  1.00  0.00    -0.376 OA
BRANCH   2   3
ATOM      3  C   UNL A   1      38.895  21.846  25.755  1.00  0.00     0.202 C 
BRANCH   3   4
ATOM      4  C   UNL A   1      37.506  21.330  25.335  1.00  0.00     0.261 C 
BRANCH   4   5
ATOM      5  O   UNL A   1      36.727  22.205  24.485  1.00  0.00    -0.463 OA
BRANCH   5   6
ATOM      6  C   UNL A   1      35.857  23.050  25.088  1.00  0.00     0.310 C 
ATOM      7  O   UNL A   1      36.205  24.078  25.661  1.00  0.00    -0.252 OA
BRANCH   6   8
ATOM      8  C   UNL A   1      34.385  22.613  25.074  1.00  0.00     0.116 C 
ATOM      9  C   UNL A   1      33.254  23.422  24.384  1.00  0.00     0.097 C 
ATOM     10  C   UNL A   1      31.880  22.711  24.434  1.00  0.00     0.041 C 
ATOM     11  C   UNL A   1      31.908  21.228  24.616  1.00  0.00    -0.030 C 
ATOM     12  C   UNL A   1      34.392  21.146  24.640  1.00  0.00     0.043 C 
ATOM     13  C   UNL A   1      33.037  20.518  24.696  1.00  0.00    -0.030 C 
BRANCH   9  14
ATOM     14  C   UNL A   1      33.655  24.065  23.075  1.00  0.00     0.228 C 
ATOM     15  N   UNL A   1      33.596  25.436  22.955  1.00  0.00    -0.326 N 
ATOM     16  H   UNL A   1      33.980  25.786  22.118  1.00  0.00     0.169 HD
ATOM     17  O   UNL A   1      34.039  23.396  22.115  1.00  0.00    -0.274 OA
BRANCH  15  18
ATOM     18  C   UNL A   1      33.081  26.437  23.822  1.00  0.00     0.044 A 
ATOM     19  C   UNL A   1      31.775  30.582  26.505  1.00  0.00     0.047 C 
ATOM     20  C   UNL A   1      32.191  29.311  25.833  1.00  0.00    -0.015 A 
ATOM     21  C   UNL A   1      33.534  28.250  26.382  1.00  0.00     0.008 A 
ATOM     22  C   UNL A   1      31.267  28.911  24.380  1.00  0.00     0.128 A 
ATOM     23  C   UNL A   1      34.032  26.831  25.351  1.00  0.00     0.026 A 
ATOM     24  C   UNL A   1      31.711  27.536  23.362  1.00  0.00     0.065 A 
ATOM     25  F   UNL A   1      30.275  29.717  23.976  1.00  0.00    -0.207 F 
ENDBRANCH  15  18
ENDBRANCH   9  14
ENDBRANCH   6   8
ENDBRANCH   5   6
ENDBRANCH   4   5
ENDBRANCH   3   4
ENDBRANCH   2   3
ENDBRANCH   1   2
BRANCH   1  26
ATOM     26  C   UNL A   1      42.793  19.692  25.994  1.00  0.00     0.188 C 
BRANCH  26  27
ATOM     27  O   UNL A   1      43.812  20.570  25.115  1.00  0.00    -0.376 OA
BRANCH  27  28
ATOM     28  C   UNL A   1      43.788  22.011  24.992  1.00  0.00     0.202 C 
BRANCH  28  29
ATOM     29  C   UNL A   1      43.490  22.850  26.237  1.00  0.00     0.261 C 
BRANCH  29  30
ATOM     30  O   UNL A   1      42.187  23.391  26.265  1.00  0.00    -0.460 OA
BRANCH  30  31
ATOM     31  C   UNL A   1      41.713  23.626  27.504  1.00  0.00     0.338 C 
ATOM     32  O   UNL A   1      42.087  23.119  28.542  1.00  0.00    -0.246 OA
BRANCH  31  33
ATOM     33  C   UNL A   1      40.730  24.701  27.372  1.00  0.00     0.060 A 
ATOM     34  C   UNL A   1      40.863  25.624  26.323  1.00  0.00     0.016 A 
ATOM     35  C   UNL A   1      39.769  24.840  28.376  1.00  0.00     0.016 A 
ATOM     36  C   UNL A   1      40.406  26.893  26.532  1.00  0.00     0.010 A 
ATOM     37  C   UNL A   1      39.284  26.083  28.576  1.00  0.00     0.010 A 
ATOM     38  C   UNL A   1      39.847  27.088  27.777  1.00  0.00    -0.014 A 
BRANCH  38  39
ATOM     39  C   UNL A   1      40.259  28.206  28.590  1.00  0.00     0.031 A 
ATOM     40  C   UNL A   1      39.281  29.287  28.586  1.00  0.00     0.074 A 
ATOM     41  C   UNL A   1      41.259  27.871  29.452  1.00  0.00     0.049 A 
ATOM     42  N   UNL A   1      39.534  30.503  28.891  1.00  0.00    -0.248 NA
ATOM     43  C   UNL A   1      37.921  29.121  28.039  1.00  0.00     0.031 C 
ATOM     44  C   UNL A   1      41.495  28.261  30.835  1.00  0.00     0.029 A 
ATOM     45  N   UNL A   1      42.348  27.011  29.181  1.00  0.00    -0.354 N 
ATOM     46  C   UNL A   1      38.297  31.067  29.109  1.00  0.00     0.074 A 
ATOM     47  C   UNL A   1      37.394  30.322  28.281  1.00  0.00     0.031 C 
ATOM     48  C   UNL A   1      42.738  27.883  31.203  1.00  0.00     0.029 A 
ATOM     49  C   UNL A   1      43.418  27.358  30.028  1.00  0.00     0.049 A 
ATOM     50  H   UNL A   1      42.357  26.290  28.511  1.00  0.00     0.167 HD
ATOM     51  C   UNL A   1      38.150  31.851  30.214  1.00  0.00     0.037 A 
ATOM     52  C   UNL A   1      44.565  27.887  29.498  1.00  0.00     0.037 A 
ATOM     53  C   UNL A   1      39.439  31.916  30.917  1.00  0.00     0.049 A 
ATOM     54  C   UNL A   1      44.611  29.372  29.700  1.00  0.00     0.074 A 
ATOM     55  C   UNL A   1      39.927  31.240  32.023  1.00  0.00     0.029 A 
ATOM     56  N   UNL A   1      40.546  32.429  30.251  1.00  0.00    -0.354 N 
ATOM     57  N   UNL A   1      43.564  30.089  29.990  1.00  0.00    -0.248 NA
ATOM     58  C   UNL A   1      45.831  30.157  29.578  1.00  0.00     0.031 C 
ATOM     59  C   UNL A   1      41.350  31.296  31.967  1.00  0.00     0.029 A 
ATOM     60  C   UNL A   1      41.724  32.002  30.835  1.00  0.00     0.049 A 
ATOM     61  H   UNL A   1      40.498  33.021  29.465  1.00  0.00     0.167 HD
ATOM     62  C   UNL A   1      43.922  31.397  30.060  1.00  0.00     0.074 A 
ATOM     63  C   UNL A   1      45.358  31.386  29.834  1.00  0.00     0.031 C 
ATOM     64  C   UNL A   1      43.006  32.386  30.254  1.00  0.00     0.037 A 
BRANCH  51  65
ATOM     65  C   UNL A   1      36.858  32.320  30.842  1.00  0.00     0.057 A 
ATOM     66  C   UNL A   1      36.164  33.389  30.241  1.00  0.00     0.134 A 
ATOM     67  C   UNL A   1      36.239  31.816  32.002  1.00  0.00     0.134 A 
ATOM     68  F   UNL A   1      36.604  33.966  29.113  1.00  0.00    -0.206 F 
ATOM     69  C   UNL A   1      34.975  33.920  30.755  1.00  0.00     0.040 A 
ATOM     70  C   UNL A   1      35.040  32.329  32.520  1.00  0.00     0.040 A 
ATOM     71  F   UNL A   1      36.740  30.806  32.715  1.00  0.00    -0.206 F 
ATOM     72  C   UNL A   1      34.403  33.387  31.897  1.00  0.00     0.006 A 
ENDBRANCH  51  65
BRANCH  52  73
ATOM     73  C   UNL A   1      44.981  27.229  28.228  1.00  0.00     0.057 A 
ATOM     74  C   UNL A   1      44.712  27.938  27.050  1.00  0.00     0.134 A 
ATOM     75  C   UNL A   1      46.056  26.333  28.228  1.00  0.00     0.134 A 
ATOM     76  F   UNL A   1      43.640  28.744  26.973  1.00  0.00    -0.206 F 
ATOM     77  C   UNL A   1      45.642  27.977  26.022  1.00  0.00     0.040 A 
ATOM     78  C   UNL A   1      46.995  26.362  27.201  1.00  0.00     0.040 A 
ATOM     79  F   UNL A   1      46.291  25.540  29.283  1.00  0.00    -0.206 F 
ATOM     80  C   UNL A   1      46.815  27.232  26.127  1.00  0.00     0.006 A 
ENDBRANCH  52  73
BRANCH  64  81
ATOM     81  C   UNL A   1      43.301  33.828  29.968  1.00  0.00     0.057 A 
ATOM     82  C   UNL A   1      43.504  34.793  30.965  1.00  0.00     0.134 A 
ATOM     83  C   UNL A   1      43.502  34.274  28.648  1.00  0.00     0.134 A 
ATOM     84  F   UNL A   1      43.548  34.473  32.267  1.00  0.00    -0.206 F 
ATOM     85  C   UNL A   1      43.719  36.138  30.667  1.00  0.00     0.040 A 
ATOM     86  C   UNL A   1      43.818  35.595  28.343  1.00  0.00     0.040 A 
ATOM     87  F   UNL A   1      43.419  33.446  27.596  1.00  0.00    -0.206 F 
ATOM     88  C   UNL A   1      43.879  36.543  29.350  1.00  0.00     0.006 A 
ENDBRANCH  64  81
ENDBRANCH  38  39
ENDBRANCH  31  33
ENDBRANCH  30  31
ENDBRANCH  29  30
ENDBRANCH  28  29
ENDBRANCH  27  28
ENDBRANCH  26  27
ENDBRANCH   1  26
TORSDOF 19
ENDMDL
