MODEL 1
REMARK VINA RESULT:     -10.2      0.000      0.000
REMARK SMILES COc1cc(OC)cc(-c2ccc(C(=O)OCCOCCOCCOC(=O)c3ccc(-c4c5nc(c(-c6c(F)cccc6F)c6ccc([nH]6)c(-c6c(F)cccc6F)c6nc(c(-c7c(F)cccc7F)c7ccc4[nH]7)C=C6)C=C5)cc3)o2)c1
REMARK SMILES IDX 20 1 19 2 18 3 17 4 16 5 14 6 15 7 13 8 10 9 11 10 82 11
REMARK SMILES IDX 12 12 9 13 3 14 4 15 83 16 5 17 8 18 2 19 1 20 6 21 7 22
REMARK SMILES IDX 21 23 22 24 23 25 24 26 25 27 26 28 27 29 28 30 29 31 81 32
REMARK SMILES IDX 30 33 80 34 31 35 32 36 33 37 74 38 34 39 79 40 73 41 75 42
REMARK SMILES IDX 35 43 78 44 72 45 71 46 36 48 62 49 45 50 61 51 46 52 49 53
REMARK SMILES IDX 60 54 76 55 47 56 48 57 59 59 77 60 50 61 37 62 38 63 43 64
REMARK SMILES IDX 39 65 40 66 42 67 44 68 41 69 63 70 64 71 69 72 65 73 66 74
REMARK SMILES IDX 68 75 70 76 67 77 51 78 52 79 57 80 53 81 54 82 56 83 58 84
REMARK SMILES IDX 55 85
REMARK H PARENT 75 47 49 58
REMARK Flexibility Score: inf
ROOT
ATOM      1  C   UNL A   1      41.143  19.658  26.476  1.00  0.00     0.188 C 
ENDROOT
BRANCH   1   2
ATOM      2  O   UNL A   1      40.186  20.431  25.760  1.00  0.00    -0.376 OA
BRANCH   2   3
ATOM      3  C   UNL A   1      39.848  21.736  26.213  1.00  0.00     0.202 C 
BRANCH   3   4
ATOM      4  C   UNL A   1      38.402  22.192  26.008  1.00  0.00     0.261 C 
BRANCH   4   5
ATOM      5  O   UNL A   1      37.782  21.577  24.866  1.00  0.00    -0.457 OA
BRANCH   5   6
ATOM      6  C   UNL A   1      36.578  20.964  25.096  1.00  0.00     0.374 C 
ATOM      7  O   UNL A   1      36.377  19.769  25.006  1.00  0.00    -0.242 OA
BRANCH   6   8
ATOM      8  C   UNL A   1      35.627  21.949  25.573  1.00  0.00     0.212 A 
ATOM      9  C   UNL A   1      34.377  23.753  25.361  1.00  0.00     0.135 A 
ATOM     10  C   UNL A   1      34.040  23.191  26.573  1.00  0.00     0.052 A 
ATOM     11  O   UNL A   1      35.348  23.018  24.756  1.00  0.00    -0.449 OA
ATOM     12  C   UNL A   1      34.844  22.034  26.711  1.00  0.00     0.059 A 
BRANCH   9  13
ATOM     13  C   UNL A   1      33.958  24.956  24.669  1.00  0.00     0.025 A 
ATOM     14  C   UNL A   1      32.944  27.155  24.785  1.00  0.00     0.123 A 
ATOM     15  C   UNL A   1      32.982  27.225  23.393  1.00  0.00     0.092 A 
ATOM     16  C   UNL A   1      33.434  26.017  25.421  1.00  0.00     0.058 A 
ATOM     17  C   UNL A   1      33.509  26.180  22.628  1.00  0.00     0.123 A 
ATOM     18  C   UNL A   1      34.010  25.047  23.269  1.00  0.00     0.058 A 
BRANCH  14  19
ATOM     19  O   UNL A   1      32.375  28.235  25.401  1.00  0.00    -0.497 OA
ATOM     20  C   UNL A   1      32.921  29.510  25.087  1.00  0.00     0.278 C 
ENDBRANCH  14  19
BRANCH  17  21
ATOM     21  O   UNL A   1      33.459  26.400  21.279  1.00  0.00    -0.497 OA
ATOM     22  C   UNL A   1      32.652  25.531  20.502  1.00  0.00     0.278 C 
ENDBRANCH  17  21
ENDBRANCH   9  13
ENDBRANCH   6   8
ENDBRANCH   5   6
ENDBRANCH   4   5
ENDBRANCH   3   4
ENDBRANCH   2   3
ENDBRANCH   1   2
BRANCH   1  23
ATOM     23  C   UNL A   1      42.613  19.646  26.017  1.00  0.00     0.188 C 
BRANCH  23  24
ATOM     24  O   UNL A   1      43.337  20.817  26.358  1.00  0.00    -0.376 OA
BRANCH  24  25
ATOM     25  C   UNL A   1      44.321  21.233  25.424  1.00  0.00     0.202 C 
BRANCH  25  26
ATOM     26  C   UNL A   1      45.298  22.273  25.983  1.00  0.00     0.261 C 
BRANCH  26  27
ATOM     27  O   UNL A   1      45.096  23.613  25.505  1.00  0.00    -0.460 OA
BRANCH  27  28
ATOM     28  C   UNL A   1      43.870  23.915  25.025  1.00  0.00     0.338 C 
ATOM     29  O   UNL A   1      43.312  23.423  24.062  1.00  0.00    -0.246 OA
BRANCH  28  30
ATOM     30  C   UNL A   1      43.233  24.845  25.978  1.00  0.00     0.060 A 
ATOM     31  C   UNL A   1      43.671  26.173  26.024  1.00  0.00     0.016 A 
ATOM     32  C   UNL A   1      42.203  24.408  26.817  1.00  0.00     0.016 A 
ATOM     33  C   UNL A   1      43.089  27.062  26.931  1.00  0.00     0.010 A 
ATOM     34  C   UNL A   1      41.638  25.296  27.737  1.00  0.00     0.010 A 
ATOM     35  C   UNL A   1      42.098  26.620  27.818  1.00  0.00    -0.014 A 
BRANCH  35  36
ATOM     36  C   UNL A   1      41.658  27.493  28.935  1.00  0.00     0.031 A 
ATOM     37  C   UNL A   1      42.411  27.435  30.235  1.00  0.00     0.074 A 
ATOM     38  C   UNL A   1      40.612  28.327  28.803  1.00  0.00     0.049 A 
ATOM     39  N   UNL A   1      42.192  28.078  31.353  1.00  0.00    -0.248 NA
ATOM     40  C   UNL A   1      43.569  26.529  30.277  1.00  0.00     0.031 C 
ATOM     41  C   UNL A   1      39.822  28.509  27.588  1.00  0.00     0.029 A 
ATOM     42  N   UNL A   1      40.034  29.176  29.714  1.00  0.00    -0.354 N 
ATOM     43  C   UNL A   1      43.177  27.650  32.233  1.00  0.00     0.074 A 
ATOM     44  C   UNL A   1      43.981  26.675  31.527  1.00  0.00     0.031 C 
ATOM     45  C   UNL A   1      38.854  29.412  27.830  1.00  0.00     0.029 A 
ATOM     46  C   UNL A   1      38.941  29.847  29.225  1.00  0.00     0.049 A 
ATOM     47  H   UNL A   1      40.371  29.292  30.632  1.00  0.00     0.167 HD
ATOM     48  C   UNL A   1      43.398  28.036  33.512  1.00  0.00     0.037 A 
ATOM     49  C   UNL A   1      38.100  30.703  29.837  1.00  0.00     0.037 A 
ATOM     50  C   UNL A   1      42.599  28.999  34.221  1.00  0.00     0.049 A 
ATOM     51  C   UNL A   1      38.314  31.053  31.286  1.00  0.00     0.074 A 
ATOM     52  C   UNL A   1      42.766  29.477  35.509  1.00  0.00     0.029 A 
ATOM     53  N   UNL A   1      41.470  29.618  33.706  1.00  0.00    -0.354 N 
ATOM     54  N   UNL A   1      39.270  30.670  32.099  1.00  0.00    -0.248 NA
ATOM     55  C   UNL A   1      37.327  31.952  31.904  1.00  0.00     0.031 C 
ATOM     56  C   UNL A   1      41.709  30.352  35.790  1.00  0.00     0.029 A 
ATOM     57  C   UNL A   1      40.911  30.450  34.662  1.00  0.00     0.049 A 
ATOM     58  H   UNL A   1      41.119  29.486  32.796  1.00  0.00     0.167 HD
ATOM     59  C   UNL A   1      39.018  31.303  33.310  1.00  0.00     0.074 A 
ATOM     60  C   UNL A   1      37.820  32.097  33.126  1.00  0.00     0.031 C 
ATOM     61  C   UNL A   1      39.720  31.237  34.468  1.00  0.00     0.037 A 
BRANCH  48  62
ATOM     62  C   UNL A   1      44.538  27.381  34.233  1.00  0.00     0.057 A 
ATOM     63  C   UNL A   1      45.805  27.974  34.308  1.00  0.00     0.134 A 
ATOM     64  C   UNL A   1      44.364  26.141  34.861  1.00  0.00     0.134 A 
ATOM     65  F   UNL A   1      46.041  29.152  33.712  1.00  0.00    -0.206 F 
ATOM     66  C   UNL A   1      46.867  27.343  34.959  1.00  0.00     0.040 A 
ATOM     67  C   UNL A   1      45.412  25.512  35.534  1.00  0.00     0.040 A 
ATOM     68  F   UNL A   1      43.175  25.521  34.827  1.00  0.00    -0.206 F 
ATOM     69  C   UNL A   1      46.670  26.110  35.578  1.00  0.00     0.006 A 
ENDBRANCH  48  62
BRANCH  49  70
ATOM     70  C   UNL A   1      36.966  31.294  29.084  1.00  0.00     0.057 A 
ATOM     71  C   UNL A   1      37.005  32.624  28.650  1.00  0.00     0.134 A 
ATOM     72  C   UNL A   1      35.814  30.553  28.796  1.00  0.00     0.134 A 
ATOM     73  F   UNL A   1      38.069  33.392  28.924  1.00  0.00    -0.206 F 
ATOM     74  C   UNL A   1      35.935  33.199  27.961  1.00  0.00     0.040 A 
ATOM     75  C   UNL A   1      34.746  31.109  28.091  1.00  0.00     0.040 A 
ATOM     76  F   UNL A   1      35.713  29.276  29.194  1.00  0.00    -0.206 F 
ATOM     77  C   UNL A   1      34.803  32.437  27.674  1.00  0.00     0.006 A 
ENDBRANCH  49  70
BRANCH  61  78
ATOM     78  C   UNL A   1      39.233  32.068  35.619  1.00  0.00     0.057 A 
ATOM     79  C   UNL A   1      38.408  31.535  36.617  1.00  0.00     0.134 A 
ATOM     80  C   UNL A   1      39.632  33.404  35.753  1.00  0.00     0.134 A 
ATOM     81  F   UNL A   1      37.981  30.265  36.542  1.00  0.00    -0.206 F 
ATOM     82  C   UNL A   1      37.983  32.308  37.700  1.00  0.00     0.040 A 
ATOM     83  C   UNL A   1      39.232  34.179  36.842  1.00  0.00     0.040 A 
ATOM     84  F   UNL A   1      40.429  33.972  34.836  1.00  0.00    -0.206 F 
ATOM     85  C   UNL A   1      38.401  33.633  37.818  1.00  0.00     0.006 A 
ENDBRANCH  61  78
ENDBRANCH  35  36
ENDBRANCH  28  30
ENDBRANCH  27  28
ENDBRANCH  26  27
ENDBRANCH  25  26
ENDBRANCH  24  25
ENDBRANCH  23  24
ENDBRANCH   1  23
TORSDOF 20
ENDMDL
MODEL 2
REMARK VINA RESULT:     -10.2      4.159      9.931
REMARK SMILES COc1cc(OC)cc(-c2ccc(C(=O)OCCOCCOCCOC(=O)c3ccc(-c4c5nc(c(-c6c(F)cccc6F)c6ccc([nH]6)c(-c6c(F)cccc6F)c6nc(c(-c7c(F)cccc7F)c7ccc4[nH]7)C=C6)C=C5)cc3)o2)c1
REMARK SMILES IDX 20 1 19 2 18 3 17 4 16 5 14 6 15 7 13 8 10 9 11 10 82 11
REMARK SMILES IDX 12 12 9 13 3 14 4 15 83 16 5 17 8 18 2 19 1 20 6 21 7 22
REMARK SMILES IDX 21 23 22 24 23 25 24 26 25 27 26 28 27 29 28 30 29 31 81 32
REMARK SMILES IDX 30 33 80 34 31 35 32 36 33 37 74 38 34 39 79 40 73 41 75 42
REMARK SMILES IDX 35 43 78 44 72 45 71 46 36 48 62 49 45 50 61 51 46 52 49 53
REMARK SMILES IDX 60 54 76 55 47 56 48 57 59 59 77 60 50 61 37 62 38 63 43 64
REMARK SMILES IDX 39 65 40 66 42 67 44 68 41 69 63 70 64 71 69 72 65 73 66 74
REMARK SMILES IDX 68 75 70 76 67 77 51 78 52 79 57 80 53 81 54 82 56 83 58 84
REMARK SMILES IDX 55 85
REMARK H PARENT 75 47 49 58
REMARK Flexibility Score: inf
ROOT
ATOM      1  C   UNL A   1      33.503  32.319  28.001  1.00  0.00     0.188 C 
ENDROOT
BRANCH   1   2
ATOM      2  O   UNL A   1      33.330  31.007  27.478  1.00  0.00    -0.376 OA
BRANCH   2   3
ATOM      3  C   UNL A   1      34.463  30.174  27.264  1.00  0.00     0.202 C 
BRANCH   3   4
ATOM      4  C   UNL A   1      34.194  28.719  26.873  1.00  0.00     0.261 C 
BRANCH   4   5
ATOM      5  O   UNL A   1      32.793  28.431  26.732  1.00  0.00    -0.457 OA
BRANCH   5   6
ATOM      6  C   UNL A   1      32.389  28.017  25.489  1.00  0.00     0.374 C 
ATOM      7  O   UNL A   1      32.551  28.643  24.460  1.00  0.00    -0.242 OA
BRANCH   6   8
ATOM      8  C   UNL A   1      31.851  26.674  25.589  1.00  0.00     0.212 A 
ATOM      9  C   UNL A   1      31.992  24.476  25.482  1.00  0.00     0.135 A 
ATOM     10  C   UNL A   1      30.741  24.758  25.984  1.00  0.00     0.052 A 
ATOM     11  O   UNL A   1      32.666  25.629  25.224  1.00  0.00    -0.449 OA
ATOM     12  C   UNL A   1      30.648  26.170  26.051  1.00  0.00     0.059 A 
BRANCH   9  13
ATOM     13  C   UNL A   1      32.671  23.244  25.132  1.00  0.00     0.025 A 
ATOM     14  C   UNL A   1      32.600  20.828  24.954  1.00  0.00     0.123 A 
ATOM     15  C   UNL A   1      33.958  20.830  24.637  1.00  0.00     0.092 A 
ATOM     16  C   UNL A   1      31.959  22.039  25.200  1.00  0.00     0.058 A 
ATOM     17  C   UNL A   1      34.683  22.023  24.555  1.00  0.00     0.123 A 
ATOM     18  C   UNL A   1      34.034  23.236  24.792  1.00  0.00     0.058 A 
BRANCH  14  19
ATOM     19  O   UNL A   1      32.027  19.588  25.027  1.00  0.00    -0.497 OA
ATOM     20  C   UNL A   1      32.757  18.513  24.450  1.00  0.00     0.278 C 
ENDBRANCH  14  19
BRANCH  17  21
ATOM     21  O   UNL A   1      36.004  21.849  24.249  1.00  0.00    -0.497 OA
ATOM     22  C   UNL A   1      36.657  22.893  23.547  1.00  0.00     0.278 C 
ENDBRANCH  17  21
ENDBRANCH   9  13
ENDBRANCH   6   8
ENDBRANCH   5   6
ENDBRANCH   4   5
ENDBRANCH   3   4
ENDBRANCH   2   3
ENDBRANCH   1   2
BRANCH   1  23
ATOM     23  C   UNL A   1      34.903  32.963  28.002  1.00  0.00     0.188 C 
BRANCH  23  24
ATOM     24  O   UNL A   1      34.949  34.249  28.599  1.00  0.00    -0.376 OA
BRANCH  24  25
ATOM     25  C   UNL A   1      34.158  34.421  29.764  1.00  0.00     0.202 C 
BRANCH  25  26
ATOM     26  C   UNL A   1      34.894  34.076  31.063  1.00  0.00     0.261 C 
BRANCH  26  27
ATOM     27  O   UNL A   1      34.835  32.691  31.444  1.00  0.00    -0.460 OA
BRANCH  27  28
ATOM     28  C   UNL A   1      35.685  32.285  32.411  1.00  0.00     0.338 C 
ATOM     29  O   UNL A   1      35.529  32.370  33.615  1.00  0.00    -0.246 OA
BRANCH  28  30
ATOM     30  C   UNL A   1      36.789  31.554  31.759  1.00  0.00     0.060 A 
ATOM     31  C   UNL A   1      37.843  31.076  32.545  1.00  0.00     0.016 A 
ATOM     32  C   UNL A   1      36.779  31.336  30.377  1.00  0.00     0.016 A 
ATOM     33  C   UNL A   1      38.903  30.396  31.941  1.00  0.00     0.010 A 
ATOM     34  C   UNL A   1      37.852  30.673  29.776  1.00  0.00     0.010 A 
ATOM     35  C   UNL A   1      38.933  30.224  30.551  1.00  0.00    -0.014 A 
BRANCH  35  36
ATOM     36  C   UNL A   1      40.164  29.723  29.890  1.00  0.00     0.031 A 
ATOM     37  C   UNL A   1      41.316  30.670  29.698  1.00  0.00     0.074 A 
ATOM     38  C   UNL A   1      40.265  28.451  29.469  1.00  0.00     0.049 A 
ATOM     39  N   UNL A   1      42.474  30.467  29.123  1.00  0.00    -0.248 NA
ATOM     40  C   UNL A   1      41.137  32.030  30.230  1.00  0.00     0.031 C 
ATOM     41  C   UNL A   1      39.241  27.421  29.627  1.00  0.00     0.029 A 
ATOM     42  N   UNL A   1      41.290  27.813  28.813  1.00  0.00    -0.354 N 
ATOM     43  C   UNL A   1      43.157  31.672  29.217  1.00  0.00     0.074 A 
ATOM     44  C   UNL A   1      42.276  32.608  29.882  1.00  0.00     0.031 C 
ATOM     45  C   UNL A   1      39.686  26.277  29.077  1.00  0.00     0.029 A 
ATOM     46  C   UNL A   1      41.013  26.504  28.503  1.00  0.00     0.049 A 
ATOM     47  H   UNL A   1      42.141  28.251  28.586  1.00  0.00     0.167 HD
ATOM     48  C   UNL A   1      44.407  31.974  28.792  1.00  0.00     0.037 A 
ATOM     49  C   UNL A   1      41.741  25.598  27.822  1.00  0.00     0.037 A 
ATOM     50  C   UNL A   1      45.284  31.051  28.123  1.00  0.00     0.049 A 
ATOM     51  C   UNL A   1      43.095  25.982  27.283  1.00  0.00     0.074 A 
ATOM     52  C   UNL A   1      46.581  31.257  27.685  1.00  0.00     0.029 A 
ATOM     53  N   UNL A   1      44.947  29.750  27.783  1.00  0.00    -0.354 N 
ATOM     54  N   UNL A   1      43.746  27.113  27.407  1.00  0.00    -0.248 NA
ATOM     55  C   UNL A   1      43.812  24.960  26.505  1.00  0.00     0.031 C 
ATOM     56  C   UNL A   1      47.012  30.093  27.036  1.00  0.00     0.029 A 
ATOM     57  C   UNL A   1      45.999  29.150  27.111  1.00  0.00     0.049 A 
ATOM     58  H   UNL A   1      44.087  29.316  27.989  1.00  0.00     0.167 HD
ATOM     59  C   UNL A   1      44.958  26.931  26.751  1.00  0.00     0.074 A 
ATOM     60  C   UNL A   1      44.953  25.578  26.232  1.00  0.00     0.031 C 
ATOM     61  C   UNL A   1      45.985  27.803  26.599  1.00  0.00     0.037 A 
BRANCH  48  62
ATOM     62  C   UNL A   1      44.880  33.380  29.011  1.00  0.00     0.057 A 
ATOM     63  C   UNL A   1      44.618  34.402  28.090  1.00  0.00     0.134 A 
ATOM     64  C   UNL A   1      45.608  33.713  30.161  1.00  0.00     0.134 A 
ATOM     65  F   UNL A   1      43.941  34.142  26.961  1.00  0.00    -0.206 F 
ATOM     66  C   UNL A   1      45.086  35.701  28.292  1.00  0.00     0.040 A 
ATOM     67  C   UNL A   1      46.062  35.014  30.383  1.00  0.00     0.040 A 
ATOM     68  F   UNL A   1      45.893  32.780  31.082  1.00  0.00    -0.206 F 
ATOM     69  C   UNL A   1      45.807  36.011  29.444  1.00  0.00     0.006 A 
ENDBRANCH  48  62
BRANCH  49  70
ATOM     70  C   UNL A   1      41.208  24.231  27.602  1.00  0.00     0.057 A 
ATOM     71  C   UNL A   1      40.188  23.997  26.674  1.00  0.00     0.134 A 
ATOM     72  C   UNL A   1      41.692  23.133  28.324  1.00  0.00     0.134 A 
ATOM     73  F   UNL A   1      39.663  25.014  25.976  1.00  0.00    -0.206 F 
ATOM     74  C   UNL A   1      39.662  22.719  26.474  1.00  0.00     0.040 A 
ATOM     75  C   UNL A   1      41.189  21.847  28.120  1.00  0.00     0.040 A 
ATOM     76  F   UNL A   1      42.663  23.296  29.234  1.00  0.00    -0.206 F 
ATOM     77  C   UNL A   1      40.169  21.638  27.195  1.00  0.00     0.006 A 
ENDBRANCH  49  70
BRANCH  61  78
ATOM     78  C   UNL A   1      47.202  27.316  25.870  1.00  0.00     0.057 A 
ATOM     79  C   UNL A   1      48.215  26.601  26.520  1.00  0.00     0.134 A 
ATOM     80  C   UNL A   1      47.341  27.527  24.492  1.00  0.00     0.134 A 
ATOM     81  F   UNL A   1      48.149  26.374  27.842  1.00  0.00    -0.206 F 
ATOM     82  C   UNL A   1      49.331  26.127  25.828  1.00  0.00     0.040 A 
ATOM     83  C   UNL A   1      48.441  27.039  23.786  1.00  0.00     0.040 A 
ATOM     84  F   UNL A   1      46.402  28.198  23.809  1.00  0.00    -0.206 F 
ATOM     85  C   UNL A   1      49.443  26.340  24.455  1.00  0.00     0.006 A 
ENDBRANCH  61  78
ENDBRANCH  35  36
ENDBRANCH  28  30
ENDBRANCH  27  28
ENDBRANCH  26  27
ENDBRANCH  25  26
ENDBRANCH  24  25
ENDBRANCH  23  24
ENDBRANCH   1  23
TORSDOF 20
ENDMDL
MODEL 3
REMARK VINA RESULT:     -10.1      5.060     11.044
REMARK SMILES COc1cc(OC)cc(-c2ccc(C(=O)OCCOCCOCCOC(=O)c3ccc(-c4c5nc(c(-c6c(F)cccc6F)c6ccc([nH]6)c(-c6c(F)cccc6F)c6nc(c(-c7c(F)cccc7F)c7ccc4[nH]7)C=C6)C=C5)cc3)o2)c1
REMARK SMILES IDX 20 1 19 2 18 3 17 4 16 5 14 6 15 7 13 8 10 9 11 10 82 11
REMARK SMILES IDX 12 12 9 13 3 14 4 15 83 16 5 17 8 18 2 19 1 20 6 21 7 22
REMARK SMILES IDX 21 23 22 24 23 25 24 26 25 27 26 28 27 29 28 30 29 31 81 32
REMARK SMILES IDX 30 33 80 34 31 35 32 36 33 37 74 38 34 39 79 40 73 41 75 42
REMARK SMILES IDX 35 43 78 44 72 45 71 46 36 48 62 49 45 50 61 51 46 52 49 53
REMARK SMILES IDX 60 54 76 55 47 56 48 57 59 59 77 60 50 61 37 62 38 63 43 64
REMARK SMILES IDX 39 65 40 66 42 67 44 68 41 69 63 70 64 71 69 72 65 73 66 74
REMARK SMILES IDX 68 75 70 76 67 77 51 78 52 79 57 80 53 81 54 82 56 83 58 84
REMARK SMILES IDX 55 85
REMARK H PARENT 75 47 49 58
REMARK Flexibility Score: inf
ROOT
ATOM      1  C   UNL A   1      34.401  35.585  33.238  1.00  0.00     0.188 C 
ENDROOT
BRANCH   1   2
ATOM      2  O   UNL A   1      33.980  34.980  32.020  1.00  0.00    -0.376 OA
BRANCH   2   3
ATOM      3  C   UNL A   1      33.418  35.783  30.989  1.00  0.00     0.202 C 
BRANCH   3   4
ATOM      4  C   UNL A   1      33.155  35.104  29.643  1.00  0.00     0.261 C 
BRANCH   4   5
ATOM      5  O   UNL A   1      33.947  33.919  29.454  1.00  0.00    -0.457 OA
BRANCH   5   6
ATOM      6  C   UNL A   1      34.323  33.650  28.164  1.00  0.00     0.374 C 
ATOM      7  O   UNL A   1      34.616  34.489  27.335  1.00  0.00    -0.242 OA
BRANCH   6   8
ATOM      8  C   UNL A   1      34.426  32.215  27.990  1.00  0.00     0.212 A 
ATOM      9  C   UNL A   1      33.763  30.269  27.191  1.00  0.00     0.135 A 
ATOM     10  C   UNL A   1      34.975  30.041  27.806  1.00  0.00     0.052 A 
ATOM     11  O   UNL A   1      33.414  31.578  27.311  1.00  0.00    -0.449 OA
ATOM     12  C   UNL A   1      35.400  31.289  28.321  1.00  0.00     0.059 A 
BRANCH   9  13
ATOM     13  C   UNL A   1      32.804  29.407  26.528  1.00  0.00     0.025 A 
ATOM     14  C   UNL A   1      31.626  27.290  26.473  1.00  0.00     0.123 A 
ATOM     15  C   UNL A   1      31.103  27.635  25.227  1.00  0.00     0.092 A 
ATOM     16  C   UNL A   1      32.478  28.180  27.121  1.00  0.00     0.058 A 
ATOM     17  C   UNL A   1      31.410  28.858  24.624  1.00  0.00     0.123 A 
ATOM     18  C   UNL A   1      32.255  29.753  25.283  1.00  0.00     0.058 A 
BRANCH  14  19
ATOM     19  O   UNL A   1      31.264  26.052  26.927  1.00  0.00    -0.497 OA
ATOM     20  C   UNL A   1      30.778  25.133  25.957  1.00  0.00     0.278 C 
ENDBRANCH  14  19
BRANCH  17  21
ATOM     21  O   UNL A   1      30.827  29.036  23.400  1.00  0.00    -0.497 OA
ATOM     22  C   UNL A   1      29.577  29.704  23.359  1.00  0.00     0.278 C 
ENDBRANCH  17  21
ENDBRANCH   9  13
ENDBRANCH   6   8
ENDBRANCH   5   6
ENDBRANCH   4   5
ENDBRANCH   3   4
ENDBRANCH   2   3
ENDBRANCH   1   2
BRANCH   1  23
ATOM     23  C   UNL A   1      35.099  34.732  34.314  1.00  0.00     0.188 C 
BRANCH  23  24
ATOM     24  O   UNL A   1      34.924  33.334  34.149  1.00  0.00    -0.376 OA
BRANCH  24  25
ATOM     25  C   UNL A   1      36.032  32.629  33.612  1.00  0.00     0.202 C 
BRANCH  25  26
ATOM     26  C   UNL A   1      35.735  31.945  32.273  1.00  0.00     0.261 C 
BRANCH  26  27
ATOM     27  O   UNL A   1      36.896  31.564  31.516  1.00  0.00    -0.460 OA
BRANCH  27  28
ATOM     28  C   UNL A   1      37.113  30.241  31.352  1.00  0.00     0.338 C 
ATOM     29  O   UNL A   1      36.307  29.338  31.483  1.00  0.00    -0.246 OA
BRANCH  28  30
ATOM     30  C   UNL A   1      38.478  30.074  30.817  1.00  0.00     0.060 A 
ATOM     31  C   UNL A   1      38.677  30.150  29.434  1.00  0.00     0.016 A 
ATOM     32  C   UNL A   1      39.557  29.851  31.678  1.00  0.00     0.016 A 
ATOM     33  C   UNL A   1      39.961  29.979  28.909  1.00  0.00     0.010 A 
ATOM     34  C   UNL A   1      40.836  29.660  31.146  1.00  0.00     0.010 A 
ATOM     35  C   UNL A   1      41.040  29.695  29.758  1.00  0.00    -0.014 A 
BRANCH  35  36
ATOM     36  C   UNL A   1      42.343  29.275  29.187  1.00  0.00     0.031 A 
ATOM     37  C   UNL A   1      42.495  27.862  28.697  1.00  0.00     0.074 A 
ATOM     38  C   UNL A   1      43.377  30.129  29.098  1.00  0.00     0.049 A 
ATOM     39  N   UNL A   1      43.543  27.264  28.191  1.00  0.00    -0.248 NA
ATOM     40  C   UNL A   1      41.300  27.009  28.790  1.00  0.00     0.031 C 
ATOM     41  C   UNL A   1      43.353  31.534  29.499  1.00  0.00     0.029 A 
ATOM     42  N   UNL A   1      44.657  29.928  28.642  1.00  0.00    -0.354 N 
ATOM     43  C   UNL A   1      43.137  25.965  27.912  1.00  0.00     0.074 A 
ATOM     44  C   UNL A   1      41.755  25.855  28.327  1.00  0.00     0.031 C 
ATOM     45  C   UNL A   1      44.567  32.070  29.276  1.00  0.00     0.029 A 
ATOM     46  C   UNL A   1      45.458  31.039  28.746  1.00  0.00     0.049 A 
ATOM     47  H   UNL A   1      44.970  29.070  28.276  1.00  0.00     0.167 HD
ATOM     48  C   UNL A   1      43.848  24.955  27.357  1.00  0.00     0.037 A 
ATOM     49  C   UNL A   1      46.765  31.198  28.458  1.00  0.00     0.037 A 
ATOM     50  C   UNL A   1      45.224  25.056  26.950  1.00  0.00     0.049 A 
ATOM     51  C   UNL A   1      47.559  30.036  27.921  1.00  0.00     0.074 A 
ATOM     52  C   UNL A   1      46.018  24.096  26.348  1.00  0.00     0.029 A 
ATOM     53  N   UNL A   1      46.015  26.183  27.118  1.00  0.00    -0.354 N 
ATOM     54  N   UNL A   1      47.158  28.823  27.629  1.00  0.00    -0.248 NA
ATOM     55  C   UNL A   1      48.991  30.268  27.679  1.00  0.00     0.031 C 
ATOM     56  C   UNL A   1      47.305  24.627  26.195  1.00  0.00     0.029 A 
ATOM     57  C   UNL A   1      47.298  25.932  26.661  1.00  0.00     0.049 A 
ATOM     58  H   UNL A   1      45.709  27.036  27.505  1.00  0.00     0.167 HD
ATOM     59  C   UNL A   1      48.276  28.157  27.141  1.00  0.00     0.074 A 
ATOM     60  C   UNL A   1      49.373  29.103  27.175  1.00  0.00     0.031 C 
ATOM     61  C   UNL A   1      48.382  26.880  26.699  1.00  0.00     0.037 A 
BRANCH  48  62
ATOM     62  C   UNL A   1      43.148  23.640  27.193  1.00  0.00     0.057 A 
ATOM     63  C   UNL A   1      42.967  22.758  28.267  1.00  0.00     0.134 A 
ATOM     64  C   UNL A   1      42.650  23.250  25.943  1.00  0.00     0.134 A 
ATOM     65  F   UNL A   1      43.437  23.066  29.485  1.00  0.00    -0.206 F 
ATOM     66  C   UNL A   1      42.337  21.524  28.097  1.00  0.00     0.040 A 
ATOM     67  C   UNL A   1      41.999  22.029  25.766  1.00  0.00     0.040 A 
ATOM     68  F   UNL A   1      42.792  24.049  24.874  1.00  0.00    -0.206 F 
ATOM     69  C   UNL A   1      41.848  21.159  26.844  1.00  0.00     0.006 A 
ENDBRANCH  48  62
BRANCH  49  70
ATOM     70  C   UNL A   1      47.416  32.514  28.674  1.00  0.00     0.057 A 
ATOM     71  C   UNL A   1      47.956  32.855  29.920  1.00  0.00     0.134 A 
ATOM     72  C   UNL A   1      47.500  33.465  27.651  1.00  0.00     0.134 A 
ATOM     73  F   UNL A   1      47.877  31.997  30.947  1.00  0.00    -0.206 F 
ATOM     74  C   UNL A   1      48.551  34.098  30.142  1.00  0.00     0.040 A 
ATOM     75  C   UNL A   1      48.111  34.704  27.853  1.00  0.00     0.040 A 
ATOM     76  F   UNL A   1      46.994  33.200  26.437  1.00  0.00    -0.206 F 
ATOM     77  C   UNL A   1      48.635  35.024  29.104  1.00  0.00     0.006 A 
ENDBRANCH  49  70
BRANCH  61  78
ATOM     78  C   UNL A   1      49.720  26.436  26.185  1.00  0.00     0.057 A 
ATOM     79  C   UNL A   1      50.161  26.759  24.896  1.00  0.00     0.134 A 
ATOM     80  C   UNL A   1      50.596  25.715  27.007  1.00  0.00     0.134 A 
ATOM     81  F   UNL A   1      49.366  27.438  24.055  1.00  0.00    -0.206 F 
ATOM     82  C   UNL A   1      51.419  26.366  24.436  1.00  0.00     0.040 A 
ATOM     83  C   UNL A   1      51.865  25.336  26.567  1.00  0.00     0.040 A 
ATOM     84  F   UNL A   1      50.238  25.381  28.256  1.00  0.00    -0.206 F 
ATOM     85  C   UNL A   1      52.278  25.658  25.276  1.00  0.00     0.006 A 
ENDBRANCH  61  78
ENDBRANCH  35  36
ENDBRANCH  28  30
ENDBRANCH  27  28
ENDBRANCH  26  27
ENDBRANCH  25  26
ENDBRANCH  24  25
ENDBRANCH  23  24
ENDBRANCH   1  23
TORSDOF 20
ENDMDL
