MODEL 1
REMARK VINA RESULT:     -13.4      0.000      0.000
REMARK SMILES CN(Cc1csc(Br)c1)c1cccc(F)c1C(=O)OCCOCCOCCOC(=O)c1ccc(-c2c3nc(c(-c4c(F)cccc4F)c4ccc([nH]4)c(-c4c(F)cccc4F)c4nc(c(-c5c(F)cccc5F)c5ccc2[nH]5)C=C4)C=C3)cc1
REMARK SMILES IDX 23 1 22 2 21 3 20 4 19 5 17 6 18 7 16 8 10 9 11 10 12 11
REMARK SMILES IDX 14 12 13 13 15 14 2 15 1 16 3 17 4 18 5 19 9 20 6 21 7 22
REMARK SMILES IDX 8 23 24 24 25 25 26 26 27 27 28 28 29 29 30 30 31 31 32 32
REMARK SMILES IDX 84 33 33 34 83 35 34 36 35 37 36 38 77 39 37 40 82 41 76 42
REMARK SMILES IDX 78 43 38 44 81 45 75 46 74 47 39 49 65 50 48 51 64 52 49 53
REMARK SMILES IDX 52 54 63 55 79 56 50 57 51 58 62 60 80 61 53 62 40 63 41 64
REMARK SMILES IDX 46 65 42 66 43 67 45 68 47 69 44 70 66 71 67 72 72 73 68 74
REMARK SMILES IDX 69 75 71 76 73 77 70 78 54 79 55 80 60 81 56 82 57 83 59 84
REMARK SMILES IDX 61 85 58 86
REMARK H PARENT 78 48 52 59
REMARK Flexibility Score: inf
ROOT
ATOM      1  C   UNL A   1      35.032  33.763  28.119  1.00  0.00     0.188 C 
ENDROOT
BRANCH   1   2
ATOM      2  O   UNL A   1      35.357  31.699  27.849  1.00  0.00    -0.376 OA
BRANCH   2   3
ATOM      3  C   UNL A   1      33.816  30.777  27.294  1.00  0.00     0.202 C 
BRANCH   3   4
ATOM      4  C   UNL A   1      33.769  28.905  27.630  1.00  0.00     0.261 C 
BRANCH   4   5
ATOM      5  O   UNL A   1      33.777  27.754  26.381  1.00  0.00    -0.460 OA
BRANCH   5   6
ATOM      6  C   UNL A   1      33.365  27.941  24.993  1.00  0.00     0.343 C 
ATOM      7  O   UNL A   1      34.193  28.223  24.128  1.00  0.00    -0.246 OA
BRANCH   6   8
ATOM      8  C   UNL A   1      31.805  27.640  24.534  1.00  0.00     0.119 A 
ATOM      9  C   UNL A   1      30.958  26.409  24.176  1.00  0.00     0.054 A 
ATOM     10  C   UNL A   1      29.665  26.634  23.630  1.00  0.00     0.027 A 
ATOM     11  C   UNL A   1      29.166  27.912  23.405  1.00  0.00     0.005 A 
ATOM     12  C   UNL A   1      31.200  28.887  24.316  1.00  0.00     0.139 A 
ATOM     13  C   UNL A   1      29.920  29.023  23.761  1.00  0.00     0.040 A 
ATOM     14  F   UNL A   1      31.848  30.022  24.621  1.00  0.00    -0.206 F 
BRANCH   9  15
ATOM     15  N   UNL A   1      31.203  24.966  24.351  1.00  0.00    -0.369 N 
ATOM     16  C   UNL A   1      30.595  24.133  23.308  1.00  0.00     0.144 C 
BRANCH  15  17
ATOM     17  C   UNL A   1      31.307  24.202  25.875  1.00  0.00     0.152 C 
BRANCH  17  18
ATOM     18  C   UNL A   1      32.965  24.022  26.544  1.00  0.00    -0.017 A 
ATOM     19  C   UNL A   1      32.810  22.627  27.046  1.00  0.00     0.071 A 
ATOM     20  C   UNL A   1      34.638  24.330  25.679  1.00  0.00     0.033 A 
ATOM     21  S   UNL A   1      33.446  21.257  25.453  1.00  0.00    -0.136 S 
ATOM     22  C   UNL A   1      35.161  22.884  24.689  1.00  0.00     0.070 A 
ATOM     23  Br  UNL A   1      36.657  22.742  23.499  1.00  0.00    -0.039 Br
ENDBRANCH  17  18
ENDBRANCH  15  17
ENDBRANCH   9  15
ENDBRANCH   6   8
ENDBRANCH   5   6
ENDBRANCH   4   5
ENDBRANCH   3   4
ENDBRANCH   2   3
ENDBRANCH   1   2
BRANCH   1  24
ATOM     24  C   UNL A   1      34.190  34.673  29.323  1.00  0.00     0.188 C 
BRANCH  24  25
ATOM     25  O   UNL A   1      33.992  33.904  30.509  1.00  0.00    -0.376 OA
BRANCH  25  26
ATOM     26  C   UNL A   1      34.084  34.496  31.799  1.00  0.00     0.202 C 
BRANCH  26  27
ATOM     27  C   UNL A   1      34.279  33.519  32.973  1.00  0.00     0.261 C 
BRANCH  27  28
ATOM     28  O   UNL A   1      35.032  32.338  32.653  1.00  0.00    -0.460 OA
BRANCH  28  29
ATOM     29  C   UNL A   1      36.231  32.199  33.264  1.00  0.00     0.338 C 
ATOM     30  O   UNL A   1      36.512  32.489  34.412  1.00  0.00    -0.246 OA
BRANCH  29  31
ATOM     31  C   UNL A   1      37.097  31.384  32.382  1.00  0.00     0.060 A 
ATOM     32  C   UNL A   1      38.093  30.603  32.985  1.00  0.00     0.016 A 
ATOM     33  C   UNL A   1      36.912  31.347  30.997  1.00  0.00     0.016 A 
ATOM     34  C   UNL A   1      38.966  29.859  32.193  1.00  0.00     0.010 A 
ATOM     35  C   UNL A   1      37.790  30.605  30.204  1.00  0.00     0.010 A 
ATOM     36  C   UNL A   1      38.858  29.909  30.797  1.00  0.00    -0.014 A 
BRANCH  36  37
ATOM     37  C   UNL A   1      40.022  29.489  29.979  1.00  0.00     0.031 A 
ATOM     38  C   UNL A   1      41.139  30.480  29.803  1.00  0.00     0.074 A 
ATOM     39  C   UNL A   1      40.142  28.250  29.474  1.00  0.00     0.049 A 
ATOM     40  N   UNL A   1      42.288  30.336  29.198  1.00  0.00    -0.248 NA
ATOM     41  C   UNL A   1      40.927  31.815  30.389  1.00  0.00     0.031 C 
ATOM     42  C   UNL A   1      39.143  27.197  29.594  1.00  0.00     0.029 A 
ATOM     43  N   UNL A   1      41.164  27.664  28.771  1.00  0.00    -0.354 N 
ATOM     44  C   UNL A   1      42.940  31.552  29.346  1.00  0.00     0.074 A 
ATOM     45  C   UNL A   1      42.037  32.442  30.042  1.00  0.00     0.031 C 
ATOM     46  C   UNL A   1      39.613  26.077  29.018  1.00  0.00     0.029 A 
ATOM     47  C   UNL A   1      40.930  26.350  28.447  1.00  0.00     0.049 A 
ATOM     48  H   UNL A   1      41.989  28.142  28.522  1.00  0.00     0.167 HD
ATOM     49  C   UNL A   1      44.190  31.894  28.959  1.00  0.00     0.037 A 
ATOM     50  C   UNL A   1      41.689  25.472  27.758  1.00  0.00     0.037 A 
ATOM     51  C   UNL A   1      45.076  31.021  28.241  1.00  0.00     0.049 A 
ATOM     52  C   UNL A   1      43.034  25.906  27.239  1.00  0.00     0.074 A 
ATOM     53  C   UNL A   1      46.354  31.283  27.783  1.00  0.00     0.029 A 
ATOM     54  N   UNL A   1      44.773  29.720  27.864  1.00  0.00    -0.354 N 
ATOM     55  N   UNL A   1      43.649  27.055  27.395  1.00  0.00    -0.248 NA
ATOM     56  C   UNL A   1      43.793  24.924  26.450  1.00  0.00     0.031 C 
ATOM     57  C   UNL A   1      46.802  30.164  27.077  1.00  0.00     0.029 A 
ATOM     58  C   UNL A   1      45.833  29.176  27.159  1.00  0.00     0.049 A 
ATOM     59  H   UNL A   1      43.930  29.255  28.068  1.00  0.00     0.167 HD
ATOM     60  C   UNL A   1      44.876  26.923  26.753  1.00  0.00     0.074 A 
ATOM     61  C   UNL A   1      44.922  25.581  26.213  1.00  0.00     0.031 C 
ATOM     62  C   UNL A   1      45.874  27.833  26.632  1.00  0.00     0.037 A 
BRANCH  49  63
ATOM     63  C   UNL A   1      44.654  33.281  29.294  1.00  0.00     0.057 A 
ATOM     64  C   UNL A   1      45.332  33.540  30.492  1.00  0.00     0.134 A 
ATOM     65  C   UNL A   1      44.418  34.366  28.437  1.00  0.00     0.134 A 
ATOM     66  F   UNL A   1      45.593  32.548  31.356  1.00  0.00    -0.206 F 
ATOM     67  C   UNL A   1      45.749  34.828  30.829  1.00  0.00     0.040 A 
ATOM     68  C   UNL A   1      44.860  35.652  28.749  1.00  0.00     0.040 A 
ATOM     69  F   UNL A   1      43.794  34.181  27.263  1.00  0.00    -0.206 F 
ATOM     70  C   UNL A   1      45.520  35.886  29.953  1.00  0.00     0.006 A 
ENDBRANCH  49  63
BRANCH  50  71
ATOM     71  C   UNL A   1      41.199  24.086  27.543  1.00  0.00     0.057 A 
ATOM     72  C   UNL A   1      40.182  23.801  26.624  1.00  0.00     0.134 A 
ATOM     73  C   UNL A   1      41.723  23.013  28.273  1.00  0.00     0.134 A 
ATOM     74  F   UNL A   1      39.637  24.783  25.892  1.00  0.00    -0.206 F 
ATOM     75  C   UNL A   1      39.684  22.506  26.459  1.00  0.00     0.040 A 
ATOM     76  C   UNL A   1      41.254  21.710  28.100  1.00  0.00     0.040 A 
ATOM     77  F   UNL A   1      42.717  23.216  29.151  1.00  0.00    -0.206 F 
ATOM     78  C   UNL A   1      40.223  21.456  27.198  1.00  0.00     0.006 A 
ENDBRANCH  50  71
BRANCH  62  79
ATOM     79  C   UNL A   1      47.132  27.412  25.922  1.00  0.00     0.057 A 
ATOM     80  C   UNL A   1      47.265  27.613  24.540  1.00  0.00     0.134 A 
ATOM     81  C   UNL A   1      48.163  26.728  26.575  1.00  0.00     0.134 A 
ATOM     82  F   UNL A   1      46.308  28.248  23.847  1.00  0.00    -0.206 F 
ATOM     83  C   UNL A   1      48.368  27.131  23.834  1.00  0.00     0.040 A 
ATOM     84  C   UNL A   1      49.288  26.270  25.885  1.00  0.00     0.040 A 
ATOM     85  F   UNL A   1      48.102  26.507  27.898  1.00  0.00    -0.206 F 
ATOM     86  C   UNL A   1      49.386  26.461  24.507  1.00  0.00     0.006 A 
ENDBRANCH  62  79
ENDBRANCH  36  37
ENDBRANCH  29  31
ENDBRANCH  28  29
ENDBRANCH  27  28
ENDBRANCH  26  27
ENDBRANCH  25  26
ENDBRANCH  24  25
ENDBRANCH   1  24
TORSDOF 20
ENDMDL
MODEL 2
REMARK VINA RESULT:     -13.1      1.408      2.124
REMARK SMILES CN(Cc1csc(Br)c1)c1cccc(F)c1C(=O)OCCOCCOCCOC(=O)c1ccc(-c2c3nc(c(-c4c(F)cccc4F)c4ccc([nH]4)c(-c4c(F)cccc4F)c4nc(c(-c5c(F)cccc5F)c5ccc2[nH]5)C=C4)C=C3)cc1
REMARK SMILES IDX 23 1 22 2 21 3 20 4 19 5 17 6 18 7 16 8 10 9 11 10 12 11
REMARK SMILES IDX 14 12 13 13 15 14 2 15 1 16 3 17 4 18 5 19 9 20 6 21 7 22
REMARK SMILES IDX 8 23 24 24 25 25 26 26 27 27 28 28 29 29 30 30 31 31 32 32
REMARK SMILES IDX 84 33 33 34 83 35 34 36 35 37 36 38 77 39 37 40 82 41 76 42
REMARK SMILES IDX 78 43 38 44 81 45 75 46 74 47 39 49 65 50 48 51 64 52 49 53
REMARK SMILES IDX 52 54 63 55 79 56 50 57 51 58 62 60 80 61 53 62 40 63 41 64
REMARK SMILES IDX 46 65 42 66 43 67 45 68 47 69 44 70 66 71 67 72 72 73 68 74
REMARK SMILES IDX 69 75 71 76 73 77 70 78 54 79 55 80 60 81 56 82 57 83 59 84
REMARK SMILES IDX 61 85 58 86
REMARK H PARENT 78 48 52 59
REMARK Flexibility Score: inf
ROOT
ATOM      1  C   UNL A   1      35.006  32.831  28.147  1.00  0.00     0.188 C 
ENDROOT
BRANCH   1   2
ATOM      2  O   UNL A   1      34.659  30.773  28.435  1.00  0.00    -0.376 OA
BRANCH   2   3
ATOM      3  C   UNL A   1      33.780  29.964  26.984  1.00  0.00     0.202 C 
BRANCH   3   4
ATOM      4  C   UNL A   1      32.958  28.280  27.310  1.00  0.00     0.261 C 
BRANCH   4   5
ATOM      5  O   UNL A   1      32.798  27.095  26.103  1.00  0.00    -0.460 OA
BRANCH   5   6
ATOM      6  C   UNL A   1      33.549  26.984  24.856  1.00  0.00     0.343 C 
ATOM      7  O   UNL A   1      34.242  27.919  24.459  1.00  0.00    -0.246 OA
BRANCH   6   8
ATOM      8  C   UNL A   1      33.596  25.552  24.031  1.00  0.00     0.119 A 
ATOM      9  C   UNL A   1      34.570  24.373  23.880  1.00  0.00     0.054 A 
ATOM     10  C   UNL A   1      34.285  23.406  22.878  1.00  0.00     0.027 A 
ATOM     11  C   UNL A   1      33.180  23.505  22.042  1.00  0.00     0.005 A 
ATOM     12  C   UNL A   1      32.484  25.542  23.174  1.00  0.00     0.139 A 
ATOM     13  C   UNL A   1      32.282  24.554  22.202  1.00  0.00     0.040 A 
ATOM     14  F   UNL A   1      31.561  26.515  23.245  1.00  0.00    -0.206 F 
BRANCH   9  15
ATOM     15  N   UNL A   1      35.769  23.990  24.646  1.00  0.00    -0.369 N 
ATOM     16  C   UNL A   1      36.805  23.341  23.835  1.00  0.00     0.144 C 
BRANCH  15  17
ATOM     17  C   UNL A   1      35.727  23.458  26.269  1.00  0.00     0.152 C 
BRANCH  17  18
ATOM     18  C   UNL A   1      35.161  21.772  26.521  1.00  0.00    -0.017 A 
ATOM     19  C   UNL A   1      33.999  22.097  27.397  1.00  0.00     0.071 A 
ATOM     20  C   UNL A   1      34.768  20.439  25.213  1.00  0.00     0.033 A 
ATOM     21  S   UNL A   1      32.235  22.359  26.117  1.00  0.00    -0.136 S 
ATOM     22  C   UNL A   1      33.077  20.631  24.543  1.00  0.00     0.070 A 
ATOM     23  Br  UNL A   1      32.261  19.674  23.095  1.00  0.00    -0.039 Br
ENDBRANCH  17  18
ENDBRANCH  15  17
ENDBRANCH   9  15
ENDBRANCH   6   8
ENDBRANCH   5   6
ENDBRANCH   4   5
ENDBRANCH   3   4
ENDBRANCH   2   3
ENDBRANCH   1   2
BRANCH   1  24
ATOM     24  C   UNL A   1      34.636  34.230  29.093  1.00  0.00     0.188 C 
BRANCH  24  25
ATOM     25  O   UNL A   1      34.022  33.870  30.331  1.00  0.00    -0.376 OA
BRANCH  25  26
ATOM     26  C   UNL A   1      34.471  34.414  31.566  1.00  0.00     0.202 C 
BRANCH  26  27
ATOM     27  C   UNL A   1      34.334  33.495  32.793  1.00  0.00     0.261 C 
BRANCH  27  28
ATOM     28  O   UNL A   1      35.043  32.249  32.692  1.00  0.00    -0.460 OA
BRANCH  28  29
ATOM     29  C   UNL A   1      36.280  32.210  33.236  1.00  0.00     0.338 C 
ATOM     30  O   UNL A   1      36.613  32.594  34.342  1.00  0.00    -0.246 OA
BRANCH  29  31
ATOM     31  C   UNL A   1      37.134  31.374  32.361  1.00  0.00     0.060 A 
ATOM     32  C   UNL A   1      38.161  30.635  32.963  1.00  0.00     0.016 A 
ATOM     33  C   UNL A   1      36.907  31.279  30.985  1.00  0.00     0.016 A 
ATOM     34  C   UNL A   1      39.023  29.875  32.175  1.00  0.00     0.010 A 
ATOM     35  C   UNL A   1      37.774  30.521  30.194  1.00  0.00     0.010 A 
ATOM     36  C   UNL A   1      38.871  29.867  30.782  1.00  0.00    -0.014 A 
BRANCH  36  37
ATOM     37  C   UNL A   1      40.017  29.434  29.945  1.00  0.00     0.031 A 
ATOM     38  C   UNL A   1      41.150  30.406  29.765  1.00  0.00     0.074 A 
ATOM     39  C   UNL A   1      40.108  28.198  29.426  1.00  0.00     0.049 A 
ATOM     40  N   UNL A   1      42.289  30.247  29.143  1.00  0.00    -0.248 NA
ATOM     41  C   UNL A   1      40.970  31.739  30.367  1.00  0.00     0.031 C 
ATOM     42  C   UNL A   1      39.092  27.162  29.548  1.00  0.00     0.029 A 
ATOM     43  N   UNL A   1      41.111  27.601  28.704  1.00  0.00    -0.354 N 
ATOM     44  C   UNL A   1      42.965  31.450  29.295  1.00  0.00     0.074 A 
ATOM     45  C   UNL A   1      42.087  32.349  30.011  1.00  0.00     0.031 C 
ATOM     46  C   UNL A   1      39.534  26.040  28.956  1.00  0.00     0.029 A 
ATOM     47  C   UNL A   1      40.849  26.294  28.370  1.00  0.00     0.049 A 
ATOM     48  H   UNL A   1      41.941  28.066  28.450  1.00  0.00     0.167 HD
ATOM     49  C   UNL A   1      44.216  31.773  28.896  1.00  0.00     0.037 A 
ATOM     50  C   UNL A   1      41.583  25.410  27.664  1.00  0.00     0.037 A 
ATOM     51  C   UNL A   1      45.077  30.891  28.159  1.00  0.00     0.049 A 
ATOM     52  C   UNL A   1      42.929  25.825  27.131  1.00  0.00     0.074 A 
ATOM     53  C   UNL A   1      46.354  31.134  27.688  1.00  0.00     0.029 A 
ATOM     54  N   UNL A   1      44.745  29.600  27.773  1.00  0.00    -0.354 N 
ATOM     55  N   UNL A   1      43.567  26.960  27.291  1.00  0.00    -0.248 NA
ATOM     56  C   UNL A   1      43.660  24.837  26.324  1.00  0.00     0.031 C 
ATOM     57  C   UNL A   1      46.772  30.015  26.965  1.00  0.00     0.029 A 
ATOM     58  C   UNL A   1      45.786  29.043  27.049  1.00  0.00     0.049 A 
ATOM     59  H   UNL A   1      43.896  29.148  27.982  1.00  0.00     0.167 HD
ATOM     60  C   UNL A   1      44.783  26.813  26.633  1.00  0.00     0.074 A 
ATOM     61  C   UNL A   1      44.798  25.475  26.079  1.00  0.00     0.031 C 
ATOM     62  C   UNL A   1      45.797  27.706  26.508  1.00  0.00     0.037 A 
BRANCH  49  63
ATOM     63  C   UNL A   1      44.710  33.148  29.239  1.00  0.00     0.057 A 
ATOM     64  C   UNL A   1      45.410  33.381  30.429  1.00  0.00     0.134 A 
ATOM     65  C   UNL A   1      44.480  34.245  28.398  1.00  0.00     0.134 A 
ATOM     66  F   UNL A   1      45.666  32.375  31.279  1.00  0.00    -0.206 F 
ATOM     67  C   UNL A   1      45.854  34.658  30.774  1.00  0.00     0.040 A 
ATOM     68  C   UNL A   1      44.949  35.520  28.716  1.00  0.00     0.040 A 
ATOM     69  F   UNL A   1      43.836  34.085  27.231  1.00  0.00    -0.206 F 
ATOM     70  C   UNL A   1      45.631  35.730  29.913  1.00  0.00     0.006 A 
ENDBRANCH  49  63
BRANCH  50  71
ATOM     71  C   UNL A   1      41.065  24.035  27.441  1.00  0.00     0.057 A 
ATOM     72  C   UNL A   1      40.010  23.782  26.555  1.00  0.00     0.134 A 
ATOM     73  C   UNL A   1      41.600  22.941  28.131  1.00  0.00     0.134 A 
ATOM     74  F   UNL A   1      39.453  24.786  25.862  1.00  0.00    -0.206 F 
ATOM     75  C   UNL A   1      39.488  22.498  26.385  1.00  0.00     0.040 A 
ATOM     76  C   UNL A   1      41.105  21.648  27.951  1.00  0.00     0.040 A 
ATOM     77  F   UNL A   1      42.627  23.114  28.975  1.00  0.00    -0.206 F 
ATOM     78  C   UNL A   1      40.038  21.427  27.083  1.00  0.00     0.006 A 
ENDBRANCH  50  71
BRANCH  62  79
ATOM     79  C   UNL A   1      47.037  27.269  25.778  1.00  0.00     0.057 A 
ATOM     80  C   UNL A   1      48.065  26.605  26.464  1.00  0.00     0.134 A 
ATOM     81  C   UNL A   1      47.260  27.583  24.433  1.00  0.00     0.134 A 
ATOM     82  F   UNL A   1      47.924  26.285  27.760  1.00  0.00    -0.206 F 
ATOM     83  C   UNL A   1      49.274  26.288  25.844  1.00  0.00     0.040 A 
ATOM     84  C   UNL A   1      48.453  27.243  23.791  1.00  0.00     0.040 A 
ATOM     85  F   UNL A   1      46.316  28.213  23.715  1.00  0.00    -0.206 F 
ATOM     86  C   UNL A   1      49.469  26.604  24.502  1.00  0.00     0.006 A 
ENDBRANCH  62  79
ENDBRANCH  36  37
ENDBRANCH  29  31
ENDBRANCH  28  29
ENDBRANCH  27  28
ENDBRANCH  26  27
ENDBRANCH  25  26
ENDBRANCH  24  25
ENDBRANCH   1  24
TORSDOF 20
ENDMDL
MODEL 3
REMARK VINA RESULT:     -12.9      4.945      9.955
REMARK SMILES CN(Cc1csc(Br)c1)c1cccc(F)c1C(=O)OCCOCCOCCOC(=O)c1ccc(-c2c3nc(c(-c4c(F)cccc4F)c4ccc([nH]4)c(-c4c(F)cccc4F)c4nc(c(-c5c(F)cccc5F)c5ccc2[nH]5)C=C4)C=C3)cc1
REMARK SMILES IDX 23 1 22 2 21 3 20 4 19 5 17 6 18 7 16 8 10 9 11 10 12 11
REMARK SMILES IDX 14 12 13 13 15 14 2 15 1 16 3 17 4 18 5 19 9 20 6 21 7 22
REMARK SMILES IDX 8 23 24 24 25 25 26 26 27 27 28 28 29 29 30 30 31 31 32 32
REMARK SMILES IDX 84 33 33 34 83 35 34 36 35 37 36 38 77 39 37 40 82 41 76 42
REMARK SMILES IDX 78 43 38 44 81 45 75 46 74 47 39 49 65 50 48 51 64 52 49 53
REMARK SMILES IDX 52 54 63 55 79 56 50 57 51 58 62 60 80 61 53 62 40 63 41 64
REMARK SMILES IDX 46 65 42 66 43 67 45 68 47 69 44 70 66 71 67 72 72 73 68 74
REMARK SMILES IDX 69 75 71 76 73 77 70 78 54 79 55 80 60 81 56 82 57 83 59 84
REMARK SMILES IDX 61 85 58 86
REMARK H PARENT 78 48 52 59
REMARK Flexibility Score: inf
ROOT
ATOM      1  C   UNL A   1      39.922  21.835  26.819  1.00  0.00     0.188 C 
ENDROOT
BRANCH   1   2
ATOM      2  O   UNL A   1      38.283  21.446  25.554  1.00  0.00    -0.376 OA
BRANCH   2   3
ATOM      3  C   UNL A   1      37.093  22.895  25.425  1.00  0.00     0.202 C 
BRANCH   3   4
ATOM      4  C   UNL A   1      36.686  23.517  23.674  1.00  0.00     0.261 C 
BRANCH   4   5
ATOM      5  O   UNL A   1      35.335  22.966  22.802  1.00  0.00    -0.460 OA
BRANCH   5   6
ATOM      6  C   UNL A   1      33.946  22.918  23.247  1.00  0.00     0.343 C 
ATOM      7  O   UNL A   1      33.027  22.944  22.431  1.00  0.00    -0.246 OA
BRANCH   6   8
ATOM      8  C   UNL A   1      33.586  22.683  24.844  1.00  0.00     0.119 A 
ATOM      9  C   UNL A   1      33.286  23.561  26.069  1.00  0.00     0.054 A 
ATOM     10  C   UNL A   1      33.223  22.923  27.338  1.00  0.00     0.027 A 
ATOM     11  C   UNL A   1      33.434  21.559  27.496  1.00  0.00     0.005 A 
ATOM     12  C   UNL A   1      33.738  21.310  25.095  1.00  0.00     0.139 A 
ATOM     13  C   UNL A   1      33.672  20.762  26.383  1.00  0.00     0.040 A 
ATOM     14  F   UNL A   1      33.977  20.456  24.087  1.00  0.00    -0.206 F 
BRANCH   9  15
ATOM     15  N   UNL A   1      32.973  24.995  26.193  1.00  0.00    -0.369 N 
ATOM     16  C   UNL A   1      31.556  25.270  26.458  1.00  0.00     0.144 C 
BRANCH  15  17
ATOM     17  C   UNL A   1      33.758  26.217  25.294  1.00  0.00     0.152 C 
BRANCH  17  18
ATOM     18  C   UNL A   1      33.111  27.879  25.508  1.00  0.00    -0.017 A 
ATOM     19  C   UNL A   1      34.094  28.574  24.627  1.00  0.00     0.071 A 
ATOM     20  C   UNL A   1      31.321  28.499  25.275  1.00  0.00     0.033 A 
ATOM     21  S   UNL A   1      33.256  28.649  22.601  1.00  0.00    -0.136 S 
ATOM     22  C   UNL A   1      30.957  28.863  23.520  1.00  0.00     0.070 A 
ATOM     23  Br  UNL A   1      29.275  29.337  22.732  1.00  0.00    -0.039 Br
ENDBRANCH  17  18
ENDBRANCH  15  17
ENDBRANCH   9  15
ENDBRANCH   6   8
ENDBRANCH   5   6
ENDBRANCH   4   5
ENDBRANCH   3   4
ENDBRANCH   2   3
ENDBRANCH   1   2
BRANCH   1  24
ATOM     24  C   UNL A   1      41.449  21.053  27.042  1.00  0.00     0.188 C 
BRANCH  24  25
ATOM     25  O   UNL A   1      42.026  20.681  25.790  1.00  0.00    -0.376 OA
BRANCH  25  26
ATOM     26  C   UNL A   1      43.436  20.627  25.612  1.00  0.00     0.202 C 
BRANCH  26  27
ATOM     27  C   UNL A   1      44.174  21.976  25.688  1.00  0.00     0.261 C 
BRANCH  27  28
ATOM     28  O   UNL A   1      43.364  23.121  25.377  1.00  0.00    -0.460 OA
BRANCH  28  29
ATOM     29  C   UNL A   1      43.990  24.320  25.364  1.00  0.00     0.338 C 
ATOM     30  O   UNL A   1      44.849  24.697  24.589  1.00  0.00    -0.246 OA
BRANCH  29  31
ATOM     31  C   UNL A   1      43.270  25.216  26.298  1.00  0.00     0.060 A 
ATOM     32  C   UNL A   1      43.607  26.576  26.289  1.00  0.00     0.016 A 
ATOM     33  C   UNL A   1      42.254  24.745  27.135  1.00  0.00     0.016 A 
ATOM     34  C   UNL A   1      42.994  27.450  27.186  1.00  0.00     0.010 A 
ATOM     35  C   UNL A   1      41.643  25.619  28.037  1.00  0.00     0.010 A 
ATOM     36  C   UNL A   1      42.057  26.961  28.107  1.00  0.00    -0.014 A 
BRANCH  36  37
ATOM     37  C   UNL A   1      41.750  27.776  29.308  1.00  0.00     0.031 A 
ATOM     38  C   UNL A   1      40.554  28.685  29.240  1.00  0.00     0.074 A 
ATOM     39  C   UNL A   1      42.443  27.667  30.453  1.00  0.00     0.049 A 
ATOM     40  N   UNL A   1      40.035  29.443  30.170  1.00  0.00    -0.248 NA
ATOM     41  C   UNL A   1      39.850  28.745  27.948  1.00  0.00     0.031 C 
ATOM     42  C   UNL A   1      43.604  26.810  30.651  1.00  0.00     0.029 A 
ATOM     43  N   UNL A   1      42.260  28.270  31.672  1.00  0.00    -0.354 N 
ATOM     44  C   UNL A   1      38.938  30.055  29.580  1.00  0.00     0.074 A 
ATOM     45  C   UNL A   1      38.901  29.629  28.198  1.00  0.00     0.031 C 
ATOM     46  C   UNL A   1      44.013  26.909  31.927  1.00  0.00     0.029 A 
ATOM     47  C   UNL A   1      43.168  27.877  32.625  1.00  0.00     0.049 A 
ATOM     48  H   UNL A   1      41.545  28.925  31.847  1.00  0.00     0.167 HD
ATOM     49  C   UNL A   1      38.025  30.879  30.143  1.00  0.00     0.037 A 
ATOM     50  C   UNL A   1      43.306  28.262  33.910  1.00  0.00     0.037 A 
ATOM     51  C   UNL A   1      38.079  31.325  31.506  1.00  0.00     0.049 A 
ATOM     52  C   UNL A   1      42.345  29.267  34.489  1.00  0.00     0.074 A 
ATOM     53  C   UNL A   1      37.214  32.180  32.164  1.00  0.00     0.029 A 
ATOM     54  N   UNL A   1      39.058  30.964  32.421  1.00  0.00    -0.354 N 
ATOM     55  N   UNL A   1      41.301  29.830  33.928  1.00  0.00    -0.248 NA
ATOM     56  C   UNL A   1      42.577  29.688  35.878  1.00  0.00     0.031 C 
ATOM     57  C   UNL A   1      37.702  32.385  33.456  1.00  0.00     0.029 A 
ATOM     58  C   UNL A   1      38.830  31.598  33.630  1.00  0.00     0.049 A 
ATOM     59  H   UNL A   1      39.804  30.349  32.236  1.00  0.00     0.167 HD
ATOM     60  C   UNL A   1      40.736  30.645  34.901  1.00  0.00     0.074 A 
ATOM     61  C   UNL A   1      41.547  30.498  36.091  1.00  0.00     0.031 C 
ATOM     62  C   UNL A   1      39.638  31.438  34.815  1.00  0.00     0.037 A 
BRANCH  49  63
ATOM     63  C   UNL A   1      36.905  31.359  29.266  1.00  0.00     0.057 A 
ATOM     64  C   UNL A   1      35.839  30.513  28.939  1.00  0.00     0.134 A 
ATOM     65  C   UNL A   1      36.889  32.656  28.734  1.00  0.00     0.134 A 
ATOM     66  F   UNL A   1      35.790  29.260  29.416  1.00  0.00    -0.206 F 
ATOM     67  C   UNL A   1      34.803  30.937  28.106  1.00  0.00     0.040 A 
ATOM     68  C   UNL A   1      35.842  33.101  27.928  1.00  0.00     0.040 A 
ATOM     69  F   UNL A   1      37.870  33.524  29.028  1.00  0.00    -0.206 F 
ATOM     70  C   UNL A   1      34.799  32.237  27.605  1.00  0.00     0.006 A 
ENDBRANCH  49  63
BRANCH  50  71
ATOM     71  C   UNL A   1      44.387  27.674  34.744  1.00  0.00     0.057 A 
ATOM     72  C   UNL A   1      45.665  28.244  34.799  1.00  0.00     0.134 A 
ATOM     73  C   UNL A   1      44.172  26.508  35.488  1.00  0.00     0.134 A 
ATOM     74  F   UNL A   1      45.937  29.362  34.110  1.00  0.00    -0.206 F 
ATOM     75  C   UNL A   1      46.696  27.662  35.539  1.00  0.00     0.040 A 
ATOM     76  C   UNL A   1      45.186  25.929  36.253  1.00  0.00     0.040 A 
ATOM     77  F   UNL A   1      42.964  25.927  35.496  1.00  0.00    -0.206 F 
ATOM     78  C   UNL A   1      46.456  26.502  36.271  1.00  0.00     0.006 A 
ENDBRANCH  50  71
BRANCH  62  79
ATOM     79  C   UNL A   1      39.209  32.187  36.046  1.00  0.00     0.057 A 
ATOM     80  C   UNL A   1      38.262  31.630  36.919  1.00  0.00     0.134 A 
ATOM     81  C   UNL A   1      39.652  33.486  36.321  1.00  0.00     0.134 A 
ATOM     82  F   UNL A   1      37.784  30.395  36.707  1.00  0.00    -0.206 F 
ATOM     83  C   UNL A   1      37.758  32.345  38.006  1.00  0.00     0.040 A 
ATOM     84  C   UNL A   1      39.180  34.200  37.425  1.00  0.00     0.040 A 
ATOM     85  F   UNL A   1      40.561  34.077  35.531  1.00  0.00    -0.206 F 
ATOM     86  C   UNL A   1      38.221  33.634  38.264  1.00  0.00     0.006 A 
ENDBRANCH  62  79
ENDBRANCH  36  37
ENDBRANCH  29  31
ENDBRANCH  28  29
ENDBRANCH  27  28
ENDBRANCH  26  27
ENDBRANCH  25  26
ENDBRANCH  24  25
ENDBRANCH   1  24
TORSDOF 20
ENDMDL
