MODEL 1
REMARK VINA RESULT:     -10.9      0.000      0.000
REMARK SMILES O=C(OCCOCCOCCOC(=O)[C@H](Cc1cccc(O)c1)Cc1cccc(F)c1)c1ccc(-c2c3nc(c(-c4c(F)cccc4F)c4ccc([nH]4)c(-c4c(F)cccc4F)c4nc(c(-c5c(F)cccc5F)c5ccc2[nH]5)C=C4)C=C3)cc1
REMARK SMILES IDX 8 1 7 2 6 3 5 4 4 5 3 6 2 7 1 8 32 9 33 10 85 11 34 12 84 13
REMARK SMILES IDX 35 14 36 15 37 16 78 17 38 18 83 19 77 20 79 21 39 22 82 23
REMARK SMILES IDX 76 24 75 25 40 27 66 28 49 29 65 30 50 31 53 32 64 33 80 34
REMARK SMILES IDX 51 35 52 36 63 38 81 39 54 40 41 41 42 42 47 43 43 44 44 45
REMARK SMILES IDX 46 46 48 47 45 48 67 49 68 50 73 51 69 52 70 53 72 54 74 55
REMARK SMILES IDX 71 56 55 57 56 58 61 59 57 60 58 61 60 62 62 63 59 64 9 65
REMARK SMILES IDX 10 66 11 67 12 68 13 69 14 70 15 71 24 72 25 73 26 74 31 75
REMARK SMILES IDX 27 76 29 77 28 78 30 79 16 80 17 81 18 82 23 83 19 84 21 85
REMARK SMILES IDX 20 86 22 87
REMARK H PARENT 79 26 53 37 22 88
REMARK Flexibility Score: inf
ROOT
ATOM      1  C   UNL A   1      42.590  19.351  26.221  1.00  0.00     0.188 C 
ENDROOT
BRANCH   1   2
ATOM      2  C   UNL A   1      43.658  18.919  25.221  1.00  0.00     0.188 C 
BRANCH   2   3
ATOM      3  O   UNL A   1      44.228  20.005  24.488  1.00  0.00    -0.376 OA
BRANCH   3   4
ATOM      4  C   UNL A   1      45.531  20.395  24.930  1.00  0.00     0.202 C 
BRANCH   4   5
ATOM      5  C   UNL A   1      45.707  21.875  25.331  1.00  0.00     0.261 C 
BRANCH   5   6
ATOM      6  O   UNL A   1      44.609  22.448  26.072  1.00  0.00    -0.460 OA
BRANCH   6   7
ATOM      7  C   UNL A   1      43.695  23.377  25.693  1.00  0.00     0.338 C 
ATOM      8  O   UNL A   1      43.294  23.379  24.530  1.00  0.00    -0.246 OA
BRANCH   7   9
ATOM      9  C   UNL A   1      43.155  24.414  26.617  1.00  0.00     0.060 A 
ATOM     10  C   UNL A   1      43.667  25.701  26.720  1.00  0.00     0.016 A 
ATOM     11  C   UNL A   1      42.012  24.110  27.372  1.00  0.00     0.016 A 
ATOM     12  C   UNL A   1      43.178  26.619  27.631  1.00  0.00     0.010 A 
ATOM     13  C   UNL A   1      41.448  25.066  28.230  1.00  0.00     0.010 A 
ATOM     14  C   UNL A   1      42.056  26.322  28.389  1.00  0.00    -0.014 A 
BRANCH  14  15
ATOM     15  C   UNL A   1      41.649  27.275  29.443  1.00  0.00     0.031 A 
ATOM     16  C   UNL A   1      42.422  27.271  30.727  1.00  0.00     0.074 A 
ATOM     17  C   UNL A   1      40.774  28.274  29.211  1.00  0.00     0.049 A 
ATOM     18  N   UNL A   1      42.205  27.954  31.816  1.00  0.00    -0.248 NA
ATOM     19  C   UNL A   1      43.647  26.451  30.760  1.00  0.00     0.031 C 
ATOM     20  C   UNL A   1      40.220  28.637  27.906  1.00  0.00     0.029 A 
ATOM     21  N   UNL A   1      40.216  29.201  30.062  1.00  0.00    -0.354 N 
ATOM     22  C   UNL A   1      43.279  27.676  32.646  1.00  0.00     0.074 A 
ATOM     23  C   UNL A   1      44.120  26.718  31.967  1.00  0.00     0.031 C 
ATOM     24  C   UNL A   1      39.402  29.693  28.055  1.00  0.00     0.029 A 
ATOM     25  C   UNL A   1      39.234  29.956  29.463  1.00  0.00     0.049 A 
ATOM     26  H   UNL A   1      40.489  29.311  31.001  1.00  0.00     0.167 HD
ATOM     27  C   UNL A   1      43.548  28.214  33.855  1.00  0.00     0.037 A 
ATOM     28  C   UNL A   1      38.244  30.696  29.996  1.00  0.00     0.037 A 
ATOM     29  C   UNL A   1      42.698  29.178  34.497  1.00  0.00     0.049 A 
ATOM     30  C   UNL A   1      38.323  30.977  31.452  1.00  0.00     0.074 A 
ATOM     31  C   UNL A   1      42.842  29.758  35.742  1.00  0.00     0.029 A 
ATOM     32  N   UNL A   1      41.538  29.700  33.939  1.00  0.00    -0.354 N 
ATOM     33  N   UNL A   1      39.257  30.607  32.290  1.00  0.00    -0.248 NA
ATOM     34  C   UNL A   1      37.282  31.834  32.022  1.00  0.00     0.031 C 
ATOM     35  C   UNL A   1      41.733  30.577  35.968  1.00  0.00     0.029 A 
ATOM     36  C   UNL A   1      40.929  30.558  34.838  1.00  0.00     0.049 A 
ATOM     37  H   UNL A   1      41.198  29.491  33.039  1.00  0.00     0.167 HD
ATOM     38  C   UNL A   1      38.970  31.254  33.473  1.00  0.00     0.074 A 
ATOM     39  C   UNL A   1      37.743  32.001  33.254  1.00  0.00     0.031 C 
ATOM     40  C   UNL A   1      39.697  31.271  34.613  1.00  0.00     0.037 A 
BRANCH  27  41
ATOM     41  C   UNL A   1      44.774  27.739  34.568  1.00  0.00     0.057 A 
ATOM     42  C   UNL A   1      45.987  28.419  34.407  1.00  0.00     0.134 A 
ATOM     43  C   UNL A   1      44.772  26.598  35.379  1.00  0.00     0.134 A 
ATOM     44  F   UNL A   1      46.049  29.528  33.655  1.00  0.00    -0.206 F 
ATOM     45  C   UNL A   1      47.162  27.967  35.007  1.00  0.00     0.040 A 
ATOM     46  C   UNL A   1      45.937  26.147  36.003  1.00  0.00     0.040 A 
ATOM     47  F   UNL A   1      43.635  25.921  35.602  1.00  0.00    -0.206 F 
ATOM     48  C   UNL A   1      47.139  26.826  35.807  1.00  0.00     0.006 A 
ENDBRANCH  27  41
BRANCH  28  49
ATOM     49  C   UNL A   1      37.082  31.141  29.186  1.00  0.00     0.057 A 
ATOM     50  C   UNL A   1      37.019  32.458  28.708  1.00  0.00     0.134 A 
ATOM     51  C   UNL A   1      36.024  30.294  28.860  1.00  0.00     0.134 A 
ATOM     52  F   UNL A   1      38.054  33.291  28.893  1.00  0.00    -0.206 F 
ATOM     53  C   UNL A   1      35.912  32.938  28.004  1.00  0.00     0.040 A 
ATOM     54  C   UNL A   1      34.925  30.749  28.124  1.00  0.00     0.040 A 
ATOM     55  F   UNL A   1      36.052  29.008  29.237  1.00  0.00    -0.206 F 
ATOM     56  C   UNL A   1      34.857  32.080  27.713  1.00  0.00     0.006 A 
ENDBRANCH  28  49
BRANCH  40  57
ATOM     57  C   UNL A   1      39.200  32.158  35.702  1.00  0.00     0.057 A 
ATOM     58  C   UNL A   1      38.303  31.663  36.657  1.00  0.00     0.134 A 
ATOM     59  C   UNL A   1      39.571  33.504  35.782  1.00  0.00     0.134 A 
ATOM     60  F   UNL A   1      37.918  30.378  36.629  1.00  0.00    -0.206 F 
ATOM     61  C   UNL A   1      37.771  32.486  37.643  1.00  0.00     0.040 A 
ATOM     62  C   UNL A   1      39.070  34.330  36.785  1.00  0.00     0.040 A 
ATOM     63  F   UNL A   1      40.449  34.020  34.909  1.00  0.00    -0.206 F 
ATOM     64  C   UNL A   1      38.158  33.824  37.711  1.00  0.00     0.006 A 
ENDBRANCH  40  57
ENDBRANCH  14  15
ENDBRANCH   7   9
ENDBRANCH   6   7
ENDBRANCH   5   6
ENDBRANCH   4   5
ENDBRANCH   3   4
ENDBRANCH   2   3
ENDBRANCH   1   2
BRANCH   1  65
ATOM     65  O   UNL A   1      41.779  20.458  25.850  1.00  0.00    -0.376 OA
BRANCH  65  66
ATOM     66  C   UNL A   1      40.545  20.599  26.544  1.00  0.00     0.202 C 
BRANCH  66  67
ATOM     67  C   UNL A   1      39.622  21.777  26.166  1.00  0.00     0.261 C 
BRANCH  67  68
ATOM     68  O   UNL A   1      38.381  21.436  25.509  1.00  0.00    -0.463 OA
BRANCH  68  69
ATOM     69  C   UNL A   1      37.376  22.365  25.598  1.00  0.00     0.309 C 
ATOM     70  O   UNL A   1      37.495  23.477  26.084  1.00  0.00    -0.252 OA
BRANCH  69  71
ATOM     71  C   UNL A   1      36.045  21.821  25.081  1.00  0.00     0.108 C 
BRANCH  71  72
ATOM     72  C   UNL A   1      35.850  22.421  23.654  1.00  0.00     0.051 C 
BRANCH  72  73
ATOM     73  C   UNL A   1      34.776  23.486  23.501  1.00  0.00    -0.044 A 
ATOM     74  C   UNL A   1      33.811  23.326  22.516  1.00  0.00     0.004 A 
ATOM     75  C   UNL A   1      34.681  24.637  24.287  1.00  0.00     0.043 A 
ATOM     76  C   UNL A   1      32.900  24.328  22.183  1.00  0.00     0.003 A 
ATOM     77  C   UNL A   1      33.752  25.633  23.982  1.00  0.00     0.123 A 
ATOM     78  C   UNL A   1      32.874  25.500  22.918  1.00  0.00     0.039 A 
ATOM     79  F   UNL A   1      33.723  26.751  24.718  1.00  0.00    -0.207 F 
ENDBRANCH  72  73
ENDBRANCH  71  72
BRANCH  71  80
ATOM     80  C   UNL A   1      36.029  20.289  24.992  1.00  0.00     0.051 C 
BRANCH  80  81
ATOM     81  C   UNL A   1      34.780  19.522  24.684  1.00  0.00    -0.043 A 
ATOM     82  C   UNL A   1      33.523  20.140  24.666  1.00  0.00     0.004 A 
ATOM     83  C   UNL A   1      34.897  18.191  24.263  1.00  0.00     0.049 A 
ATOM     84  C   UNL A   1      32.406  19.435  24.211  1.00  0.00     0.004 A 
ATOM     85  C   UNL A   1      33.783  17.502  23.806  1.00  0.00     0.115 A 
ATOM     86  C   UNL A   1      32.537  18.114  23.773  1.00  0.00     0.046 A 
BRANCH  85  87
ATOM     87  O   UNL A   1      33.971  16.224  23.375  1.00  0.00    -0.508 OA
ATOM     88  H   UNL A   1      33.543  15.514  23.814  1.00  0.00     0.293 HD
ENDBRANCH  85  87
ENDBRANCH  80  81
ENDBRANCH  71  80
ENDBRANCH  69  71
ENDBRANCH  68  69
ENDBRANCH  67  68
ENDBRANCH  66  67
ENDBRANCH  65  66
ENDBRANCH   1  65
TORSDOF 22
ENDMDL
MODEL 2
REMARK VINA RESULT:     -10.7      1.889      3.837
REMARK SMILES O=C(OCCOCCOCCOC(=O)[C@H](Cc1cccc(O)c1)Cc1cccc(F)c1)c1ccc(-c2c3nc(c(-c4c(F)cccc4F)c4ccc([nH]4)c(-c4c(F)cccc4F)c4nc(c(-c5c(F)cccc5F)c5ccc2[nH]5)C=C4)C=C3)cc1
REMARK SMILES IDX 8 1 7 2 6 3 5 4 4 5 3 6 2 7 1 8 32 9 33 10 85 11 34 12 84 13
REMARK SMILES IDX 35 14 36 15 37 16 78 17 38 18 83 19 77 20 79 21 39 22 82 23
REMARK SMILES IDX 76 24 75 25 40 27 66 28 49 29 65 30 50 31 53 32 64 33 80 34
REMARK SMILES IDX 51 35 52 36 63 38 81 39 54 40 41 41 42 42 47 43 43 44 44 45
REMARK SMILES IDX 46 46 48 47 45 48 67 49 68 50 73 51 69 52 70 53 72 54 74 55
REMARK SMILES IDX 71 56 55 57 56 58 61 59 57 60 58 61 60 62 62 63 59 64 9 65
REMARK SMILES IDX 10 66 11 67 12 68 13 69 14 70 15 71 24 72 25 73 26 74 31 75
REMARK SMILES IDX 27 76 29 77 28 78 30 79 16 80 17 81 18 82 23 83 19 84 21 85
REMARK SMILES IDX 20 86 22 87
REMARK H PARENT 79 26 53 37 22 88
REMARK Flexibility Score: inf
ROOT
ATOM      1  C   UNL A   1      38.822  21.602  25.672  1.00  0.00     0.188 C 
ENDROOT
BRANCH   1   2
ATOM      2  C   UNL A   1      39.844  20.619  26.235  1.00  0.00     0.188 C 
BRANCH   2   3
ATOM      3  O   UNL A   1      40.915  21.249  26.941  1.00  0.00    -0.376 OA
BRANCH   3   4
ATOM      4  C   UNL A   1      42.192  20.634  26.745  1.00  0.00     0.202 C 
BRANCH   4   5
ATOM      5  C   UNL A   1      43.114  21.285  25.693  1.00  0.00     0.261 C 
BRANCH   5   6
ATOM      6  O   UNL A   1      42.665  22.560  25.184  1.00  0.00    -0.460 OA
BRANCH   6   7
ATOM      7  C   UNL A   1      43.201  23.797  25.343  1.00  0.00     0.338 C 
ATOM      8  O   UNL A   1      43.985  24.220  24.496  1.00  0.00    -0.246 OA
BRANCH   7   9
ATOM      9  C   UNL A   1      42.895  24.675  26.508  1.00  0.00     0.060 A 
ATOM     10  C   UNL A   1      41.992  24.343  27.509  1.00  0.00     0.016 A 
ATOM     11  C   UNL A   1      43.615  25.870  26.655  1.00  0.00     0.016 A 
ATOM     12  C   UNL A   1      41.689  25.207  28.545  1.00  0.00     0.010 A 
ATOM     13  C   UNL A   1      43.384  26.712  27.754  1.00  0.00     0.010 A 
ATOM     14  C   UNL A   1      42.387  26.396  28.691  1.00  0.00    -0.014 A 
BRANCH  14  15
ATOM     15  C   UNL A   1      41.942  27.350  29.729  1.00  0.00     0.031 A 
ATOM     16  C   UNL A   1      42.692  27.376  31.025  1.00  0.00     0.074 A 
ATOM     17  C   UNL A   1      41.049  28.328  29.471  1.00  0.00     0.049 A 
ATOM     18  N   UNL A   1      42.442  28.066  32.103  1.00  0.00    -0.248 NA
ATOM     19  C   UNL A   1      43.934  26.583  31.087  1.00  0.00     0.031 C 
ATOM     20  C   UNL A   1      40.510  28.665  28.153  1.00  0.00     0.029 A 
ATOM     21  N   UNL A   1      40.457  29.251  30.303  1.00  0.00    -0.354 N 
ATOM     22  C   UNL A   1      43.509  27.819  32.954  1.00  0.00     0.074 A 
ATOM     23  C   UNL A   1      44.381  26.873  32.299  1.00  0.00     0.031 C 
ATOM     24  C   UNL A   1      39.667  29.705  28.277  1.00  0.00     0.029 A 
ATOM     25  C   UNL A   1      39.470  29.978  29.679  1.00  0.00     0.049 A 
ATOM     26  H   UNL A   1      40.712  29.376  31.245  1.00  0.00     0.167 HD
ATOM     27  C   UNL A   1      43.746  28.375  34.161  1.00  0.00     0.037 A 
ATOM     28  C   UNL A   1      38.456  30.702  30.188  1.00  0.00     0.037 A 
ATOM     29  C   UNL A   1      42.864  29.327  34.778  1.00  0.00     0.049 A 
ATOM     30  C   UNL A   1      38.504  30.999  31.643  1.00  0.00     0.074 A 
ATOM     31  C   UNL A   1      42.975  29.922  36.020  1.00  0.00     0.029 A 
ATOM     32  N   UNL A   1      41.702  29.818  34.196  1.00  0.00    -0.354 N 
ATOM     33  N   UNL A   1      39.431  30.658  32.500  1.00  0.00    -0.248 NA
ATOM     34  C   UNL A   1      37.435  31.840  32.186  1.00  0.00     0.031 C 
ATOM     35  C   UNL A   1      41.845  30.719  36.218  1.00  0.00     0.029 A 
ATOM     36  C   UNL A   1      41.060  30.672  35.076  1.00  0.00     0.049 A 
ATOM     37  H   UNL A   1      41.383  29.593  33.293  1.00  0.00     0.167 HD
ATOM     38  C   UNL A   1      39.110  31.312  33.671  1.00  0.00     0.074 A 
ATOM     39  C   UNL A   1      37.871  32.029  33.424  1.00  0.00     0.031 C 
ATOM     40  C   UNL A   1      39.818  31.355  34.822  1.00  0.00     0.037 A 
BRANCH  27  41
ATOM     41  C   UNL A   1      44.969  27.934  34.899  1.00  0.00     0.057 A 
ATOM     42  C   UNL A   1      44.911  26.832  35.758  1.00  0.00     0.134 A 
ATOM     43  C   UNL A   1      46.190  28.613  34.795  1.00  0.00     0.134 A 
ATOM     44  F   UNL A   1      43.774  26.131  35.888  1.00  0.00    -0.206 F 
ATOM     45  C   UNL A   1      46.016  26.432  36.509  1.00  0.00     0.040 A 
ATOM     46  C   UNL A   1      47.310  28.210  35.525  1.00  0.00     0.040 A 
ATOM     47  F   UNL A   1      46.322  29.657  33.962  1.00  0.00    -0.206 F 
ATOM     48  C   UNL A   1      47.220  27.124  36.395  1.00  0.00     0.006 A 
ENDBRANCH  27  41
BRANCH  28  49
ATOM     49  C   UNL A   1      37.298  31.114  29.355  1.00  0.00     0.057 A 
ATOM     50  C   UNL A   1      36.246  30.218  29.117  1.00  0.00     0.134 A 
ATOM     51  C   UNL A   1      37.194  32.383  28.787  1.00  0.00     0.134 A 
ATOM     52  F   UNL A   1      36.232  29.022  29.723  1.00  0.00    -0.206 F 
ATOM     53  C   UNL A   1      35.173  30.540  28.282  1.00  0.00     0.040 A 
ATOM     54  C   UNL A   1      36.108  32.734  27.978  1.00  0.00     0.040 A 
ATOM     55  F   UNL A   1      38.137  33.305  29.024  1.00  0.00    -0.206 F 
ATOM     56  C   UNL A   1      35.105  31.803  27.705  1.00  0.00     0.006 A 
ENDBRANCH  28  49
BRANCH  40  57
ATOM     57  C   UNL A   1      39.283  32.243  35.894  1.00  0.00     0.057 A 
ATOM     58  C   UNL A   1      38.325  31.760  36.793  1.00  0.00     0.134 A 
ATOM     59  C   UNL A   1      39.681  33.578  36.009  1.00  0.00     0.134 A 
ATOM     60  F   UNL A   1      37.911  30.484  36.729  1.00  0.00    -0.206 F 
ATOM     61  C   UNL A   1      37.759  32.585  37.759  1.00  0.00     0.040 A 
ATOM     62  C   UNL A   1      39.146  34.405  36.994  1.00  0.00     0.040 A 
ATOM     63  F   UNL A   1      40.617  34.082  35.191  1.00  0.00    -0.206 F 
ATOM     64  C   UNL A   1      38.173  33.912  37.863  1.00  0.00     0.006 A 
ENDBRANCH  40  57
ENDBRANCH  14  15
ENDBRANCH   7   9
ENDBRANCH   6   7
ENDBRANCH   5   6
ENDBRANCH   4   5
ENDBRANCH   3   4
ENDBRANCH   2   3
ENDBRANCH   1   2
BRANCH   1  65
ATOM     65  O   UNL A   1      38.794  22.897  26.255  1.00  0.00    -0.376 OA
BRANCH  65  66
ATOM     66  C   UNL A   1      37.587  23.635  26.102  1.00  0.00     0.202 C 
BRANCH  66  67
ATOM     67  C   UNL A   1      36.513  23.092  25.136  1.00  0.00     0.261 C 
BRANCH  67  68
ATOM     68  O   UNL A   1      35.538  24.046  24.658  1.00  0.00    -0.463 OA
BRANCH  68  69
ATOM     69  C   UNL A   1      34.240  23.603  24.600  1.00  0.00     0.309 C 
ATOM     70  O   UNL A   1      33.906  22.440  24.459  1.00  0.00    -0.252 OA
BRANCH  69  71
ATOM     71  C   UNL A   1      33.239  24.755  24.659  1.00  0.00     0.108 C 
BRANCH  71  72
ATOM     72  C   UNL A   1      34.063  26.036  25.001  1.00  0.00     0.051 C 
BRANCH  72  73
ATOM     73  C   UNL A   1      33.281  27.234  25.517  1.00  0.00    -0.044 A 
ATOM     74  C   UNL A   1      33.483  28.471  24.921  1.00  0.00     0.004 A 
ATOM     75  C   UNL A   1      32.360  27.189  26.565  1.00  0.00     0.043 A 
ATOM     76  C   UNL A   1      32.953  29.653  25.437  1.00  0.00     0.003 A 
ATOM     77  C   UNL A   1      31.798  28.363  27.070  1.00  0.00     0.123 A 
ATOM     78  C   UNL A   1      32.106  29.601  26.530  1.00  0.00     0.039 A 
ATOM     79  F   UNL A   1      30.961  28.294  28.114  1.00  0.00    -0.207 F 
ENDBRANCH  72  73
ENDBRANCH  71  72
BRANCH  71  80
ATOM     80  C   UNL A   1      32.504  24.968  23.328  1.00  0.00     0.051 C 
BRANCH  80  81
ATOM     81  C   UNL A   1      31.303  25.854  23.214  1.00  0.00    -0.043 A 
ATOM     82  C   UNL A   1      30.155  25.640  23.988  1.00  0.00     0.004 A 
ATOM     83  C   UNL A   1      31.392  27.006  22.420  1.00  0.00     0.049 A 
ATOM     84  C   UNL A   1      29.123  26.583  23.979  1.00  0.00     0.004 A 
ATOM     85  C   UNL A   1      30.365  27.938  22.424  1.00  0.00     0.115 A 
ATOM     86  C   UNL A   1      29.231  27.738  23.201  1.00  0.00     0.046 A 
BRANCH  85  87
ATOM     87  O   UNL A   1      30.530  29.054  21.661  1.00  0.00    -0.508 OA
ATOM     88  H   UNL A   1      31.392  29.376  21.483  1.00  0.00     0.293 HD
ENDBRANCH  85  87
ENDBRANCH  80  81
ENDBRANCH  71  80
ENDBRANCH  69  71
ENDBRANCH  68  69
ENDBRANCH  67  68
ENDBRANCH  66  67
ENDBRANCH  65  66
ENDBRANCH   1  65
TORSDOF 22
ENDMDL
MODEL 3
REMARK VINA RESULT:     -10.6      1.381      2.903
REMARK SMILES O=C(OCCOCCOCCOC(=O)[C@H](Cc1cccc(O)c1)Cc1cccc(F)c1)c1ccc(-c2c3nc(c(-c4c(F)cccc4F)c4ccc([nH]4)c(-c4c(F)cccc4F)c4nc(c(-c5c(F)cccc5F)c5ccc2[nH]5)C=C4)C=C3)cc1
REMARK SMILES IDX 8 1 7 2 6 3 5 4 4 5 3 6 2 7 1 8 32 9 33 10 85 11 34 12 84 13
REMARK SMILES IDX 35 14 36 15 37 16 78 17 38 18 83 19 77 20 79 21 39 22 82 23
REMARK SMILES IDX 76 24 75 25 40 27 66 28 49 29 65 30 50 31 53 32 64 33 80 34
REMARK SMILES IDX 51 35 52 36 63 38 81 39 54 40 41 41 42 42 47 43 43 44 44 45
REMARK SMILES IDX 46 46 48 47 45 48 67 49 68 50 73 51 69 52 70 53 72 54 74 55
REMARK SMILES IDX 71 56 55 57 56 58 61 59 57 60 58 61 60 62 62 63 59 64 9 65
REMARK SMILES IDX 10 66 11 67 12 68 13 69 14 70 15 71 24 72 25 73 26 74 31 75
REMARK SMILES IDX 27 76 29 77 28 78 30 79 16 80 17 81 18 82 23 83 19 84 21 85
REMARK SMILES IDX 20 86 22 87
REMARK H PARENT 79 26 53 37 22 88
REMARK Flexibility Score: inf
ROOT
ATOM      1  C   UNL A   1      42.523  19.334  26.206  1.00  0.00     0.188 C 
ENDROOT
BRANCH   1   2
ATOM      2  C   UNL A   1      43.628  18.885  25.255  1.00  0.00     0.188 C 
BRANCH   2   3
ATOM      3  O   UNL A   1      44.186  19.950  24.484  1.00  0.00    -0.376 OA
BRANCH   3   4
ATOM      4  C   UNL A   1      45.478  20.380  24.922  1.00  0.00     0.202 C 
BRANCH   4   5
ATOM      5  C   UNL A   1      45.611  21.865  25.319  1.00  0.00     0.261 C 
BRANCH   5   6
ATOM      6  O   UNL A   1      44.497  22.407  26.061  1.00  0.00    -0.460 OA
BRANCH   6   7
ATOM      7  C   UNL A   1      43.578  23.336  25.694  1.00  0.00     0.338 C 
ATOM      8  O   UNL A   1      43.160  23.337  24.538  1.00  0.00    -0.246 OA
BRANCH   7   9
ATOM      9  C   UNL A   1      43.050  24.373  26.626  1.00  0.00     0.060 A 
ATOM     10  C   UNL A   1      43.532  25.674  26.687  1.00  0.00     0.016 A 
ATOM     11  C   UNL A   1      41.950  24.052  27.434  1.00  0.00     0.016 A 
ATOM     12  C   UNL A   1      43.060  26.594  27.605  1.00  0.00     0.010 A 
ATOM     13  C   UNL A   1      41.398  25.007  28.301  1.00  0.00     0.010 A 
ATOM     14  C   UNL A   1      41.979  26.281  28.415  1.00  0.00    -0.014 A 
BRANCH  14  15
ATOM     15  C   UNL A   1      41.592  27.239  29.472  1.00  0.00     0.031 A 
ATOM     16  C   UNL A   1      42.368  27.219  30.753  1.00  0.00     0.074 A 
ATOM     17  C   UNL A   1      40.735  28.255  29.244  1.00  0.00     0.049 A 
ATOM     18  N   UNL A   1      42.167  27.904  31.844  1.00  0.00    -0.248 NA
ATOM     19  C   UNL A   1      43.579  26.376  30.782  1.00  0.00     0.031 C 
ATOM     20  C   UNL A   1      40.184  28.629  27.941  1.00  0.00     0.029 A 
ATOM     21  N   UNL A   1      40.196  29.190  30.098  1.00  0.00    -0.354 N 
ATOM     22  C   UNL A   1      43.239  27.605  32.670  1.00  0.00     0.074 A 
ATOM     23  C   UNL A   1      44.060  26.633  31.988  1.00  0.00     0.031 C 
ATOM     24  C   UNL A   1      39.386  29.700  28.093  1.00  0.00     0.029 A 
ATOM     25  C   UNL A   1      39.227  29.964  29.502  1.00  0.00     0.049 A 
ATOM     26  H   UNL A   1      40.475  29.294  31.035  1.00  0.00     0.167 HD
ATOM     27  C   UNL A   1      43.521  28.137  33.879  1.00  0.00     0.037 A 
ATOM     28  C   UNL A   1      38.253  30.721  30.039  1.00  0.00     0.037 A 
ATOM     29  C   UNL A   1      42.690  29.115  34.525  1.00  0.00     0.049 A 
ATOM     30  C   UNL A   1      38.341  30.998  31.496  1.00  0.00     0.074 A 
ATOM     31  C   UNL A   1      42.849  29.690  35.771  1.00  0.00     0.029 A 
ATOM     32  N   UNL A   1      41.539  29.660  33.971  1.00  0.00    -0.354 N 
ATOM     33  N   UNL A   1      39.271  30.610  32.330  1.00  0.00    -0.248 NA
ATOM     34  C   UNL A   1      37.317  31.874  32.069  1.00  0.00     0.031 C 
ATOM     35  C   UNL A   1      41.756  30.529  36.001  1.00  0.00     0.029 A 
ATOM     36  C   UNL A   1      40.948  30.527  34.873  1.00  0.00     0.049 A 
ATOM     37  H   UNL A   1      41.193  29.458  33.072  1.00  0.00     0.167 HD
ATOM     38  C   UNL A   1      38.998  31.261  33.514  1.00  0.00     0.074 A 
ATOM     39  C   UNL A   1      37.785  32.030  33.301  1.00  0.00     0.031 C 
ATOM     40  C   UNL A   1      39.729  31.262  34.652  1.00  0.00     0.037 A 
BRANCH  27  41
ATOM     41  C   UNL A   1      44.740  27.638  34.588  1.00  0.00     0.057 A 
ATOM     42  C   UNL A   1      44.657  26.521  35.426  1.00  0.00     0.134 A 
ATOM     43  C   UNL A   1      45.982  28.276  34.477  1.00  0.00     0.134 A 
ATOM     44  F   UNL A   1      43.498  25.858  35.560  1.00  0.00    -0.206 F 
ATOM     45  C   UNL A   1      45.759  26.067  36.150  1.00  0.00     0.040 A 
ATOM     46  C   UNL A   1      47.099  27.819  35.180  1.00  0.00     0.040 A 
ATOM     47  F   UNL A   1      46.137  29.331  33.663  1.00  0.00    -0.206 F 
ATOM     48  C   UNL A   1      46.985  26.719  36.029  1.00  0.00     0.006 A 
ENDBRANCH  27  41
BRANCH  28  49
ATOM     49  C   UNL A   1      37.097  31.189  29.233  1.00  0.00     0.057 A 
ATOM     50  C   UNL A   1      36.060  30.303  28.907  1.00  0.00     0.134 A 
ATOM     51  C   UNL A   1      36.979  32.502  28.779  1.00  0.00     0.134 A 
ATOM     52  F   UNL A   1      36.059  29.058  29.404  1.00  0.00    -0.206 F 
ATOM     53  C   UNL A   1      34.990  30.683  28.092  1.00  0.00     0.040 A 
ATOM     54  C   UNL A   1      35.895  32.908  27.994  1.00  0.00     0.040 A 
ATOM     55  F   UNL A   1      37.906  33.413  29.107  1.00  0.00    -0.206 F 
ATOM     56  C   UNL A   1      34.909  31.992  27.629  1.00  0.00     0.006 A 
ENDBRANCH  28  49
BRANCH  40  57
ATOM     57  C   UNL A   1      39.252  32.158  35.745  1.00  0.00     0.057 A 
ATOM     58  C   UNL A   1      38.287  31.704  36.652  1.00  0.00     0.134 A 
ATOM     59  C   UNL A   1      39.710  33.472  35.871  1.00  0.00     0.134 A 
ATOM     60  F   UNL A   1      37.817  30.449  36.579  1.00  0.00    -0.206 F 
ATOM     61  C   UNL A   1      37.774  32.540  37.639  1.00  0.00     0.040 A 
ATOM     62  C   UNL A   1      39.228  34.308  36.876  1.00  0.00     0.040 A 
ATOM     63  F   UNL A   1      40.654  33.946  35.045  1.00  0.00    -0.206 F 
ATOM     64  C   UNL A   1      38.248  33.846  37.754  1.00  0.00     0.006 A 
ENDBRANCH  40  57
ENDBRANCH  14  15
ENDBRANCH   7   9
ENDBRANCH   6   7
ENDBRANCH   5   6
ENDBRANCH   4   5
ENDBRANCH   3   4
ENDBRANCH   2   3
ENDBRANCH   1   2
BRANCH   1  65
ATOM     65  O   UNL A   1      41.647  20.348  25.734  1.00  0.00    -0.376 OA
BRANCH  65  66
ATOM     66  C   UNL A   1      40.387  20.451  26.387  1.00  0.00     0.202 C 
BRANCH  66  67
ATOM     67  C   UNL A   1      39.617  21.784  26.288  1.00  0.00     0.261 C 
BRANCH  67  68
ATOM     68  O   UNL A   1      38.310  21.727  25.673  1.00  0.00    -0.463 OA
BRANCH  68  69
ATOM     69  C   UNL A   1      37.531  22.849  25.805  1.00  0.00     0.309 C 
ATOM     70  O   UNL A   1      37.809  23.812  26.498  1.00  0.00    -0.252 OA
BRANCH  69  71
ATOM     71  C   UNL A   1      36.218  22.729  25.034  1.00  0.00     0.108 C 
BRANCH  71  72
ATOM     72  C   UNL A   1      35.276  21.843  25.906  1.00  0.00     0.051 C 
BRANCH  72  73
ATOM     73  C   UNL A   1      34.604  20.670  25.211  1.00  0.00    -0.044 A 
ATOM     74  C   UNL A   1      33.303  20.820  24.751  1.00  0.00     0.004 A 
ATOM     75  C   UNL A   1      35.202  19.426  24.997  1.00  0.00     0.043 A 
ATOM     76  C   UNL A   1      32.546  19.753  24.267  1.00  0.00     0.003 A 
ATOM     77  C   UNL A   1      34.462  18.359  24.484  1.00  0.00     0.123 A 
ATOM     78  C   UNL A   1      33.128  18.505  24.139  1.00  0.00     0.039 A 
ATOM     79  F   UNL A   1      35.048  17.162  24.343  1.00  0.00    -0.207 F 
ENDBRANCH  72  73
ENDBRANCH  71  72
BRANCH  71  80
ATOM     80  C   UNL A   1      35.551  24.089  24.789  1.00  0.00     0.051 C 
BRANCH  80  81
ATOM     81  C   UNL A   1      34.201  24.211  24.153  1.00  0.00    -0.043 A 
ATOM     82  C   UNL A   1      33.053  24.483  24.908  1.00  0.00     0.004 A 
ATOM     83  C   UNL A   1      34.115  24.197  22.753  1.00  0.00     0.049 A 
ATOM     84  C   UNL A   1      31.844  24.758  24.265  1.00  0.00     0.004 A 
ATOM     85  C   UNL A   1      32.911  24.478  22.125  1.00  0.00     0.115 A 
ATOM     86  C   UNL A   1      31.773  24.762  22.869  1.00  0.00     0.046 A 
BRANCH  85  87
ATOM     87  O   UNL A   1      32.903  24.485  20.763  1.00  0.00    -0.508 OA
ATOM     88  H   UNL A   1      33.648  24.806  20.292  1.00  0.00     0.293 HD
ENDBRANCH  85  87
ENDBRANCH  80  81
ENDBRANCH  71  80
ENDBRANCH  69  71
ENDBRANCH  68  69
ENDBRANCH  67  68
ENDBRANCH  66  67
ENDBRANCH  65  66
ENDBRANCH   1  65
TORSDOF 22
ENDMDL
