MODEL 1
REMARK VINA RESULT:     -11.6      0.000      0.000
REMARK SMILES COc1ccc(-n2c(SCc3cn(-c4ccc(C(=O)OCCOCCOCCOC(=O)c5ccc(-c6c7nc(c(-c8c(F)cccc8F)c8ccc([nH]8)c(-c8c(F)cccc8F)c8nc(c(-c9c(F)cccc9F)c9ccc6[nH]9)C=C8)C=C7)cc5)cc4)nn3)nc3ccccc3c2=O)cc1
REMARK SMILES IDX 22 1 21 2 20 3 18 4 19 5 17 6 14 7 15 8 87 9 16 10 86 11
REMARK SMILES IDX 13 12 11 13 12 14 89 15 88 16 10 17 9 18 8 19 7 20 97 21
REMARK SMILES IDX 90 22 96 23 98 24 91 25 95 26 92 27 94 28 93 29 6 30 3 31
REMARK SMILES IDX 4 32 100 33 5 34 99 35 2 36 1 37 23 38 24 39 25 40 26 41
REMARK SMILES IDX 27 42 28 43 29 44 30 45 31 46 32 47 33 48 85 49 34 50 84 51
REMARK SMILES IDX 35 52 36 53 37 54 78 55 38 56 83 57 77 58 79 59 39 60 82 61
REMARK SMILES IDX 76 62 75 63 40 65 66 66 49 67 65 68 50 69 53 70 64 71 80 72
REMARK SMILES IDX 51 73 52 74 63 76 81 77 54 78 41 79 42 80 47 81 43 82 44 83
REMARK SMILES IDX 46 84 48 85 45 86 67 87 68 88 73 89 69 90 70 91 72 92 74 93
REMARK SMILES IDX 71 94 55 95 56 96 61 97 57 98 58 99 60 100 62 101 59 102
REMARK H PARENT 79 64 53 75
REMARK Flexibility Score: inf
ROOT
ATOM      1  C   UNL A   1      33.272  37.511  31.468  1.00  0.00     0.202 C 
ENDROOT
BRANCH   1   2
ATOM      2  C   UNL A   1      32.591  36.269  30.864  1.00  0.00     0.261 C 
BRANCH   2   3
ATOM      3  O   UNL A   1      33.436  35.264  30.326  1.00  0.00    -0.460 OA
BRANCH   3   4
ATOM      4  C   UNL A   1      33.635  35.320  28.984  1.00  0.00     0.338 C 
ATOM      5  O   UNL A   1      33.913  36.278  28.310  1.00  0.00    -0.246 OA
BRANCH   4   6
ATOM      6  C   UNL A   1      33.650  33.927  28.500  1.00  0.00     0.060 A 
ATOM      7  C   UNL A   1      33.679  31.376  27.484  1.00  0.00     0.066 A 
ATOM      8  C   UNL A   1      32.576  32.190  27.215  1.00  0.00     0.029 A 
ATOM      9  C   UNL A   1      34.789  31.842  28.200  1.00  0.00     0.029 A 
ATOM     10  C   UNL A   1      32.548  33.465  27.765  1.00  0.00     0.018 A 
ATOM     11  C   UNL A   1      34.783  33.132  28.693  1.00  0.00     0.018 A 
BRANCH   7  12
ATOM     12  N   UNL A   1      33.669  30.039  27.090  1.00  0.00    -0.220 N 
ATOM     13  C   UNL A   1      33.045  28.045  26.556  1.00  0.00     0.093 A 
ATOM     14  C   UNL A   1      32.553  29.271  26.904  1.00  0.00     0.141 A 
ATOM     15  N   UNL A   1      34.414  28.108  26.538  1.00  0.00    -0.134 NA
ATOM     16  N   UNL A   1      34.780  29.353  26.784  1.00  0.00    -0.062 NA
BRANCH  13  17
ATOM     17  C   UNL A   1      32.280  26.841  26.209  1.00  0.00     0.138 C 
BRANCH  17  18
ATOM     18  S   UNL A   1      33.313  25.473  25.746  1.00  0.00    -0.081 SA
BRANCH  18  19
ATOM     19  C   UNL A   1      33.194  25.425  23.938  1.00  0.00     0.176 A 
ATOM     20  N   UNL A   1      31.947  25.038  23.475  1.00  0.00    -0.255 N 
ATOM     21  C   UNL A   1      31.787  23.685  23.192  1.00  0.00     0.266 A 
ATOM     22  N   UNL A   1      34.255  24.931  23.370  1.00  0.00    -0.223 NA
ATOM     23  C   UNL A   1      32.994  22.862  23.525  1.00  0.00     0.066 A 
ATOM     24  O   UNL A   1      30.776  23.146  22.757  1.00  0.00    -0.268 OA
ATOM     25  C   UNL A   1      34.234  23.531  23.529  1.00  0.00     0.079 A 
ATOM     26  C   UNL A   1      32.878  21.593  24.084  1.00  0.00     0.016 A 
ATOM     27  C   UNL A   1      35.371  22.908  24.039  1.00  0.00     0.029 A 
ATOM     28  C   UNL A   1      34.006  21.009  24.669  1.00  0.00     0.001 A 
ATOM     29  C   UNL A   1      35.249  21.655  24.634  1.00  0.00     0.002 A 
BRANCH  20  30
ATOM     30  C   UNL A   1      30.963  26.015  23.164  1.00  0.00     0.052 A 
ATOM     31  C   UNL A   1      29.310  28.280  23.164  1.00  0.00     0.119 A 
ATOM     32  C   UNL A   1      30.455  28.261  22.372  1.00  0.00     0.048 A 
ATOM     33  C   UNL A   1      28.914  27.123  23.834  1.00  0.00     0.048 A 
ATOM     34  C   UNL A   1      31.297  27.141  22.396  1.00  0.00     0.030 A 
ATOM     35  C   UNL A   1      29.720  25.977  23.803  1.00  0.00     0.030 A 
BRANCH  31  36
ATOM     36  O   UNL A   1      28.566  29.427  23.202  1.00  0.00    -0.497 OA
ATOM     37  C   UNL A   1      27.227  29.233  22.737  1.00  0.00     0.278 C 
ENDBRANCH  31  36
ENDBRANCH  20  30
ENDBRANCH  18  19
ENDBRANCH  17  18
ENDBRANCH  13  17
ENDBRANCH   7  12
ENDBRANCH   4   6
ENDBRANCH   3   4
ENDBRANCH   2   3
ENDBRANCH   1   2
BRANCH   1  38
ATOM     38  O   UNL A   1      34.082  37.553  32.631  1.00  0.00    -0.376 OA
BRANCH  38  39
ATOM     39  C   UNL A   1      33.981  36.589  33.654  1.00  0.00     0.188 C 
BRANCH  39  40
ATOM     40  C   UNL A   1      34.918  35.366  33.631  1.00  0.00     0.188 C 
BRANCH  40  41
ATOM     41  O   UNL A   1      34.379  34.075  33.812  1.00  0.00    -0.376 OA
BRANCH  41  42
ATOM     42  C   UNL A   1      34.534  33.033  32.866  1.00  0.00     0.202 C 
BRANCH  42  43
ATOM     43  C   UNL A   1      35.727  32.085  32.744  1.00  0.00     0.261 C 
BRANCH  43  44
ATOM     44  O   UNL A   1      36.166  31.764  31.444  1.00  0.00    -0.460 OA
BRANCH  44  45
ATOM     45  C   UNL A   1      37.335  32.347  31.115  1.00  0.00     0.338 C 
ATOM     46  O   UNL A   1      37.646  33.518  31.249  1.00  0.00    -0.246 OA
BRANCH  45  47
ATOM     47  C   UNL A   1      38.166  31.358  30.436  1.00  0.00     0.060 A 
ATOM     48  C   UNL A   1      37.690  30.048  30.393  1.00  0.00     0.016 A 
ATOM     49  C   UNL A   1      39.504  31.688  30.182  1.00  0.00     0.016 A 
ATOM     50  C   UNL A   1      38.611  29.031  30.307  1.00  0.00     0.010 A 
ATOM     51  C   UNL A   1      40.424  30.673  30.130  1.00  0.00     0.010 A 
ATOM     52  C   UNL A   1      39.970  29.365  30.276  1.00  0.00    -0.014 A 
BRANCH  52  53
ATOM     53  C   UNL A   1      40.937  28.290  30.286  1.00  0.00     0.031 A 
ATOM     54  C   UNL A   1      41.540  28.115  31.621  1.00  0.00     0.074 A 
ATOM     55  C   UNL A   1      41.134  27.501  29.213  1.00  0.00     0.049 A 
ATOM     56  N   UNL A   1      42.755  28.368  31.968  1.00  0.00    -0.248 NA
ATOM     57  C   UNL A   1      40.641  27.825  32.752  1.00  0.00     0.031 C 
ATOM     58  C   UNL A   1      40.349  27.477  27.973  1.00  0.00     0.029 A 
ATOM     59  N   UNL A   1      42.014  26.474  29.037  1.00  0.00    -0.354 N 
ATOM     60  C   UNL A   1      42.827  28.011  33.312  1.00  0.00     0.074 A 
ATOM     61  C   UNL A   1      41.476  27.931  33.786  1.00  0.00     0.031 C 
ATOM     62  C   UNL A   1      40.638  26.353  27.280  1.00  0.00     0.029 A 
ATOM     63  C   UNL A   1      41.717  25.652  27.954  1.00  0.00     0.049 A 
ATOM     64  H   UNL A   1      42.791  26.328  29.624  1.00  0.00     0.167 HD
ATOM     65  C   UNL A   1      43.968  27.456  33.800  1.00  0.00     0.037 A 
ATOM     66  C   UNL A   1      42.294  24.457  27.672  1.00  0.00     0.037 A 
ATOM     67  C   UNL A   1      45.069  27.700  32.902  1.00  0.00     0.049 A 
ATOM     68  C   UNL A   1      43.578  24.396  28.405  1.00  0.00     0.074 A 
ATOM     69  C   UNL A   1      45.858  28.774  32.554  1.00  0.00     0.029 A 
ATOM     70  N   UNL A   1      45.189  26.762  31.912  1.00  0.00    -0.354 N 
ATOM     71  N   UNL A   1      44.613  25.126  28.102  1.00  0.00    -0.248 NA
ATOM     72  C   UNL A   1      43.621  23.767  29.722  1.00  0.00     0.031 C 
ATOM     73  C   UNL A   1      46.339  28.504  31.239  1.00  0.00     0.029 A 
ATOM     74  C   UNL A   1      45.866  27.258  30.833  1.00  0.00     0.049 A 
ATOM     75  H   UNL A   1      44.831  25.847  31.968  1.00  0.00     0.167 HD
ATOM     76  C   UNL A   1      45.200  25.403  29.320  1.00  0.00     0.074 A 
ATOM     77  C   UNL A   1      44.673  24.405  30.241  1.00  0.00     0.031 C 
ATOM     78  C   UNL A   1      45.788  26.613  29.542  1.00  0.00     0.037 A 
BRANCH  65  79
ATOM     79  C   UNL A   1      43.994  26.273  34.750  1.00  0.00     0.057 A 
ATOM     80  C   UNL A   1      44.574  26.450  36.021  1.00  0.00     0.134 A 
ATOM     81  C   UNL A   1      43.783  24.927  34.381  1.00  0.00     0.134 A 
ATOM     82  F   UNL A   1      44.835  27.679  36.493  1.00  0.00    -0.206 F 
ATOM     83  C   UNL A   1      44.985  25.375  36.819  1.00  0.00     0.040 A 
ATOM     84  C   UNL A   1      44.148  23.848  35.192  1.00  0.00     0.040 A 
ATOM     85  F   UNL A   1      43.311  24.562  33.185  1.00  0.00    -0.206 F 
ATOM     86  C   UNL A   1      44.782  24.068  36.401  1.00  0.00     0.006 A 
ENDBRANCH  65  79
BRANCH  66  87
ATOM     87  C   UNL A   1      41.742  23.268  26.985  1.00  0.00     0.057 A 
ATOM     88  C   UNL A   1      42.572  22.402  26.256  1.00  0.00     0.134 A 
ATOM     89  C   UNL A   1      40.453  22.791  27.273  1.00  0.00     0.134 A 
ATOM     90  F   UNL A   1      43.831  22.755  25.957  1.00  0.00    -0.206 F 
ATOM     91  C   UNL A   1      42.160  21.120  25.874  1.00  0.00     0.040 A 
ATOM     92  C   UNL A   1      40.027  21.514  26.891  1.00  0.00     0.040 A 
ATOM     93  F   UNL A   1      39.599  23.513  28.014  1.00  0.00    -0.206 F 
ATOM     94  C   UNL A   1      40.888  20.665  26.206  1.00  0.00     0.006 A 
ENDBRANCH  66  87
BRANCH  78  95
ATOM     95  C   UNL A   1      46.231  27.387  28.340  1.00  0.00     0.057 A 
ATOM     96  C   UNL A   1      47.452  27.200  27.678  1.00  0.00     0.134 A 
ATOM     97  C   UNL A   1      45.338  28.311  27.789  1.00  0.00     0.134 A 
ATOM     98  F   UNL A   1      48.335  26.283  28.096  1.00  0.00    -0.206 F 
ATOM     99  C   UNL A   1      47.781  27.934  26.535  1.00  0.00     0.040 A 
ATOM    100  C   UNL A   1      45.639  29.024  26.629  1.00  0.00     0.040 A 
ATOM    101  F   UNL A   1      44.137  28.509  28.354  1.00  0.00    -0.206 F 
ATOM    102  C   UNL A   1      46.870  28.844  26.004  1.00  0.00     0.006 A 
ENDBRANCH  78  95
ENDBRANCH  52  53
ENDBRANCH  45  47
ENDBRANCH  44  45
ENDBRANCH  43  44
ENDBRANCH  42  43
ENDBRANCH  41  42
ENDBRANCH  40  41
ENDBRANCH  39  40
ENDBRANCH  38  39
ENDBRANCH   1  38
TORSDOF 23
ENDMDL
MODEL 2
REMARK VINA RESULT:     -10.7      2.197      6.337
REMARK SMILES COc1ccc(-n2c(SCc3cn(-c4ccc(C(=O)OCCOCCOCCOC(=O)c5ccc(-c6c7nc(c(-c8c(F)cccc8F)c8ccc([nH]8)c(-c8c(F)cccc8F)c8nc(c(-c9c(F)cccc9F)c9ccc6[nH]9)C=C8)C=C7)cc5)cc4)nn3)nc3ccccc3c2=O)cc1
REMARK SMILES IDX 22 1 21 2 20 3 18 4 19 5 17 6 14 7 15 8 87 9 16 10 86 11
REMARK SMILES IDX 13 12 11 13 12 14 89 15 88 16 10 17 9 18 8 19 7 20 97 21
REMARK SMILES IDX 90 22 96 23 98 24 91 25 95 26 92 27 94 28 93 29 6 30 3 31
REMARK SMILES IDX 4 32 100 33 5 34 99 35 2 36 1 37 23 38 24 39 25 40 26 41
REMARK SMILES IDX 27 42 28 43 29 44 30 45 31 46 32 47 33 48 85 49 34 50 84 51
REMARK SMILES IDX 35 52 36 53 37 54 78 55 38 56 83 57 77 58 79 59 39 60 82 61
REMARK SMILES IDX 76 62 75 63 40 65 66 66 49 67 65 68 50 69 53 70 64 71 80 72
REMARK SMILES IDX 51 73 52 74 63 76 81 77 54 78 41 79 42 80 47 81 43 82 44 83
REMARK SMILES IDX 46 84 48 85 45 86 67 87 68 88 73 89 69 90 70 91 72 92 74 93
REMARK SMILES IDX 71 94 55 95 56 96 61 97 57 98 58 99 60 100 62 101 59 102
REMARK H PARENT 79 64 53 75
REMARK Flexibility Score: inf
ROOT
ATOM      1  C   UNL A   1      35.567  35.273  32.625  1.00  0.00     0.202 C 
ENDROOT
BRANCH   1   2
ATOM      2  C   UNL A   1      35.890  34.157  31.614  1.00  0.00     0.261 C 
BRANCH   2   3
ATOM      3  O   UNL A   1      35.425  34.333  30.285  1.00  0.00    -0.460 OA
BRANCH   3   4
ATOM      4  C   UNL A   1      36.255  33.887  29.307  1.00  0.00     0.338 C 
ATOM      5  O   UNL A   1      37.377  34.246  29.061  1.00  0.00    -0.246 OA
BRANCH   4   6
ATOM      6  C   UNL A   1      35.601  32.712  28.701  1.00  0.00     0.060 A 
ATOM      7  C   UNL A   1      34.353  30.597  27.475  1.00  0.00     0.066 A 
ATOM      8  C   UNL A   1      33.579  31.689  27.875  1.00  0.00     0.029 A 
ATOM      9  C   UNL A   1      35.745  30.578  27.626  1.00  0.00     0.029 A 
ATOM     10  C   UNL A   1      34.209  32.739  28.530  1.00  0.00     0.018 A 
ATOM     11  C   UNL A   1      36.375  31.651  28.224  1.00  0.00     0.018 A 
BRANCH   7  12
ATOM     12  N   UNL A   1      33.734  29.456  26.966  1.00  0.00    -0.220 N 
ATOM     13  C   UNL A   1      33.361  27.496  26.146  1.00  0.00     0.093 A 
ATOM     14  C   UNL A   1      34.366  28.297  26.610  1.00  0.00     0.141 A 
ATOM     15  N   UNL A   1      32.176  28.178  26.238  1.00  0.00    -0.134 NA
ATOM     16  N   UNL A   1      32.405  29.343  26.818  1.00  0.00    -0.062 NA
BRANCH  13  17
ATOM     17  C   UNL A   1      33.471  26.115  25.659  1.00  0.00     0.138 C 
BRANCH  17  18
ATOM     18  S   UNL A   1      32.065  25.118  26.081  1.00  0.00    -0.081 SA
BRANCH  18  19
ATOM     19  C   UNL A   1      31.824  24.060  24.629  1.00  0.00     0.176 A 
ATOM     20  N   UNL A   1      32.876  24.109  23.728  1.00  0.00    -0.255 N 
ATOM     21  C   UNL A   1      32.749  25.014  22.679  1.00  0.00     0.266 A 
ATOM     22  N   UNL A   1      30.607  24.089  24.172  1.00  0.00    -0.223 NA
ATOM     23  C   UNL A   1      31.507  25.850  22.763  1.00  0.00     0.066 A 
ATOM     24  O   UNL A   1      33.552  25.197  21.772  1.00  0.00    -0.268 OA
ATOM     25  C   UNL A   1      30.421  25.298  23.473  1.00  0.00     0.079 A 
ATOM     26  C   UNL A   1      31.513  27.199  22.424  1.00  0.00     0.016 A 
ATOM     27  C   UNL A   1      29.315  26.082  23.792  1.00  0.00     0.029 A 
ATOM     28  C   UNL A   1      30.435  27.998  22.821  1.00  0.00     0.001 A 
ATOM     29  C   UNL A   1      29.336  27.441  23.487  1.00  0.00     0.002 A 
BRANCH  20  30
ATOM     30  C   UNL A   1      33.933  23.162  23.808  1.00  0.00     0.052 A 
ATOM     31  C   UNL A   1      36.005  21.495  24.696  1.00  0.00     0.119 A 
ATOM     32  C   UNL A   1      34.712  20.992  24.592  1.00  0.00     0.048 A 
ATOM     33  C   UNL A   1      36.290  22.774  24.218  1.00  0.00     0.048 A 
ATOM     34  C   UNL A   1      33.671  21.834  24.178  1.00  0.00     0.030 A 
ATOM     35  C   UNL A   1      35.260  23.595  23.737  1.00  0.00     0.030 A 
BRANCH  31  36
ATOM     36  O   UNL A   1      36.980  20.682  25.204  1.00  0.00    -0.497 OA
ATOM     37  C   UNL A   1      38.230  21.355  25.372  1.00  0.00     0.278 C 
ENDBRANCH  31  36
ENDBRANCH  20  30
ENDBRANCH  18  19
ENDBRANCH  17  18
ENDBRANCH  13  17
ENDBRANCH   7  12
ENDBRANCH   4   6
ENDBRANCH   3   4
ENDBRANCH   2   3
ENDBRANCH   1   2
BRANCH   1  38
ATOM     38  O   UNL A   1      35.395  35.125  34.025  1.00  0.00    -0.376 OA
BRANCH  38  39
ATOM     39  C   UNL A   1      35.688  33.920  34.696  1.00  0.00     0.188 C 
BRANCH  39  40
ATOM     40  C   UNL A   1      37.143  33.622  35.106  1.00  0.00     0.188 C 
BRANCH  40  41
ATOM     41  O   UNL A   1      37.953  32.831  34.267  1.00  0.00    -0.376 OA
BRANCH  41  42
ATOM     42  C   UNL A   1      38.263  31.477  34.544  1.00  0.00     0.202 C 
BRANCH  42  43
ATOM     43  C   UNL A   1      38.458  30.359  33.520  1.00  0.00     0.261 C 
BRANCH  43  44
ATOM     44  O   UNL A   1      37.300  29.713  33.042  1.00  0.00    -0.460 OA
BRANCH  44  45
ATOM     45  C   UNL A   1      36.950  30.095  31.799  1.00  0.00     0.338 C 
ATOM     46  O   UNL A   1      35.972  30.744  31.468  1.00  0.00    -0.246 OA
BRANCH  45  47
ATOM     47  C   UNL A   1      37.883  29.493  30.852  1.00  0.00     0.060 A 
ATOM     48  C   UNL A   1      38.242  28.163  31.072  1.00  0.00     0.016 A 
ATOM     49  C   UNL A   1      38.611  30.347  30.014  1.00  0.00     0.016 A 
ATOM     50  C   UNL A   1      39.469  27.744  30.615  1.00  0.00     0.010 A 
ATOM     51  C   UNL A   1      39.849  29.938  29.588  1.00  0.00     0.010 A 
ATOM     52  C   UNL A   1      40.290  28.673  29.967  1.00  0.00    -0.014 A 
BRANCH  52  53
ATOM     53  C   UNL A   1      41.618  28.255  29.577  1.00  0.00     0.031 A 
ATOM     54  C   UNL A   1      41.588  26.985  28.826  1.00  0.00     0.074 A 
ATOM     55  C   UNL A   1      42.700  29.027  29.791  1.00  0.00     0.049 A 
ATOM     56  N   UNL A   1      42.024  25.836  29.216  1.00  0.00    -0.248 NA
ATOM     57  C   UNL A   1      40.795  26.935  27.585  1.00  0.00     0.031 C 
ATOM     58  C   UNL A   1      42.717  30.412  30.280  1.00  0.00     0.029 A 
ATOM     59  N   UNL A   1      44.013  28.782  29.521  1.00  0.00    -0.354 N 
ATOM     60  C   UNL A   1      41.790  24.980  28.144  1.00  0.00     0.074 A 
ATOM     61  C   UNL A   1      40.831  25.633  27.301  1.00  0.00     0.031 C 
ATOM     62  C   UNL A   1      43.937  30.950  30.058  1.00  0.00     0.029 A 
ATOM     63  C   UNL A   1      44.818  29.917  29.540  1.00  0.00     0.049 A 
ATOM     64  H   UNL A   1      44.361  27.881  29.328  1.00  0.00     0.167 HD
ATOM     65  C   UNL A   1      42.679  23.990  27.867  1.00  0.00     0.037 A 
ATOM     66  C   UNL A   1      46.103  29.997  29.113  1.00  0.00     0.037 A 
ATOM     67  C   UNL A   1      43.537  23.754  29.002  1.00  0.00     0.049 A 
ATOM     68  C   UNL A   1      46.646  28.622  29.068  1.00  0.00     0.074 A 
ATOM     69  C   UNL A   1      43.418  23.164  30.241  1.00  0.00     0.029 A 
ATOM     70  N   UNL A   1      44.641  24.564  29.035  1.00  0.00    -0.354 N 
ATOM     71  N   UNL A   1      46.897  27.914  30.133  1.00  0.00    -0.248 NA
ATOM     72  C   UNL A   1      46.592  27.871  27.818  1.00  0.00     0.031 C 
ATOM     73  C   UNL A   1      44.411  23.769  31.067  1.00  0.00     0.029 A 
ATOM     74  C   UNL A   1      45.136  24.683  30.304  1.00  0.00     0.049 A 
ATOM     75  H   UNL A   1      45.029  25.006  28.246  1.00  0.00     0.167 HD
ATOM     76  C   UNL A   1      46.592  26.621  29.759  1.00  0.00     0.074 A 
ATOM     77  C   UNL A   1      46.596  26.626  28.303  1.00  0.00     0.031 C 
ATOM     78  C   UNL A   1      46.034  25.759  30.656  1.00  0.00     0.037 A 
BRANCH  65  79
ATOM     79  C   UNL A   1      43.140  23.634  26.466  1.00  0.00     0.057 A 
ATOM     80  C   UNL A   1      43.033  22.293  26.050  1.00  0.00     0.134 A 
ATOM     81  C   UNL A   1      43.954  24.442  25.645  1.00  0.00     0.134 A 
ATOM     82  F   UNL A   1      42.293  21.413  26.744  1.00  0.00    -0.206 F 
ATOM     83  C   UNL A   1      43.745  21.782  24.957  1.00  0.00     0.040 A 
ATOM     84  C   UNL A   1      44.632  23.953  24.525  1.00  0.00     0.040 A 
ATOM     85  F   UNL A   1      44.231  25.720  25.921  1.00  0.00    -0.206 F 
ATOM     86  C   UNL A   1      44.557  22.611  24.195  1.00  0.00     0.006 A 
ENDBRANCH  65  79
BRANCH  66  87
ATOM     87  C   UNL A   1      46.850  31.138  28.539  1.00  0.00     0.057 A 
ATOM     88  C   UNL A   1      48.118  31.492  29.024  1.00  0.00     0.134 A 
ATOM     89  C   UNL A   1      46.473  31.717  27.316  1.00  0.00     0.134 A 
ATOM     90  F   UNL A   1      48.580  30.970  30.169  1.00  0.00    -0.206 F 
ATOM     91  C   UNL A   1      48.980  32.336  28.313  1.00  0.00     0.040 A 
ATOM     92  C   UNL A   1      47.322  32.566  26.598  1.00  0.00     0.040 A 
ATOM     93  F   UNL A   1      45.306  31.402  26.733  1.00  0.00    -0.206 F 
ATOM     94  C   UNL A   1      48.589  32.863  27.086  1.00  0.00     0.006 A 
ENDBRANCH  66  87
BRANCH  78  95
ATOM     95  C   UNL A   1      46.242  26.055  32.108  1.00  0.00     0.057 A 
ATOM     96  C   UNL A   1      47.422  25.788  32.815  1.00  0.00     0.134 A 
ATOM     97  C   UNL A   1      45.218  26.713  32.797  1.00  0.00     0.134 A 
ATOM     98  F   UNL A   1      48.480  25.227  32.213  1.00  0.00    -0.206 F 
ATOM     99  C   UNL A   1      47.558  26.131  34.163  1.00  0.00     0.040 A 
ATOM    100  C   UNL A   1      45.354  27.092  34.131  1.00  0.00     0.040 A 
ATOM    101  F   UNL A   1      44.076  27.031  32.166  1.00  0.00    -0.206 F 
ATOM    102  C   UNL A   1      46.524  26.791  34.823  1.00  0.00     0.006 A 
ENDBRANCH  78  95
ENDBRANCH  52  53
ENDBRANCH  45  47
ENDBRANCH  44  45
ENDBRANCH  43  44
ENDBRANCH  42  43
ENDBRANCH  41  42
ENDBRANCH  40  41
ENDBRANCH  39  40
ENDBRANCH  38  39
ENDBRANCH   1  38
TORSDOF 23
ENDMDL
MODEL 3
REMARK VINA RESULT:     -10.6      1.894      3.698
REMARK SMILES COc1ccc(-n2c(SCc3cn(-c4ccc(C(=O)OCCOCCOCCOC(=O)c5ccc(-c6c7nc(c(-c8c(F)cccc8F)c8ccc([nH]8)c(-c8c(F)cccc8F)c8nc(c(-c9c(F)cccc9F)c9ccc6[nH]9)C=C8)C=C7)cc5)cc4)nn3)nc3ccccc3c2=O)cc1
REMARK SMILES IDX 22 1 21 2 20 3 18 4 19 5 17 6 14 7 15 8 87 9 16 10 86 11
REMARK SMILES IDX 13 12 11 13 12 14 89 15 88 16 10 17 9 18 8 19 7 20 97 21
REMARK SMILES IDX 90 22 96 23 98 24 91 25 95 26 92 27 94 28 93 29 6 30 3 31
REMARK SMILES IDX 4 32 100 33 5 34 99 35 2 36 1 37 23 38 24 39 25 40 26 41
REMARK SMILES IDX 27 42 28 43 29 44 30 45 31 46 32 47 33 48 85 49 34 50 84 51
REMARK SMILES IDX 35 52 36 53 37 54 78 55 38 56 83 57 77 58 79 59 39 60 82 61
REMARK SMILES IDX 76 62 75 63 40 65 66 66 49 67 65 68 50 69 53 70 64 71 80 72
REMARK SMILES IDX 51 73 52 74 63 76 81 77 54 78 41 79 42 80 47 81 43 82 44 83
REMARK SMILES IDX 46 84 48 85 45 86 67 87 68 88 73 89 69 90 70 91 72 92 74 93
REMARK SMILES IDX 71 94 55 95 56 96 61 97 57 98 58 99 60 100 62 101 59 102
REMARK H PARENT 79 64 53 75
REMARK Flexibility Score: inf
ROOT
ATOM      1  C   UNL A   1      33.791  34.384  30.577  1.00  0.00     0.202 C 
ENDROOT
BRANCH   1   2
ATOM      2  C   UNL A   1      35.152  34.482  29.865  1.00  0.00     0.261 C 
BRANCH   2   3
ATOM      3  O   UNL A   1      35.229  33.975  28.542  1.00  0.00    -0.460 OA
BRANCH   3   4
ATOM      4  C   UNL A   1      36.124  32.972  28.347  1.00  0.00     0.338 C 
ATOM      5  O   UNL A   1      37.308  32.978  28.562  1.00  0.00    -0.246 OA
BRANCH   4   6
ATOM      6  C   UNL A   1      35.343  31.770  28.001  1.00  0.00     0.060 A 
ATOM      7  C   UNL A   1      33.873  29.579  27.242  1.00  0.00     0.066 A 
ATOM      8  C   UNL A   1      33.243  30.825  27.278  1.00  0.00     0.029 A 
ATOM      9  C   UNL A   1      35.237  29.427  27.520  1.00  0.00     0.029 A 
ATOM     10  C   UNL A   1      33.981  31.924  27.701  1.00  0.00     0.018 A 
ATOM     11  C   UNL A   1      35.980  30.533  27.882  1.00  0.00     0.018 A 
BRANCH   7  12
ATOM     12  N   UNL A   1      33.126  28.431  26.983  1.00  0.00    -0.220 N 
ATOM     13  C   UNL A   1      32.513  26.456  26.368  1.00  0.00     0.093 A 
ATOM     14  C   UNL A   1      33.612  27.262  26.466  1.00  0.00     0.141 A 
ATOM     15  N   UNL A   1      31.419  27.145  26.823  1.00  0.00    -0.134 NA
ATOM     16  N   UNL A   1      31.821  28.320  27.274  1.00  0.00    -0.062 NA
BRANCH  13  17
ATOM     17  C   UNL A   1      32.463  25.065  25.901  1.00  0.00     0.138 C 
BRANCH  17  18
ATOM     18  S   UNL A   1      30.817  24.520  25.524  1.00  0.00    -0.081 SA
BRANCH  18  19
ATOM     19  C   UNL A   1      30.929  23.937  23.811  1.00  0.00     0.176 A 
ATOM     20  N   UNL A   1      32.192  23.487  23.460  1.00  0.00    -0.255 N 
ATOM     21  C   UNL A   1      33.030  24.416  22.851  1.00  0.00     0.266 A 
ATOM     22  N   UNL A   1      30.276  24.688  22.973  1.00  0.00    -0.223 NA
ATOM     23  C   UNL A   1      32.431  25.787  22.758  1.00  0.00     0.066 A 
ATOM     24  O   UNL A   1      34.170  24.215  22.450  1.00  0.00    -0.268 OA
ATOM     25  C   UNL A   1      31.024  25.862  22.750  1.00  0.00     0.079 A 
ATOM     26  C   UNL A   1      33.195  26.930  22.966  1.00  0.00     0.016 A 
ATOM     27  C   UNL A   1      30.381  27.090  22.890  1.00  0.00     0.029 A 
ATOM     28  C   UNL A   1      32.540  28.147  23.188  1.00  0.00     0.001 A 
ATOM     29  C   UNL A   1      31.143  28.230  23.136  1.00  0.00     0.002 A 
BRANCH  20  30
ATOM     30  C   UNL A   1      32.521  22.110  23.581  1.00  0.00     0.052 A 
ATOM     31  C   UNL A   1      32.470  19.356  24.104  1.00  0.00     0.119 A 
ATOM     32  C   UNL A   1      32.156  19.822  22.831  1.00  0.00     0.048 A 
ATOM     33  C   UNL A   1      32.950  20.244  25.067  1.00  0.00     0.048 A 
ATOM     34  C   UNL A   1      32.151  21.200  22.578  1.00  0.00     0.030 A 
ATOM     35  C   UNL A   1      33.014  21.617  24.792  1.00  0.00     0.030 A 
BRANCH  31  36
ATOM     36  O   UNL A   1      32.362  18.015  24.350  1.00  0.00    -0.497 OA
ATOM     37  C   UNL A   1      32.566  17.687  25.727  1.00  0.00     0.278 C 
ENDBRANCH  31  36
ENDBRANCH  20  30
ENDBRANCH  18  19
ENDBRANCH  17  18
ENDBRANCH  13  17
ENDBRANCH   7  12
ENDBRANCH   4   6
ENDBRANCH   3   4
ENDBRANCH   2   3
ENDBRANCH   1   2
BRANCH   1  38
ATOM     38  O   UNL A   1      33.571  34.239  31.971  1.00  0.00    -0.376 OA
BRANCH  38  39
ATOM     39  C   UNL A   1      34.593  33.843  32.857  1.00  0.00     0.188 C 
BRANCH  39  40
ATOM     40  C   UNL A   1      35.196  34.883  33.822  1.00  0.00     0.188 C 
BRANCH  40  41
ATOM     41  O   UNL A   1      36.509  34.704  34.303  1.00  0.00    -0.376 OA
BRANCH  41  42
ATOM     42  C   UNL A   1      36.849  33.742  35.286  1.00  0.00     0.202 C 
BRANCH  42  43
ATOM     43  C   UNL A   1      37.403  32.340  35.034  1.00  0.00     0.261 C 
BRANCH  43  44
ATOM     44  O   UNL A   1      36.961  31.669  33.877  1.00  0.00    -0.460 OA
BRANCH  44  45
ATOM     45  C   UNL A   1      37.816  31.771  32.841  1.00  0.00     0.338 C 
ATOM     46  O   UNL A   1      37.693  32.456  31.840  1.00  0.00    -0.246 OA
BRANCH  45  47
ATOM     47  C   UNL A   1      38.897  30.812  33.040  1.00  0.00     0.060 A 
ATOM     48  C   UNL A   1      40.202  31.303  32.983  1.00  0.00     0.016 A 
ATOM     49  C   UNL A   1      38.595  29.448  32.932  1.00  0.00     0.016 A 
ATOM     50  C   UNL A   1      41.198  30.439  32.596  1.00  0.00     0.010 A 
ATOM     51  C   UNL A   1      39.583  28.595  32.514  1.00  0.00     0.010 A 
ATOM     52  C   UNL A   1      40.849  29.123  32.273  1.00  0.00    -0.014 A 
BRANCH  52  53
ATOM     53  C   UNL A   1      41.883  28.246  31.772  1.00  0.00     0.031 A 
ATOM     54  C   UNL A   1      42.817  27.843  32.841  1.00  0.00     0.074 A 
ATOM     55  C   UNL A   1      41.877  27.787  30.506  1.00  0.00     0.049 A 
ATOM     56  N   UNL A   1      44.052  28.191  32.971  1.00  0.00    -0.248 NA
ATOM     57  C   UNL A   1      42.265  27.145  34.015  1.00  0.00     0.031 C 
ATOM     58  C   UNL A   1      40.809  27.948  29.511  1.00  0.00     0.029 A 
ATOM     59  N   UNL A   1      42.776  26.988  29.864  1.00  0.00    -0.354 N 
ATOM     60  C   UNL A   1      44.494  27.529  34.113  1.00  0.00     0.074 A 
ATOM     61  C   UNL A   1      43.320  27.122  34.829  1.00  0.00     0.031 C 
ATOM     62  C   UNL A   1      41.018  27.090  28.487  1.00  0.00     0.029 A 
ATOM     63  C   UNL A   1      42.294  26.423  28.688  1.00  0.00     0.049 A 
ATOM     64  H   UNL A   1      43.686  26.827  30.203  1.00  0.00     0.167 HD
ATOM     65  C   UNL A   1      45.768  27.058  34.167  1.00  0.00     0.037 A 
ATOM     66  C   UNL A   1      42.890  25.442  27.965  1.00  0.00     0.037 A 
ATOM     67  C   UNL A   1      46.579  27.687  33.154  1.00  0.00     0.049 A 
ATOM     68  C   UNL A   1      44.317  25.404  28.354  1.00  0.00     0.074 A 
ATOM     69  C   UNL A   1      47.150  28.924  32.955  1.00  0.00     0.029 A 
ATOM     70  N   UNL A   1      46.532  27.054  31.941  1.00  0.00    -0.354 N 
ATOM     71  N   UNL A   1      45.169  26.341  28.048  1.00  0.00    -0.248 NA
ATOM     72  C   UNL A   1      44.750  24.484  29.402  1.00  0.00     0.031 C 
ATOM     73  C   UNL A   1      47.307  29.068  31.545  1.00  0.00     0.029 A 
ATOM     74  C   UNL A   1      46.865  27.902  30.921  1.00  0.00     0.049 A 
ATOM     75  H   UNL A   1      46.287  26.109  31.817  1.00  0.00     0.167 HD
ATOM     76  C   UNL A   1      46.016  26.397  29.136  1.00  0.00     0.074 A 
ATOM     77  C   UNL A   1      45.834  25.132  29.835  1.00  0.00     0.031 C 
ATOM     78  C   UNL A   1      46.524  27.592  29.552  1.00  0.00     0.037 A 
BRANCH  65  79
ATOM     79  C   UNL A   1      46.145  25.696  34.720  1.00  0.00     0.057 A 
ATOM     80  C   UNL A   1      47.220  25.618  35.625  1.00  0.00     0.134 A 
ATOM     81  C   UNL A   1      45.734  24.456  34.184  1.00  0.00     0.134 A 
ATOM     82  F   UNL A   1      47.714  26.724  36.204  1.00  0.00    -0.206 F 
ATOM     83  C   UNL A   1      47.884  24.417  35.906  1.00  0.00     0.040 A 
ATOM     84  C   UNL A   1      46.361  23.246  34.495  1.00  0.00     0.040 A 
ATOM     85  F   UNL A   1      44.779  24.342  33.257  1.00  0.00    -0.206 F 
ATOM     86  C   UNL A   1      47.461  23.226  35.333  1.00  0.00     0.006 A 
ENDBRANCH  65  79
BRANCH  66  87
ATOM     87  C   UNL A   1      42.297  24.387  27.113  1.00  0.00     0.057 A 
ATOM     88  C   UNL A   1      42.984  23.886  25.997  1.00  0.00     0.134 A 
ATOM     89  C   UNL A   1      41.185  23.643  27.540  1.00  0.00     0.134 A 
ATOM     90  F   UNL A   1      44.075  24.511  25.531  1.00  0.00    -0.206 F 
ATOM     91  C   UNL A   1      42.615  22.690  25.369  1.00  0.00     0.040 A 
ATOM     92  C   UNL A   1      40.803  22.449  26.917  1.00  0.00     0.040 A 
ATOM     93  F   UNL A   1      40.493  23.999  28.632  1.00  0.00    -0.206 F 
ATOM     94  C   UNL A   1      41.530  21.958  25.840  1.00  0.00     0.006 A 
ENDBRANCH  66  87
BRANCH  78  95
ATOM     95  C   UNL A   1      46.575  28.699  28.546  1.00  0.00     0.057 A 
ATOM     96  C   UNL A   1      45.540  29.617  28.319  1.00  0.00     0.134 A 
ATOM     97  C   UNL A   1      47.762  28.884  27.832  1.00  0.00     0.134 A 
ATOM     98  F   UNL A   1      44.395  29.557  29.012  1.00  0.00    -0.206 F 
ATOM     99  C   UNL A   1      45.674  30.651  27.388  1.00  0.00     0.040 A 
ATOM    100  C   UNL A   1      47.923  29.932  26.927  1.00  0.00     0.040 A 
ATOM    101  F   UNL A   1      48.805  28.062  28.031  1.00  0.00    -0.206 F 
ATOM    102  C   UNL A   1      46.871  30.815  26.695  1.00  0.00     0.006 A 
ENDBRANCH  78  95
ENDBRANCH  52  53
ENDBRANCH  45  47
ENDBRANCH  44  45
ENDBRANCH  43  44
ENDBRANCH  42  43
ENDBRANCH  41  42
ENDBRANCH  40  41
ENDBRANCH  39  40
ENDBRANCH  38  39
ENDBRANCH   1  38
TORSDOF 23
ENDMDL
