MODEL 1
REMARK VINA RESULT:     -10.4      0.000      0.000
REMARK SMILES Cc1ccc2oc(CCCC(=O)OCCOCCOCCOC(=O)c3ccc(-c4c5nc(c(-c6c(F)cccc6F)c6ccc([nH]6)c(-c6c(F)cccc6F)c6nc(c(-c7c(F)cccc7F)c7ccc4[nH]7)C=C6)C=C5)cc3)cc(=O)c2c1
REMARK SMILES IDX 17 1 16 2 15 3 14 4 13 5 11 6 12 7 10 8 9 9 8 10 7 11 1 12
REMARK SMILES IDX 2 13 3 14 83 15 4 16 82 17 5 18 80 19 6 20 79 21 81 22 18 23
REMARK SMILES IDX 19 24 20 25 21 26 22 27 23 28 24 29 25 30 26 31 78 32 27 33
REMARK SMILES IDX 77 34 28 35 29 36 30 37 71 38 31 39 76 40 70 41 72 42 32 43
REMARK SMILES IDX 75 44 69 45 68 46 33 48 59 49 42 50 58 51 43 52 46 53 57 54
REMARK SMILES IDX 73 55 44 56 45 57 56 59 74 60 47 61 34 62 35 63 40 64 36 65
REMARK SMILES IDX 37 66 39 67 41 68 38 69 60 70 61 71 66 72 62 73 63 74 65 75
REMARK SMILES IDX 67 76 64 77 48 78 49 79 54 80 50 81 51 82 53 83 55 84 52 85
REMARK H PARENT 72 47 46 58
REMARK Flexibility Score: inf
ROOT
ATOM      1  C   UNL A   1      31.573  28.566  26.750  1.00  0.00     0.188 C 
ENDROOT
BRANCH   1   2
ATOM      2  O   UNL A   1      32.292  27.703  25.882  1.00  0.00    -0.376 OA
BRANCH   2   3
ATOM      3  C   UNL A   1      32.455  26.348  26.303  1.00  0.00     0.202 C 
BRANCH   3   4
ATOM      4  C   UNL A   1      31.185  25.490  26.448  1.00  0.00     0.261 C 
BRANCH   4   5
ATOM      5  O   UNL A   1      31.367  24.291  27.240  1.00  0.00    -0.463 OA
BRANCH   5   6
ATOM      6  C   UNL A   1      31.139  23.114  26.609  1.00  0.00     0.305 C 
ATOM      7  O   UNL A   1      30.099  22.467  26.712  1.00  0.00    -0.252 OA
BRANCH   6   8
ATOM      8  C   UNL A   1      32.218  22.695  25.620  1.00  0.00     0.123 C 
BRANCH   8   9
ATOM      9  C   UNL A   1      31.944  22.289  24.164  1.00  0.00     0.020 C 
BRANCH   9  10
ATOM     10  C   UNL A   1      32.849  22.812  23.046  1.00  0.00     0.076 C 
BRANCH  10  11
ATOM     11  C   UNL A   1      32.543  24.241  22.712  1.00  0.00     0.108 A 
ATOM     12  C   UNL A   1      29.545  29.937  23.238  1.00  0.00     0.044 C 
ATOM     13  C   UNL A   1      30.014  28.514  23.170  1.00  0.00    -0.050 A 
ATOM     14  C   UNL A   1      29.173  27.471  23.579  1.00  0.00     0.007 A 
ATOM     15  C   UNL A   1      31.296  28.221  22.679  1.00  0.00     0.019 A 
ATOM     16  C   UNL A   1      29.594  26.149  23.473  1.00  0.00     0.048 A 
ATOM     17  C   UNL A   1      31.718  26.896  22.595  1.00  0.00     0.065 A 
ATOM     18  C   UNL A   1      30.862  25.870  22.974  1.00  0.00     0.138 A 
ATOM     19  C   UNL A   1      33.076  26.540  22.145  1.00  0.00     0.192 A 
ATOM     20  O   UNL A   1      31.212  24.555  22.883  1.00  0.00    -0.461 OA
ATOM     21  C   UNL A   1      33.471  25.127  22.321  1.00  0.00     0.095 A 
ATOM     22  O   UNL A   1      33.865  27.366  21.707  1.00  0.00    -0.289 OA
ENDBRANCH  10  11
ENDBRANCH   9  10
ENDBRANCH   8   9
ENDBRANCH   6   8
ENDBRANCH   5   6
ENDBRANCH   4   5
ENDBRANCH   3   4
ENDBRANCH   2   3
ENDBRANCH   1   2
BRANCH   1  23
ATOM     23  C   UNL A   1      32.269  29.860  27.194  1.00  0.00     0.188 C 
BRANCH  23  24
ATOM     24  O   UNL A   1      32.114  30.953  26.316  1.00  0.00    -0.376 OA
BRANCH  24  25
ATOM     25  C   UNL A   1      31.421  32.107  26.775  1.00  0.00     0.202 C 
BRANCH  25  26
ATOM     26  C   UNL A   1      32.238  33.408  26.949  1.00  0.00     0.261 C 
BRANCH  26  27
ATOM     27  O   UNL A   1      32.286  33.993  28.267  1.00  0.00    -0.460 OA
BRANCH  27  28
ATOM     28  C   UNL A   1      33.346  34.780  28.571  1.00  0.00     0.338 C 
ATOM     29  O   UNL A   1      33.315  35.983  28.783  1.00  0.00    -0.246 OA
BRANCH  28  30
ATOM     30  C   UNL A   1      34.499  33.897  28.915  1.00  0.00     0.060 A 
ATOM     31  C   UNL A   1      34.231  32.648  29.500  1.00  0.00     0.016 A 
ATOM     32  C   UNL A   1      35.816  34.238  28.592  1.00  0.00     0.016 A 
ATOM     33  C   UNL A   1      35.273  31.767  29.809  1.00  0.00     0.010 A 
ATOM     34  C   UNL A   1      36.861  33.362  28.917  1.00  0.00     0.010 A 
ATOM     35  C   UNL A   1      36.601  32.139  29.565  1.00  0.00    -0.014 A 
BRANCH  35  36
ATOM     36  C   UNL A   1      37.718  31.369  30.180  1.00  0.00     0.031 A 
ATOM     37  C   UNL A   1      38.034  31.620  31.633  1.00  0.00     0.074 A 
ATOM     38  C   UNL A   1      38.433  30.456  29.496  1.00  0.00     0.049 A 
ATOM     39  N   UNL A   1      38.988  31.122  32.380  1.00  0.00    -0.248 NA
ATOM     40  C   UNL A   1      37.154  32.568  32.334  1.00  0.00     0.031 C 
ATOM     41  C   UNL A   1      38.215  30.078  28.103  1.00  0.00     0.029 A 
ATOM     42  N   UNL A   1      39.502  29.686  29.891  1.00  0.00    -0.354 N 
ATOM     43  C   UNL A   1      38.826  31.705  33.632  1.00  0.00     0.074 A 
ATOM     44  C   UNL A   1      37.709  32.617  33.535  1.00  0.00     0.031 C 
ATOM     45  C   UNL A   1      39.132  29.155  27.754  1.00  0.00     0.029 A 
ATOM     46  C   UNL A   1      40.021  28.902  28.888  1.00  0.00     0.049 A 
ATOM     47  H   UNL A   1      39.862  29.695  30.807  1.00  0.00     0.167 HD
ATOM     48  C   UNL A   1      39.535  31.494  34.766  1.00  0.00     0.037 A 
ATOM     49  C   UNL A   1      41.102  28.094  28.880  1.00  0.00     0.037 A 
ATOM     50  C   UNL A   1      40.650  30.590  34.871  1.00  0.00     0.049 A 
ATOM     51  C   UNL A   1      41.928  27.935  30.134  1.00  0.00     0.074 A 
ATOM     52  C   UNL A   1      41.421  30.299  35.983  1.00  0.00     0.029 A 
ATOM     53  N   UNL A   1      41.161  29.839  33.824  1.00  0.00    -0.354 N 
ATOM     54  N   UNL A   1      41.752  28.470  31.318  1.00  0.00    -0.248 NA
ATOM     55  C   UNL A   1      43.103  27.054  30.048  1.00  0.00     0.031 C 
ATOM     56  C   UNL A   1      42.435  29.419  35.595  1.00  0.00     0.029 A 
ATOM     57  C   UNL A   1      42.253  29.106  34.258  1.00  0.00     0.049 A 
ATOM     58  H   UNL A   1      40.800  29.828  32.908  1.00  0.00     0.167 HD
ATOM     59  C   UNL A   1      42.765  27.960  32.125  1.00  0.00     0.074 A 
ATOM     60  C   UNL A   1      43.548  27.068  31.297  1.00  0.00     0.031 C 
ATOM     61  C   UNL A   1      43.019  28.206  33.434  1.00  0.00     0.037 A 
BRANCH  48  62
ATOM     62  C   UNL A   1      39.144  32.283  35.983  1.00  0.00     0.057 A 
ATOM     63  C   UNL A   1      39.613  33.583  36.209  1.00  0.00     0.134 A 
ATOM     64  C   UNL A   1      38.264  31.741  36.929  1.00  0.00     0.134 A 
ATOM     65  F   UNL A   1      40.472  34.155  35.351  1.00  0.00    -0.206 F 
ATOM     66  C   UNL A   1      39.242  34.307  37.344  1.00  0.00     0.040 A 
ATOM     67  C   UNL A   1      37.861  32.466  38.052  1.00  0.00     0.040 A 
ATOM     68  F   UNL A   1      37.773  30.502  36.774  1.00  0.00    -0.206 F 
ATOM     69  C   UNL A   1      38.356  33.750  38.265  1.00  0.00     0.006 A 
ENDBRANCH  48  62
BRANCH  49  70
ATOM     70  C   UNL A   1      41.489  27.373  27.638  1.00  0.00     0.057 A 
ATOM     71  C   UNL A   1      42.275  27.986  26.654  1.00  0.00     0.134 A 
ATOM     72  C   UNL A   1      41.046  26.069  27.385  1.00  0.00     0.134 A 
ATOM     73  F   UNL A   1      42.705  29.245  26.821  1.00  0.00    -0.206 F 
ATOM     74  C   UNL A   1      42.589  27.338  25.458  1.00  0.00     0.040 A 
ATOM     75  C   UNL A   1      41.377  25.397  26.206  1.00  0.00     0.040 A 
ATOM     76  F   UNL A   1      40.284  25.426  28.281  1.00  0.00    -0.206 F 
ATOM     77  C   UNL A   1      42.145  26.037  25.233  1.00  0.00     0.006 A 
ENDBRANCH  49  70
BRANCH  61  78
ATOM     78  C   UNL A   1      44.154  27.458  34.079  1.00  0.00     0.057 A 
ATOM     79  C   UNL A   1      45.446  27.989  34.169  1.00  0.00     0.134 A 
ATOM     80  C   UNL A   1      43.933  26.203  34.663  1.00  0.00     0.134 A 
ATOM     81  F   UNL A   1      45.732  29.182  33.625  1.00  0.00    -0.206 F 
ATOM     82  C   UNL A   1      46.483  27.288  34.790  1.00  0.00     0.040 A 
ATOM     83  C   UNL A   1      44.952  25.507  35.315  1.00  0.00     0.040 A 
ATOM     84  F   UNL A   1      42.716  25.639  34.627  1.00  0.00    -0.206 F 
ATOM     85  C   UNL A   1      46.235  26.047  35.372  1.00  0.00     0.006 A 
ENDBRANCH  61  78
ENDBRANCH  35  36
ENDBRANCH  28  30
ENDBRANCH  27  28
ENDBRANCH  26  27
ENDBRANCH  25  26
ENDBRANCH  24  25
ENDBRANCH  23  24
ENDBRANCH   1  23
TORSDOF 20
ENDMDL
MODEL 2
REMARK VINA RESULT:     -10.4      6.169     11.547
REMARK SMILES Cc1ccc2oc(CCCC(=O)OCCOCCOCCOC(=O)c3ccc(-c4c5nc(c(-c6c(F)cccc6F)c6ccc([nH]6)c(-c6c(F)cccc6F)c6nc(c(-c7c(F)cccc7F)c7ccc4[nH]7)C=C6)C=C5)cc3)cc(=O)c2c1
REMARK SMILES IDX 17 1 16 2 15 3 14 4 13 5 11 6 12 7 10 8 9 9 8 10 7 11 1 12
REMARK SMILES IDX 2 13 3 14 83 15 4 16 82 17 5 18 80 19 6 20 79 21 81 22 18 23
REMARK SMILES IDX 19 24 20 25 21 26 22 27 23 28 24 29 25 30 26 31 78 32 27 33
REMARK SMILES IDX 77 34 28 35 29 36 30 37 71 38 31 39 76 40 70 41 72 42 32 43
REMARK SMILES IDX 75 44 69 45 68 46 33 48 59 49 42 50 58 51 43 52 46 53 57 54
REMARK SMILES IDX 73 55 44 56 45 57 56 59 74 60 47 61 34 62 35 63 40 64 36 65
REMARK SMILES IDX 37 66 39 67 41 68 38 69 60 70 61 71 66 72 62 73 63 74 65 75
REMARK SMILES IDX 67 76 64 77 48 78 49 79 54 80 50 81 51 82 53 83 55 84 52 85
REMARK H PARENT 72 47 46 58
REMARK Flexibility Score: inf
ROOT
ATOM      1  C   UNL A   1      46.593  20.073  24.732  1.00  0.00     0.188 C 
ENDROOT
BRANCH   1   2
ATOM      2  O   UNL A   1      46.407  21.388  25.236  1.00  0.00    -0.376 OA
BRANCH   2   3
ATOM      3  C   UNL A   1      45.433  22.203  24.583  1.00  0.00     0.202 C 
BRANCH   3   4
ATOM      4  C   UNL A   1      45.398  23.698  24.948  1.00  0.00     0.261 C 
BRANCH   4   5
ATOM      5  O   UNL A   1      44.244  24.406  24.432  1.00  0.00    -0.463 OA
BRANCH   5   6
ATOM      6  C   UNL A   1      43.990  25.621  24.977  1.00  0.00     0.305 C 
ATOM      7  O   UNL A   1      42.889  26.165  24.964  1.00  0.00    -0.252 OA
BRANCH   6   8
ATOM      8  C   UNL A   1      45.148  26.229  25.758  1.00  0.00     0.123 C 
BRANCH   8   9
ATOM      9  C   UNL A   1      45.542  27.712  25.699  1.00  0.00     0.020 C 
BRANCH   9  10
ATOM     10  C   UNL A   1      45.342  28.600  26.930  1.00  0.00     0.076 C 
BRANCH  10  11
ATOM     11  C   UNL A   1      45.959  29.953  26.740  1.00  0.00     0.108 A 
ATOM     12  C   UNL A   1      46.101  36.397  26.339  1.00  0.00     0.044 C 
ATOM     13  C   UNL A   1      45.842  34.921  26.318  1.00  0.00    -0.050 A 
ATOM     14  C   UNL A   1      44.587  34.427  25.937  1.00  0.00     0.007 A 
ATOM     15  C   UNL A   1      46.865  34.024  26.665  1.00  0.00     0.019 A 
ATOM     16  C   UNL A   1      44.363  33.055  25.876  1.00  0.00     0.048 A 
ATOM     17  C   UNL A   1      46.627  32.652  26.621  1.00  0.00     0.065 A 
ATOM     18  C   UNL A   1      45.388  32.176  26.211  1.00  0.00     0.138 A 
ATOM     19  C   UNL A   1      47.647  31.672  27.035  1.00  0.00     0.192 A 
ATOM     20  O   UNL A   1      45.110  30.844  26.119  1.00  0.00    -0.461 OA
ATOM     21  C   UNL A   1      47.192  30.272  27.160  1.00  0.00     0.095 A 
ATOM     22  O   UNL A   1      48.792  31.992  27.322  1.00  0.00    -0.289 OA
ENDBRANCH  10  11
ENDBRANCH   9  10
ENDBRANCH   8   9
ENDBRANCH   6   8
ENDBRANCH   5   6
ENDBRANCH   4   5
ENDBRANCH   3   4
ENDBRANCH   2   3
ENDBRANCH   1   2
BRANCH   1  23
ATOM     23  C   UNL A   1      45.528  19.530  23.770  1.00  0.00     0.188 C 
BRANCH  23  24
ATOM     24  O   UNL A   1      44.758  18.461  24.274  1.00  0.00    -0.376 OA
BRANCH  24  25
ATOM     25  C   UNL A   1      44.508  18.396  25.672  1.00  0.00     0.202 C 
BRANCH  25  26
ATOM     26  C   UNL A   1      43.037  18.483  26.139  1.00  0.00     0.261 C 
BRANCH  26  27
ATOM     27  O   UNL A   1      42.113  19.205  25.299  1.00  0.00    -0.460 OA
BRANCH  27  28
ATOM     28  C   UNL A   1      40.947  19.620  25.851  1.00  0.00     0.338 C 
ATOM     29  O   UNL A   1      39.941  18.944  26.008  1.00  0.00    -0.246 OA
BRANCH  28  30
ATOM     30  C   UNL A   1      41.189  20.933  26.520  1.00  0.00     0.060 A 
ATOM     31  C   UNL A   1      41.376  22.067  25.712  1.00  0.00     0.016 A 
ATOM     32  C   UNL A   1      41.142  21.076  27.909  1.00  0.00     0.016 A 
ATOM     33  C   UNL A   1      41.571  23.328  26.288  1.00  0.00     0.010 A 
ATOM     34  C   UNL A   1      41.355  22.336  28.486  1.00  0.00     0.010 A 
ATOM     35  C   UNL A   1      41.611  23.463  27.682  1.00  0.00    -0.014 A 
BRANCH  35  36
ATOM     36  C   UNL A   1      42.137  24.713  28.296  1.00  0.00     0.031 A 
ATOM     37  C   UNL A   1      41.177  25.857  28.505  1.00  0.00     0.074 A 
ATOM     38  C   UNL A   1      43.420  24.848  28.683  1.00  0.00     0.049 A 
ATOM     39  N   UNL A   1      41.399  27.063  28.966  1.00  0.00    -0.248 NA
ATOM     40  C   UNL A   1      39.775  25.603  28.138  1.00  0.00     0.031 C 
ATOM     41  C   UNL A   1      44.449  23.817  28.583  1.00  0.00     0.029 A 
ATOM     42  N   UNL A   1      44.075  25.926  29.231  1.00  0.00    -0.354 N 
ATOM     43  C   UNL A   1      40.169  27.710  28.932  1.00  0.00     0.074 A 
ATOM     44  C   UNL A   1      39.214  26.778  28.375  1.00  0.00     0.031 C 
ATOM     45  C   UNL A   1      45.611  24.316  29.043  1.00  0.00     0.029 A 
ATOM     46  C   UNL A   1      45.417  25.711  29.439  1.00  0.00     0.049 A 
ATOM     47  H   UNL A   1      43.624  26.772  29.454  1.00  0.00     0.167 HD
ATOM     48  C   UNL A   1      39.856  28.963  29.338  1.00  0.00     0.037 A 
ATOM     49  C   UNL A   1      46.379  26.551  29.875  1.00  0.00     0.037 A 
ATOM     50  C   UNL A   1      40.800  29.898  29.891  1.00  0.00     0.049 A 
ATOM     51  C   UNL A   1      46.023  27.971  30.246  1.00  0.00     0.074 A 
ATOM     52  C   UNL A   1      40.572  31.185  30.344  1.00  0.00     0.029 A 
ATOM     53  N   UNL A   1      42.154  29.650  30.057  1.00  0.00    -0.354 N 
ATOM     54  N   UNL A   1      44.854  28.564  30.235  1.00  0.00    -0.248 NA
ATOM     55  C   UNL A   1      47.126  28.837  30.695  1.00  0.00     0.031 C 
ATOM     56  C   UNL A   1      41.797  31.738  30.727  1.00  0.00     0.029 A 
ATOM     57  C   UNL A   1      42.778  30.770  30.580  1.00  0.00     0.049 A 
ATOM     58  H   UNL A   1      42.604  28.803  29.835  1.00  0.00     0.167 HD
ATOM     59  C   UNL A   1      45.073  29.853  30.712  1.00  0.00     0.074 A 
ATOM     60  C   UNL A   1      46.485  29.954  31.010  1.00  0.00     0.031 C 
ATOM     61  C   UNL A   1      44.182  30.860  30.890  1.00  0.00     0.037 A 
BRANCH  48  62
ATOM     62  C   UNL A   1      38.432  29.410  29.168  1.00  0.00     0.057 A 
ATOM     63  C   UNL A   1      37.914  29.786  27.921  1.00  0.00     0.134 A 
ATOM     64  C   UNL A   1      37.559  29.438  30.264  1.00  0.00     0.134 A 
ATOM     65  F   UNL A   1      38.700  29.797  26.834  1.00  0.00    -0.206 F 
ATOM     66  C   UNL A   1      36.588  30.199  27.775  1.00  0.00     0.040 A 
ATOM     67  C   UNL A   1      36.224  29.819  30.124  1.00  0.00     0.040 A 
ATOM     68  F   UNL A   1      37.988  29.087  31.486  1.00  0.00    -0.206 F 
ATOM     69  C   UNL A   1      35.738  30.208  28.879  1.00  0.00     0.006 A 
ENDBRANCH  48  62
BRANCH  49  70
ATOM     70  C   UNL A   1      47.789  26.086  29.977  1.00  0.00     0.057 A 
ATOM     71  C   UNL A   1      48.315  25.616  31.188  1.00  0.00     0.134 A 
ATOM     72  C   UNL A   1      48.656  26.143  28.880  1.00  0.00     0.134 A 
ATOM     73  F   UNL A   1      47.545  25.567  32.285  1.00  0.00    -0.206 F 
ATOM     74  C   UNL A   1      49.654  25.238  31.307  1.00  0.00     0.040 A 
ATOM     75  C   UNL A   1      49.990  25.740  28.977  1.00  0.00     0.040 A 
ATOM     76  F   UNL A   1      48.219  26.589  27.693  1.00  0.00    -0.206 F 
ATOM     77  C   UNL A   1      50.494  25.294  30.198  1.00  0.00     0.006 A 
ENDBRANCH  49  70
BRANCH  61  78
ATOM     78  C   UNL A   1      44.687  32.144  31.491  1.00  0.00     0.057 A 
ATOM     79  C   UNL A   1      44.795  32.333  32.874  1.00  0.00     0.134 A 
ATOM     80  C   UNL A   1      45.118  33.190  30.663  1.00  0.00     0.134 A 
ATOM     81  F   UNL A   1      44.393  31.376  33.725  1.00  0.00    -0.206 F 
ATOM     82  C   UNL A   1      45.286  33.524  33.413  1.00  0.00     0.040 A 
ATOM     83  C   UNL A   1      45.641  34.373  31.189  1.00  0.00     0.040 A 
ATOM     84  F   UNL A   1      45.057  33.074  29.328  1.00  0.00    -0.206 F 
ATOM     85  C   UNL A   1      45.718  34.545  32.570  1.00  0.00     0.006 A 
ENDBRANCH  61  78
ENDBRANCH  35  36
ENDBRANCH  28  30
ENDBRANCH  27  28
ENDBRANCH  26  27
ENDBRANCH  25  26
ENDBRANCH  24  25
ENDBRANCH  23  24
ENDBRANCH   1  23
TORSDOF 20
ENDMDL
MODEL 3
REMARK VINA RESULT:     -10.3      3.240      8.409
REMARK SMILES Cc1ccc2oc(CCCC(=O)OCCOCCOCCOC(=O)c3ccc(-c4c5nc(c(-c6c(F)cccc6F)c6ccc([nH]6)c(-c6c(F)cccc6F)c6nc(c(-c7c(F)cccc7F)c7ccc4[nH]7)C=C6)C=C5)cc3)cc(=O)c2c1
REMARK SMILES IDX 17 1 16 2 15 3 14 4 13 5 11 6 12 7 10 8 9 9 8 10 7 11 1 12
REMARK SMILES IDX 2 13 3 14 83 15 4 16 82 17 5 18 80 19 6 20 79 21 81 22 18 23
REMARK SMILES IDX 19 24 20 25 21 26 22 27 23 28 24 29 25 30 26 31 78 32 27 33
REMARK SMILES IDX 77 34 28 35 29 36 30 37 71 38 31 39 76 40 70 41 72 42 32 43
REMARK SMILES IDX 75 44 69 45 68 46 33 48 59 49 42 50 58 51 43 52 46 53 57 54
REMARK SMILES IDX 73 55 44 56 45 57 56 59 74 60 47 61 34 62 35 63 40 64 36 65
REMARK SMILES IDX 37 66 39 67 41 68 38 69 60 70 61 71 66 72 62 73 63 74 65 75
REMARK SMILES IDX 67 76 64 77 48 78 49 79 54 80 50 81 51 82 53 83 55 84 52 85
REMARK H PARENT 72 47 46 58
REMARK Flexibility Score: inf
ROOT
ATOM      1  C   UNL A   1      41.275  22.090  27.039  1.00  0.00     0.188 C 
ENDROOT
BRANCH   1   2
ATOM      2  O   UNL A   1      40.005  21.463  27.135  1.00  0.00    -0.376 OA
BRANCH   2   3
ATOM      3  C   UNL A   1      39.336  21.159  25.909  1.00  0.00     0.202 C 
BRANCH   3   4
ATOM      4  C   UNL A   1      38.056  21.949  25.582  1.00  0.00     0.261 C 
BRANCH   4   5
ATOM      5  O   UNL A   1      37.411  21.547  24.350  1.00  0.00    -0.463 OA
BRANCH   5   6
ATOM      6  C   UNL A   1      36.377  22.318  23.932  1.00  0.00     0.305 C 
ATOM      7  O   UNL A   1      36.374  22.957  22.883  1.00  0.00    -0.252 OA
BRANCH   6   8
ATOM      8  C   UNL A   1      35.124  22.231  24.792  1.00  0.00     0.123 C 
BRANCH   8   9
ATOM      9  C   UNL A   1      33.907  21.354  24.458  1.00  0.00     0.020 C 
BRANCH   9  10
ATOM     10  C   UNL A   1      32.908  21.817  23.393  1.00  0.00     0.076 C 
BRANCH  10  11
ATOM     11  C   UNL A   1      32.852  23.312  23.303  1.00  0.00     0.108 A 
ATOM     12  C   UNL A   1      33.224  29.395  25.439  1.00  0.00     0.044 C 
ATOM     13  C   UNL A   1      33.039  27.932  25.171  1.00  0.00    -0.050 A 
ATOM     14  C   UNL A   1      32.663  27.064  26.206  1.00  0.00     0.007 A 
ATOM     15  C   UNL A   1      33.225  27.427  23.874  1.00  0.00     0.019 A 
ATOM     16  C   UNL A   1      32.448  25.715  25.945  1.00  0.00     0.048 A 
ATOM     17  C   UNL A   1      33.027  26.070  23.625  1.00  0.00     0.065 A 
ATOM     18  C   UNL A   1      32.624  25.228  24.653  1.00  0.00     0.138 A 
ATOM     19  C   UNL A   1      33.269  25.481  22.296  1.00  0.00     0.192 A 
ATOM     20  O   UNL A   1      32.385  23.900  24.459  1.00  0.00    -0.461 OA
ATOM     21  C   UNL A   1      33.246  24.005  22.225  1.00  0.00     0.095 A 
ATOM     22  O   UNL A   1      33.536  26.157  21.313  1.00  0.00    -0.289 OA
ENDBRANCH  10  11
ENDBRANCH   9  10
ENDBRANCH   8   9
ENDBRANCH   6   8
ENDBRANCH   5   6
ENDBRANCH   4   5
ENDBRANCH   3   4
ENDBRANCH   2   3
ENDBRANCH   1   2
BRANCH   1  23
ATOM     23  C   UNL A   1      42.481  21.196  26.718  1.00  0.00     0.188 C 
BRANCH  23  24
ATOM     24  O   UNL A   1      42.901  21.222  25.371  1.00  0.00    -0.376 OA
BRANCH  24  25
ATOM     25  C   UNL A   1      44.228  21.635  25.076  1.00  0.00     0.202 C 
BRANCH  25  26
ATOM     26  C   UNL A   1      44.406  22.943  24.270  1.00  0.00     0.261 C 
BRANCH  26  27
ATOM     27  O   UNL A   1      43.753  24.128  24.770  1.00  0.00    -0.460 OA
BRANCH  27  28
ATOM     28  C   UNL A   1      44.535  25.147  25.202  1.00  0.00     0.338 C 
ATOM     29  O   UNL A   1      45.535  25.575  24.647  1.00  0.00    -0.246 OA
BRANCH  28  30
ATOM     30  C   UNL A   1      43.806  25.864  26.290  1.00  0.00     0.060 A 
ATOM     31  C   UNL A   1      44.059  27.235  26.469  1.00  0.00     0.016 A 
ATOM     32  C   UNL A   1      42.826  25.237  27.064  1.00  0.00     0.016 A 
ATOM     33  C   UNL A   1      43.377  27.963  27.451  1.00  0.00     0.010 A 
ATOM     34  C   UNL A   1      42.155  25.963  28.059  1.00  0.00     0.010 A 
ATOM     35  C   UNL A   1      42.455  27.319  28.286  1.00  0.00    -0.014 A 
BRANCH  35  36
ATOM     36  C   UNL A   1      41.976  27.991  29.527  1.00  0.00     0.031 A 
ATOM     37  C   UNL A   1      40.722  28.824  29.441  1.00  0.00     0.074 A 
ATOM     38  C   UNL A   1      42.606  27.864  30.710  1.00  0.00     0.049 A 
ATOM     39  N   UNL A   1      40.135  29.550  30.360  1.00  0.00    -0.248 NA
ATOM     40  C   UNL A   1      40.043  28.843  28.136  1.00  0.00     0.031 C 
ATOM     41  C   UNL A   1      43.801  27.060  30.953  1.00  0.00     0.029 A 
ATOM     42  N   UNL A   1      42.326  28.429  31.932  1.00  0.00    -0.354 N 
ATOM     43  C   UNL A   1      39.028  30.117  29.739  1.00  0.00     0.074 A 
ATOM     44  C   UNL A   1      39.044  29.681  28.362  1.00  0.00     0.031 C 
ATOM     45  C   UNL A   1      44.159  27.193  32.245  1.00  0.00     0.029 A 
ATOM     46  C   UNL A   1      43.240  28.117  32.910  1.00  0.00     0.049 A 
ATOM     47  H   UNL A   1      41.542  29.004  32.091  1.00  0.00     0.167 HD
ATOM     48  C   UNL A   1      38.075  30.920  30.269  1.00  0.00     0.037 A 
ATOM     49  C   UNL A   1      43.337  28.546  34.186  1.00  0.00     0.037 A 
ATOM     50  C   UNL A   1      38.053  31.361  31.639  1.00  0.00     0.049 A 
ATOM     51  C   UNL A   1      42.308  29.507  34.733  1.00  0.00     0.074 A 
ATOM     52  C   UNL A   1      37.119  32.164  32.269  1.00  0.00     0.029 A 
ATOM     53  N   UNL A   1      39.013  31.046  32.587  1.00  0.00    -0.354 N 
ATOM     54  N   UNL A   1      41.252  30.016  34.147  1.00  0.00    -0.248 NA
ATOM     55  C   UNL A   1      42.486  29.948  36.126  1.00  0.00     0.031 C 
ATOM     56  C   UNL A   1      37.546  32.385  33.582  1.00  0.00     0.029 A 
ATOM     57  C   UNL A   1      38.709  31.660  33.790  1.00  0.00     0.049 A 
ATOM     58  H   UNL A   1      39.796  30.470  32.428  1.00  0.00     0.167 HD
ATOM     59  C   UNL A   1      40.620  30.801  35.107  1.00  0.00     0.074 A 
ATOM     60  C   UNL A   1      41.407  30.696  36.316  1.00  0.00     0.031 C 
ATOM     61  C   UNL A   1      39.488  31.539  34.996  1.00  0.00     0.037 A 
BRANCH  48  62
ATOM     62  C   UNL A   1      36.989  31.403  29.350  1.00  0.00     0.057 A 
ATOM     63  C   UNL A   1      35.908  30.589  28.986  1.00  0.00     0.134 A 
ATOM     64  C   UNL A   1      37.013  32.709  28.844  1.00  0.00     0.134 A 
ATOM     65  F   UNL A   1      35.832  29.322  29.422  1.00  0.00    -0.206 F 
ATOM     66  C   UNL A   1      34.904  31.049  28.130  1.00  0.00     0.040 A 
ATOM     67  C   UNL A   1      35.999  33.189  28.014  1.00  0.00     0.040 A 
ATOM     68  F   UNL A   1      38.017  33.542  29.156  1.00  0.00    -0.206 F 
ATOM     69  C   UNL A   1      34.945  32.356  27.649  1.00  0.00     0.006 A 
ENDBRANCH  48  62
BRANCH  49  70
ATOM     70  C   UNL A   1      44.459  28.088  35.047  1.00  0.00     0.057 A 
ATOM     71  C   UNL A   1      44.350  26.933  35.833  1.00  0.00     0.134 A 
ATOM     72  C   UNL A   1      45.652  28.816  35.140  1.00  0.00     0.134 A 
ATOM     73  F   UNL A   1      43.221  26.209  35.815  1.00  0.00    -0.206 F 
ATOM     74  C   UNL A   1      45.375  26.532  36.693  1.00  0.00     0.040 A 
ATOM     75  C   UNL A   1      46.697  28.410  35.972  1.00  0.00     0.040 A 
ATOM     76  F   UNL A   1      45.820  29.934  34.420  1.00  0.00    -0.206 F 
ATOM     77  C   UNL A   1      46.555  27.268  36.759  1.00  0.00     0.006 A 
ENDBRANCH  49  70
BRANCH  61  78
ATOM     78  C   UNL A   1      38.989  32.245  36.227  1.00  0.00     0.057 A 
ATOM     79  C   UNL A   1      38.149  31.624  37.159  1.00  0.00     0.134 A 
ATOM     80  C   UNL A   1      39.400  33.557  36.506  1.00  0.00     0.134 A 
ATOM     81  F   UNL A   1      37.710  30.373  36.952  1.00  0.00    -0.206 F 
ATOM     82  C   UNL A   1      37.712  32.289  38.308  1.00  0.00     0.040 A 
ATOM     83  C   UNL A   1      38.997  34.221  37.666  1.00  0.00     0.040 A 
ATOM     84  F   UNL A   1      40.215  34.209  35.664  1.00  0.00    -0.206 F 
ATOM     85  C   UNL A   1      38.143  33.588  38.567  1.00  0.00     0.006 A 
ENDBRANCH  61  78
ENDBRANCH  35  36
ENDBRANCH  28  30
ENDBRANCH  27  28
ENDBRANCH  26  27
ENDBRANCH  25  26
ENDBRANCH  24  25
ENDBRANCH  23  24
ENDBRANCH   1  23
TORSDOF 20
ENDMDL
