MODEL 1
REMARK VINA RESULT:     -11.1      0.000      0.000
REMARK SMILES Cc1cc2c(c(C)c1Cl)C=C(C(=O)OCCOCCOCCOC(=O)c1ccc(-c3c4nc(c(-c5c(F)cccc5F)c5ccc([nH]5)c(-c5c(F)cccc5F)c5nc(c(-c6c(F)cccc6F)c6ccc3[nH]6)C=C5)C=C4)cc1)[C@@H](C(F)(F)F)O2
REMARK SMILES IDX 19 1 18 2 17 3 16 4 15 5 14 6 12 7 13 8 11 9 1 10 2 11 3 12
REMARK SMILES IDX 8 13 4 14 6 15 9 16 5 17 85 18 7 19 10 20 80 21 81 22 82 23
REMARK SMILES IDX 83 24 84 25 20 26 21 27 22 28 23 29 24 30 25 31 26 32 27 33
REMARK SMILES IDX 79 34 28 35 78 36 29 37 30 38 31 39 72 40 32 41 77 42 71 43
REMARK SMILES IDX 73 44 33 45 76 46 70 47 69 48 34 50 60 51 43 52 59 53 44 54
REMARK SMILES IDX 47 55 58 56 74 57 45 58 46 59 57 61 75 62 48 63 35 64 36 65
REMARK SMILES IDX 41 66 37 67 38 68 40 69 42 70 39 71 61 72 62 73 67 74 63 75
REMARK SMILES IDX 64 76 66 77 68 78 65 79 49 80 50 81 55 82 51 83 52 84 54 85
REMARK SMILES IDX 56 86 53 87
REMARK H PARENT 73 49 47 60
REMARK Flexibility Score: inf
ROOT
ATOM      1  C   UNL A   1      41.260  19.895  26.600  1.00  0.00     0.188 C 
ENDROOT
BRANCH   1   2
ATOM      2  C   UNL A   1      40.342  21.132  26.526  1.00  0.00     0.188 C 
BRANCH   2   3
ATOM      3  O   UNL A   1      39.158  21.099  25.758  1.00  0.00    -0.376 OA
BRANCH   3   4
ATOM      4  C   UNL A   1      38.254  22.189  25.759  1.00  0.00     0.202 C 
BRANCH   4   5
ATOM      5  C   UNL A   1      37.001  22.259  24.873  1.00  0.00     0.261 C 
BRANCH   5   6
ATOM      6  O   UNL A   1      36.428  23.560  24.692  1.00  0.00    -0.460 OA
BRANCH   6   7
ATOM      7  C   UNL A   1      35.253  23.766  25.333  1.00  0.00     0.338 C 
ATOM      8  O   UNL A   1      34.914  23.301  26.408  1.00  0.00    -0.246 OA
BRANCH   7   9
ATOM      9  C   UNL A   1      34.470  24.788  24.609  1.00  0.00     0.087 C 
ATOM     10  C   UNL A   1      30.254  29.356  22.898  1.00  0.00     0.046 C 
ATOM     11  C   UNL A   1      31.418  28.613  23.500  1.00  0.00    -0.028 A 
ATOM     12  C   UNL A   1      31.882  27.480  22.819  1.00  0.00     0.052 A 
ATOM     13  C   UNL A   1      31.991  28.940  24.745  1.00  0.00     0.047 A 
ATOM     14  C   UNL A   1      32.844  26.647  23.386  1.00  0.00     0.128 A 
ATOM     15  C   UNL A   1      33.006  28.132  25.313  1.00  0.00    -0.021 A 
ATOM     16  Cl  UNL A   1      31.399  30.330  25.603  1.00  0.00    -0.084 Cl
ATOM     17  C   UNL A   1      33.378  26.937  24.645  1.00  0.00     0.022 A 
ATOM     18  O   UNL A   1      33.186  25.563  22.629  1.00  0.00    -0.475 OA
ATOM     19  C   UNL A   1      33.675  28.499  26.619  1.00  0.00     0.047 C 
ATOM     20  C   UNL A   1      34.240  25.934  25.264  1.00  0.00     0.027 C 
ATOM     21  C   UNL A   1      33.981  24.502  23.221  1.00  0.00     0.316 C 
BRANCH  21  22
ATOM     22  C   UNL A   1      33.183  23.194  23.137  1.00  0.00     0.430 C 
ATOM     23  F   UNL A   1      32.489  23.114  21.976  1.00  0.00    -0.167 F 
ATOM     24  F   UNL A   1      33.992  22.109  23.179  1.00  0.00    -0.167 F 
ATOM     25  F   UNL A   1      32.296  23.077  24.151  1.00  0.00    -0.167 F 
ENDBRANCH  21  22
ENDBRANCH   7   9
ENDBRANCH   6   7
ENDBRANCH   5   6
ENDBRANCH   4   5
ENDBRANCH   3   4
ENDBRANCH   2   3
ENDBRANCH   1   2
BRANCH   1  26
ATOM     26  O   UNL A   1      42.650  20.076  26.726  1.00  0.00    -0.376 OA
BRANCH  26  27
ATOM     27  C   UNL A   1      43.452  20.263  25.572  1.00  0.00     0.202 C 
BRANCH  27  28
ATOM     28  C   UNL A   1      43.948  21.623  25.036  1.00  0.00     0.261 C 
BRANCH  28  29
ATOM     29  O   UNL A   1      43.081  22.753  25.171  1.00  0.00    -0.460 OA
BRANCH  29  30
ATOM     30  C   UNL A   1      43.686  23.967  25.074  1.00  0.00     0.338 C 
ATOM     31  O   UNL A   1      44.512  24.320  24.255  1.00  0.00    -0.246 OA
BRANCH  30  32
ATOM     32  C   UNL A   1      43.030  24.898  26.013  1.00  0.00     0.060 A 
ATOM     33  C   UNL A   1      43.502  26.217  26.091  1.00  0.00     0.016 A 
ATOM     34  C   UNL A   1      41.977  24.471  26.822  1.00  0.00     0.016 A 
ATOM     35  C   UNL A   1      42.922  27.114  26.984  1.00  0.00     0.010 A 
ATOM     36  C   UNL A   1      41.419  25.364  27.742  1.00  0.00     0.010 A 
ATOM     37  C   UNL A   1      41.903  26.682  27.842  1.00  0.00    -0.014 A 
BRANCH  37  38
ATOM     38  C   UNL A   1      41.486  27.547  28.971  1.00  0.00     0.031 A 
ATOM     39  C   UNL A   1      42.250  27.452  30.262  1.00  0.00     0.074 A 
ATOM     40  C   UNL A   1      40.478  28.428  28.846  1.00  0.00     0.049 A 
ATOM     41  N   UNL A   1      42.050  28.075  31.393  1.00  0.00    -0.248 NA
ATOM     42  C   UNL A   1      43.401  26.533  30.274  1.00  0.00     0.031 C 
ATOM     43  C   UNL A   1      39.702  28.661  27.631  1.00  0.00     0.029 A 
ATOM     44  N   UNL A   1      39.935  29.292  29.765  1.00  0.00    -0.354 N 
ATOM     45  C   UNL A   1      43.050  27.630  32.248  1.00  0.00     0.074 A 
ATOM     46  C   UNL A   1      43.834  26.658  31.518  1.00  0.00     0.031 C 
ATOM     47  C   UNL A   1      38.776  29.605  27.881  1.00  0.00     0.029 A 
ATOM     48  C   UNL A   1      38.871  30.014  29.282  1.00  0.00     0.049 A 
ATOM     49  H   UNL A   1      40.276  29.385  30.684  1.00  0.00     0.167 HD
ATOM     50  C   UNL A   1      43.300  28.007  33.523  1.00  0.00     0.037 A 
ATOM     51  C   UNL A   1      38.057  30.889  29.909  1.00  0.00     0.037 A 
ATOM     52  C   UNL A   1      42.514  28.964  34.253  1.00  0.00     0.049 A 
ATOM     53  C   UNL A   1      38.285  31.206  31.365  1.00  0.00     0.074 A 
ATOM     54  C   UNL A   1      42.686  29.403  35.554  1.00  0.00     0.029 A 
ATOM     55  N   UNL A   1      41.404  29.625  33.749  1.00  0.00    -0.354 N 
ATOM     56  N   UNL A   1      39.234  30.783  32.166  1.00  0.00    -0.248 NA
ATOM     57  C   UNL A   1      37.326  32.118  32.007  1.00  0.00     0.031 C 
ATOM     58  C   UNL A   1      41.647  30.287  35.856  1.00  0.00     0.029 A 
ATOM     59  C   UNL A   1      40.865  30.447  34.724  1.00  0.00     0.049 A 
ATOM     60  H   UNL A   1      41.054  29.525  32.835  1.00  0.00     0.167 HD
ATOM     61  C   UNL A   1      39.004  31.398  33.392  1.00  0.00     0.074 A 
ATOM     62  C   UNL A   1      37.833  32.233  33.227  1.00  0.00     0.031 C 
ATOM     63  C   UNL A   1      39.702  31.281  34.548  1.00  0.00     0.037 A 
BRANCH  50  64
ATOM     64  C   UNL A   1      44.465  27.368  34.220  1.00  0.00     0.057 A 
ATOM     65  C   UNL A   1      44.339  26.152  34.904  1.00  0.00     0.134 A 
ATOM     66  C   UNL A   1      45.739  27.946  34.158  1.00  0.00     0.134 A 
ATOM     67  F   UNL A   1      43.142  25.556  35.015  1.00  0.00    -0.206 F 
ATOM     68  C   UNL A   1      45.435  25.541  35.513  1.00  0.00     0.040 A 
ATOM     69  C   UNL A   1      46.849  27.331  34.737  1.00  0.00     0.040 A 
ATOM     70  F   UNL A   1      45.929  29.109  33.515  1.00  0.00    -0.206 F 
ATOM     71  C   UNL A   1      46.698  26.125  35.420  1.00  0.00     0.006 A 
ENDBRANCH  50  64
BRANCH  51  72
ATOM     72  C   UNL A   1      36.942  31.529  29.163  1.00  0.00     0.057 A 
ATOM     73  C   UNL A   1      35.775  30.818  28.857  1.00  0.00     0.134 A 
ATOM     74  C   UNL A   1      37.017  32.858  28.728  1.00  0.00     0.134 A 
ATOM     75  F   UNL A   1      35.653  29.533  29.219  1.00  0.00    -0.206 F 
ATOM     76  C   UNL A   1      34.729  31.402  28.139  1.00  0.00     0.040 A 
ATOM     77  C   UNL A   1      35.968  33.463  28.033  1.00  0.00     0.040 A 
ATOM     78  F   UNL A   1      38.110  33.593  28.983  1.00  0.00    -0.206 F 
ATOM     79  C   UNL A   1      34.821  32.732  27.733  1.00  0.00     0.006 A 
ENDBRANCH  51  72
BRANCH  63  80
ATOM     80  C   UNL A   1      39.246  32.087  35.732  1.00  0.00     0.057 A 
ATOM     81  C   UNL A   1      39.695  33.394  35.954  1.00  0.00     0.134 A 
ATOM     82  C   UNL A   1      38.274  31.582  36.607  1.00  0.00     0.134 A 
ATOM     83  F   UNL A   1      40.630  33.936  35.158  1.00  0.00    -0.206 F 
ATOM     84  C   UNL A   1      39.203  34.166  37.009  1.00  0.00     0.040 A 
ATOM     85  C   UNL A   1      37.754  32.353  37.647  1.00  0.00     0.040 A 
ATOM     86  F   UNL A   1      37.788  30.341  36.444  1.00  0.00    -0.206 F 
ATOM     87  C   UNL A   1      38.221  33.648  37.852  1.00  0.00     0.006 A 
ENDBRANCH  63  80
ENDBRANCH  37  38
ENDBRANCH  30  32
ENDBRANCH  29  30
ENDBRANCH  28  29
ENDBRANCH  27  28
ENDBRANCH  26  27
ENDBRANCH   1  26
TORSDOF 18
ENDMDL
MODEL 2
REMARK VINA RESULT:     -10.9      4.749      9.911
REMARK SMILES Cc1cc2c(c(C)c1Cl)C=C(C(=O)OCCOCCOCCOC(=O)c1ccc(-c3c4nc(c(-c5c(F)cccc5F)c5ccc([nH]5)c(-c5c(F)cccc5F)c5nc(c(-c6c(F)cccc6F)c6ccc3[nH]6)C=C5)C=C4)cc1)[C@@H](C(F)(F)F)O2
REMARK SMILES IDX 19 1 18 2 17 3 16 4 15 5 14 6 12 7 13 8 11 9 1 10 2 11 3 12
REMARK SMILES IDX 8 13 4 14 6 15 9 16 5 17 85 18 7 19 10 20 80 21 81 22 82 23
REMARK SMILES IDX 83 24 84 25 20 26 21 27 22 28 23 29 24 30 25 31 26 32 27 33
REMARK SMILES IDX 79 34 28 35 78 36 29 37 30 38 31 39 72 40 32 41 77 42 71 43
REMARK SMILES IDX 73 44 33 45 76 46 70 47 69 48 34 50 60 51 43 52 59 53 44 54
REMARK SMILES IDX 47 55 58 56 74 57 45 58 46 59 57 61 75 62 48 63 35 64 36 65
REMARK SMILES IDX 41 66 37 67 38 68 40 69 42 70 39 71 61 72 62 73 67 74 63 75
REMARK SMILES IDX 64 76 66 77 68 78 65 79 49 80 50 81 55 82 51 83 52 84 54 85
REMARK SMILES IDX 56 86 53 87
REMARK H PARENT 73 49 47 60
REMARK Flexibility Score: inf
ROOT
ATOM      1  C   UNL A   1      33.206  33.975  28.246  1.00  0.00     0.188 C 
ENDROOT
BRANCH   1   2
ATOM      2  C   UNL A   1      34.368  32.961  28.226  1.00  0.00     0.188 C 
BRANCH   2   3
ATOM      3  O   UNL A   1      34.112  31.580  28.365  1.00  0.00    -0.376 OA
BRANCH   3   4
ATOM      4  C   UNL A   1      33.707  30.795  27.256  1.00  0.00     0.202 C 
BRANCH   4   5
ATOM      5  C   UNL A   1      34.140  29.337  27.039  1.00  0.00     0.261 C 
BRANCH   5   6
ATOM      6  O   UNL A   1      33.142  28.455  26.513  1.00  0.00    -0.460 OA
BRANCH   6   7
ATOM      7  C   UNL A   1      33.458  27.862  25.337  1.00  0.00     0.338 C 
ATOM      8  O   UNL A   1      34.030  28.375  24.390  1.00  0.00    -0.246 OA
BRANCH   7   9
ATOM      9  C   UNL A   1      33.151  26.420  25.413  1.00  0.00     0.087 C 
ATOM     10  C   UNL A   1      33.015  20.023  24.617  1.00  0.00     0.046 C 
ATOM     11  C   UNL A   1      33.396  21.424  25.021  1.00  0.00    -0.028 A 
ATOM     12  C   UNL A   1      32.364  22.364  25.142  1.00  0.00     0.052 A 
ATOM     13  C   UNL A   1      34.728  21.852  25.185  1.00  0.00     0.047 A 
ATOM     14  C   UNL A   1      32.644  23.712  25.353  1.00  0.00     0.128 A 
ATOM     15  C   UNL A   1      35.028  23.211  25.451  1.00  0.00    -0.021 A 
ATOM     16  Cl  UNL A   1      36.011  20.694  25.009  1.00  0.00    -0.084 Cl
ATOM     17  C   UNL A   1      33.966  24.151  25.464  1.00  0.00     0.022 A 
ATOM     18  O   UNL A   1      31.547  24.524  25.424  1.00  0.00    -0.475 OA
ATOM     19  C   UNL A   1      36.446  23.680  25.690  1.00  0.00     0.047 C 
ATOM     20  C   UNL A   1      34.201  25.592  25.499  1.00  0.00     0.027 C 
ATOM     21  C   UNL A   1      31.723  25.963  25.388  1.00  0.00     0.316 C 
BRANCH  21  22
ATOM     22  C   UNL A   1      30.951  26.516  24.182  1.00  0.00     0.430 C 
ATOM     23  F   UNL A   1      30.372  27.706  24.471  1.00  0.00    -0.167 F 
ATOM     24  F   UNL A   1      31.764  26.729  23.120  1.00  0.00    -0.167 F 
ATOM     25  F   UNL A   1      29.972  25.674  23.780  1.00  0.00    -0.167 F 
ENDBRANCH  21  22
ENDBRANCH   7   9
ENDBRANCH   6   7
ENDBRANCH   5   6
ENDBRANCH   4   5
ENDBRANCH   3   4
ENDBRANCH   2   3
ENDBRANCH   1   2
BRANCH   1  26
ATOM     26  O   UNL A   1      32.839  34.576  29.465  1.00  0.00    -0.376 OA
BRANCH  26  27
ATOM     27  C   UNL A   1      33.837  35.018  30.371  1.00  0.00     0.202 C 
BRANCH  27  28
ATOM     28  C   UNL A   1      34.469  34.168  31.493  1.00  0.00     0.261 C 
BRANCH  28  29
ATOM     29  O   UNL A   1      35.784  33.645  31.278  1.00  0.00    -0.460 OA
BRANCH  29  30
ATOM     30  C   UNL A   1      36.159  32.647  32.120  1.00  0.00     0.338 C 
ATOM     31  O   UNL A   1      35.641  32.332  33.173  1.00  0.00    -0.246 OA
BRANCH  30  32
ATOM     32  C   UNL A   1      37.201  31.837  31.459  1.00  0.00     0.060 A 
ATOM     33  C   UNL A   1      38.173  31.213  32.256  1.00  0.00     0.016 A 
ATOM     34  C   UNL A   1      37.233  31.711  30.070  1.00  0.00     0.016 A 
ATOM     35  C   UNL A   1      39.186  30.463  31.662  1.00  0.00     0.010 A 
ATOM     36  C   UNL A   1      38.269  30.985  29.475  1.00  0.00     0.010 A 
ATOM     37  C   UNL A   1      39.262  30.376  30.266  1.00  0.00    -0.014 A 
BRANCH  37  38
ATOM     38  C   UNL A   1      40.482  29.821  29.636  1.00  0.00     0.031 A 
ATOM     39  C   UNL A   1      41.663  30.730  29.446  1.00  0.00     0.074 A 
ATOM     40  C   UNL A   1      40.561  28.528  29.275  1.00  0.00     0.049 A 
ATOM     41  N   UNL A   1      42.820  30.484  28.888  1.00  0.00    -0.248 NA
ATOM     42  C   UNL A   1      41.521  32.102  29.963  1.00  0.00     0.031 C 
ATOM     43  C   UNL A   1      39.511  27.530  29.464  1.00  0.00     0.029 A 
ATOM     44  N   UNL A   1      41.580  27.835  28.669  1.00  0.00    -0.354 N 
ATOM     45  C   UNL A   1      43.544  31.665  28.992  1.00  0.00     0.074 A 
ATOM     46  C   UNL A   1      42.685  32.638  29.633  1.00  0.00     0.031 C 
ATOM     47  C   UNL A   1      39.938  26.351  28.977  1.00  0.00     0.029 A 
ATOM     48  C   UNL A   1      41.276  26.521  28.410  1.00  0.00     0.049 A 
ATOM     49  H   UNL A   1      42.447  28.243  28.441  1.00  0.00     0.167 HD
ATOM     50  C   UNL A   1      44.814  31.914  28.599  1.00  0.00     0.037 A 
ATOM     51  C   UNL A   1      41.992  25.573  27.771  1.00  0.00     0.037 A 
ATOM     52  C   UNL A   1      45.664  30.951  27.952  1.00  0.00     0.049 A 
ATOM     53  C   UNL A   1      43.362  25.907  27.238  1.00  0.00     0.074 A 
ATOM     54  C   UNL A   1      46.965  31.114  27.509  1.00  0.00     0.029 A 
ATOM     55  N   UNL A   1      45.296  29.649  27.648  1.00  0.00    -0.354 N 
ATOM     56  N   UNL A   1      44.041  27.024  27.341  1.00  0.00    -0.248 NA
ATOM     57  C   UNL A   1      44.065  24.850  26.495  1.00  0.00     0.031 C 
ATOM     58  C   UNL A   1      47.365  29.929  26.887  1.00  0.00     0.029 A 
ATOM     59  C   UNL A   1      46.336  29.007  26.998  1.00  0.00     0.049 A 
ATOM     60  H   UNL A   1      44.426  29.243  27.864  1.00  0.00     0.167 HD
ATOM     61  C   UNL A   1      45.257  26.796  26.705  1.00  0.00     0.074 A 
ATOM     62  C   UNL A   1      45.228  25.429  26.229  1.00  0.00     0.031 C 
ATOM     63  C   UNL A   1      46.301  27.643  26.534  1.00  0.00     0.037 A 
BRANCH  50  64
ATOM     64  C   UNL A   1      45.360  33.289  28.844  1.00  0.00     0.057 A 
ATOM     65  C   UNL A   1      45.174  34.330  27.925  1.00  0.00     0.134 A 
ATOM     66  C   UNL A   1      46.031  33.591  30.036  1.00  0.00     0.134 A 
ATOM     67  F   UNL A   1      44.556  34.103  26.757  1.00  0.00    -0.206 F 
ATOM     68  C   UNL A   1      45.646  35.619  28.178  1.00  0.00     0.040 A 
ATOM     69  C   UNL A   1      46.482  34.881  30.314  1.00  0.00     0.040 A 
ATOM     70  F   UNL A   1      46.239  32.639  30.959  1.00  0.00    -0.206 F 
ATOM     71  C   UNL A   1      46.292  35.900  29.382  1.00  0.00     0.006 A 
ENDBRANCH  50  64
BRANCH  51  72
ATOM     72  C   UNL A   1      41.424  24.211  27.591  1.00  0.00     0.057 A 
ATOM     73  C   UNL A   1      41.858  23.137  28.377  1.00  0.00     0.134 A 
ATOM     74  C   UNL A   1      40.447  23.945  26.623  1.00  0.00     0.134 A 
ATOM     75  F   UNL A   1      42.812  23.319  29.301  1.00  0.00    -0.206 F 
ATOM     76  C   UNL A   1      41.347  21.849  28.203  1.00  0.00     0.040 A 
ATOM     77  C   UNL A   1      39.908  22.668  26.456  1.00  0.00     0.040 A 
ATOM     78  F   UNL A   1      39.993  24.928  25.832  1.00  0.00    -0.206 F 
ATOM     79  C   UNL A   1      40.362  21.614  27.245  1.00  0.00     0.006 A 
ENDBRANCH  51  72
BRANCH  63  80
ATOM     80  C   UNL A   1      47.519  27.124  25.822  1.00  0.00     0.057 A 
ATOM     81  C   UNL A   1      47.704  27.306  24.446  1.00  0.00     0.134 A 
ATOM     82  C   UNL A   1      48.561  26.518  26.538  1.00  0.00     0.134 A 
ATOM     83  F   UNL A   1      46.744  27.872  23.700  1.00  0.00    -0.206 F 
ATOM     84  C   UNL A   1      48.876  26.894  23.807  1.00  0.00     0.040 A 
ATOM     85  C   UNL A   1      49.748  26.129  25.916  1.00  0.00     0.040 A 
ATOM     86  F   UNL A   1      48.456  26.326  27.863  1.00  0.00    -0.206 F 
ATOM     87  C   UNL A   1      49.906  26.315  24.545  1.00  0.00     0.006 A 
ENDBRANCH  63  80
ENDBRANCH  37  38
ENDBRANCH  30  32
ENDBRANCH  29  30
ENDBRANCH  28  29
ENDBRANCH  27  28
ENDBRANCH  26  27
ENDBRANCH   1  26
TORSDOF 18
ENDMDL
MODEL 3
REMARK VINA RESULT:     -10.8      4.855      9.907
REMARK SMILES Cc1cc2c(c(C)c1Cl)C=C(C(=O)OCCOCCOCCOC(=O)c1ccc(-c3c4nc(c(-c5c(F)cccc5F)c5ccc([nH]5)c(-c5c(F)cccc5F)c5nc(c(-c6c(F)cccc6F)c6ccc3[nH]6)C=C5)C=C4)cc1)[C@@H](C(F)(F)F)O2
REMARK SMILES IDX 19 1 18 2 17 3 16 4 15 5 14 6 12 7 13 8 11 9 1 10 2 11 3 12
REMARK SMILES IDX 8 13 4 14 6 15 9 16 5 17 85 18 7 19 10 20 80 21 81 22 82 23
REMARK SMILES IDX 83 24 84 25 20 26 21 27 22 28 23 29 24 30 25 31 26 32 27 33
REMARK SMILES IDX 79 34 28 35 78 36 29 37 30 38 31 39 72 40 32 41 77 42 71 43
REMARK SMILES IDX 73 44 33 45 76 46 70 47 69 48 34 50 60 51 43 52 59 53 44 54
REMARK SMILES IDX 47 55 58 56 74 57 45 58 46 59 57 61 75 62 48 63 35 64 36 65
REMARK SMILES IDX 41 66 37 67 38 68 40 69 42 70 39 71 61 72 62 73 67 74 63 75
REMARK SMILES IDX 64 76 66 77 68 78 65 79 49 80 50 81 55 82 51 83 52 84 54 85
REMARK SMILES IDX 56 86 53 87
REMARK H PARENT 73 49 47 60
REMARK Flexibility Score: inf
ROOT
ATOM      1  C   UNL A   1      35.660  34.027  29.193  1.00  0.00     0.188 C 
ENDROOT
BRANCH   1   2
ATOM      2  C   UNL A   1      35.073  33.237  28.006  1.00  0.00     0.188 C 
BRANCH   2   3
ATOM      3  O   UNL A   1      34.315  32.068  28.232  1.00  0.00    -0.376 OA
BRANCH   3   4
ATOM      4  C   UNL A   1      34.389  30.964  27.345  1.00  0.00     0.202 C 
BRANCH   4   5
ATOM      5  C   UNL A   1      33.246  29.960  27.136  1.00  0.00     0.261 C 
BRANCH   5   6
ATOM      6  O   UNL A   1      33.628  28.584  27.024  1.00  0.00    -0.460 OA
BRANCH   6   7
ATOM      7  C   UNL A   1      33.593  28.077  25.768  1.00  0.00     0.338 C 
ATOM      8  O   UNL A   1      33.995  28.614  24.750  1.00  0.00    -0.246 OA
BRANCH   7   9
ATOM      9  C   UNL A   1      33.131  26.675  25.816  1.00  0.00     0.087 C 
ATOM     10  C   UNL A   1      32.223  20.372  24.805  1.00  0.00     0.046 C 
ATOM     11  C   UNL A   1      32.785  21.703  25.229  1.00  0.00    -0.028 A 
ATOM     12  C   UNL A   1      31.877  22.745  25.459  1.00  0.00     0.052 A 
ATOM     13  C   UNL A   1      34.165  21.976  25.311  1.00  0.00     0.047 A 
ATOM     14  C   UNL A   1      32.320  24.044  25.697  1.00  0.00     0.128 A 
ATOM     15  C   UNL A   1      34.633  23.281  25.602  1.00  0.00    -0.021 A 
ATOM     16  Cl  UNL A   1      35.295  20.692  25.001  1.00  0.00    -0.084 Cl
ATOM     17  C   UNL A   1      33.687  24.330  25.726  1.00  0.00     0.022 A 
ATOM     18  O   UNL A   1      31.329  24.967  25.876  1.00  0.00    -0.475 OA
ATOM     19  C   UNL A   1      36.109  23.580  25.753  1.00  0.00     0.047 C 
ATOM     20  C   UNL A   1      34.085  25.734  25.795  1.00  0.00     0.027 C 
ATOM     21  C   UNL A   1      31.662  26.379  25.878  1.00  0.00     0.316 C 
BRANCH  21  22
ATOM     22  C   UNL A   1      30.876  27.065  24.753  1.00  0.00     0.430 C 
ATOM     23  F   UNL A   1      31.541  26.994  23.574  1.00  0.00    -0.167 F 
ATOM     24  F   UNL A   1      29.671  26.481  24.554  1.00  0.00    -0.167 F 
ATOM     25  F   UNL A   1      30.654  28.372  25.016  1.00  0.00    -0.167 F 
ENDBRANCH  21  22
ENDBRANCH   7   9
ENDBRANCH   6   7
ENDBRANCH   5   6
ENDBRANCH   4   5
ENDBRANCH   3   4
ENDBRANCH   2   3
ENDBRANCH   1   2
BRANCH   1  26
ATOM     26  O   UNL A   1      34.787  34.665  30.094  1.00  0.00    -0.376 OA
BRANCH  26  27
ATOM     27  C   UNL A   1      34.122  33.913  31.095  1.00  0.00     0.202 C 
BRANCH  27  28
ATOM     28  C   UNL A   1      34.757  33.407  32.407  1.00  0.00     0.261 C 
BRANCH  28  29
ATOM     29  O   UNL A   1      35.351  32.105  32.405  1.00  0.00    -0.460 OA
BRANCH  29  30
ATOM     30  C   UNL A   1      36.497  31.985  33.127  1.00  0.00     0.338 C 
ATOM     31  O   UNL A   1      36.647  32.187  34.316  1.00  0.00    -0.246 OA
BRANCH  30  32
ATOM     32  C   UNL A   1      37.529  31.360  32.276  1.00  0.00     0.060 A 
ATOM     33  C   UNL A   1      38.661  30.806  32.892  1.00  0.00     0.016 A 
ATOM     34  C   UNL A   1      37.393  31.339  30.889  1.00  0.00     0.016 A 
ATOM     35  C   UNL A   1      39.666  30.231  32.118  1.00  0.00     0.010 A 
ATOM     36  C   UNL A   1      38.418  30.791  30.112  1.00  0.00     0.010 A 
ATOM     37  C   UNL A   1      39.568  30.255  30.721  1.00  0.00    -0.014 A 
BRANCH  37  38
ATOM     38  C   UNL A   1      40.751  29.901  29.902  1.00  0.00     0.031 A 
ATOM     39  C   UNL A   1      40.846  28.506  29.352  1.00  0.00     0.074 A 
ATOM     40  C   UNL A   1      41.703  30.806  29.615  1.00  0.00     0.049 A 
ATOM     41  N   UNL A   1      41.797  27.954  28.644  1.00  0.00    -0.248 NA
ATOM     42  C   UNL A   1      39.708  27.614  29.633  1.00  0.00     0.031 C 
ATOM     43  C   UNL A   1      41.696  32.206  30.033  1.00  0.00     0.029 A 
ATOM     44  N   UNL A   1      42.867  30.673  28.899  1.00  0.00    -0.354 N 
ATOM     45  C   UNL A   1      41.371  26.656  28.392  1.00  0.00     0.074 A 
ATOM     46  C   UNL A   1      40.094  26.490  29.051  1.00  0.00     0.031 C 
ATOM     47  C   UNL A   1      42.808  32.803  29.571  1.00  0.00     0.029 A 
ATOM     48  C   UNL A   1      43.622  31.820  28.856  1.00  0.00     0.049 A 
ATOM     49  H   UNL A   1      43.136  29.834  28.459  1.00  0.00     0.167 HD
ATOM     50  C   UNL A   1      41.985  25.694  27.666  1.00  0.00     0.037 A 
ATOM     51  C   UNL A   1      44.839  32.040  28.318  1.00  0.00     0.037 A 
ATOM     52  C   UNL A   1      43.259  25.854  27.020  1.00  0.00     0.049 A 
ATOM     53  C   UNL A   1      45.556  30.917  27.612  1.00  0.00     0.074 A 
ATOM     54  C   UNL A   1      43.964  24.931  26.269  1.00  0.00     0.029 A 
ATOM     55  N   UNL A   1      44.022  27.012  27.055  1.00  0.00    -0.354 N 
ATOM     56  N   UNL A   1      45.147  29.694  27.375  1.00  0.00    -0.248 NA
ATOM     57  C   UNL A   1      46.905  31.203  27.103  1.00  0.00     0.031 C 
ATOM     58  C   UNL A   1      45.180  25.510  25.897  1.00  0.00     0.029 A 
ATOM     59  C   UNL A   1      45.205  26.815  26.362  1.00  0.00     0.049 A 
ATOM     60  H   UNL A   1      43.761  27.848  27.504  1.00  0.00     0.167 HD
ATOM     61  C   UNL A   1      46.172  29.076  26.667  1.00  0.00     0.074 A 
ATOM     62  C   UNL A   1      47.218  30.062  26.501  1.00  0.00     0.031 C 
ATOM     63  C   UNL A   1      46.238  27.806  26.196  1.00  0.00     0.037 A 
BRANCH  50  64
ATOM     64  C   UNL A   1      41.291  24.369  27.543  1.00  0.00     0.057 A 
ATOM     65  C   UNL A   1      40.219  24.177  26.662  1.00  0.00     0.134 A 
ATOM     66  C   UNL A   1      41.736  23.259  28.272  1.00  0.00     0.134 A 
ATOM     67  F   UNL A   1      39.733  25.204  25.948  1.00  0.00    -0.206 F 
ATOM     68  C   UNL A   1      39.606  22.932  26.520  1.00  0.00     0.040 A 
ATOM     69  C   UNL A   1      41.150  22.002  28.118  1.00  0.00     0.040 A 
ATOM     70  F   UNL A   1      42.760  23.375  29.131  1.00  0.00    -0.206 F 
ATOM     71  C   UNL A   1      40.080  21.837  27.241  1.00  0.00     0.006 A 
ENDBRANCH  50  64
BRANCH  51  72
ATOM     72  C   UNL A   1      45.467  33.383  28.428  1.00  0.00     0.057 A 
ATOM     73  C   UNL A   1      45.277  34.354  27.438  1.00  0.00     0.134 A 
ATOM     74  C   UNL A   1      46.281  33.726  29.516  1.00  0.00     0.134 A 
ATOM     75  F   UNL A   1      44.534  34.078  26.356  1.00  0.00    -0.206 F 
ATOM     76  C   UNL A   1      45.879  35.612  27.520  1.00  0.00     0.040 A 
ATOM     77  C   UNL A   1      46.866  34.988  29.624  1.00  0.00     0.040 A 
ATOM     78  F   UNL A   1      46.509  32.840  30.496  1.00  0.00    -0.206 F 
ATOM     79  C   UNL A   1      46.669  35.934  28.621  1.00  0.00     0.006 A 
ENDBRANCH  51  72
BRANCH  63  80
ATOM     80  C   UNL A   1      47.467  27.401  25.433  1.00  0.00     0.057 A 
ATOM     81  C   UNL A   1      48.545  26.760  26.055  1.00  0.00     0.134 A 
ATOM     82  C   UNL A   1      47.533  27.570  24.042  1.00  0.00     0.134 A 
ATOM     83  F   UNL A   1      48.550  26.572  27.383  1.00  0.00    -0.206 F 
ATOM     84  C   UNL A   1      49.649  26.312  25.325  1.00  0.00     0.040 A 
ATOM     85  C   UNL A   1      48.617  27.102  23.298  1.00  0.00     0.040 A 
ATOM     86  F   UNL A   1      46.529  28.164  23.379  1.00  0.00    -0.206 F 
ATOM     87  C   UNL A   1      49.680  26.473  23.941  1.00  0.00     0.006 A 
ENDBRANCH  63  80
ENDBRANCH  37  38
ENDBRANCH  30  32
ENDBRANCH  29  30
ENDBRANCH  28  29
ENDBRANCH  27  28
ENDBRANCH  26  27
ENDBRANCH   1  26
TORSDOF 18
ENDMDL
