MODEL 1
REMARK VINA RESULT:      -8.2      0.000      0.000
REMARK SMILES CC(C)(C[C@@H](O)C(F)(F)F)C(=O)OCCOCCOCCOC(=O)c1ccc(-c2c3nc(c(-c4c(F)cccc4F)c4ccc([nH]4)c(-c4c(F)cccc4F)c4nc(c(-c5c(F)cccc5F)c5ccc2[nH]5)C=C4)C=C3)cc1
REMARK SMILES IDX 17 1 16 2 15 3 14 4 13 5 11 6 12 7 2 8 1 9 3 10 4 11 5 12
REMARK SMILES IDX 6 13 7 15 8 16 9 17 10 18 18 19 19 20 20 21 21 22 22 23
REMARK SMILES IDX 23 24 24 25 25 26 26 27 78 28 27 29 77 30 28 31 29 32 30 33
REMARK SMILES IDX 71 34 31 35 76 36 70 37 72 38 32 39 75 40 69 41 68 42 33 44
REMARK SMILES IDX 59 45 42 46 58 47 43 48 46 49 57 50 73 51 44 52 45 53 56 55
REMARK SMILES IDX 74 56 47 57 34 58 35 59 40 60 36 61 37 62 39 63 41 64 38 65
REMARK SMILES IDX 60 66 61 67 66 68 62 69 63 70 65 71 67 72 64 73 48 74 49 75
REMARK SMILES IDX 54 76 50 77 51 78 53 79 55 80 52 81
REMARK H PARENT 6 14 72 43 46 54
REMARK Flexibility Score: inf
ROOT
ATOM      1  C   UNL A   1      33.136  37.160  29.885  1.00  0.00     0.188 C 
ENDROOT
BRANCH   1   2
ATOM      2  O   UNL A   1      32.656  36.952  31.209  1.00  0.00    -0.376 OA
BRANCH   2   3
ATOM      3  C   UNL A   1      33.425  37.373  32.324  1.00  0.00     0.202 C 
BRANCH   3   4
ATOM      4  C   UNL A   1      34.107  36.254  33.141  1.00  0.00     0.261 C 
BRANCH   4   5
ATOM      5  O   UNL A   1      35.230  35.541  32.551  1.00  0.00    -0.463 OA
BRANCH   5   6
ATOM      6  C   UNL A   1      35.053  34.195  32.465  1.00  0.00     0.311 C 
ATOM      7  O   UNL A   1      33.955  33.673  32.286  1.00  0.00    -0.252 OA
BRANCH   6   8
ATOM      8  C   UNL A   1      36.321  33.329  32.652  1.00  0.00     0.065 C 
ATOM      9  C   UNL A   1      37.498  34.160  32.096  1.00  0.00     0.023 C 
ATOM     10  C   UNL A   1      36.087  32.122  31.710  1.00  0.00     0.023 C 
BRANCH   8  11
ATOM     11  C   UNL A   1      36.705  32.702  34.035  1.00  0.00     0.059 C 
BRANCH  11  12
ATOM     12  C   UNL A   1      37.250  33.622  35.141  1.00  0.00     0.220 C 
BRANCH  12  13
ATOM     13  O   UNL A   1      36.338  33.562  36.250  1.00  0.00    -0.384 OA
ATOM     14  H   UNL A   1      36.610  32.855  36.855  1.00  0.00     0.211 HD
ENDBRANCH  12  13
BRANCH  12  15
ATOM     15  C   UNL A   1      38.673  33.240  35.618  1.00  0.00     0.414 C 
ATOM     16  F   UNL A   1      39.609  33.638  34.725  1.00  0.00    -0.168 F 
ATOM     17  F   UNL A   1      38.967  33.857  36.788  1.00  0.00    -0.168 F 
ATOM     18  F   UNL A   1      38.817  31.911  35.797  1.00  0.00    -0.168 F 
ENDBRANCH  12  15
ENDBRANCH  11  12
ENDBRANCH   8  11
ENDBRANCH   6   8
ENDBRANCH   5   6
ENDBRANCH   4   5
ENDBRANCH   3   4
ENDBRANCH   2   3
ENDBRANCH   1   2
BRANCH   1  19
ATOM     19  C   UNL A   1      33.632  35.982  29.054  1.00  0.00     0.188 C 
BRANCH  19  20
ATOM     20  O   UNL A   1      32.630  35.025  28.773  1.00  0.00    -0.376 OA
BRANCH  20  21
ATOM     21  C   UNL A   1      33.004  33.872  28.031  1.00  0.00     0.202 C 
BRANCH  21  22
ATOM     22  C   UNL A   1      34.347  33.296  28.492  1.00  0.00     0.261 C 
BRANCH  22  23
ATOM     23  O   UNL A   1      35.007  32.490  27.498  1.00  0.00    -0.460 OA
BRANCH  23  24
ATOM     24  C   UNL A   1      34.864  31.146  27.633  1.00  0.00     0.338 C 
ATOM     25  O   UNL A   1      34.032  30.442  27.104  1.00  0.00    -0.246 OA
BRANCH  24  26
ATOM     26  C   UNL A   1      36.064  30.637  28.341  1.00  0.00     0.060 A 
ATOM     27  C   UNL A   1      37.291  31.285  28.136  1.00  0.00     0.016 A 
ATOM     28  C   UNL A   1      35.974  29.558  29.219  1.00  0.00     0.016 A 
ATOM     29  C   UNL A   1      38.440  30.840  28.796  1.00  0.00     0.010 A 
ATOM     30  C   UNL A   1      37.128  29.096  29.856  1.00  0.00     0.010 A 
ATOM     31  C   UNL A   1      38.371  29.715  29.628  1.00  0.00    -0.014 A 
BRANCH  31  32
ATOM     32  C   UNL A   1      39.611  29.053  30.103  1.00  0.00     0.031 A 
ATOM     33  C   UNL A   1      40.285  29.605  31.330  1.00  0.00     0.074 A 
ATOM     34  C   UNL A   1      40.143  27.996  29.464  1.00  0.00     0.049 A 
ATOM     35  N   UNL A   1      41.440  29.296  31.858  1.00  0.00    -0.248 NA
ATOM     36  C   UNL A   1      39.551  30.658  32.052  1.00  0.00     0.031 C 
ATOM     37  C   UNL A   1      39.564  27.326  28.302  1.00  0.00     0.029 A 
ATOM     38  N   UNL A   1      41.312  27.314  29.701  1.00  0.00    -0.354 N 
ATOM     39  C   UNL A   1      41.582  30.128  32.962  1.00  0.00     0.074 A 
ATOM     40  C   UNL A   1      40.409  30.972  33.011  1.00  0.00     0.031 C 
ATOM     41  C   UNL A   1      40.391  26.338  27.914  1.00  0.00     0.029 A 
ATOM     42  C   UNL A   1      41.577  26.338  28.771  1.00  0.00     0.049 A 
ATOM     43  H   UNL A   1      41.903  27.505  30.464  1.00  0.00     0.167 HD
ATOM     44  C   UNL A   1      42.597  30.183  33.856  1.00  0.00     0.037 A 
ATOM     45  C   UNL A   1      42.667  25.562  28.609  1.00  0.00     0.037 A 
ATOM     46  C   UNL A   1      43.765  29.343  33.806  1.00  0.00     0.049 A 
ATOM     47  C   UNL A   1      43.828  25.704  29.561  1.00  0.00     0.074 A 
ATOM     48  C   UNL A   1      44.844  29.316  34.671  1.00  0.00     0.029 A 
ATOM     49  N   UNL A   1      44.010  28.388  32.830  1.00  0.00    -0.354 N 
ATOM     50  N   UNL A   1      43.956  26.489  30.605  1.00  0.00    -0.248 NA
ATOM     51  C   UNL A   1      45.001  24.851  29.311  1.00  0.00     0.031 C 
ATOM     52  C   UNL A   1      45.769  28.386  34.185  1.00  0.00     0.029 A 
ATOM     53  C   UNL A   1      45.236  27.786  33.056  1.00  0.00     0.049 A 
ATOM     54  H   UNL A   1      43.402  28.172  32.086  1.00  0.00     0.167 HD
ATOM     55  C   UNL A   1      45.201  26.199  31.153  1.00  0.00     0.074 A 
ATOM     56  C   UNL A   1      45.786  25.159  30.333  1.00  0.00     0.031 C 
ATOM     57  C   UNL A   1      45.805  26.742  32.239  1.00  0.00     0.037 A 
BRANCH  44  58
ATOM     58  C   UNL A   1      42.504  31.214  34.944  1.00  0.00     0.057 A 
ATOM     59  C   UNL A   1      42.899  32.543  34.746  1.00  0.00     0.134 A 
ATOM     60  C   UNL A   1      41.992  30.874  36.203  1.00  0.00     0.134 A 
ATOM     61  F   UNL A   1      43.414  32.932  33.570  1.00  0.00    -0.206 F 
ATOM     62  C   UNL A   1      42.815  33.490  35.769  1.00  0.00     0.040 A 
ATOM     63  C   UNL A   1      41.873  31.819  37.223  1.00  0.00     0.040 A 
ATOM     64  F   UNL A   1      41.591  29.620  36.460  1.00  0.00    -0.206 F 
ATOM     65  C   UNL A   1      42.294  33.129  37.010  1.00  0.00     0.006 A 
ENDBRANCH  44  58
BRANCH  45  66
ATOM     66  C   UNL A   1      42.736  24.592  27.484  1.00  0.00     0.057 A 
ATOM     67  C   UNL A   1      43.214  24.974  26.225  1.00  0.00     0.134 A 
ATOM     68  C   UNL A   1      42.291  23.272  27.629  1.00  0.00     0.134 A 
ATOM     69  F   UNL A   1      43.626  26.234  26.013  1.00  0.00    -0.206 F 
ATOM     70  C   UNL A   1      43.231  24.087  25.147  1.00  0.00     0.040 A 
ATOM     71  C   UNL A   1      42.331  22.365  26.568  1.00  0.00     0.040 A 
ATOM     72  F   UNL A   1      41.816  22.842  28.807  1.00  0.00    -0.206 F 
ATOM     73  C   UNL A   1      42.794  22.775  25.319  1.00  0.00     0.006 A 
ENDBRANCH  45  66
BRANCH  57  74
ATOM     74  C   UNL A   1      47.144  26.190  32.642  1.00  0.00     0.057 A 
ATOM     75  C   UNL A   1      48.347  26.741  32.182  1.00  0.00     0.134 A 
ATOM     76  C   UNL A   1      47.228  25.119  33.542  1.00  0.00     0.134 A 
ATOM     77  F   UNL A   1      48.340  27.760  31.311  1.00  0.00    -0.206 F 
ATOM     78  C   UNL A   1      49.584  26.228  32.581  1.00  0.00     0.040 A 
ATOM     79  C   UNL A   1      48.458  24.620  33.972  1.00  0.00     0.040 A 
ATOM     80  F   UNL A   1      46.116  24.551  34.032  1.00  0.00    -0.206 F 
ATOM     81  C   UNL A   1      49.641  25.170  33.486  1.00  0.00     0.006 A 
ENDBRANCH  57  74
ENDBRANCH  31  32
ENDBRANCH  24  26
ENDBRANCH  23  24
ENDBRANCH  22  23
ENDBRANCH  21  22
ENDBRANCH  20  21
ENDBRANCH  19  20
ENDBRANCH   1  19
TORSDOF 21
ENDMDL
MODEL 2
REMARK VINA RESULT:      -7.9      6.368     11.107
REMARK SMILES CC(C)(C[C@@H](O)C(F)(F)F)C(=O)OCCOCCOCCOC(=O)c1ccc(-c2c3nc(c(-c4c(F)cccc4F)c4ccc([nH]4)c(-c4c(F)cccc4F)c4nc(c(-c5c(F)cccc5F)c5ccc2[nH]5)C=C4)C=C3)cc1
REMARK SMILES IDX 17 1 16 2 15 3 14 4 13 5 11 6 12 7 2 8 1 9 3 10 4 11 5 12
REMARK SMILES IDX 6 13 7 15 8 16 9 17 10 18 18 19 19 20 20 21 21 22 22 23
REMARK SMILES IDX 23 24 24 25 25 26 26 27 78 28 27 29 77 30 28 31 29 32 30 33
REMARK SMILES IDX 71 34 31 35 76 36 70 37 72 38 32 39 75 40 69 41 68 42 33 44
REMARK SMILES IDX 59 45 42 46 58 47 43 48 46 49 57 50 73 51 44 52 45 53 56 55
REMARK SMILES IDX 74 56 47 57 34 58 35 59 40 60 36 61 37 62 39 63 41 64 38 65
REMARK SMILES IDX 60 66 61 67 66 68 62 69 63 70 65 71 67 72 64 73 48 74 49 75
REMARK SMILES IDX 54 76 50 77 51 78 53 79 55 80 52 81
REMARK H PARENT 6 14 72 43 46 54
REMARK Flexibility Score: inf
ROOT
ATOM      1  C   UNL A   1      36.208  23.476  26.056  1.00  0.00     0.188 C 
ENDROOT
BRANCH   1   2
ATOM      2  O   UNL A   1      34.967  23.983  25.576  1.00  0.00    -0.376 OA
BRANCH   2   3
ATOM      3  C   UNL A   1      33.878  24.173  26.466  1.00  0.00     0.202 C 
BRANCH   3   4
ATOM      4  C   UNL A   1      32.478  23.847  25.906  1.00  0.00     0.261 C 
BRANCH   4   5
ATOM      5  O   UNL A   1      32.376  23.047  24.694  1.00  0.00    -0.463 OA
BRANCH   5   6
ATOM      6  C   UNL A   1      31.966  21.767  24.903  1.00  0.00     0.311 C 
ATOM      7  O   UNL A   1      31.125  21.461  25.744  1.00  0.00    -0.252 OA
BRANCH   6   8
ATOM      8  C   UNL A   1      32.659  20.682  24.044  1.00  0.00     0.065 C 
ATOM      9  C   UNL A   1      34.172  20.990  24.096  1.00  0.00     0.023 C 
ATOM     10  C   UNL A   1      32.152  20.969  22.608  1.00  0.00     0.023 C 
BRANCH   8  11
ATOM     11  C   UNL A   1      32.407  19.153  24.271  1.00  0.00     0.059 C 
BRANCH  11  12
ATOM     12  C   UNL A   1      33.293  18.397  25.276  1.00  0.00     0.220 C 
BRANCH  12  13
ATOM     13  O   UNL A   1      32.525  18.197  26.474  1.00  0.00    -0.384 OA
ATOM     14  H   UNL A   1      31.639  17.880  26.241  1.00  0.00     0.211 HD
ENDBRANCH  12  13
BRANCH  12  15
ATOM     15  C   UNL A   1      33.799  17.031  24.750  1.00  0.00     0.414 C 
ATOM     16  F   UNL A   1      34.236  16.250  25.766  1.00  0.00    -0.168 F 
ATOM     17  F   UNL A   1      32.796  16.351  24.142  1.00  0.00    -0.168 F 
ATOM     18  F   UNL A   1      34.812  17.161  23.869  1.00  0.00    -0.168 F 
ENDBRANCH  12  15
ENDBRANCH  11  12
ENDBRANCH   8  11
ENDBRANCH   6   8
ENDBRANCH   5   6
ENDBRANCH   4   5
ENDBRANCH   3   4
ENDBRANCH   2   3
ENDBRANCH   1   2
BRANCH   1  19
ATOM     19  C   UNL A   1      37.154  22.741  25.114  1.00  0.00     0.188 C 
BRANCH  19  20
ATOM     20  O   UNL A   1      37.782  21.619  25.704  1.00  0.00    -0.376 OA
BRANCH  20  21
ATOM     21  C   UNL A   1      37.734  20.386  25.000  1.00  0.00     0.202 C 
BRANCH  21  22
ATOM     22  C   UNL A   1      38.902  19.464  25.363  1.00  0.00     0.261 C 
BRANCH  22  23
ATOM     23  O   UNL A   1      39.799  20.019  26.344  1.00  0.00    -0.460 OA
BRANCH  23  24
ATOM     24  C   UNL A   1      41.113  19.716  26.187  1.00  0.00     0.338 C 
ATOM     25  O   UNL A   1      41.578  18.706  25.706  1.00  0.00    -0.246 OA
BRANCH  24  26
ATOM     26  C   UNL A   1      41.893  20.945  26.470  1.00  0.00     0.060 A 
ATOM     27  C   UNL A   1      42.241  21.230  27.798  1.00  0.00     0.016 A 
ATOM     28  C   UNL A   1      42.305  21.786  25.437  1.00  0.00     0.016 A 
ATOM     29  C   UNL A   1      42.985  22.374  28.101  1.00  0.00     0.010 A 
ATOM     30  C   UNL A   1      43.025  22.944  25.743  1.00  0.00     0.010 A 
ATOM     31  C   UNL A   1      43.345  23.258  27.077  1.00  0.00    -0.014 A 
BRANCH  31  32
ATOM     32  C   UNL A   1      43.873  24.607  27.399  1.00  0.00     0.031 A 
ATOM     33  C   UNL A   1      42.898  25.665  27.837  1.00  0.00     0.074 A 
ATOM     34  C   UNL A   1      45.182  24.901  27.299  1.00  0.00     0.049 A 
ATOM     35  N   UNL A   1      43.086  26.943  28.038  1.00  0.00    -0.248 NA
ATOM     36  C   UNL A   1      41.515  25.214  28.070  1.00  0.00     0.031 C 
ATOM     37  C   UNL A   1      46.240  23.959  26.945  1.00  0.00     0.029 A 
ATOM     38  N   UNL A   1      45.836  26.098  27.470  1.00  0.00    -0.354 N 
ATOM     39  C   UNL A   1      41.846  27.453  28.401  1.00  0.00     0.074 A 
ATOM     40  C   UNL A   1      40.908  26.353  28.367  1.00  0.00     0.031 C 
ATOM     41  C   UNL A   1      47.413  24.618  26.907  1.00  0.00     0.029 A 
ATOM     42  C   UNL A   1      47.179  26.034  27.187  1.00  0.00     0.049 A 
ATOM     43  H   UNL A   1      45.387  26.920  27.768  1.00  0.00     0.167 HD
ATOM     44  C   UNL A   1      41.518  28.723  28.737  1.00  0.00     0.037 A 
ATOM     45  C   UNL A   1      48.103  27.013  27.125  1.00  0.00     0.037 A 
ATOM     46  C   UNL A   1      42.452  29.818  28.770  1.00  0.00     0.049 A 
ATOM     47  C   UNL A   1      47.697  28.438  27.411  1.00  0.00     0.074 A 
ATOM     48  C   UNL A   1      42.218  31.139  29.106  1.00  0.00     0.029 A 
ATOM     49  N   UNL A   1      43.797  29.718  28.446  1.00  0.00    -0.354 N 
ATOM     50  N   UNL A   1      46.525  28.914  27.758  1.00  0.00    -0.248 NA
ATOM     51  C   UNL A   1      48.745  29.464  27.294  1.00  0.00     0.031 C 
ATOM     52  C   UNL A   1      43.409  31.851  28.929  1.00  0.00     0.029 A 
ATOM     53  C   UNL A   1      44.400  30.961  28.547  1.00  0.00     0.049 A 
ATOM     54  H   UNL A   1      44.254  28.887  28.183  1.00  0.00     0.167 HD
ATOM     55  C   UNL A   1      46.703  30.282  27.934  1.00  0.00     0.074 A 
ATOM     56  C   UNL A   1      48.098  30.559  27.667  1.00  0.00     0.031 C 
ATOM     57  C   UNL A   1      45.794  31.224  28.290  1.00  0.00     0.037 A 
BRANCH  44  58
ATOM     58  C   UNL A   1      40.077  29.002  29.057  1.00  0.00     0.057 A 
ATOM     59  C   UNL A   1      39.591  28.996  30.370  1.00  0.00     0.134 A 
ATOM     60  C   UNL A   1      39.168  29.301  28.034  1.00  0.00     0.134 A 
ATOM     61  F   UNL A   1      40.404  28.701  31.396  1.00  0.00    -0.206 F 
ATOM     62  C   UNL A   1      38.247  29.248  30.653  1.00  0.00     0.040 A 
ATOM     63  C   UNL A   1      37.829  29.586  28.307  1.00  0.00     0.040 A 
ATOM     64  F   UNL A   1      39.567  29.328  26.753  1.00  0.00    -0.206 F 
ATOM     65  C   UNL A   1      37.363  29.551  29.618  1.00  0.00     0.006 A 
ENDBRANCH  44  58
BRANCH  45  66
ATOM     66  C   UNL A   1      49.507  26.696  26.750  1.00  0.00     0.057 A 
ATOM     67  C   UNL A   1      49.913  26.674  25.410  1.00  0.00     0.134 A 
ATOM     68  C   UNL A   1      50.466  26.372  27.717  1.00  0.00     0.134 A 
ATOM     69  F   UNL A   1      49.033  26.945  24.434  1.00  0.00    -0.206 F 
ATOM     70  C   UNL A   1      51.214  26.323  25.045  1.00  0.00     0.040 A 
ATOM     71  C   UNL A   1      51.779  26.049  27.368  1.00  0.00     0.040 A 
ATOM     72  F   UNL A   1      50.142  26.370  29.019  1.00  0.00    -0.206 F 
ATOM     73  C   UNL A   1      52.154  26.015  26.026  1.00  0.00     0.006 A 
ENDBRANCH  45  66
BRANCH  57  74
ATOM     74  C   UNL A   1      46.284  32.635  28.465  1.00  0.00     0.057 A 
ATOM     75  C   UNL A   1      46.799  33.100  29.681  1.00  0.00     0.134 A 
ATOM     76  C   UNL A   1      46.281  33.525  27.383  1.00  0.00     0.134 A 
ATOM     77  F   UNL A   1      46.822  32.305  30.760  1.00  0.00    -0.206 F 
ATOM     78  C   UNL A   1      47.268  34.408  29.821  1.00  0.00     0.040 A 
ATOM     79  C   UNL A   1      46.777  34.824  27.502  1.00  0.00     0.040 A 
ATOM     80  F   UNL A   1      45.814  33.142  26.185  1.00  0.00    -0.206 F 
ATOM     81  C   UNL A   1      47.266  35.272  28.727  1.00  0.00     0.006 A 
ENDBRANCH  57  74
ENDBRANCH  31  32
ENDBRANCH  24  26
ENDBRANCH  23  24
ENDBRANCH  22  23
ENDBRANCH  21  22
ENDBRANCH  20  21
ENDBRANCH  19  20
ENDBRANCH   1  19
TORSDOF 21
ENDMDL
MODEL 3
REMARK VINA RESULT:      -7.9      4.451     10.106
REMARK SMILES CC(C)(C[C@@H](O)C(F)(F)F)C(=O)OCCOCCOCCOC(=O)c1ccc(-c2c3nc(c(-c4c(F)cccc4F)c4ccc([nH]4)c(-c4c(F)cccc4F)c4nc(c(-c5c(F)cccc5F)c5ccc2[nH]5)C=C4)C=C3)cc1
REMARK SMILES IDX 17 1 16 2 15 3 14 4 13 5 11 6 12 7 2 8 1 9 3 10 4 11 5 12
REMARK SMILES IDX 6 13 7 15 8 16 9 17 10 18 18 19 19 20 20 21 21 22 22 23
REMARK SMILES IDX 23 24 24 25 25 26 26 27 78 28 27 29 77 30 28 31 29 32 30 33
REMARK SMILES IDX 71 34 31 35 76 36 70 37 72 38 32 39 75 40 69 41 68 42 33 44
REMARK SMILES IDX 59 45 42 46 58 47 43 48 46 49 57 50 73 51 44 52 45 53 56 55
REMARK SMILES IDX 74 56 47 57 34 58 35 59 40 60 36 61 37 62 39 63 41 64 38 65
REMARK SMILES IDX 60 66 61 67 66 68 62 69 63 70 65 71 67 72 64 73 48 74 49 75
REMARK SMILES IDX 54 76 50 77 51 78 53 79 55 80 52 81
REMARK H PARENT 6 14 72 43 46 54
REMARK Flexibility Score: inf
ROOT
ATOM      1  C   UNL A   1      31.670  28.448  25.864  1.00  0.00     0.188 C 
ENDROOT
BRANCH   1   2
ATOM      2  O   UNL A   1      31.111  28.124  24.596  1.00  0.00    -0.376 OA
BRANCH   2   3
ATOM      3  C   UNL A   1      31.641  28.699  23.412  1.00  0.00     0.202 C 
BRANCH   3   4
ATOM      4  C   UNL A   1      32.372  27.732  22.456  1.00  0.00     0.261 C 
BRANCH   4   5
ATOM      5  O   UNL A   1      33.157  26.646  23.024  1.00  0.00    -0.463 OA
BRANCH   5   6
ATOM      6  C   UNL A   1      33.140  25.502  22.287  1.00  0.00     0.311 C 
ATOM      7  O   UNL A   1      33.389  25.475  21.085  1.00  0.00    -0.252 OA
BRANCH   6   8
ATOM      8  C   UNL A   1      32.738  24.212  23.042  1.00  0.00     0.065 C 
ATOM      9  C   UNL A   1      31.254  24.385  23.432  1.00  0.00     0.023 C 
ATOM     10  C   UNL A   1      33.591  24.260  24.335  1.00  0.00     0.023 C 
BRANCH   8  11
ATOM     11  C   UNL A   1      32.980  22.786  22.443  1.00  0.00     0.059 C 
BRANCH  11  12
ATOM     12  C   UNL A   1      31.977  21.666  22.766  1.00  0.00     0.220 C 
BRANCH  12  13
ATOM     13  O   UNL A   1      31.599  21.044  21.527  1.00  0.00    -0.384 OA
ATOM     14  H   UNL A   1      31.242  21.714  20.924  1.00  0.00     0.211 HD
ENDBRANCH  12  13
BRANCH  12  15
ATOM     15  C   UNL A   1      32.536  20.594  23.735  1.00  0.00     0.414 C 
ATOM     16  F   UNL A   1      32.571  19.376  23.145  1.00  0.00    -0.168 F 
ATOM     17  F   UNL A   1      33.810  20.889  24.091  1.00  0.00    -0.168 F 
ATOM     18  F   UNL A   1      31.800  20.483  24.860  1.00  0.00    -0.168 F 
ENDBRANCH  12  15
ENDBRANCH  11  12
ENDBRANCH   8  11
ENDBRANCH   6   8
ENDBRANCH   5   6
ENDBRANCH   4   5
ENDBRANCH   3   4
ENDBRANCH   2   3
ENDBRANCH   1   2
BRANCH   1  19
ATOM     19  C   UNL A   1      33.035  29.121  25.953  1.00  0.00     0.188 C 
BRANCH  19  20
ATOM     20  O   UNL A   1      32.982  30.449  26.437  1.00  0.00    -0.376 OA
BRANCH  20  21
ATOM     21  C   UNL A   1      31.708  31.072  26.522  1.00  0.00     0.202 C 
BRANCH  21  22
ATOM     22  C   UNL A   1      31.802  32.521  27.011  1.00  0.00     0.261 C 
BRANCH  22  23
ATOM     23  O   UNL A   1      33.150  32.970  27.245  1.00  0.00    -0.460 OA
BRANCH  23  24
ATOM     24  C   UNL A   1      33.304  33.908  28.215  1.00  0.00     0.338 C 
ATOM     25  O   UNL A   1      32.529  34.790  28.510  1.00  0.00    -0.246 OA
BRANCH  24  26
ATOM     26  C   UNL A   1      34.477  33.516  29.034  1.00  0.00     0.060 A 
ATOM     27  C   UNL A   1      35.711  34.135  28.784  1.00  0.00     0.016 A 
ATOM     28  C   UNL A   1      34.355  32.576  30.058  1.00  0.00     0.016 A 
ATOM     29  C   UNL A   1      36.834  33.798  29.543  1.00  0.00     0.010 A 
ATOM     30  C   UNL A   1      35.485  32.220  30.798  1.00  0.00     0.010 A 
ATOM     31  C   UNL A   1      36.734  32.807  30.528  1.00  0.00    -0.014 A 
BRANCH  31  32
ATOM     32  C   UNL A   1      37.957  32.230  31.141  1.00  0.00     0.031 A 
ATOM     33  C   UNL A   1      38.675  31.137  30.398  1.00  0.00     0.074 A 
ATOM     34  C   UNL A   1      38.421  32.649  32.332  1.00  0.00     0.049 A 
ATOM     35  N   UNL A   1      39.672  30.383  30.780  1.00  0.00    -0.248 NA
ATOM     36  C   UNL A   1      38.190  30.854  29.037  1.00  0.00     0.031 C 
ATOM     37  C   UNL A   1      37.859  33.736  33.128  1.00  0.00     0.029 A 
ATOM     38  N   UNL A   1      39.472  32.184  33.086  1.00  0.00    -0.354 N 
ATOM     39  C   UNL A   1      39.922  29.524  29.717  1.00  0.00     0.074 A 
ATOM     40  C   UNL A   1      38.955  29.831  28.687  1.00  0.00     0.031 C 
ATOM     41  C   UNL A   1      38.560  33.843  34.272  1.00  0.00     0.029 A 
ATOM     42  C   UNL A   1      39.588  32.804  34.306  1.00  0.00     0.049 A 
ATOM     43  H   UNL A   1      40.083  31.476  32.781  1.00  0.00     0.167 HD
ATOM     44  C   UNL A   1      40.873  28.566  29.608  1.00  0.00     0.037 A 
ATOM     45  C   UNL A   1      40.404  32.536  35.345  1.00  0.00     0.037 A 
ATOM     46  C   UNL A   1      41.834  28.260  30.634  1.00  0.00     0.049 A 
ATOM     47  C   UNL A   1      41.395  31.402  35.239  1.00  0.00     0.074 A 
ATOM     48  C   UNL A   1      42.843  27.314  30.615  1.00  0.00     0.029 A 
ATOM     49  N   UNL A   1      41.899  28.890  31.868  1.00  0.00    -0.354 N 
ATOM     50  N   UNL A   1      41.629  30.596  34.230  1.00  0.00    -0.248 NA
ATOM     51  C   UNL A   1      42.234  31.141  36.418  1.00  0.00     0.031 C 
ATOM     52  C   UNL A   1      43.481  27.331  31.860  1.00  0.00     0.029 A 
ATOM     53  C   UNL A   1      42.912  28.333  32.630  1.00  0.00     0.049 A 
ATOM     54  H   UNL A   1      41.310  29.623  32.160  1.00  0.00     0.167 HD
ATOM     55  C   UNL A   1      42.662  29.760  34.641  1.00  0.00     0.074 A 
ATOM     56  C   UNL A   1      43.017  30.163  35.985  1.00  0.00     0.031 C 
ATOM     57  C   UNL A   1      43.266  28.751  33.964  1.00  0.00     0.037 A 
BRANCH  44  58
ATOM     58  C   UNL A   1      40.892  27.754  28.345  1.00  0.00     0.057 A 
ATOM     59  C   UNL A   1      41.636  28.138  27.222  1.00  0.00     0.134 A 
ATOM     60  C   UNL A   1      40.168  26.557  28.260  1.00  0.00     0.134 A 
ATOM     61  F   UNL A   1      42.338  29.281  27.230  1.00  0.00    -0.206 F 
ATOM     62  C   UNL A   1      41.637  27.377  26.051  1.00  0.00     0.040 A 
ATOM     63  C   UNL A   1      40.187  25.772  27.106  1.00  0.00     0.040 A 
ATOM     64  F   UNL A   1      39.437  26.127  29.300  1.00  0.00    -0.206 F 
ATOM     65  C   UNL A   1      40.917  26.186  25.994  1.00  0.00     0.006 A 
ENDBRANCH  44  58
BRANCH  45  66
ATOM     66  C   UNL A   1      40.311  33.333  36.597  1.00  0.00     0.057 A 
ATOM     67  C   UNL A   1      39.386  33.010  37.596  1.00  0.00     0.134 A 
ATOM     68  C   UNL A   1      41.118  34.458  36.807  1.00  0.00     0.134 A 
ATOM     69  F   UNL A   1      38.563  31.962  37.439  1.00  0.00    -0.206 F 
ATOM     70  C   UNL A   1      39.252  33.786  38.749  1.00  0.00     0.040 A 
ATOM     71  C   UNL A   1      41.017  35.225  37.970  1.00  0.00     0.040 A 
ATOM     72  F   UNL A   1      42.023  34.826  35.888  1.00  0.00    -0.206 F 
ATOM     73  C   UNL A   1      40.075  34.894  38.942  1.00  0.00     0.006 A 
ENDBRANCH  45  66
BRANCH  57  74
ATOM     74  C   UNL A   1      44.408  28.044  34.639  1.00  0.00     0.057 A 
ATOM     75  C   UNL A   1      44.226  26.870  35.381  1.00  0.00     0.134 A 
ATOM     76  C   UNL A   1      45.718  28.523  34.504  1.00  0.00     0.134 A 
ATOM     77  F   UNL A   1      42.998  26.362  35.560  1.00  0.00    -0.206 F 
ATOM     78  C   UNL A   1      45.301  26.215  35.986  1.00  0.00     0.040 A 
ATOM     79  C   UNL A   1      46.804  27.859  35.077  1.00  0.00     0.040 A 
ATOM     80  F   UNL A   1      45.968  29.636  33.796  1.00  0.00    -0.206 F 
ATOM     81  C   UNL A   1      46.595  26.705  35.827  1.00  0.00     0.006 A 
ENDBRANCH  57  74
ENDBRANCH  31  32
ENDBRANCH  24  26
ENDBRANCH  23  24
ENDBRANCH  22  23
ENDBRANCH  21  22
ENDBRANCH  20  21
ENDBRANCH  19  20
ENDBRANCH   1  19
TORSDOF 21
ENDMDL
