MODEL 1
REMARK VINA RESULT:     -10.8      0.000      0.000
REMARK SMILES CO[C@@H]1C[C@H](C(=O)OCCOCCOCCOC(=O)c2ccc(-c3c4nc(c(-c5c(F)cccc5F)c5ccc([nH]5)c(-c5c(F)cccc5F)c5nc(c(-c6c(F)cccc6F)c6ccc3[nH]6)C=C5)C=C4)cc2)N(C(=O)c2ccn(C)c(=O)c2)C1
REMARK SMILES IDX 12 1 11 2 10 3 9 4 8 5 6 6 7 7 5 8 3 9 4 10 85 11 74 12 2 13
REMARK SMILES IDX 1 14 75 15 76 16 77 17 78 18 84 19 79 20 82 21 80 22 83 23
REMARK SMILES IDX 81 24 13 25 14 26 15 27 16 28 17 29 18 30 19 31 20 32 21 33
REMARK SMILES IDX 73 34 22 35 72 36 23 37 24 38 25 39 66 40 26 41 71 42 65 43
REMARK SMILES IDX 67 44 27 45 70 46 64 47 63 48 28 50 54 51 37 52 53 53 38 54
REMARK SMILES IDX 41 55 52 56 68 57 39 58 40 59 51 61 69 62 42 63 29 64 30 65
REMARK SMILES IDX 35 66 31 67 32 68 34 69 36 70 33 71 55 72 56 73 61 74 57 75
REMARK SMILES IDX 58 76 60 77 62 78 59 79 43 80 44 81 49 82 45 83 46 84 48 85
REMARK SMILES IDX 50 86 47 87
REMARK H PARENT 67 49 41 60
REMARK Flexibility Score: inf
ROOT
ATOM      1  C   UNL A   1      39.726  21.481  26.507  1.00  0.00     0.188 C 
ENDROOT
BRANCH   1   2
ATOM      2  O   UNL A   1      38.594  21.173  25.701  1.00  0.00    -0.376 OA
BRANCH   2   3
ATOM      3  C   UNL A   1      37.719  22.212  25.280  1.00  0.00     0.202 C 
BRANCH   3   4
ATOM      4  C   UNL A   1      36.726  21.868  24.167  1.00  0.00     0.261 C 
BRANCH   4   5
ATOM      5  O   UNL A   1      36.078  23.016  23.578  1.00  0.00    -0.462 OA
BRANCH   5   6
ATOM      6  C   UNL A   1      34.742  22.907  23.399  1.00  0.00     0.329 C 
ATOM      7  O   UNL A   1      34.164  23.308  22.390  1.00  0.00    -0.250 OA
BRANCH   6   8
ATOM      8  C   UNL A   1      33.955  22.225  24.548  1.00  0.00     0.198 C 
ATOM      9  C   UNL A   1      32.250  23.685  25.462  1.00  0.00     0.140 C 
ATOM     10  C   UNL A   1      33.504  22.897  25.837  1.00  0.00     0.071 C 
ATOM     11  C   UNL A   1      31.691  22.909  24.249  1.00  0.00     0.152 C 
ATOM     12  N   UNL A   1      32.667  21.857  23.975  1.00  0.00    -0.322 N 
BRANCH   9  13
ATOM     13  O   UNL A   1      32.597  25.029  25.128  1.00  0.00    -0.380 OA
ATOM     14  C   UNL A   1      31.935  25.493  23.949  1.00  0.00     0.195 C 
ENDBRANCH   9  13
BRANCH  12  15
ATOM     15  C   UNL A   1      32.372  20.749  23.215  1.00  0.00     0.254 C 
ATOM     16  O   UNL A   1      31.855  20.821  22.104  1.00  0.00    -0.269 OA
BRANCH  15  17
ATOM     17  C   UNL A   1      32.682  19.417  23.811  1.00  0.00     0.046 A 
ATOM     18  C   UNL A   1      32.425  19.150  25.206  1.00  0.00     0.032 A 
ATOM     19  C   UNL A   1      33.228  18.478  23.024  1.00  0.00     0.085 A 
ATOM     20  C   UNL A   1      32.716  17.949  25.717  1.00  0.00     0.089 A 
ATOM     21  C   UNL A   1      33.509  17.127  23.571  1.00  0.00     0.251 A 
ATOM     22  N   UNL A   1      33.255  16.946  24.929  1.00  0.00    -0.319 N 
ATOM     23  O   UNL A   1      33.927  16.262  22.805  1.00  0.00    -0.269 OA
ATOM     24  C   UNL A   1      33.572  15.668  25.547  1.00  0.00     0.153 C 
ENDBRANCH  15  17
ENDBRANCH  12  15
ENDBRANCH   6   8
ENDBRANCH   5   6
ENDBRANCH   4   5
ENDBRANCH   3   4
ENDBRANCH   2   3
ENDBRANCH   1   2
BRANCH   1  25
ATOM     25  C   UNL A   1      40.823  20.434  26.725  1.00  0.00     0.188 C 
BRANCH  25  26
ATOM     26  O   UNL A   1      41.640  20.200  25.598  1.00  0.00    -0.376 OA
BRANCH  26  27
ATOM     27  C   UNL A   1      43.028  20.074  25.855  1.00  0.00     0.202 C 
BRANCH  27  28
ATOM     28  C   UNL A   1      43.652  21.450  26.088  1.00  0.00     0.261 C 
BRANCH  28  29
ATOM     29  O   UNL A   1      42.879  22.545  25.558  1.00  0.00    -0.460 OA
BRANCH  29  30
ATOM     30  C   UNL A   1      43.542  23.686  25.250  1.00  0.00     0.338 C 
ATOM     31  O   UNL A   1      44.214  23.903  24.257  1.00  0.00    -0.246 OA
BRANCH  30  32
ATOM     32  C   UNL A   1      43.093  24.720  26.208  1.00  0.00     0.060 A 
ATOM     33  C   UNL A   1      43.596  26.025  26.096  1.00  0.00     0.016 A 
ATOM     34  C   UNL A   1      42.131  24.412  27.171  1.00  0.00     0.016 A 
ATOM     35  C   UNL A   1      43.134  27.028  26.953  1.00  0.00     0.010 A 
ATOM     36  C   UNL A   1      41.687  25.409  28.039  1.00  0.00     0.010 A 
ATOM     37  C   UNL A   1      42.195  26.717  27.944  1.00  0.00    -0.014 A 
BRANCH  37  38
ATOM     38  C   UNL A   1      41.829  27.695  28.995  1.00  0.00     0.031 A 
ATOM     39  C   UNL A   1      42.590  27.671  30.288  1.00  0.00     0.074 A 
ATOM     40  C   UNL A   1      40.795  28.540  28.833  1.00  0.00     0.049 A 
ATOM     41  N   UNL A   1      42.345  28.297  31.410  1.00  0.00    -0.248 NA
ATOM     42  C   UNL A   1      43.786  26.813  30.321  1.00  0.00     0.031 C 
ATOM     43  C   UNL A   1      40.004  28.689  27.614  1.00  0.00     0.029 A 
ATOM     44  N   UNL A   1      40.218  29.412  29.722  1.00  0.00    -0.354 N 
ATOM     45  C   UNL A   1      43.349  27.903  32.284  1.00  0.00     0.074 A 
ATOM     46  C   UNL A   1      44.193  26.968  31.573  1.00  0.00     0.031 C 
ATOM     47  C   UNL A   1      39.024  29.583  27.840  1.00  0.00     0.029 A 
ATOM     48  C   UNL A   1      39.096  30.032  29.231  1.00  0.00     0.049 A 
ATOM     49  H   UNL A   1      40.574  29.577  30.624  1.00  0.00     0.167 HD
ATOM     50  C   UNL A   1      43.551  28.290  33.565  1.00  0.00     0.037 A 
ATOM     51  C   UNL A   1      38.207  30.838  29.847  1.00  0.00     0.037 A 
ATOM     52  C   UNL A   1      42.706  29.214  34.274  1.00  0.00     0.049 A 
ATOM     53  C   UNL A   1      38.393  31.173  31.306  1.00  0.00     0.074 A 
ATOM     54  C   UNL A   1      42.842  29.685  35.568  1.00  0.00     0.029 A 
ATOM     55  N   UNL A   1      41.562  29.796  33.752  1.00  0.00    -0.354 N 
ATOM     56  N   UNL A   1      39.355  30.816  32.121  1.00  0.00    -0.248 NA
ATOM     57  C   UNL A   1      37.361  32.013  31.932  1.00  0.00     0.031 C 
ATOM     58  C   UNL A   1      41.749  30.513  35.846  1.00  0.00     0.029 A 
ATOM     59  C   UNL A   1      40.961  30.595  34.710  1.00  0.00     0.049 A 
ATOM     60  H   UNL A   1      41.226  29.661  32.836  1.00  0.00     0.167 HD
ATOM     61  C   UNL A   1      39.059  31.406  33.345  1.00  0.00     0.074 A 
ATOM     62  C   UNL A   1      37.832  32.153  33.163  1.00  0.00     0.031 C 
ATOM     63  C   UNL A   1      39.742  31.337  34.514  1.00  0.00     0.037 A 
BRANCH  50  64
ATOM     64  C   UNL A   1      44.716  27.688  34.290  1.00  0.00     0.057 A 
ATOM     65  C   UNL A   1      45.976  28.299  34.300  1.00  0.00     0.134 A 
ATOM     66  C   UNL A   1      44.567  26.496  35.011  1.00  0.00     0.134 A 
ATOM     67  F   UNL A   1      46.188  29.432  33.615  1.00  0.00    -0.206 F 
ATOM     68  C   UNL A   1      47.053  27.733  34.986  1.00  0.00     0.040 A 
ATOM     69  C   UNL A   1      45.630  25.935  35.720  1.00  0.00     0.040 A 
ATOM     70  F   UNL A   1      43.385  25.861  35.042  1.00  0.00    -0.206 F 
ATOM     71  C   UNL A   1      46.878  26.552  35.704  1.00  0.00     0.006 A 
ENDBRANCH  50  64
BRANCH  51  72
ATOM     72  C   UNL A   1      37.032  31.359  29.104  1.00  0.00     0.057 A 
ATOM     73  C   UNL A   1      36.999  32.677  28.637  1.00  0.00     0.134 A 
ATOM     74  C   UNL A   1      35.902  30.564  28.874  1.00  0.00     0.134 A 
ATOM     75  F   UNL A   1      38.039  33.496  28.851  1.00  0.00    -0.206 F 
ATOM     76  C   UNL A   1      35.878  33.193  27.981  1.00  0.00     0.040 A 
ATOM     77  C   UNL A   1      34.786  31.059  28.197  1.00  0.00     0.040 A 
ATOM     78  F   UNL A   1      35.868  29.294  29.301  1.00  0.00    -0.206 F 
ATOM     79  C   UNL A   1      34.769  32.380  27.755  1.00  0.00     0.006 A 
ENDBRANCH  51  72
BRANCH  63  80
ATOM     80  C   UNL A   1      39.200  32.106  35.684  1.00  0.00     0.057 A 
ATOM     81  C   UNL A   1      39.510  33.456  35.886  1.00  0.00     0.134 A 
ATOM     82  C   UNL A   1      38.305  31.507  36.580  1.00  0.00     0.134 A 
ATOM     83  F   UNL A   1      40.370  34.086  35.071  1.00  0.00    -0.206 F 
ATOM     84  C   UNL A   1      38.959  34.180  36.945  1.00  0.00     0.040 A 
ATOM     85  C   UNL A   1      37.728  32.226  37.627  1.00  0.00     0.040 A 
ATOM     86  F   UNL A   1      37.958  30.219  36.437  1.00  0.00    -0.206 F 
ATOM     87  C   UNL A   1      38.058  33.567  37.814  1.00  0.00     0.006 A 
ENDBRANCH  63  80
ENDBRANCH  37  38
ENDBRANCH  30  32
ENDBRANCH  29  30
ENDBRANCH  28  29
ENDBRANCH  27  28
ENDBRANCH  26  27
ENDBRANCH  25  26
ENDBRANCH   1  25
TORSDOF 20
ENDMDL
MODEL 2
REMARK VINA RESULT:     -10.5      1.246      3.483
REMARK SMILES CO[C@@H]1C[C@H](C(=O)OCCOCCOCCOC(=O)c2ccc(-c3c4nc(c(-c5c(F)cccc5F)c5ccc([nH]5)c(-c5c(F)cccc5F)c5nc(c(-c6c(F)cccc6F)c6ccc3[nH]6)C=C5)C=C4)cc2)N(C(=O)c2ccn(C)c(=O)c2)C1
REMARK SMILES IDX 12 1 11 2 10 3 9 4 8 5 6 6 7 7 5 8 3 9 4 10 85 11 74 12 2 13
REMARK SMILES IDX 1 14 75 15 76 16 77 17 78 18 84 19 79 20 82 21 80 22 83 23
REMARK SMILES IDX 81 24 13 25 14 26 15 27 16 28 17 29 18 30 19 31 20 32 21 33
REMARK SMILES IDX 73 34 22 35 72 36 23 37 24 38 25 39 66 40 26 41 71 42 65 43
REMARK SMILES IDX 67 44 27 45 70 46 64 47 63 48 28 50 54 51 37 52 53 53 38 54
REMARK SMILES IDX 41 55 52 56 68 57 39 58 40 59 51 61 69 62 42 63 29 64 30 65
REMARK SMILES IDX 35 66 31 67 32 68 34 69 36 70 33 71 55 72 56 73 61 74 57 75
REMARK SMILES IDX 58 76 60 77 62 78 59 79 43 80 44 81 49 82 45 83 46 84 48 85
REMARK SMILES IDX 50 86 47 87
REMARK H PARENT 67 49 41 60
REMARK Flexibility Score: inf
ROOT
ATOM      1  C   UNL A   1      39.763  21.720  26.136  1.00  0.00     0.188 C 
ENDROOT
BRANCH   1   2
ATOM      2  O   UNL A   1      38.340  21.780  26.131  1.00  0.00    -0.376 OA
BRANCH   2   3
ATOM      3  C   UNL A   1      37.644  22.003  24.911  1.00  0.00     0.202 C 
BRANCH   3   4
ATOM      4  C   UNL A   1      36.204  21.488  24.836  1.00  0.00     0.261 C 
BRANCH   4   5
ATOM      5  O   UNL A   1      35.201  22.518  24.975  1.00  0.00    -0.462 OA
BRANCH   5   6
ATOM      6  C   UNL A   1      34.612  22.921  23.826  1.00  0.00     0.329 C 
ATOM      7  O   UNL A   1      35.244  23.241  22.822  1.00  0.00    -0.250 OA
BRANCH   6   8
ATOM      8  C   UNL A   1      33.061  22.948  23.832  1.00  0.00     0.198 C 
ATOM      9  C   UNL A   1      32.122  20.720  24.000  1.00  0.00     0.140 C 
ATOM     10  C   UNL A   1      32.152  21.962  23.110  1.00  0.00     0.071 C 
ATOM     11  C   UNL A   1      32.410  21.283  25.409  1.00  0.00     0.152 C 
ATOM     12  N   UNL A   1      32.670  22.707  25.215  1.00  0.00    -0.322 N 
BRANCH   9  13
ATOM     13  O   UNL A   1      33.119  19.790  23.578  1.00  0.00    -0.380 OA
ATOM     14  C   UNL A   1      33.569  18.944  24.637  1.00  0.00     0.195 C 
ENDBRANCH   9  13
BRANCH  12  15
ATOM     15  C   UNL A   1      32.616  23.620  26.242  1.00  0.00     0.254 C 
ATOM     16  O   UNL A   1      32.771  23.308  27.420  1.00  0.00    -0.269 OA
BRANCH  15  17
ATOM     17  C   UNL A   1      32.327  25.037  25.876  1.00  0.00     0.046 A 
ATOM     18  C   UNL A   1      31.010  25.436  25.441  1.00  0.00     0.032 A 
ATOM     19  C   UNL A   1      33.327  25.929  25.937  1.00  0.00     0.085 A 
ATOM     20  C   UNL A   1      30.777  26.712  25.113  1.00  0.00     0.089 A 
ATOM     21  C   UNL A   1      33.066  27.355  25.622  1.00  0.00     0.251 A 
ATOM     22  N   UNL A   1      31.778  27.666  25.191  1.00  0.00    -0.319 N 
ATOM     23  O   UNL A   1      33.979  28.163  25.771  1.00  0.00    -0.269 OA
ATOM     24  C   UNL A   1      31.471  29.033  24.799  1.00  0.00     0.153 C 
ENDBRANCH  15  17
ENDBRANCH  12  15
ENDBRANCH   6   8
ENDBRANCH   5   6
ENDBRANCH   4   5
ENDBRANCH   3   4
ENDBRANCH   2   3
ENDBRANCH   1   2
BRANCH   1  25
ATOM     25  C   UNL A   1      40.516  21.423  27.436  1.00  0.00     0.188 C 
BRANCH  25  26
ATOM     26  O   UNL A   1      41.674  20.632  27.273  1.00  0.00    -0.376 OA
BRANCH  26  27
ATOM     27  C   UNL A   1      42.162  20.515  25.948  1.00  0.00     0.202 C 
BRANCH  27  28
ATOM     28  C   UNL A   1      43.576  21.087  25.850  1.00  0.00     0.261 C 
BRANCH  28  29
ATOM     29  O   UNL A   1      43.747  22.354  26.514  1.00  0.00    -0.460 OA
BRANCH  29  30
ATOM     30  C   UNL A   1      43.584  23.476  25.771  1.00  0.00     0.338 C 
ATOM     31  O   UNL A   1      43.597  23.564  24.556  1.00  0.00    -0.246 OA
BRANCH  30  32
ATOM     32  C   UNL A   1      43.124  24.541  26.689  1.00  0.00     0.060 A 
ATOM     33  C   UNL A   1      43.672  25.828  26.577  1.00  0.00     0.016 A 
ATOM     34  C   UNL A   1      42.112  24.280  27.613  1.00  0.00     0.016 A 
ATOM     35  C   UNL A   1      43.202  26.860  27.395  1.00  0.00     0.010 A 
ATOM     36  C   UNL A   1      41.660  25.306  28.442  1.00  0.00     0.010 A 
ATOM     37  C   UNL A   1      42.211  26.596  28.348  1.00  0.00    -0.014 A 
BRANCH  37  38
ATOM     38  C   UNL A   1      41.828  27.605  29.363  1.00  0.00     0.031 A 
ATOM     39  C   UNL A   1      42.544  27.596  30.683  1.00  0.00     0.074 A 
ATOM     40  C   UNL A   1      40.817  28.465  29.147  1.00  0.00     0.049 A 
ATOM     41  N   UNL A   1      42.272  28.251  31.781  1.00  0.00    -0.248 NA
ATOM     42  C   UNL A   1      43.721  26.717  30.776  1.00  0.00     0.031 C 
ATOM     43  C   UNL A   1      40.072  28.602  27.898  1.00  0.00     0.029 A 
ATOM     44  N   UNL A   1      40.227  29.368  29.996  1.00  0.00    -0.354 N 
ATOM     45  C   UNL A   1      43.237  27.859  32.698  1.00  0.00     0.074 A 
ATOM     46  C   UNL A   1      44.087  26.891  32.037  1.00  0.00     0.031 C 
ATOM     47  C   UNL A   1      39.103  29.519  28.070  1.00  0.00     0.029 A 
ATOM     48  C   UNL A   1      39.135  29.998  29.452  1.00  0.00     0.049 A 
ATOM     49  H   UNL A   1      40.555  29.547  30.906  1.00  0.00     0.167 HD
ATOM     50  C   UNL A   1      43.402  28.271  33.977  1.00  0.00     0.037 A 
ATOM     51  C   UNL A   1      38.242  30.834  30.019  1.00  0.00     0.037 A 
ATOM     52  C   UNL A   1      42.553  29.226  34.635  1.00  0.00     0.049 A 
ATOM     53  C   UNL A   1      38.384  31.199  31.475  1.00  0.00     0.074 A 
ATOM     54  C   UNL A   1      42.652  29.724  35.922  1.00  0.00     0.029 A 
ATOM     55  N   UNL A   1      41.438  29.818  34.061  1.00  0.00    -0.354 N 
ATOM     56  N   UNL A   1      39.310  30.842  32.332  1.00  0.00    -0.248 NA
ATOM     57  C   UNL A   1      37.348  32.072  32.046  1.00  0.00     0.031 C 
ATOM     58  C   UNL A   1      41.568  30.578  36.144  1.00  0.00     0.029 A 
ATOM     59  C   UNL A   1      40.820  30.649  34.979  1.00  0.00     0.049 A 
ATOM     60  H   UNL A   1      41.132  29.669  33.137  1.00  0.00     0.167 HD
ATOM     61  C   UNL A   1      38.984  31.465  33.531  1.00  0.00     0.074 A 
ATOM     62  C   UNL A   1      37.779  32.231  33.290  1.00  0.00     0.031 C 
ATOM     63  C   UNL A   1      39.624  31.410  34.724  1.00  0.00     0.037 A 
BRANCH  50  64
ATOM     64  C   UNL A   1      44.529  27.663  34.755  1.00  0.00     0.057 A 
ATOM     65  C   UNL A   1      45.790  28.270  34.827  1.00  0.00     0.134 A 
ATOM     66  C   UNL A   1      44.342  26.470  35.465  1.00  0.00     0.134 A 
ATOM     67  F   UNL A   1      46.038  29.404  34.155  1.00  0.00    -0.206 F 
ATOM     68  C   UNL A   1      46.831  27.699  35.562  1.00  0.00     0.040 A 
ATOM     69  C   UNL A   1      45.369  25.904  36.223  1.00  0.00     0.040 A 
ATOM     70  F   UNL A   1      43.158  25.839  35.438  1.00  0.00    -0.206 F 
ATOM     71  C   UNL A   1      46.619  26.517  36.268  1.00  0.00     0.006 A 
ENDBRANCH  50  64
BRANCH  51  72
ATOM     72  C   UNL A   1      37.104  31.360  29.224  1.00  0.00     0.057 A 
ATOM     73  C   UNL A   1      37.109  32.671  28.732  1.00  0.00     0.134 A 
ATOM     74  C   UNL A   1      35.970  30.580  28.966  1.00  0.00     0.134 A 
ATOM     75  F   UNL A   1      38.155  33.476  28.970  1.00  0.00    -0.206 F 
ATOM     76  C   UNL A   1      36.023  33.193  28.027  1.00  0.00     0.040 A 
ATOM     77  C   UNL A   1      34.887  31.080  28.240  1.00  0.00     0.040 A 
ATOM     78  F   UNL A   1      35.899  29.319  29.415  1.00  0.00    -0.206 F 
ATOM     79  C   UNL A   1      34.909  32.394  27.775  1.00  0.00     0.006 A 
ENDBRANCH  51  72
BRANCH  63  80
ATOM     80  C   UNL A   1      39.057  32.215  35.857  1.00  0.00     0.057 A 
ATOM     81  C   UNL A   1      38.190  31.651  36.801  1.00  0.00     0.134 A 
ATOM     82  C   UNL A   1      39.437  33.551  36.045  1.00  0.00     0.134 A 
ATOM     83  F   UNL A   1      37.778  30.381  36.672  1.00  0.00    -0.206 F 
ATOM     84  C   UNL A   1      37.710  32.391  37.884  1.00  0.00     0.040 A 
ATOM     85  C   UNL A   1      38.984  34.292  37.137  1.00  0.00     0.040 A 
ATOM     86  F   UNL A   1      40.273  34.148  35.183  1.00  0.00    -0.206 F 
ATOM     87  C   UNL A   1      38.115  33.713  38.059  1.00  0.00     0.006 A 
ENDBRANCH  63  80
ENDBRANCH  37  38
ENDBRANCH  30  32
ENDBRANCH  29  30
ENDBRANCH  28  29
ENDBRANCH  27  28
ENDBRANCH  26  27
ENDBRANCH  25  26
ENDBRANCH   1  25
TORSDOF 20
ENDMDL
MODEL 3
REMARK VINA RESULT:     -10.4      4.510      9.762
REMARK SMILES CO[C@@H]1C[C@H](C(=O)OCCOCCOCCOC(=O)c2ccc(-c3c4nc(c(-c5c(F)cccc5F)c5ccc([nH]5)c(-c5c(F)cccc5F)c5nc(c(-c6c(F)cccc6F)c6ccc3[nH]6)C=C5)C=C4)cc2)N(C(=O)c2ccn(C)c(=O)c2)C1
REMARK SMILES IDX 12 1 11 2 10 3 9 4 8 5 6 6 7 7 5 8 3 9 4 10 85 11 74 12 2 13
REMARK SMILES IDX 1 14 75 15 76 16 77 17 78 18 84 19 79 20 82 21 80 22 83 23
REMARK SMILES IDX 81 24 13 25 14 26 15 27 16 28 17 29 18 30 19 31 20 32 21 33
REMARK SMILES IDX 73 34 22 35 72 36 23 37 24 38 25 39 66 40 26 41 71 42 65 43
REMARK SMILES IDX 67 44 27 45 70 46 64 47 63 48 28 50 54 51 37 52 53 53 38 54
REMARK SMILES IDX 41 55 52 56 68 57 39 58 40 59 51 61 69 62 42 63 29 64 30 65
REMARK SMILES IDX 35 66 31 67 32 68 34 69 36 70 33 71 55 72 56 73 61 74 57 75
REMARK SMILES IDX 58 76 60 77 62 78 59 79 43 80 44 81 49 82 45 83 46 84 48 85
REMARK SMILES IDX 50 86 47 87
REMARK H PARENT 67 49 41 60
REMARK Flexibility Score: inf
ROOT
ATOM      1  C   UNL A   1      32.648  33.412  27.459  1.00  0.00     0.188 C 
ENDROOT
BRANCH   1   2
ATOM      2  O   UNL A   1      33.225  32.120  27.613  1.00  0.00    -0.376 OA
BRANCH   2   3
ATOM      3  C   UNL A   1      32.510  30.969  27.182  1.00  0.00     0.202 C 
BRANCH   3   4
ATOM      4  C   UNL A   1      33.280  29.961  26.323  1.00  0.00     0.261 C 
BRANCH   4   5
ATOM      5  O   UNL A   1      32.570  29.525  25.144  1.00  0.00    -0.462 OA
BRANCH   5   6
ATOM      6  C   UNL A   1      33.094  28.453  24.507  1.00  0.00     0.329 C 
ATOM      7  O   UNL A   1      34.199  28.465  23.968  1.00  0.00    -0.250 OA
BRANCH   6   8
ATOM      8  C   UNL A   1      32.219  27.173  24.499  1.00  0.00     0.198 C 
ATOM      9  C   UNL A   1      30.060  27.565  23.471  1.00  0.00     0.140 C 
ATOM     10  C   UNL A   1      30.723  27.118  24.773  1.00  0.00     0.071 C 
ATOM     11  C   UNL A   1      31.101  27.192  22.393  1.00  0.00     0.152 C 
ATOM     12  N   UNL A   1      32.257  26.683  23.127  1.00  0.00    -0.322 N 
BRANCH   9  13
ATOM     13  O   UNL A   1      29.803  28.969  23.508  1.00  0.00    -0.380 OA
ATOM     14  C   UNL A   1      29.000  29.414  22.413  1.00  0.00     0.195 C 
ENDBRANCH   9  13
BRANCH  12  15
ATOM     15  C   UNL A   1      33.240  25.926  22.534  1.00  0.00     0.254 C 
ATOM     16  O   UNL A   1      33.818  26.270  21.506  1.00  0.00    -0.269 OA
BRANCH  15  17
ATOM     17  C   UNL A   1      33.574  24.622  23.178  1.00  0.00     0.046 A 
ATOM     18  C   UNL A   1      34.813  24.446  23.896  1.00  0.00     0.032 A 
ATOM     19  C   UNL A   1      32.705  23.608  23.053  1.00  0.00     0.085 A 
ATOM     20  C   UNL A   1      35.092  23.266  24.460  1.00  0.00     0.089 A 
ATOM     21  C   UNL A   1      32.984  22.310  23.717  1.00  0.00     0.251 A 
ATOM     22  N   UNL A   1      34.206  22.204  24.376  1.00  0.00    -0.319 N 
ATOM     23  O   UNL A   1      32.130  21.429  23.659  1.00  0.00    -0.269 OA
ATOM     24  C   UNL A   1      34.575  20.938  24.991  1.00  0.00     0.153 C 
ENDBRANCH  15  17
ENDBRANCH  12  15
ENDBRANCH   6   8
ENDBRANCH   5   6
ENDBRANCH   4   5
ENDBRANCH   3   4
ENDBRANCH   2   3
ENDBRANCH   1   2
BRANCH   1  25
ATOM     25  C   UNL A   1      33.118  34.575  28.339  1.00  0.00     0.188 C 
BRANCH  25  26
ATOM     26  O   UNL A   1      32.634  34.537  29.665  1.00  0.00    -0.376 OA
BRANCH  26  27
ATOM     27  C   UNL A   1      33.542  34.960  30.667  1.00  0.00     0.202 C 
BRANCH  27  28
ATOM     28  C   UNL A   1      34.943  34.420  30.377  1.00  0.00     0.261 C 
BRANCH  28  29
ATOM     29  O   UNL A   1      35.027  32.981  30.357  1.00  0.00    -0.460 OA
BRANCH  29  30
ATOM     30  C   UNL A   1      35.538  32.370  31.453  1.00  0.00     0.338 C 
ATOM     31  O   UNL A   1      35.000  32.228  32.538  1.00  0.00    -0.246 OA
BRANCH  30  32
ATOM     32  C   UNL A   1      36.770  31.671  31.025  1.00  0.00     0.060 A 
ATOM     33  C   UNL A   1      37.653  31.178  31.997  1.00  0.00     0.016 A 
ATOM     34  C   UNL A   1      37.014  31.450  29.670  1.00  0.00     0.016 A 
ATOM     35  C   UNL A   1      38.788  30.460  31.610  1.00  0.00     0.010 A 
ATOM     36  C   UNL A   1      38.157  30.752  29.284  1.00  0.00     0.010 A 
ATOM     37  C   UNL A   1      39.057  30.265  30.249  1.00  0.00    -0.014 A 
BRANCH  37  38
ATOM     38  C   UNL A   1      40.342  29.688  29.791  1.00  0.00     0.031 A 
ATOM     39  C   UNL A   1      41.520  30.604  29.635  1.00  0.00     0.074 A 
ATOM     40  C   UNL A   1      40.443  28.391  29.451  1.00  0.00     0.049 A 
ATOM     41  N   UNL A   1      42.685  30.375  29.087  1.00  0.00    -0.248 NA
ATOM     42  C   UNL A   1      41.354  31.970  30.159  1.00  0.00     0.031 C 
ATOM     43  C   UNL A   1      39.388  27.391  29.595  1.00  0.00     0.029 A 
ATOM     44  N   UNL A   1      41.487  27.703  28.884  1.00  0.00    -0.354 N 
ATOM     45  C   UNL A   1      43.388  31.568  29.192  1.00  0.00     0.074 A 
ATOM     46  C   UNL A   1      42.513  32.525  29.834  1.00  0.00     0.031 C 
ATOM     47  C   UNL A   1      39.830  26.219  29.103  1.00  0.00     0.029 A 
ATOM     48  C   UNL A   1      41.180  26.402  28.572  1.00  0.00     0.049 A 
ATOM     49  H   UNL A   1      42.370  28.105  28.718  1.00  0.00     0.167 HD
ATOM     50  C   UNL A   1      44.653  31.839  28.792  1.00  0.00     0.037 A 
ATOM     51  C   UNL A   1      41.895  25.478  27.898  1.00  0.00     0.037 A 
ATOM     52  C   UNL A   1      45.519  30.890  28.147  1.00  0.00     0.049 A 
ATOM     53  C   UNL A   1      43.262  25.835  27.369  1.00  0.00     0.074 A 
ATOM     54  C   UNL A   1      46.825  31.064  27.725  1.00  0.00     0.029 A 
ATOM     55  N   UNL A   1      45.161  29.592  27.820  1.00  0.00    -0.354 N 
ATOM     56  N   UNL A   1      43.930  26.956  27.490  1.00  0.00    -0.248 NA
ATOM     57  C   UNL A   1      43.967  24.801  26.597  1.00  0.00     0.031 C 
ATOM     58  C   UNL A   1      47.240  29.887  27.095  1.00  0.00     0.029 A 
ATOM     59  C   UNL A   1      46.209  28.964  27.168  1.00  0.00     0.049 A 
ATOM     60  H   UNL A   1      44.291  29.177  28.021  1.00  0.00     0.167 HD
ATOM     61  C   UNL A   1      45.140  26.754  26.835  1.00  0.00     0.074 A 
ATOM     62  C   UNL A   1      45.119  25.399  26.326  1.00  0.00     0.031 C 
ATOM     63  C   UNL A   1      46.176  27.612  26.671  1.00  0.00     0.037 A 
BRANCH  50  64
ATOM     64  C   UNL A   1      45.160  33.232  29.016  1.00  0.00     0.057 A 
ATOM     65  C   UNL A   1      44.978  34.246  28.067  1.00  0.00     0.134 A 
ATOM     66  C   UNL A   1      45.815  33.568  30.207  1.00  0.00     0.134 A 
ATOM     67  F   UNL A   1      44.375  33.983  26.898  1.00  0.00    -0.206 F 
ATOM     68  C   UNL A   1      45.448  35.542  28.288  1.00  0.00     0.040 A 
ATOM     69  C   UNL A   1      46.267  34.866  30.449  1.00  0.00     0.040 A 
ATOM     70  F   UNL A   1      46.020  32.643  31.157  1.00  0.00    -0.206 F 
ATOM     71  C   UNL A   1      46.087  35.855  29.485  1.00  0.00     0.006 A 
ENDBRANCH  50  64
BRANCH  51  72
ATOM     72  C   UNL A   1      41.324  24.132  27.645  1.00  0.00     0.057 A 
ATOM     73  C   UNL A   1      41.746  23.017  28.378  1.00  0.00     0.134 A 
ATOM     74  C   UNL A   1      40.368  23.920  26.643  1.00  0.00     0.134 A 
ATOM     75  F   UNL A   1      42.679  23.151  29.332  1.00  0.00    -0.206 F 
ATOM     76  C   UNL A   1      41.253  21.737  28.114  1.00  0.00     0.040 A 
ATOM     77  C   UNL A   1      39.848  22.651  26.385  1.00  0.00     0.040 A 
ATOM     78  F   UNL A   1      39.927  24.945  25.900  1.00  0.00    -0.206 F 
ATOM     79  C   UNL A   1      40.296  21.553  27.118  1.00  0.00     0.006 A 
ENDBRANCH  51  72
BRANCH  63  80
ATOM     80  C   UNL A   1      47.385  27.113  25.935  1.00  0.00     0.057 A 
ATOM     81  C   UNL A   1      47.578  27.373  24.572  1.00  0.00     0.134 A 
ATOM     82  C   UNL A   1      48.399  26.422  26.611  1.00  0.00     0.134 A 
ATOM     83  F   UNL A   1      46.640  28.020  23.864  1.00  0.00    -0.206 F 
ATOM     84  C   UNL A   1      48.732  26.952  23.907  1.00  0.00     0.040 A 
ATOM     85  C   UNL A   1      49.567  26.019  25.963  1.00  0.00     0.040 A 
ATOM     86  F   UNL A   1      48.281  26.149  27.920  1.00  0.00    -0.206 F 
ATOM     87  C   UNL A   1      49.734  26.282  24.605  1.00  0.00     0.006 A 
ENDBRANCH  63  80
ENDBRANCH  37  38
ENDBRANCH  30  32
ENDBRANCH  29  30
ENDBRANCH  28  29
ENDBRANCH  27  28
ENDBRANCH  26  27
ENDBRANCH  25  26
ENDBRANCH   1  25
TORSDOF 20
ENDMDL
