MODEL 1
REMARK VINA RESULT:      -9.9      0.000      0.000
REMARK SMILES NC(=O)N[C@@H](C(=O)N[C@@H](CO)C(=O)OCCOCCOCCOC(=O)c1ccc(-c2c3nc(c(-c4c(F)cccc4F)c4ccc([nH]4)c(-c4c(F)cccc4F)c4nc(c(-c5c(F)cccc5F)c5ccc2[nH]5)C=C4)C=C3)cc1)c1ccccc1
REMARK SMILES IDX 18 1 17 2 16 3 15 4 14 5 12 6 13 7 9 8 8 9 6 10 7 11 5 13
REMARK SMILES IDX 4 14 1 15 2 16 3 19 80 21 81 22 85 23 82 24 84 25 83 26
REMARK SMILES IDX 10 27 11 28 19 30 20 31 21 32 22 33 23 34 24 35 25 36 26 37
REMARK SMILES IDX 27 38 79 39 28 40 78 41 29 42 30 43 31 44 72 45 32 46 77 47
REMARK SMILES IDX 71 48 73 49 33 50 76 51 70 52 69 53 34 55 60 56 43 57 59 58
REMARK SMILES IDX 44 59 47 60 58 61 74 62 45 63 46 64 57 66 75 67 48 68 35 69
REMARK SMILES IDX 36 70 41 71 37 72 38 73 40 74 42 75 39 76 61 77 62 78 67 79
REMARK SMILES IDX 63 80 64 81 66 82 68 83 65 84 49 85 50 86 55 87 51 88 52 89
REMARK SMILES IDX 54 90 56 91 53 92
REMARK H PARENT 8 12 1 17 1 18 4 20 11 29 73 54 47 65
REMARK Flexibility Score: inf
ROOT
ATOM      1  C   UNL A   1      38.932  22.785  26.448  1.00  0.00     0.188 C 
ENDROOT
BRANCH   1   2
ATOM      2  O   UNL A   1      37.636  23.032  25.918  1.00  0.00    -0.376 OA
BRANCH   2   3
ATOM      3  C   UNL A   1      37.051  22.080  25.037  1.00  0.00     0.202 C 
BRANCH   3   4
ATOM      4  C   UNL A   1      36.213  22.621  23.873  1.00  0.00     0.261 C 
BRANCH   4   5
ATOM      5  O   UNL A   1      34.797  22.365  23.984  1.00  0.00    -0.462 OA
BRANCH   5   6
ATOM      6  C   UNL A   1      34.097  23.266  24.725  1.00  0.00     0.331 C 
ATOM      7  O   UNL A   1      34.247  23.431  25.933  1.00  0.00    -0.250 OA
BRANCH   6   8
ATOM      8  C   UNL A   1      33.116  24.131  23.907  1.00  0.00     0.218 C 
BRANCH   8   9
ATOM      9  N   UNL A   1      33.621  25.042  22.862  1.00  0.00    -0.339 N 
ATOM     10  C   UNL A   1      33.205  26.291  22.461  1.00  0.00     0.248 C 
ATOM     11  O   UNL A   1      33.897  26.806  21.576  1.00  0.00    -0.272 OA
ATOM     12  H   UNL A   1      34.393  24.693  22.363  1.00  0.00     0.164 HD
BRANCH  10  13
ATOM     13  C   UNL A   1      32.119  27.103  23.250  1.00  0.00     0.203 C 
BRANCH  13  14
ATOM     14  N   UNL A   1      31.529  28.202  22.499  1.00  0.00    -0.322 N 
ATOM     15  N   UNL A   1      29.303  27.851  23.016  1.00  0.00    -0.352 N 
ATOM     16  C   UNL A   1      30.241  28.576  22.379  1.00  0.00     0.313 C 
ATOM     17  H   UNL A   1      28.354  28.103  22.945  1.00  0.00     0.161 HD
ATOM     18  H   UNL A   1      29.565  27.070  23.554  1.00  0.00     0.161 HD
ATOM     19  O   UNL A   1      29.926  29.504  21.645  1.00  0.00    -0.249 OA
ATOM     20  H   UNL A   1      32.172  28.759  22.003  1.00  0.00     0.166 HD
ENDBRANCH  13  14
BRANCH  13  21
ATOM     21  C   UNL A   1      32.504  27.630  24.635  1.00  0.00    -0.016 A 
ATOM     22  C   UNL A   1      31.614  27.414  25.708  1.00  0.00     0.006 A 
ATOM     23  C   UNL A   1      33.654  28.386  24.896  1.00  0.00     0.006 A 
ATOM     24  C   UNL A   1      31.907  27.843  27.005  1.00  0.00     0.000 A 
ATOM     25  C   UNL A   1      33.939  28.837  26.192  1.00  0.00     0.000 A 
ATOM     26  C   UNL A   1      33.077  28.551  27.248  1.00  0.00     0.000 A 
ENDBRANCH  13  21
ENDBRANCH  10  13
ENDBRANCH   8   9
BRANCH   8  27
ATOM     27  C   UNL A   1      32.080  23.182  23.292  1.00  0.00     0.193 C 
BRANCH  27  28
ATOM     28  O   UNL A   1      32.559  22.659  22.049  1.00  0.00    -0.394 OA
ATOM     29  H   UNL A   1      33.386  23.104  21.809  1.00  0.00     0.210 HD
ENDBRANCH  27  28
ENDBRANCH   8  27
ENDBRANCH   6   8
ENDBRANCH   5   6
ENDBRANCH   4   5
ENDBRANCH   3   4
ENDBRANCH   2   3
ENDBRANCH   1   2
BRANCH   1  30
ATOM     30  C   UNL A   1      39.666  21.472  26.115  1.00  0.00     0.188 C 
BRANCH  30  31
ATOM     31  O   UNL A   1      40.546  21.020  27.125  1.00  0.00    -0.376 OA
BRANCH  31  32
ATOM     32  C   UNL A   1      41.799  20.536  26.669  1.00  0.00     0.202 C 
BRANCH  32  33
ATOM     33  C   UNL A   1      42.535  21.525  25.757  1.00  0.00     0.261 C 
BRANCH  33  34
ATOM     34  O   UNL A   1      43.397  22.451  26.449  1.00  0.00    -0.460 OA
BRANCH  34  35
ATOM     35  C   UNL A   1      43.587  23.650  25.867  1.00  0.00     0.338 C 
ATOM     36  O   UNL A   1      44.150  23.870  24.797  1.00  0.00    -0.246 OA
BRANCH  35  37
ATOM     37  C   UNL A   1      42.850  24.671  26.632  1.00  0.00     0.060 A 
ATOM     38  C   UNL A   1      43.313  25.991  26.609  1.00  0.00     0.016 A 
ATOM     39  C   UNL A   1      41.748  24.328  27.421  1.00  0.00     0.016 A 
ATOM     40  C   UNL A   1      42.693  26.957  27.399  1.00  0.00     0.010 A 
ATOM     41  C   UNL A   1      41.144  25.301  28.232  1.00  0.00     0.010 A 
ATOM     42  C   UNL A   1      41.639  26.617  28.254  1.00  0.00    -0.014 A 
BRANCH  42  43
ATOM     43  C   UNL A   1      41.260  27.578  29.326  1.00  0.00     0.031 A 
ATOM     44  C   UNL A   1      42.088  27.605  30.584  1.00  0.00     0.074 A 
ATOM     45  C   UNL A   1      40.286  28.493  29.160  1.00  0.00     0.049 A 
ATOM     46  N   UNL A   1      41.934  28.320  31.671  1.00  0.00    -0.248 NA
ATOM     47  C   UNL A   1      43.253  26.707  30.615  1.00  0.00     0.031 C 
ATOM     48  C   UNL A   1      39.463  28.654  27.963  1.00  0.00     0.029 A 
ATOM     49  N   UNL A   1      39.834  29.473  30.013  1.00  0.00    -0.354 N 
ATOM     50  C   UNL A   1      42.960  27.933  32.524  1.00  0.00     0.074 A 
ATOM     51  C   UNL A   1      43.725  26.917  31.833  1.00  0.00     0.031 C 
ATOM     52  C   UNL A   1      38.607  29.673  28.157  1.00  0.00     0.029 A 
ATOM     53  C   UNL A   1      38.788  30.208  29.507  1.00  0.00     0.049 A 
ATOM     54  H   UNL A   1      40.222  29.633  30.902  1.00  0.00     0.167 HD
ATOM     55  C   UNL A   1      43.247  28.380  33.769  1.00  0.00     0.037 A 
ATOM     56  C   UNL A   1      38.044  31.178  30.077  1.00  0.00     0.037 A 
ATOM     57  C   UNL A   1      42.513  29.410  34.455  1.00  0.00     0.049 A 
ATOM     58  C   UNL A   1      38.337  31.614  31.492  1.00  0.00     0.074 A 
ATOM     59  C   UNL A   1      42.729  29.924  35.723  1.00  0.00     0.029 A 
ATOM     60  N   UNL A   1      41.426  30.088  33.928  1.00  0.00    -0.354 N 
ATOM     61  N   UNL A   1      39.282  31.210  32.305  1.00  0.00    -0.248 NA
ATOM     62  C   UNL A   1      37.451  32.639  32.068  1.00  0.00     0.031 C 
ATOM     63  C   UNL A   1      41.746  30.887  35.978  1.00  0.00     0.029 A 
ATOM     64  C   UNL A   1      40.951  31.006  34.850  1.00  0.00     0.049 A 
ATOM     65  H   UNL A   1      41.047  29.940  33.032  1.00  0.00     0.167 HD
ATOM     66  C   UNL A   1      39.120  31.946  33.475  1.00  0.00     0.074 A 
ATOM     67  C   UNL A   1      37.996  32.832  33.260  1.00  0.00     0.031 C 
ATOM     68  C   UNL A   1      39.836  31.891  34.625  1.00  0.00     0.037 A 
BRANCH  55  69
ATOM     69  C   UNL A   1      44.382  27.716  34.491  1.00  0.00     0.057 A 
ATOM     70  C   UNL A   1      45.690  28.209  34.438  1.00  0.00     0.134 A 
ATOM     71  C   UNL A   1      44.153  26.567  35.259  1.00  0.00     0.134 A 
ATOM     72  F   UNL A   1      45.979  29.294  33.703  1.00  0.00    -0.206 F 
ATOM     73  C   UNL A   1      46.738  27.569  35.104  1.00  0.00     0.040 A 
ATOM     74  C   UNL A   1      45.186  25.934  35.951  1.00  0.00     0.040 A 
ATOM     75  F   UNL A   1      42.920  26.044  35.352  1.00  0.00    -0.206 F 
ATOM     76  C   UNL A   1      46.484  26.431  35.868  1.00  0.00     0.006 A 
ENDBRANCH  55  69
BRANCH  56  77
ATOM     77  C   UNL A   1      36.914  31.791  29.330  1.00  0.00     0.057 A 
ATOM     78  C   UNL A   1      37.012  33.075  28.782  1.00  0.00     0.134 A 
ATOM     79  C   UNL A   1      35.691  31.123  29.190  1.00  0.00     0.134 A 
ATOM     80  F   UNL A   1      38.145  33.780  28.914  1.00  0.00    -0.206 F 
ATOM     81  C   UNL A   1      35.932  33.678  28.133  1.00  0.00     0.040 A 
ATOM     82  C   UNL A   1      34.613  31.702  28.521  1.00  0.00     0.040 A 
ATOM     83  F   UNL A   1      35.530  29.892  29.700  1.00  0.00    -0.206 F 
ATOM     84  C   UNL A   1      34.729  32.987  27.997  1.00  0.00     0.006 A 
ENDBRANCH  56  77
BRANCH  68  85
ATOM     85  C   UNL A   1      39.457  32.841  35.725  1.00  0.00     0.057 A 
ATOM     86  C   UNL A   1      38.499  32.514  36.693  1.00  0.00     0.134 A 
ATOM     87  C   UNL A   1      40.084  34.090  35.835  1.00  0.00     0.134 A 
ATOM     88  F   UNL A   1      37.854  31.338  36.640  1.00  0.00    -0.206 F 
ATOM     89  C   UNL A   1      38.158  33.403  37.713  1.00  0.00     0.040 A 
ATOM     90  C   UNL A   1      39.772  34.976  36.867  1.00  0.00     0.040 A 
ATOM     91  F   UNL A   1      41.020  34.462  34.949  1.00  0.00    -0.206 F 
ATOM     92  C   UNL A   1      38.800  34.637  37.806  1.00  0.00     0.006 A 
ENDBRANCH  68  85
ENDBRANCH  42  43
ENDBRANCH  35  37
ENDBRANCH  34  35
ENDBRANCH  33  34
ENDBRANCH  32  33
ENDBRANCH  31  32
ENDBRANCH  30  31
ENDBRANCH   1  30
TORSDOF 23
ENDMDL
MODEL 2
REMARK VINA RESULT:      -9.7      3.743      7.383
REMARK SMILES NC(=O)N[C@@H](C(=O)N[C@@H](CO)C(=O)OCCOCCOCCOC(=O)c1ccc(-c2c3nc(c(-c4c(F)cccc4F)c4ccc([nH]4)c(-c4c(F)cccc4F)c4nc(c(-c5c(F)cccc5F)c5ccc2[nH]5)C=C4)C=C3)cc1)c1ccccc1
REMARK SMILES IDX 18 1 17 2 16 3 15 4 14 5 12 6 13 7 9 8 8 9 6 10 7 11 5 13
REMARK SMILES IDX 4 14 1 15 2 16 3 19 80 21 81 22 85 23 82 24 84 25 83 26
REMARK SMILES IDX 10 27 11 28 19 30 20 31 21 32 22 33 23 34 24 35 25 36 26 37
REMARK SMILES IDX 27 38 79 39 28 40 78 41 29 42 30 43 31 44 72 45 32 46 77 47
REMARK SMILES IDX 71 48 73 49 33 50 76 51 70 52 69 53 34 55 60 56 43 57 59 58
REMARK SMILES IDX 44 59 47 60 58 61 74 62 45 63 46 64 57 66 75 67 48 68 35 69
REMARK SMILES IDX 36 70 41 71 37 72 38 73 40 74 42 75 39 76 61 77 62 78 67 79
REMARK SMILES IDX 63 80 64 81 66 82 68 83 65 84 49 85 50 86 55 87 51 88 52 89
REMARK SMILES IDX 54 90 56 91 53 92
REMARK H PARENT 8 12 1 17 1 18 4 20 11 29 73 54 47 65
REMARK Flexibility Score: inf
ROOT
ATOM      1  C   UNL A   1      36.492  21.884  24.429  1.00  0.00     0.188 C 
ENDROOT
BRANCH   1   2
ATOM      2  O   UNL A   1      35.528  22.912  24.619  1.00  0.00    -0.376 OA
BRANCH   2   3
ATOM      3  C   UNL A   1      35.599  23.724  25.785  1.00  0.00     0.202 C 
BRANCH   3   4
ATOM      4  C   UNL A   1      34.641  23.389  26.934  1.00  0.00     0.261 C 
BRANCH   4   5
ATOM      5  O   UNL A   1      33.697  22.336  26.639  1.00  0.00    -0.462 OA
BRANCH   5   6
ATOM      6  C   UNL A   1      32.426  22.748  26.384  1.00  0.00     0.331 C 
ATOM      7  O   UNL A   1      31.660  23.189  27.235  1.00  0.00    -0.250 OA
BRANCH   6   8
ATOM      8  C   UNL A   1      32.024  22.671  24.896  1.00  0.00     0.218 C 
BRANCH   8   9
ATOM      9  N   UNL A   1      32.660  23.562  23.907  1.00  0.00    -0.339 N 
ATOM     10  C   UNL A   1      32.491  24.903  23.645  1.00  0.00     0.248 C 
ATOM     11  O   UNL A   1      33.235  25.356  22.769  1.00  0.00    -0.272 OA
ATOM     12  H   UNL A   1      33.324  23.119  23.333  1.00  0.00     0.164 HD
BRANCH  10  13
ATOM     13  C   UNL A   1      31.627  25.832  24.568  1.00  0.00     0.203 C 
BRANCH  13  14
ATOM     14  N   UNL A   1      30.414  26.340  23.942  1.00  0.00    -0.322 N 
ATOM     15  N   UNL A   1      28.871  25.680  25.533  1.00  0.00    -0.352 N 
ATOM     16  C   UNL A   1      29.136  26.292  24.365  1.00  0.00     0.313 C 
ATOM     17  H   UNL A   1      27.946  25.632  25.865  1.00  0.00     0.161 HD
ATOM     18  H   UNL A   1      29.603  25.282  26.057  1.00  0.00     0.161 HD
ATOM     19  O   UNL A   1      28.231  26.726  23.664  1.00  0.00    -0.249 OA
ATOM     20  H   UNL A   1      30.549  26.787  23.076  1.00  0.00     0.166 HD
ENDBRANCH  13  14
BRANCH  13  21
ATOM     21  C   UNL A   1      32.336  27.008  25.244  1.00  0.00    -0.016 A 
ATOM     22  C   UNL A   1      31.654  28.239  25.343  1.00  0.00     0.006 A 
ATOM     23  C   UNL A   1      33.658  26.966  25.707  1.00  0.00     0.006 A 
ATOM     24  C   UNL A   1      32.226  29.350  25.968  1.00  0.00     0.000 A 
ATOM     25  C   UNL A   1      34.242  28.087  26.315  1.00  0.00     0.000 A 
ATOM     26  C   UNL A   1      33.522  29.270  26.462  1.00  0.00     0.000 A 
ENDBRANCH  13  21
ENDBRANCH  10  13
ENDBRANCH   8   9
BRANCH   8  27
ATOM     27  C   UNL A   1      32.205  21.215  24.452  1.00  0.00     0.193 C 
BRANCH  27  28
ATOM     28  O   UNL A   1      31.885  20.323  25.526  1.00  0.00    -0.394 OA
ATOM     29  H   UNL A   1      31.878  20.814  26.362  1.00  0.00     0.210 HD
ENDBRANCH  27  28
ENDBRANCH   8  27
ENDBRANCH   6   8
ENDBRANCH   5   6
ENDBRANCH   4   5
ENDBRANCH   3   4
ENDBRANCH   2   3
ENDBRANCH   1   2
BRANCH   1  30
ATOM     30  C   UNL A   1      36.291  20.504  25.083  1.00  0.00     0.188 C 
BRANCH  30  31
ATOM     31  O   UNL A   1      37.358  19.599  24.882  1.00  0.00    -0.376 OA
BRANCH  31  32
ATOM     32  C   UNL A   1      38.658  20.156  24.990  1.00  0.00     0.202 C 
BRANCH  32  33
ATOM     33  C   UNL A   1      39.635  19.266  25.767  1.00  0.00     0.261 C 
BRANCH  33  34
ATOM     34  O   UNL A   1      40.992  19.296  25.279  1.00  0.00    -0.460 OA
BRANCH  34  35
ATOM     35  C   UNL A   1      41.963  19.420  26.202  1.00  0.00     0.338 C 
ATOM     36  O   UNL A   1      42.808  18.581  26.503  1.00  0.00    -0.246 OA
BRANCH  35  37
ATOM     37  C   UNL A   1      41.979  20.811  26.690  1.00  0.00     0.060 A 
ATOM     38  C   UNL A   1      42.281  21.835  25.787  1.00  0.00     0.016 A 
ATOM     39  C   UNL A   1      41.763  21.106  28.040  1.00  0.00     0.016 A 
ATOM     40  C   UNL A   1      42.397  23.148  26.241  1.00  0.00     0.010 A 
ATOM     41  C   UNL A   1      41.906  22.427  28.494  1.00  0.00     0.010 A 
ATOM     42  C   UNL A   1      42.262  23.452  27.600  1.00  0.00    -0.014 A 
BRANCH  42  43
ATOM     43  C   UNL A   1      42.748  24.775  28.081  1.00  0.00     0.031 A 
ATOM     44  C   UNL A   1      41.728  25.839  28.390  1.00  0.00     0.074 A 
ATOM     45  C   UNL A   1      44.046  25.008  28.356  1.00  0.00     0.049 A 
ATOM     46  N   UNL A   1      41.903  27.077  28.780  1.00  0.00    -0.248 NA
ATOM     47  C   UNL A   1      40.317  25.448  28.246  1.00  0.00     0.031 C 
ATOM     48  C   UNL A   1      45.136  24.047  28.200  1.00  0.00     0.029 A 
ATOM     49  N   UNL A   1      44.662  26.139  28.839  1.00  0.00    -0.354 N 
ATOM     50  C   UNL A   1      40.629  27.619  28.895  1.00  0.00     0.074 A 
ATOM     51  C   UNL A   1      39.692  26.581  28.527  1.00  0.00     0.031 C 
ATOM     52  C   UNL A   1      46.287  24.629  28.582  1.00  0.00     0.029 A 
ATOM     53  C   UNL A   1      46.025  26.016  28.966  1.00  0.00     0.049 A 
ATOM     54  H   UNL A   1      44.172  26.960  29.073  1.00  0.00     0.167 HD
ATOM     55  C   UNL A   1      40.266  28.867  29.273  1.00  0.00     0.037 A 
ATOM     56  C   UNL A   1      46.956  26.925  29.321  1.00  0.00     0.037 A 
ATOM     57  C   UNL A   1      41.186  29.900  29.671  1.00  0.00     0.049 A 
ATOM     58  C   UNL A   1      46.535  28.331  29.673  1.00  0.00     0.074 A 
ATOM     59  C   UNL A   1      40.907  31.198  30.065  1.00  0.00     0.029 A 
ATOM     60  N   UNL A   1      42.561  29.751  29.730  1.00  0.00    -0.354 N 
ATOM     61  N   UNL A   1      45.331  28.846  29.735  1.00  0.00    -0.248 NA
ATOM     62  C   UNL A   1      47.609  29.284  29.999  1.00  0.00     0.031 C 
ATOM     63  C   UNL A   1      42.119  31.846  30.325  1.00  0.00     0.029 A 
ATOM     64  C   UNL A   1      43.148  30.936  30.140  1.00  0.00     0.049 A 
ATOM     65  H   UNL A   1      43.050  28.925  29.512  1.00  0.00     0.167 HD
ATOM     66  C   UNL A   1      45.501  30.169  30.128  1.00  0.00     0.074 A 
ATOM     67  C   UNL A   1      46.922  30.375  30.306  1.00  0.00     0.031 C 
ATOM     68  C   UNL A   1      44.563  31.130  30.323  1.00  0.00     0.037 A 
BRANCH  55  69
ATOM     69  C   UNL A   1      38.803  29.198  29.228  1.00  0.00     0.057 A 
ATOM     70  C   UNL A   1      37.981  29.102  30.356  1.00  0.00     0.134 A 
ATOM     71  C   UNL A   1      38.215  29.629  28.032  1.00  0.00     0.134 A 
ATOM     72  F   UNL A   1      38.479  28.675  31.527  1.00  0.00    -0.206 F 
ATOM     73  C   UNL A   1      36.618  29.399  30.292  1.00  0.00     0.040 A 
ATOM     74  C   UNL A   1      36.860  29.955  27.961  1.00  0.00     0.040 A 
ATOM     75  F   UNL A   1      38.948  29.743  26.914  1.00  0.00    -0.206 F 
ATOM     76  C   UNL A   1      36.057  29.833  29.092  1.00  0.00     0.006 A 
ENDBRANCH  55  69
BRANCH  56  77
ATOM     77  C   UNL A   1      48.396  26.558  29.329  1.00  0.00     0.057 A 
ATOM     78  C   UNL A   1      49.005  26.012  30.465  1.00  0.00     0.134 A 
ATOM     79  C   UNL A   1      49.209  26.790  28.212  1.00  0.00     0.134 A 
ATOM     80  F   UNL A   1      48.287  25.799  31.578  1.00  0.00    -0.206 F 
ATOM     81  C   UNL A   1      50.371  25.722  30.496  1.00  0.00     0.040 A 
ATOM     82  C   UNL A   1      50.570  26.480  28.220  1.00  0.00     0.040 A 
ATOM     83  F   UNL A   1      48.689  27.319  27.094  1.00  0.00    -0.206 F 
ATOM     84  C   UNL A   1      51.156  25.952  29.368  1.00  0.00     0.006 A 
ENDBRANCH  56  77
BRANCH  68  85
ATOM     85  C   UNL A   1      45.037  32.477  30.791  1.00  0.00     0.057 A 
ATOM     86  C   UNL A   1      45.193  32.780  32.149  1.00  0.00     0.134 A 
ATOM     87  C   UNL A   1      45.372  33.474  29.865  1.00  0.00     0.134 A 
ATOM     88  F   UNL A   1      44.881  31.873  33.088  1.00  0.00    -0.206 F 
ATOM     89  C   UNL A   1      45.639  34.033  32.571  1.00  0.00     0.040 A 
ATOM     90  C   UNL A   1      45.844  34.722  30.274  1.00  0.00     0.040 A 
ATOM     91  F   UNL A   1      45.258  33.247  28.548  1.00  0.00    -0.206 F 
ATOM     92  C   UNL A   1      45.972  35.008  31.632  1.00  0.00     0.006 A 
ENDBRANCH  68  85
ENDBRANCH  42  43
ENDBRANCH  35  37
ENDBRANCH  34  35
ENDBRANCH  33  34
ENDBRANCH  32  33
ENDBRANCH  31  32
ENDBRANCH  30  31
ENDBRANCH   1  30
TORSDOF 23
ENDMDL
MODEL 3
REMARK VINA RESULT:      -9.5      4.711      9.549
REMARK SMILES NC(=O)N[C@@H](C(=O)N[C@@H](CO)C(=O)OCCOCCOCCOC(=O)c1ccc(-c2c3nc(c(-c4c(F)cccc4F)c4ccc([nH]4)c(-c4c(F)cccc4F)c4nc(c(-c5c(F)cccc5F)c5ccc2[nH]5)C=C4)C=C3)cc1)c1ccccc1
REMARK SMILES IDX 18 1 17 2 16 3 15 4 14 5 12 6 13 7 9 8 8 9 6 10 7 11 5 13
REMARK SMILES IDX 4 14 1 15 2 16 3 19 80 21 81 22 85 23 82 24 84 25 83 26
REMARK SMILES IDX 10 27 11 28 19 30 20 31 21 32 22 33 23 34 24 35 25 36 26 37
REMARK SMILES IDX 27 38 79 39 28 40 78 41 29 42 30 43 31 44 72 45 32 46 77 47
REMARK SMILES IDX 71 48 73 49 33 50 76 51 70 52 69 53 34 55 60 56 43 57 59 58
REMARK SMILES IDX 44 59 47 60 58 61 74 62 45 63 46 64 57 66 75 67 48 68 35 69
REMARK SMILES IDX 36 70 41 71 37 72 38 73 40 74 42 75 39 76 61 77 62 78 67 79
REMARK SMILES IDX 63 80 64 81 66 82 68 83 65 84 49 85 50 86 55 87 51 88 52 89
REMARK SMILES IDX 54 90 56 91 53 92
REMARK H PARENT 8 12 1 17 1 18 4 20 11 29 73 54 47 65
REMARK Flexibility Score: inf
ROOT
ATOM      1  C   UNL A   1      34.733  32.420  29.127  1.00  0.00     0.188 C 
ENDROOT
BRANCH   1   2
ATOM      2  O   UNL A   1      35.580  31.720  28.223  1.00  0.00    -0.376 OA
BRANCH   2   3
ATOM      3  C   UNL A   1      35.733  30.313  28.362  1.00  0.00     0.202 C 
BRANCH   3   4
ATOM      4  C   UNL A   1      35.246  29.436  27.203  1.00  0.00     0.261 C 
BRANCH   4   5
ATOM      5  O   UNL A   1      33.884  28.975  27.332  1.00  0.00    -0.462 OA
BRANCH   5   6
ATOM      6  C   UNL A   1      33.059  29.297  26.300  1.00  0.00     0.331 C 
ATOM      7  O   UNL A   1      32.477  30.373  26.192  1.00  0.00    -0.250 OA
BRANCH   6   8
ATOM      8  C   UNL A   1      32.947  28.206  25.215  1.00  0.00     0.218 C 
BRANCH   8   9
ATOM      9  N   UNL A   1      33.684  28.342  23.945  1.00  0.00    -0.339 N 
ATOM     10  C   UNL A   1      33.424  27.861  22.682  1.00  0.00     0.248 C 
ATOM     11  O   UNL A   1      34.234  28.213  21.818  1.00  0.00    -0.272 OA
ATOM     12  H   UNL A   1      34.509  28.873  24.013  1.00  0.00     0.164 HD
BRANCH  10  13
ATOM     13  C   UNL A   1      32.068  27.159  22.318  1.00  0.00     0.203 C 
BRANCH  13  14
ATOM     14  N   UNL A   1      30.889  27.811  22.869  1.00  0.00    -0.322 N 
ATOM     15  N   UNL A   1      30.996  29.811  21.713  1.00  0.00    -0.352 N 
ATOM     16  C   UNL A   1      30.367  29.024  22.605  1.00  0.00     0.313 C 
ATOM     17  H   UNL A   1      30.635  30.702  21.502  1.00  0.00     0.161 HD
ATOM     18  H   UNL A   1      31.816  29.495  21.271  1.00  0.00     0.161 HD
ATOM     19  O   UNL A   1      29.389  29.430  23.220  1.00  0.00    -0.249 OA
ATOM     20  H   UNL A   1      30.397  27.283  23.538  1.00  0.00     0.166 HD
ENDBRANCH  13  14
BRANCH  13  21
ATOM     21  C   UNL A   1      31.955  25.659  22.602  1.00  0.00    -0.016 A 
ATOM     22  C   UNL A   1      32.997  24.812  22.171  1.00  0.00     0.006 A 
ATOM     23  C   UNL A   1      30.840  25.055  23.199  1.00  0.00     0.006 A 
ATOM     24  C   UNL A   1      32.977  23.436  22.415  1.00  0.00     0.000 A 
ATOM     25  C   UNL A   1      30.808  23.672  23.426  1.00  0.00     0.000 A 
ATOM     26  C   UNL A   1      31.881  22.867  23.051  1.00  0.00     0.000 A 
ENDBRANCH  13  21
ENDBRANCH  10  13
ENDBRANCH   8   9
BRANCH   8  27
ATOM     27  C   UNL A   1      33.318  26.873  25.874  1.00  0.00     0.193 C 
BRANCH  27  28
ATOM     28  O   UNL A   1      32.209  26.359  26.620  1.00  0.00    -0.394 OA
ATOM     29  H   UNL A   1      31.617  27.087  26.860  1.00  0.00     0.210 HD
ENDBRANCH  27  28
ENDBRANCH   8  27
ENDBRANCH   6   8
ENDBRANCH   5   6
ENDBRANCH   4   5
ENDBRANCH   3   4
ENDBRANCH   2   3
ENDBRANCH   1   2
BRANCH   1  30
ATOM     30  C   UNL A   1      34.718  33.960  29.138  1.00  0.00     0.188 C 
BRANCH  30  31
ATOM     31  O   UNL A   1      34.376  34.534  30.384  1.00  0.00    -0.376 OA
BRANCH  31  32
ATOM     32  C   UNL A   1      34.313  33.630  31.475  1.00  0.00     0.202 C 
BRANCH  32  33
ATOM     33  C   UNL A   1      34.996  34.160  32.741  1.00  0.00     0.261 C 
BRANCH  33  34
ATOM     34  O   UNL A   1      36.427  33.984  32.769  1.00  0.00    -0.460 OA
BRANCH  34  35
ATOM     35  C   UNL A   1      36.890  32.905  33.429  1.00  0.00     0.338 C 
ATOM     36  O   UNL A   1      36.595  32.554  34.568  1.00  0.00    -0.246 OA
BRANCH  35  37
ATOM     37  C   UNL A   1      37.689  32.086  32.499  1.00  0.00     0.060 A 
ATOM     38  C   UNL A   1      38.464  31.045  33.018  1.00  0.00     0.016 A 
ATOM     39  C   UNL A   1      37.730  32.378  31.132  1.00  0.00     0.016 A 
ATOM     40  C   UNL A   1      39.303  30.317  32.175  1.00  0.00     0.010 A 
ATOM     41  C   UNL A   1      38.595  31.657  30.294  1.00  0.00     0.010 A 
ATOM     42  C   UNL A   1      39.417  30.645  30.820  1.00  0.00    -0.014 A 
BRANCH  42  43
ATOM     43  C   UNL A   1      40.571  30.097  30.055  1.00  0.00     0.031 A 
ATOM     44  C   UNL A   1      41.782  30.973  29.868  1.00  0.00     0.074 A 
ATOM     45  C   UNL A   1      40.612  28.819  29.632  1.00  0.00     0.049 A 
ATOM     46  N   UNL A   1      42.890  30.738  29.209  1.00  0.00    -0.248 NA
ATOM     47  C   UNL A   1      41.739  32.289  30.522  1.00  0.00     0.031 C 
ATOM     48  C   UNL A   1      39.558  27.824  29.823  1.00  0.00     0.029 A 
ATOM     49  N   UNL A   1      41.598  28.138  28.958  1.00  0.00    -0.354 N 
ATOM     50  C   UNL A   1      43.657  31.889  29.342  1.00  0.00     0.074 A 
ATOM     51  C   UNL A   1      42.888  32.822  30.136  1.00  0.00     0.031 C 
ATOM     52  C   UNL A   1      39.955  26.660  29.280  1.00  0.00     0.029 A 
ATOM     53  C   UNL A   1      41.270  26.836  28.662  1.00  0.00     0.049 A 
ATOM     54  H   UNL A   1      42.459  28.544  28.710  1.00  0.00     0.167 HD
ATOM     55  C   UNL A   1      44.891  32.151  28.850  1.00  0.00     0.037 A 
ATOM     56  C   UNL A   1      41.938  25.906  27.950  1.00  0.00     0.037 A 
ATOM     57  C   UNL A   1      45.678  31.221  28.085  1.00  0.00     0.049 A 
ATOM     58  C   UNL A   1      43.283  26.241  27.352  1.00  0.00     0.074 A 
ATOM     59  C   UNL A   1      46.939  31.403  27.541  1.00  0.00     0.029 A 
ATOM     60  N   UNL A   1      45.284  29.934  27.760  1.00  0.00    -0.354 N 
ATOM     61  N   UNL A   1      43.979  27.348  27.447  1.00  0.00    -0.248 NA
ATOM     62  C   UNL A   1      43.930  25.195  26.544  1.00  0.00     0.031 C 
ATOM     63  C   UNL A   1      47.291  30.237  26.853  1.00  0.00     0.029 A 
ATOM     64  C   UNL A   1      46.270  29.314  27.011  1.00  0.00     0.049 A 
ATOM     65  H   UNL A   1      44.430  29.521  28.022  1.00  0.00     0.167 HD
ATOM     66  C   UNL A   1      45.152  27.123  26.733  1.00  0.00     0.074 A 
ATOM     67  C   UNL A   1      45.081  25.770  26.225  1.00  0.00     0.031 C 
ATOM     68  C   UNL A   1      46.195  27.963  26.516  1.00  0.00     0.037 A 
BRANCH  55  69
ATOM     69  C   UNL A   1      45.446  33.524  29.089  1.00  0.00     0.057 A 
ATOM     70  C   UNL A   1      45.206  34.589  28.213  1.00  0.00     0.134 A 
ATOM     71  C   UNL A   1      46.227  33.780  30.223  1.00  0.00     0.134 A 
ATOM     72  F   UNL A   1      44.483  34.403  27.098  1.00  0.00    -0.206 F 
ATOM     73  C   UNL A   1      45.744  35.856  28.443  1.00  0.00     0.040 A 
ATOM     74  C   UNL A   1      46.748  35.049  30.479  1.00  0.00     0.040 A 
ATOM     75  F   UNL A   1      46.494  32.802  31.103  1.00  0.00    -0.206 F 
ATOM     76  C   UNL A   1      46.513  36.089  29.583  1.00  0.00     0.006 A 
ENDBRANCH  55  69
BRANCH  56  77
ATOM     77  C   UNL A   1      41.337  24.566  27.720  1.00  0.00     0.057 A 
ATOM     78  C   UNL A   1      41.757  23.443  28.443  1.00  0.00     0.134 A 
ATOM     79  C   UNL A   1      40.361  24.369  26.735  1.00  0.00     0.134 A 
ATOM     80  F   UNL A   1      42.714  23.561  29.375  1.00  0.00    -0.206 F 
ATOM     81  C   UNL A   1      41.238  22.172  28.187  1.00  0.00     0.040 A 
ATOM     82  C   UNL A   1      39.815  23.109  26.487  1.00  0.00     0.040 A 
ATOM     83  F   UNL A   1      39.921  25.403  26.002  1.00  0.00    -0.206 F 
ATOM     84  C   UNL A   1      40.260  22.004  27.209  1.00  0.00     0.006 A 
ENDBRANCH  56  77
BRANCH  68  85
ATOM     85  C   UNL A   1      47.361  27.433  25.730  1.00  0.00     0.057 A 
ATOM     86  C   UNL A   1      48.450  26.807  26.348  1.00  0.00     0.134 A 
ATOM     87  C   UNL A   1      47.376  27.522  24.332  1.00  0.00     0.134 A 
ATOM     88  F   UNL A   1      48.502  26.696  27.685  1.00  0.00    -0.206 F 
ATOM     89  C   UNL A   1      49.526  26.314  25.608  1.00  0.00     0.040 A 
ATOM     90  C   UNL A   1      48.433  27.009  23.579  1.00  0.00     0.040 A 
ATOM     91  F   UNL A   1      46.359  28.099  23.674  1.00  0.00    -0.206 F 
ATOM     92  C   UNL A   1      49.517  26.409  24.217  1.00  0.00     0.006 A 
ENDBRANCH  68  85
ENDBRANCH  42  43
ENDBRANCH  35  37
ENDBRANCH  34  35
ENDBRANCH  33  34
ENDBRANCH  32  33
ENDBRANCH  31  32
ENDBRANCH  30  31
ENDBRANCH   1  30
TORSDOF 23
ENDMDL
