MODEL 1
REMARK VINA RESULT:     -10.6      0.000      0.000
REMARK SMILES C[C@@H](C(=O)OCCOCCOCCOC(=O)c1ccc(-c2c3nc(c(-c4c(F)cccc4F)c4ccc([nH]4)c(-c4c(F)cccc4F)c4nc(c(-c5c(F)cccc5F)c5ccc2[nH]5)C=C4)C=C3)cc1)c1ccc(-c2ccccc2)cc1
REMARK SMILES IDX 9 1 8 2 7 3 6 4 5 5 3 6 4 7 2 8 1 9 71 10 72 11 82 12 73 13
REMARK SMILES IDX 81 14 74 15 75 16 76 17 80 18 77 19 79 20 78 21 10 22 11 23
REMARK SMILES IDX 12 24 13 25 14 26 15 27 16 28 17 29 18 30 70 31 19 32 69 33
REMARK SMILES IDX 20 34 21 35 22 36 63 37 23 38 68 39 62 40 64 41 24 42 67 43
REMARK SMILES IDX 61 44 60 45 25 47 51 48 34 49 50 50 35 51 38 52 49 53 65 54
REMARK SMILES IDX 36 55 37 56 48 58 66 59 39 60 26 61 27 62 32 63 28 64 29 65
REMARK SMILES IDX 31 66 33 67 30 68 52 69 53 70 58 71 54 72 55 73 57 74 59 75
REMARK SMILES IDX 56 76 40 77 41 78 46 79 42 80 43 81 45 82 47 83 44 84
REMARK H PARENT 64 46 38 57
REMARK Flexibility Score: inf
ROOT
ATOM      1  C   UNL A   1      40.791  21.057  27.317  1.00  0.00     0.188 C 
ENDROOT
BRANCH   1   2
ATOM      2  O   UNL A   1      40.314  22.382  27.349  1.00  0.00    -0.376 OA
BRANCH   2   3
ATOM      3  C   UNL A   1      39.210  22.727  26.524  1.00  0.00     0.202 C 
BRANCH   3   4
ATOM      4  C   UNL A   1      38.482  21.711  25.618  1.00  0.00     0.261 C 
BRANCH   4   5
ATOM      5  O   UNL A   1      37.070  21.512  25.852  1.00  0.00    -0.463 OA
BRANCH   5   6
ATOM      6  C   UNL A   1      36.239  21.830  24.817  1.00  0.00     0.313 C 
ATOM      7  O   UNL A   1      36.637  22.018  23.671  1.00  0.00    -0.252 OA
BRANCH   6   8
ATOM      8  C   UNL A   1      34.742  21.922  25.182  1.00  0.00     0.126 C 
ATOM      9  C   UNL A   1      33.733  21.158  24.317  1.00  0.00     0.025 C 
BRANCH   8  10
ATOM     10  C   UNL A   1      34.265  23.360  25.408  1.00  0.00    -0.034 A 
ATOM     11  C   UNL A   1      33.086  23.654  26.105  1.00  0.00     0.005 A 
ATOM     12  C   UNL A   1      35.013  24.441  24.919  1.00  0.00     0.005 A 
ATOM     13  C   UNL A   1      32.645  24.966  26.272  1.00  0.00     0.009 A 
ATOM     14  C   UNL A   1      34.567  25.761  25.086  1.00  0.00     0.009 A 
ATOM     15  C   UNL A   1      33.370  26.040  25.755  1.00  0.00    -0.018 A 
BRANCH  15  16
ATOM     16  C   UNL A   1      32.849  27.402  25.886  1.00  0.00    -0.018 A 
ATOM     17  C   UNL A   1      33.010  28.342  24.857  1.00  0.00     0.009 A 
ATOM     18  C   UNL A   1      32.231  27.815  27.077  1.00  0.00     0.009 A 
ATOM     19  C   UNL A   1      32.558  29.653  25.008  1.00  0.00     0.001 A 
ATOM     20  C   UNL A   1      31.777  29.126  27.228  1.00  0.00     0.001 A 
ATOM     21  C   UNL A   1      31.936  30.042  26.190  1.00  0.00     0.000 A 
ENDBRANCH  15  16
ENDBRANCH   8  10
ENDBRANCH   6   8
ENDBRANCH   5   6
ENDBRANCH   4   5
ENDBRANCH   3   4
ENDBRANCH   2   3
ENDBRANCH   1   2
BRANCH   1  22
ATOM     22  C   UNL A   1      42.270  20.816  26.993  1.00  0.00     0.188 C 
BRANCH  22  23
ATOM     23  O   UNL A   1      42.696  20.587  25.672  1.00  0.00    -0.376 OA
BRANCH  23  24
ATOM     24  C   UNL A   1      43.999  20.966  25.271  1.00  0.00     0.202 C 
BRANCH  24  25
ATOM     25  C   UNL A   1      44.306  22.179  24.372  1.00  0.00     0.261 C 
BRANCH  25  26
ATOM     26  O   UNL A   1      43.637  23.412  24.653  1.00  0.00    -0.460 OA
BRANCH  26  27
ATOM     27  C   UNL A   1      44.429  24.433  25.061  1.00  0.00     0.338 C 
ATOM     28  O   UNL A   1      45.534  24.729  24.632  1.00  0.00    -0.246 OA
BRANCH  27  29
ATOM     29  C   UNL A   1      43.663  25.276  26.003  1.00  0.00     0.060 A 
ATOM     30  C   UNL A   1      43.901  26.657  26.030  1.00  0.00     0.016 A 
ATOM     31  C   UNL A   1      42.730  24.705  26.870  1.00  0.00     0.016 A 
ATOM     32  C   UNL A   1      43.218  27.470  26.936  1.00  0.00     0.010 A 
ATOM     33  C   UNL A   1      42.069  25.516  27.798  1.00  0.00     0.010 A 
ATOM     34  C   UNL A   1      42.328  26.898  27.855  1.00  0.00    -0.014 A 
BRANCH  34  35
ATOM     35  C   UNL A   1      41.809  27.703  28.991  1.00  0.00     0.031 A 
ATOM     36  C   UNL A   1      42.552  27.660  30.297  1.00  0.00     0.074 A 
ATOM     37  C   UNL A   1      40.706  28.462  28.871  1.00  0.00     0.049 A 
ATOM     38  N   UNL A   1      42.270  28.243  31.432  1.00  0.00    -0.248 NA
ATOM     39  C   UNL A   1      43.769  26.833  30.328  1.00  0.00     0.031 C 
ATOM     40  C   UNL A   1      39.918  28.606  27.652  1.00  0.00     0.029 A 
ATOM     41  N   UNL A   1      40.066  29.267  29.783  1.00  0.00    -0.354 N 
ATOM     42  C   UNL A   1      43.253  27.829  32.321  1.00  0.00     0.074 A 
ATOM     43  C   UNL A   1      44.137  26.943  31.595  1.00  0.00     0.031 C 
ATOM     44  C   UNL A   1      38.930  29.490  27.873  1.00  0.00     0.029 A 
ATOM     45  C   UNL A   1      38.970  29.923  29.270  1.00  0.00     0.049 A 
ATOM     46  H   UNL A   1      40.365  29.367  30.716  1.00  0.00     0.167 HD
ATOM     47  C   UNL A   1      43.400  28.150  33.630  1.00  0.00     0.037 A 
ATOM     48  C   UNL A   1      38.097  30.764  29.864  1.00  0.00     0.037 A 
ATOM     49  C   UNL A   1      42.515  29.025  34.351  1.00  0.00     0.049 A 
ATOM     50  C   UNL A   1      38.276  31.085  31.329  1.00  0.00     0.074 A 
ATOM     51  C   UNL A   1      42.577  29.405  35.681  1.00  0.00     0.029 A 
ATOM     52  N   UNL A   1      41.402  29.650  33.808  1.00  0.00    -0.354 N 
ATOM     53  N   UNL A   1      39.229  30.715  32.152  1.00  0.00    -0.248 NA
ATOM     54  C   UNL A   1      37.249  31.934  31.954  1.00  0.00     0.031 C 
ATOM     55  C   UNL A   1      41.471  30.216  35.956  1.00  0.00     0.029 A 
ATOM     56  C   UNL A   1      40.757  30.395  34.782  1.00  0.00     0.049 A 
ATOM     57  H   UNL A   1      41.115  29.577  32.869  1.00  0.00     0.167 HD
ATOM     58  C   UNL A   1      38.926  31.298  33.378  1.00  0.00     0.074 A 
ATOM     59  C   UNL A   1      37.724  32.080  33.182  1.00  0.00     0.031 C 
ATOM     60  C   UNL A   1      39.571  31.184  34.565  1.00  0.00     0.037 A 
BRANCH  47  61
ATOM     61  C   UNL A   1      44.534  27.508  34.374  1.00  0.00     0.057 A 
ATOM     62  C   UNL A   1      45.805  28.093  34.445  1.00  0.00     0.134 A 
ATOM     63  C   UNL A   1      44.342  26.296  35.050  1.00  0.00     0.134 A 
ATOM     64  F   UNL A   1      46.060  29.245  33.807  1.00  0.00    -0.206 F 
ATOM     65  C   UNL A   1      46.850  27.484  35.143  1.00  0.00     0.040 A 
ATOM     66  C   UNL A   1      45.371  25.693  35.774  1.00  0.00     0.040 A 
ATOM     67  F   UNL A   1      43.150  25.682  35.025  1.00  0.00    -0.206 F 
ATOM     68  C   UNL A   1      46.631  26.284  35.817  1.00  0.00     0.006 A 
ENDBRANCH  47  61
BRANCH  48  69
ATOM     69  C   UNL A   1      36.967  31.361  29.092  1.00  0.00     0.057 A 
ATOM     70  C   UNL A   1      36.975  32.708  28.701  1.00  0.00     0.134 A 
ATOM     71  C   UNL A   1      35.830  30.615  28.756  1.00  0.00     0.134 A 
ATOM     72  F   UNL A   1      37.991  33.511  29.051  1.00  0.00    -0.206 F 
ATOM     73  C   UNL A   1      35.911  33.285  28.004  1.00  0.00     0.040 A 
ATOM     74  C   UNL A   1      34.769  31.171  28.037  1.00  0.00     0.040 A 
ATOM     75  F   UNL A   1      35.731  29.329  29.121  1.00  0.00    -0.206 F 
ATOM     76  C   UNL A   1      34.807  32.512  27.661  1.00  0.00     0.006 A 
ENDBRANCH  48  69
BRANCH  60  77
ATOM     77  C   UNL A   1      39.016  31.949  35.736  1.00  0.00     0.057 A 
ATOM     78  C   UNL A   1      38.169  31.351  36.679  1.00  0.00     0.134 A 
ATOM     79  C   UNL A   1      39.372  33.287  35.948  1.00  0.00     0.134 A 
ATOM     80  F   UNL A   1      37.781  30.074  36.534  1.00  0.00    -0.206 F 
ATOM     81  C   UNL A   1      37.675  32.064  37.774  1.00  0.00     0.040 A 
ATOM     82  C   UNL A   1      38.911  34.000  37.056  1.00  0.00     0.040 A 
ATOM     83  F   UNL A   1      40.190  33.918  35.093  1.00  0.00    -0.206 F 
ATOM     84  C   UNL A   1      38.053  33.391  37.968  1.00  0.00     0.006 A 
ENDBRANCH  60  77
ENDBRANCH  34  35
ENDBRANCH  27  29
ENDBRANCH  26  27
ENDBRANCH  25  26
ENDBRANCH  24  25
ENDBRANCH  23  24
ENDBRANCH  22  23
ENDBRANCH   1  22
TORSDOF 19
ENDMDL
MODEL 2
REMARK VINA RESULT:     -10.4      3.373      8.860
REMARK SMILES C[C@@H](C(=O)OCCOCCOCCOC(=O)c1ccc(-c2c3nc(c(-c4c(F)cccc4F)c4ccc([nH]4)c(-c4c(F)cccc4F)c4nc(c(-c5c(F)cccc5F)c5ccc2[nH]5)C=C4)C=C3)cc1)c1ccc(-c2ccccc2)cc1
REMARK SMILES IDX 9 1 8 2 7 3 6 4 5 5 3 6 4 7 2 8 1 9 71 10 72 11 82 12 73 13
REMARK SMILES IDX 81 14 74 15 75 16 76 17 80 18 77 19 79 20 78 21 10 22 11 23
REMARK SMILES IDX 12 24 13 25 14 26 15 27 16 28 17 29 18 30 70 31 19 32 69 33
REMARK SMILES IDX 20 34 21 35 22 36 63 37 23 38 68 39 62 40 64 41 24 42 67 43
REMARK SMILES IDX 61 44 60 45 25 47 51 48 34 49 50 50 35 51 38 52 49 53 65 54
REMARK SMILES IDX 36 55 37 56 48 58 66 59 39 60 26 61 27 62 32 63 28 64 29 65
REMARK SMILES IDX 31 66 33 67 30 68 52 69 53 70 58 71 54 72 55 73 57 74 59 75
REMARK SMILES IDX 56 76 40 77 41 78 46 79 42 80 43 81 45 82 47 83 44 84
REMARK H PARENT 64 46 38 57
REMARK Flexibility Score: inf
ROOT
ATOM      1  C   UNL A   1      30.933  29.191  24.039  1.00  0.00     0.188 C 
ENDROOT
BRANCH   1   2
ATOM      2  O   UNL A   1      31.418  27.939  23.615  1.00  0.00    -0.376 OA
BRANCH   2   3
ATOM      3  C   UNL A   1      31.191  27.544  22.269  1.00  0.00     0.202 C 
BRANCH   3   4
ATOM      4  C   UNL A   1      31.540  26.140  21.730  1.00  0.00     0.261 C 
BRANCH   4   5
ATOM      5  O   UNL A   1      31.772  25.099  22.705  1.00  0.00    -0.463 OA
BRANCH   5   6
ATOM      6  C   UNL A   1      33.072  24.726  22.889  1.00  0.00     0.313 C 
ATOM      7  O   UNL A   1      33.926  24.815  22.011  1.00  0.00    -0.252 OA
BRANCH   6   8
ATOM      8  C   UNL A   1      33.408  24.190  24.297  1.00  0.00     0.126 C 
ATOM      9  C   UNL A   1      34.616  24.782  25.031  1.00  0.00     0.025 C 
BRANCH   8  10
ATOM     10  C   UNL A   1      33.442  22.661  24.368  1.00  0.00    -0.034 A 
ATOM     11  C   UNL A   1      32.365  21.871  23.949  1.00  0.00     0.005 A 
ATOM     12  C   UNL A   1      34.577  21.998  24.856  1.00  0.00     0.005 A 
ATOM     13  C   UNL A   1      32.395  20.480  24.052  1.00  0.00     0.009 A 
ATOM     14  C   UNL A   1      34.606  20.599  24.962  1.00  0.00     0.009 A 
ATOM     15  C   UNL A   1      33.510  19.822  24.571  1.00  0.00    -0.018 A 
BRANCH  15  16
ATOM     16  C   UNL A   1      33.489  18.366  24.731  1.00  0.00    -0.018 A 
ATOM     17  C   UNL A   1      32.592  17.748  25.615  1.00  0.00     0.009 A 
ATOM     18  C   UNL A   1      34.415  17.563  24.047  1.00  0.00     0.009 A 
ATOM     19  C   UNL A   1      32.612  16.365  25.802  1.00  0.00     0.001 A 
ATOM     20  C   UNL A   1      34.434  16.180  24.233  1.00  0.00     0.001 A 
ATOM     21  C   UNL A   1      33.528  15.583  25.106  1.00  0.00     0.000 A 
ENDBRANCH  15  16
ENDBRANCH   8  10
ENDBRANCH   6   8
ENDBRANCH   5   6
ENDBRANCH   4   5
ENDBRANCH   3   4
ENDBRANCH   2   3
ENDBRANCH   1   2
BRANCH   1  22
ATOM     22  C   UNL A   1      31.467  29.779  25.351  1.00  0.00     0.188 C 
BRANCH  22  23
ATOM     23  O   UNL A   1      31.191  31.109  25.715  1.00  0.00    -0.376 OA
BRANCH  23  24
ATOM     24  C   UNL A   1      31.842  31.689  26.831  1.00  0.00     0.202 C 
BRANCH  24  25
ATOM     25  C   UNL A   1      32.161  33.191  26.958  1.00  0.00     0.261 C 
BRANCH  25  26
ATOM     26  O   UNL A   1      32.393  33.722  28.266  1.00  0.00    -0.460 OA
BRANCH  26  27
ATOM     27  C   UNL A   1      33.490  34.507  28.396  1.00  0.00     0.338 C 
ATOM     28  O   UNL A   1      33.531  35.729  28.389  1.00  0.00    -0.246 OA
BRANCH  27  29
ATOM     29  C   UNL A   1      34.643  33.650  28.746  1.00  0.00     0.060 A 
ATOM     30  C   UNL A   1      34.408  32.348  29.209  1.00  0.00     0.016 A 
ATOM     31  C   UNL A   1      35.947  34.135  28.639  1.00  0.00     0.016 A 
ATOM     32  C   UNL A   1      35.477  31.533  29.583  1.00  0.00     0.010 A 
ATOM     33  C   UNL A   1      37.016  33.328  29.043  1.00  0.00     0.010 A 
ATOM     34  C   UNL A   1      36.786  32.033  29.541  1.00  0.00    -0.014 A 
BRANCH  34  35
ATOM     35  C   UNL A   1      37.892  31.280  30.187  1.00  0.00     0.031 A 
ATOM     36  C   UNL A   1      38.154  31.508  31.649  1.00  0.00     0.074 A 
ATOM     37  C   UNL A   1      38.649  30.409  29.497  1.00  0.00     0.049 A 
ATOM     38  N   UNL A   1      39.084  30.999  32.415  1.00  0.00    -0.248 NA
ATOM     39  C   UNL A   1      37.255  32.450  32.334  1.00  0.00     0.031 C 
ATOM     40  C   UNL A   1      38.475  30.085  28.086  1.00  0.00     0.029 A 
ATOM     41  N   UNL A   1      39.706  29.626  29.895  1.00  0.00    -0.354 N 
ATOM     42  C   UNL A   1      38.902  31.582  33.663  1.00  0.00     0.074 A 
ATOM     43  C   UNL A   1      37.778  32.485  33.550  1.00  0.00     0.031 C 
ATOM     44  C   UNL A   1      39.358  29.130  27.745  1.00  0.00     0.029 A 
ATOM     45  C   UNL A   1      40.209  28.824  28.895  1.00  0.00     0.049 A 
ATOM     46  H   UNL A   1      40.069  29.636  30.810  1.00  0.00     0.167 HD
ATOM     47  C   UNL A   1      39.617  31.390  34.798  1.00  0.00     0.037 A 
ATOM     48  C   UNL A   1      41.242  27.954  28.908  1.00  0.00     0.037 A 
ATOM     49  C   UNL A   1      40.740  30.497  34.905  1.00  0.00     0.049 A 
ATOM     50  C   UNL A   1      42.031  27.779  30.183  1.00  0.00     0.074 A 
ATOM     51  C   UNL A   1      41.532  30.239  36.010  1.00  0.00     0.029 A 
ATOM     52  N   UNL A   1      41.237  29.721  33.868  1.00  0.00    -0.354 N 
ATOM     53  N   UNL A   1      41.830  28.310  31.366  1.00  0.00    -0.248 NA
ATOM     54  C   UNL A   1      43.202  26.890  30.123  1.00  0.00     0.031 C 
ATOM     55  C   UNL A   1      42.541  29.350  35.628  1.00  0.00     0.029 A 
ATOM     56  C   UNL A   1      42.339  29.003  34.302  1.00  0.00     0.049 A 
ATOM     57  H   UNL A   1      40.860  29.686  32.958  1.00  0.00     0.167 HD
ATOM     58  C   UNL A   1      42.833  27.807  32.188  1.00  0.00     0.074 A 
ATOM     59  C   UNL A   1      43.617  26.896  31.381  1.00  0.00     0.031 C 
ATOM     60  C   UNL A   1      43.096  28.085  33.489  1.00  0.00     0.037 A 
BRANCH  47  61
ATOM     61  C   UNL A   1      39.232  32.201  36.000  1.00  0.00     0.057 A 
ATOM     62  C   UNL A   1      38.323  31.731  36.957  1.00  0.00     0.134 A 
ATOM     63  C   UNL A   1      39.801  33.463  36.215  1.00  0.00     0.134 A 
ATOM     64  F   UNL A   1      37.731  30.538  36.803  1.00  0.00    -0.206 F 
ATOM     65  C   UNL A   1      37.976  32.498  38.071  1.00  0.00     0.040 A 
ATOM     66  C   UNL A   1      39.484  34.226  37.339  1.00  0.00     0.040 A 
ATOM     67  F   UNL A   1      40.680  33.974  35.339  1.00  0.00    -0.206 F 
ATOM     68  C   UNL A   1      38.564  33.747  38.268  1.00  0.00     0.006 A 
ENDBRANCH  47  61
BRANCH  48  69
ATOM     69  C   UNL A   1      41.606  27.185  27.681  1.00  0.00     0.057 A 
ATOM     70  C   UNL A   1      42.477  27.711  26.716  1.00  0.00     0.134 A 
ATOM     71  C   UNL A   1      41.064  25.921  27.418  1.00  0.00     0.134 A 
ATOM     72  F   UNL A   1      42.978  28.947  26.855  1.00  0.00    -0.206 F 
ATOM     73  C   UNL A   1      42.802  27.014  25.550  1.00  0.00     0.040 A 
ATOM     74  C   UNL A   1      41.399  25.200  26.269  1.00  0.00     0.040 A 
ATOM     75  F   UNL A   1      40.199  25.362  28.275  1.00  0.00    -0.206 F 
ATOM     76  C   UNL A   1      42.270  25.748  25.329  1.00  0.00     0.006 A 
ENDBRANCH  48  69
BRANCH  60  77
ATOM     77  C   UNL A   1      44.254  27.372  34.134  1.00  0.00     0.057 A 
ATOM     78  C   UNL A   1      44.111  26.113  34.734  1.00  0.00     0.134 A 
ATOM     79  C   UNL A   1      45.538  27.932  34.112  1.00  0.00     0.134 A 
ATOM     80  F   UNL A   1      42.908  25.522  34.797  1.00  0.00    -0.206 F 
ATOM     81  C   UNL A   1      45.197  25.452  35.313  1.00  0.00     0.040 A 
ATOM     82  C   UNL A   1      46.637  27.265  34.658  1.00  0.00     0.040 A 
ATOM     83  F   UNL A   1      45.751  29.128  33.542  1.00  0.00    -0.206 F 
ATOM     84  C   UNL A   1      46.465  26.025  35.268  1.00  0.00     0.006 A 
ENDBRANCH  60  77
ENDBRANCH  34  35
ENDBRANCH  27  29
ENDBRANCH  26  27
ENDBRANCH  25  26
ENDBRANCH  24  25
ENDBRANCH  23  24
ENDBRANCH  22  23
ENDBRANCH   1  22
TORSDOF 19
ENDMDL
MODEL 3
REMARK VINA RESULT:     -10.4      3.103      8.322
REMARK SMILES C[C@@H](C(=O)OCCOCCOCCOC(=O)c1ccc(-c2c3nc(c(-c4c(F)cccc4F)c4ccc([nH]4)c(-c4c(F)cccc4F)c4nc(c(-c5c(F)cccc5F)c5ccc2[nH]5)C=C4)C=C3)cc1)c1ccc(-c2ccccc2)cc1
REMARK SMILES IDX 9 1 8 2 7 3 6 4 5 5 3 6 4 7 2 8 1 9 71 10 72 11 82 12 73 13
REMARK SMILES IDX 81 14 74 15 75 16 76 17 80 18 77 19 79 20 78 21 10 22 11 23
REMARK SMILES IDX 12 24 13 25 14 26 15 27 16 28 17 29 18 30 70 31 19 32 69 33
REMARK SMILES IDX 20 34 21 35 22 36 63 37 23 38 68 39 62 40 64 41 24 42 67 43
REMARK SMILES IDX 61 44 60 45 25 47 51 48 34 49 50 50 35 51 38 52 49 53 65 54
REMARK SMILES IDX 36 55 37 56 48 58 66 59 39 60 26 61 27 62 32 63 28 64 29 65
REMARK SMILES IDX 31 66 33 67 30 68 52 69 53 70 58 71 54 72 55 73 57 74 59 75
REMARK SMILES IDX 56 76 40 77 41 78 46 79 42 80 43 81 45 82 47 83 44 84
REMARK H PARENT 64 46 38 57
REMARK Flexibility Score: inf
ROOT
ATOM      1  C   UNL A   1      33.663  27.723  21.631  1.00  0.00     0.188 C 
ENDROOT
BRANCH   1   2
ATOM      2  O   UNL A   1      33.794  26.327  21.764  1.00  0.00    -0.376 OA
BRANCH   2   3
ATOM      3  C   UNL A   1      32.626  25.525  21.683  1.00  0.00     0.202 C 
BRANCH   3   4
ATOM      4  C   UNL A   1      31.311  25.870  22.414  1.00  0.00     0.261 C 
BRANCH   4   5
ATOM      5  O   UNL A   1      30.979  25.085  23.580  1.00  0.00    -0.463 OA
BRANCH   5   6
ATOM      6  C   UNL A   1      31.224  25.671  24.789  1.00  0.00     0.313 C 
ATOM      7  O   UNL A   1      30.538  26.582  25.244  1.00  0.00    -0.252 OA
BRANCH   6   8
ATOM      8  C   UNL A   1      32.427  25.094  25.566  1.00  0.00     0.126 C 
ATOM      9  C   UNL A   1      33.737  25.891  25.573  1.00  0.00     0.025 C 
BRANCH   8  10
ATOM     10  C   UNL A   1      32.704  23.623  25.241  1.00  0.00    -0.034 A 
ATOM     11  C   UNL A   1      33.891  23.205  24.627  1.00  0.00     0.005 A 
ATOM     12  C   UNL A   1      31.761  22.636  25.562  1.00  0.00     0.005 A 
ATOM     13  C   UNL A   1      34.115  21.867  24.304  1.00  0.00     0.009 A 
ATOM     14  C   UNL A   1      31.985  21.289  25.234  1.00  0.00     0.009 A 
ATOM     15  C   UNL A   1      33.162  20.889  24.591  1.00  0.00    -0.018 A 
BRANCH  15  16
ATOM     16  C   UNL A   1      33.393  19.502  24.180  1.00  0.00    -0.018 A 
ATOM     17  C   UNL A   1      34.513  18.790  24.632  1.00  0.00     0.009 A 
ATOM     18  C   UNL A   1      32.526  18.878  23.269  1.00  0.00     0.009 A 
ATOM     19  C   UNL A   1      34.755  17.486  24.196  1.00  0.00     0.001 A 
ATOM     20  C   UNL A   1      32.767  17.574  22.833  1.00  0.00     0.001 A 
ATOM     21  C   UNL A   1      33.879  16.878  23.303  1.00  0.00     0.000 A 
ENDBRANCH  15  16
ENDBRANCH   8  10
ENDBRANCH   6   8
ENDBRANCH   5   6
ENDBRANCH   4   5
ENDBRANCH   3   4
ENDBRANCH   2   3
ENDBRANCH   1   2
BRANCH   1  22
ATOM     22  C   UNL A   1      33.785  28.595  22.887  1.00  0.00     0.188 C 
BRANCH  22  23
ATOM     23  O   UNL A   1      32.643  29.037  23.578  1.00  0.00    -0.376 OA
BRANCH  23  24
ATOM     24  C   UNL A   1      32.724  29.349  24.956  1.00  0.00     0.202 C 
BRANCH  24  25
ATOM     25  C   UNL A   1      31.782  30.336  25.672  1.00  0.00     0.261 C 
BRANCH  25  26
ATOM     26  O   UNL A   1      32.060  30.662  27.038  1.00  0.00    -0.460 OA
BRANCH  26  27
ATOM     27  C   UNL A   1      32.771  31.797  27.240  1.00  0.00     0.338 C 
ATOM     28  O   UNL A   1      32.371  32.948  27.147  1.00  0.00    -0.246 OA
BRANCH  27  29
ATOM     29  C   UNL A   1      34.095  31.431  27.787  1.00  0.00     0.060 A 
ATOM     30  C   UNL A   1      34.363  30.087  28.081  1.00  0.00     0.016 A 
ATOM     31  C   UNL A   1      35.059  32.410  28.029  1.00  0.00     0.016 A 
ATOM     32  C   UNL A   1      35.590  29.721  28.635  1.00  0.00     0.010 A 
ATOM     33  C   UNL A   1      36.277  32.047  28.612  1.00  0.00     0.010 A 
ATOM     34  C   UNL A   1      36.540  30.705  28.943  1.00  0.00    -0.014 A 
BRANCH  34  35
ATOM     35  C   UNL A   1      37.724  30.364  29.773  1.00  0.00     0.031 A 
ATOM     36  C   UNL A   1      38.797  29.501  29.169  1.00  0.00     0.074 A 
ATOM     37  C   UNL A   1      37.852  30.809  31.035  1.00  0.00     0.049 A 
ATOM     38  N   UNL A   1      39.896  29.043  29.709  1.00  0.00    -0.248 NA
ATOM     39  C   UNL A   1      38.593  29.090  27.771  1.00  0.00     0.031 C 
ATOM     40  C   UNL A   1      36.895  31.670  31.719  1.00  0.00     0.029 A 
ATOM     41  N   UNL A   1      38.849  30.611  31.961  1.00  0.00    -0.354 N 
ATOM     42  C   UNL A   1      40.498  28.263  28.730  1.00  0.00     0.074 A 
ATOM     43  C   UNL A   1      39.640  28.306  27.566  1.00  0.00     0.031 C 
ATOM     44  C   UNL A   1      37.373  31.973  32.938  1.00  0.00     0.029 A 
ATOM     45  C   UNL A   1      38.638  31.270  33.151  1.00  0.00     0.049 A 
ATOM     46  H   UNL A   1      39.640  30.052  31.788  1.00  0.00     0.167 HD
ATOM     47  C   UNL A   1      41.655  27.562  28.801  1.00  0.00     0.037 A 
ATOM     48  C   UNL A   1      39.377  31.292  34.281  1.00  0.00     0.037 A 
ATOM     49  C   UNL A   1      42.501  27.514  29.964  1.00  0.00     0.049 A 
ATOM     50  C   UNL A   1      40.652  30.484  34.335  1.00  0.00     0.074 A 
ATOM     51  C   UNL A   1      43.690  26.826  30.134  1.00  0.00     0.029 A 
ATOM     52  N   UNL A   1      42.245  28.171  31.157  1.00  0.00    -0.354 N 
ATOM     53  N   UNL A   1      41.229  29.777  33.391  1.00  0.00    -0.248 NA
ATOM     54  C   UNL A   1      41.375  30.467  35.615  1.00  0.00     0.031 C 
ATOM     55  C   UNL A   1      44.125  27.023  31.448  1.00  0.00     0.029 A 
ATOM     56  C   UNL A   1      43.242  27.886  32.076  1.00  0.00     0.049 A 
ATOM     57  H   UNL A   1      41.470  28.755  31.326  1.00  0.00     0.167 HD
ATOM     58  C   UNL A   1      42.384  29.250  33.959  1.00  0.00     0.074 A 
ATOM     59  C   UNL A   1      42.449  29.752  35.316  1.00  0.00     0.031 C 
ATOM     60  C   UNL A   1      43.301  28.411  33.417  1.00  0.00     0.037 A 
BRANCH  47  61
ATOM     61  C   UNL A   1      42.045  26.752  27.599  1.00  0.00     0.057 A 
ATOM     62  C   UNL A   1      42.676  27.324  26.487  1.00  0.00     0.134 A 
ATOM     63  C   UNL A   1      41.805  25.372  27.567  1.00  0.00     0.134 A 
ATOM     64  F   UNL A   1      42.921  28.642  26.448  1.00  0.00    -0.206 F 
ATOM     65  C   UNL A   1      43.033  26.556  25.377  1.00  0.00     0.040 A 
ATOM     66  C   UNL A   1      42.183  24.590  26.475  1.00  0.00     0.040 A 
ATOM     67  F   UNL A   1      41.205  24.759  28.598  1.00  0.00    -0.206 F 
ATOM     68  C   UNL A   1      42.794  25.183  25.373  1.00  0.00     0.006 A 
ENDBRANCH  47  61
BRANCH  48  69
ATOM     69  C   UNL A   1      38.940  32.093  35.463  1.00  0.00     0.057 A 
ATOM     70  C   UNL A   1      39.309  33.437  35.618  1.00  0.00     0.134 A 
ATOM     71  C   UNL A   1      38.173  31.528  36.490  1.00  0.00     0.134 A 
ATOM     72  F   UNL A   1      40.107  34.029  34.718  1.00  0.00    -0.206 F 
ATOM     73  C   UNL A   1      38.930  34.187  36.733  1.00  0.00     0.040 A 
ATOM     74  C   UNL A   1      37.765  32.273  37.600  1.00  0.00     0.040 A 
ATOM     75  F   UNL A   1      37.805  30.240  36.434  1.00  0.00    -0.206 F 
ATOM     76  C   UNL A   1      38.146  33.607  37.725  1.00  0.00     0.006 A 
ENDBRANCH  48  69
BRANCH  60  77
ATOM     77  C   UNL A   1      44.473  28.011  34.273  1.00  0.00     0.057 A 
ATOM     78  C   UNL A   1      44.453  26.856  35.066  1.00  0.00     0.134 A 
ATOM     79  C   UNL A   1      45.652  28.768  34.267  1.00  0.00     0.134 A 
ATOM     80  F   UNL A   1      43.353  26.089  35.126  1.00  0.00    -0.206 F 
ATOM     81  C   UNL A   1      45.553  26.483  35.842  1.00  0.00     0.040 A 
ATOM     82  C   UNL A   1      46.769  28.387  35.013  1.00  0.00     0.040 A 
ATOM     83  F   UNL A   1      45.746  29.878  33.520  1.00  0.00    -0.206 F 
ATOM     84  C   UNL A   1      46.718  27.246  35.810  1.00  0.00     0.006 A 
ENDBRANCH  60  77
ENDBRANCH  34  35
ENDBRANCH  27  29
ENDBRANCH  26  27
ENDBRANCH  25  26
ENDBRANCH  24  25
ENDBRANCH  23  24
ENDBRANCH  22  23
ENDBRANCH   1  22
TORSDOF 19
ENDMDL
