MODEL 1
REMARK VINA RESULT:     -10.6      0.000      0.000
REMARK SMILES O=C(C[N@@H+]1C[C@@]2([N+](=O)[O-])CC=C(Cl)[C@@]([N+](=O)[O-])(C1)C2)OCCOCCOCCOC(=O)c1ccc(-c2c3nc(c(-c4c(F)cccc4F)c4ccc([nH]4)c(-c4c(F)cccc4F)c4nc(c(-c5c(F)cccc5F)c5ccc2[nH]5)C=C4)C=C3)cc1
REMARK SMILES IDX 24 1 23 2 22 3 21 4 20 5 2 6 1 7 3 8 4 9 5 10 18 11 6 13
REMARK SMILES IDX 14 14 10 15 19 16 12 17 11 18 13 19 7 20 8 21 9 22 15 23
REMARK SMILES IDX 16 24 17 25 25 26 26 27 27 28 28 29 29 30 30 31 31 32 32 33
REMARK SMILES IDX 33 34 85 35 34 36 84 37 35 38 36 39 37 40 78 41 38 42 83 43
REMARK SMILES IDX 77 44 79 45 39 46 82 47 76 48 75 49 40 51 66 52 49 53 65 54
REMARK SMILES IDX 50 55 53 56 64 57 80 58 51 59 52 60 63 62 81 63 54 64 41 65
REMARK SMILES IDX 42 66 47 67 43 68 44 69 46 70 48 71 45 72 67 73 68 74 73 75
REMARK SMILES IDX 69 76 70 77 72 78 74 79 71 80 55 81 56 82 61 83 57 84 58 85
REMARK SMILES IDX 60 86 62 87 59 88
REMARK H PARENT 4 12 79 50 53 61
REMARK Flexibility Score: inf
ROOT
ATOM      1  C   UNL A   1      39.514  21.506  25.946  1.00  0.00     0.188 C 
ENDROOT
BRANCH   1   2
ATOM      2  O   UNL A   1      38.115  21.654  25.934  1.00  0.00    -0.376 OA
BRANCH   2   3
ATOM      3  C   UNL A   1      37.502  22.209  24.791  1.00  0.00     0.202 C 
BRANCH   3   4
ATOM      4  C   UNL A   1      36.020  21.938  24.567  1.00  0.00     0.261 C 
BRANCH   4   5
ATOM      5  O   UNL A   1      35.027  22.687  25.320  1.00  0.00    -0.459 OA
BRANCH   5   6
ATOM      6  C   UNL A   1      33.805  22.437  25.823  1.00  0.00     0.361 C 
ATOM      7  O   UNL A   1      33.504  21.269  26.077  1.00  0.00    -0.245 OA
BRANCH   6   8
ATOM      8  C   UNL A   1      32.742  23.515  25.932  1.00  0.00     0.386 C 
BRANCH   8   9
ATOM      9  N   UNL A   1      32.940  24.779  25.247  1.00  0.00    -0.313 N 
ATOM     10  C   UNL A   1      32.859  24.730  23.786  1.00  0.00     0.350 C 
ATOM     11  C   UNL A   1      33.596  25.932  25.851  1.00  0.00     0.356 C 
ATOM     12  H   UNL A   1      32.069  25.157  25.619  1.00  0.00     0.349 HD
ATOM     13  C   UNL A   1      32.295  26.048  23.219  1.00  0.00     0.280 C 
ATOM     14  C   UNL A   1      33.000  27.245  25.292  1.00  0.00     0.311 C 
ATOM     15  C   UNL A   1      30.800  26.260  23.582  1.00  0.00     0.121 C 
ATOM     16  C   UNL A   1      33.126  27.232  23.749  1.00  0.00     0.191 C 
ATOM     17  C   UNL A   1      31.547  27.334  25.725  1.00  0.00     0.097 C 
ATOM     18  C   UNL A   1      30.556  26.867  24.945  1.00  0.00     0.004 C 
ATOM     19  Cl  UNL A   1      31.181  27.865  27.329  1.00  0.00    -0.081 Cl
BRANCH  13  20
ATOM     20  N   UNL A   1      32.432  25.939  21.709  1.00  0.00     0.032 N 
ATOM     21  O   UNL A   1      33.571  25.809  21.242  1.00  0.00    -0.264 OA
ATOM     22  O   UNL A   1      31.398  26.046  21.037  1.00  0.00    -0.264 OA
ENDBRANCH  13  20
BRANCH  14  23
ATOM     23  N   UNL A   1      33.796  28.434  25.811  1.00  0.00     0.038 N 
ATOM     24  O   UNL A   1      34.614  28.235  26.720  1.00  0.00    -0.263 OA
ATOM     25  O   UNL A   1      33.613  29.524  25.253  1.00  0.00    -0.263 OA
ENDBRANCH  14  23
ENDBRANCH   8   9
ENDBRANCH   6   8
ENDBRANCH   5   6
ENDBRANCH   4   5
ENDBRANCH   3   4
ENDBRANCH   2   3
ENDBRANCH   1   2
BRANCH   1  26
ATOM     26  C   UNL A   1      40.026  20.073  26.113  1.00  0.00     0.188 C 
BRANCH  26  27
ATOM     27  O   UNL A   1      41.275  19.701  25.557  1.00  0.00    -0.376 OA
BRANCH  27  28
ATOM     28  C   UNL A   1      42.482  20.147  26.162  1.00  0.00     0.202 C 
BRANCH  28  29
ATOM     29  C   UNL A   1      43.319  21.234  25.468  1.00  0.00     0.261 C 
BRANCH  29  30
ATOM     30  O   UNL A   1      42.626  22.462  25.165  1.00  0.00    -0.460 OA
BRANCH  30  31
ATOM     31  C   UNL A   1      43.391  23.585  25.131  1.00  0.00     0.338 C 
ATOM     32  O   UNL A   1      44.331  23.812  24.392  1.00  0.00    -0.246 OA
BRANCH  31  33
ATOM     33  C   UNL A   1      42.836  24.615  26.038  1.00  0.00     0.060 A 
ATOM     34  C   UNL A   1      43.387  25.906  26.008  1.00  0.00     0.016 A 
ATOM     35  C   UNL A   1      41.836  24.304  26.959  1.00  0.00     0.016 A 
ATOM     36  C   UNL A   1      42.940  26.887  26.899  1.00  0.00     0.010 A 
ATOM     37  C   UNL A   1      41.414  25.279  27.873  1.00  0.00     0.010 A 
ATOM     38  C   UNL A   1      41.975  26.571  27.861  1.00  0.00    -0.014 A 
BRANCH  38  39
ATOM     39  C   UNL A   1      41.640  27.536  28.943  1.00  0.00     0.031 A 
ATOM     40  C   UNL A   1      42.401  27.473  30.239  1.00  0.00     0.074 A 
ATOM     41  C   UNL A   1      40.659  28.444  28.788  1.00  0.00     0.049 A 
ATOM     42  N   UNL A   1      42.197  28.129  31.354  1.00  0.00    -0.248 NA
ATOM     43  C   UNL A   1      43.544  26.546  30.285  1.00  0.00     0.031 C 
ATOM     44  C   UNL A   1      39.873  28.644  27.573  1.00  0.00     0.029 A 
ATOM     45  N   UNL A   1      40.138  29.353  29.680  1.00  0.00    -0.354 N 
ATOM     46  C   UNL A   1      43.174  27.684  32.238  1.00  0.00     0.074 A 
ATOM     47  C   UNL A   1      43.963  26.696  31.533  1.00  0.00     0.031 C 
ATOM     48  C   UNL A   1      38.945  29.591  27.805  1.00  0.00     0.029 A 
ATOM     49  C   UNL A   1      39.048  30.035  29.195  1.00  0.00     0.049 A 
ATOM     50  H   UNL A   1      40.512  29.501  30.578  1.00  0.00     0.167 HD
ATOM     51  C   UNL A   1      43.391  28.065  33.518  1.00  0.00     0.037 A 
ATOM     52  C   UNL A   1      38.203  30.884  29.814  1.00  0.00     0.037 A 
ATOM     53  C   UNL A   1      42.613  29.051  34.221  1.00  0.00     0.049 A 
ATOM     54  C   UNL A   1      38.414  31.223  31.269  1.00  0.00     0.074 A 
ATOM     55  C   UNL A   1      42.792  29.529  35.508  1.00  0.00     0.029 A 
ATOM     56  N   UNL A   1      41.502  29.698  33.705  1.00  0.00    -0.354 N 
ATOM     57  N   UNL A   1      39.366  30.831  32.082  1.00  0.00    -0.248 NA
ATOM     58  C   UNL A   1      37.428  32.117  31.897  1.00  0.00     0.031 C 
ATOM     59  C   UNL A   1      41.754  30.422  35.791  1.00  0.00     0.029 A 
ATOM     60  C   UNL A   1      40.960  30.539  34.662  1.00  0.00     0.049 A 
ATOM     61  H   UNL A   1      41.149  29.576  32.794  1.00  0.00     0.167 HD
ATOM     62  C   UNL A   1      39.106  31.446  33.302  1.00  0.00     0.074 A 
ATOM     63  C   UNL A   1      37.920  32.255  33.119  1.00  0.00     0.031 C 
ATOM     64  C   UNL A   1      39.784  31.346  34.471  1.00  0.00     0.037 A 
BRANCH  51  65
ATOM     65  C   UNL A   1      44.502  27.395  34.270  1.00  0.00     0.057 A 
ATOM     66  C   UNL A   1      45.807  27.904  34.271  1.00  0.00     0.134 A 
ATOM     67  C   UNL A   1      44.243  26.275  35.070  1.00  0.00     0.134 A 
ATOM     68  F   UNL A   1      46.122  28.969  33.518  1.00  0.00    -0.206 F 
ATOM     69  C   UNL A   1      46.816  27.318  35.038  1.00  0.00     0.040 A 
ATOM     70  C   UNL A   1      45.237  25.694  35.858  1.00  0.00     0.040 A 
ATOM     71  F   UNL A   1      43.012  25.742  35.117  1.00  0.00    -0.206 F 
ATOM     72  C   UNL A   1      46.529  26.217  35.843  1.00  0.00     0.006 A 
ENDBRANCH  51  65
BRANCH  52  73
ATOM     73  C   UNL A   1      37.031  31.442  29.088  1.00  0.00     0.057 A 
ATOM     74  C   UNL A   1      37.028  32.756  28.607  1.00  0.00     0.134 A 
ATOM     75  C   UNL A   1      35.859  30.693  28.917  1.00  0.00     0.134 A 
ATOM     76  F   UNL A   1      38.109  33.536  28.765  1.00  0.00    -0.206 F 
ATOM     77  C   UNL A   1      35.896  33.316  28.010  1.00  0.00     0.040 A 
ATOM     78  C   UNL A   1      34.732  31.229  28.293  1.00  0.00     0.040 A 
ATOM     79  F   UNL A   1      35.793  29.429  29.361  1.00  0.00    -0.206 F 
ATOM     80  C   UNL A   1      34.744  32.549  27.849  1.00  0.00     0.006 A 
ENDBRANCH  52  73
BRANCH  64  81
ATOM     81  C   UNL A   1      39.280  32.145  35.639  1.00  0.00     0.057 A 
ATOM     82  C   UNL A   1      39.674  33.472  35.851  1.00  0.00     0.134 A 
ATOM     83  C   UNL A   1      38.351  31.597  36.534  1.00  0.00     0.134 A 
ATOM     84  F   UNL A   1      40.569  34.053  35.038  1.00  0.00    -0.206 F 
ATOM     85  C   UNL A   1      39.178  34.219  36.921  1.00  0.00     0.040 A 
ATOM     86  C   UNL A   1      37.827  32.342  37.591  1.00  0.00     0.040 A 
ATOM     87  F   UNL A   1      37.922  30.335  36.383  1.00  0.00    -0.206 F 
ATOM     88  C   UNL A   1      38.245  33.656  37.791  1.00  0.00     0.006 A 
ENDBRANCH  64  81
ENDBRANCH  38  39
ENDBRANCH  31  33
ENDBRANCH  30  31
ENDBRANCH  29  30
ENDBRANCH  28  29
ENDBRANCH  27  28
ENDBRANCH  26  27
ENDBRANCH   1  26
TORSDOF 20
ENDMDL
MODEL 2
REMARK VINA RESULT:     -10.5      1.314      2.198
REMARK SMILES O=C(C[N@@H+]1C[C@@]2([N+](=O)[O-])CC=C(Cl)[C@@]([N+](=O)[O-])(C1)C2)OCCOCCOCCOC(=O)c1ccc(-c2c3nc(c(-c4c(F)cccc4F)c4ccc([nH]4)c(-c4c(F)cccc4F)c4nc(c(-c5c(F)cccc5F)c5ccc2[nH]5)C=C4)C=C3)cc1
REMARK SMILES IDX 24 1 23 2 22 3 21 4 20 5 2 6 1 7 3 8 4 9 5 10 18 11 6 13
REMARK SMILES IDX 14 14 10 15 19 16 12 17 11 18 13 19 7 20 8 21 9 22 15 23
REMARK SMILES IDX 16 24 17 25 25 26 26 27 27 28 28 29 29 30 30 31 31 32 32 33
REMARK SMILES IDX 33 34 85 35 34 36 84 37 35 38 36 39 37 40 78 41 38 42 83 43
REMARK SMILES IDX 77 44 79 45 39 46 82 47 76 48 75 49 40 51 66 52 49 53 65 54
REMARK SMILES IDX 50 55 53 56 64 57 80 58 51 59 52 60 63 62 81 63 54 64 41 65
REMARK SMILES IDX 42 66 47 67 43 68 44 69 46 70 48 71 45 72 67 73 68 74 73 75
REMARK SMILES IDX 69 76 70 77 72 78 74 79 71 80 55 81 56 82 61 83 57 84 58 85
REMARK SMILES IDX 60 86 62 87 59 88
REMARK H PARENT 4 12 79 50 53 61
REMARK Flexibility Score: inf
ROOT
ATOM      1  C   UNL A   1      39.789  21.752  26.230  1.00  0.00     0.188 C 
ENDROOT
BRANCH   1   2
ATOM      2  O   UNL A   1      38.550  21.909  25.581  1.00  0.00    -0.376 OA
BRANCH   2   3
ATOM      3  C   UNL A   1      37.660  20.815  25.550  1.00  0.00     0.202 C 
BRANCH   3   4
ATOM      4  C   UNL A   1      36.255  21.048  25.010  1.00  0.00     0.261 C 
BRANCH   4   5
ATOM      5  O   UNL A   1      36.046  21.992  23.924  1.00  0.00    -0.459 OA
BRANCH   5   6
ATOM      6  C   UNL A   1      35.402  23.163  23.772  1.00  0.00     0.361 C 
ATOM      7  O   UNL A   1      35.734  24.110  24.488  1.00  0.00    -0.245 OA
BRANCH   6   8
ATOM      8  C   UNL A   1      34.189  23.306  22.871  1.00  0.00     0.386 C 
BRANCH   8   9
ATOM      9  N   UNL A   1      32.980  23.909  23.400  1.00  0.00    -0.313 N 
ATOM     10  C   UNL A   1      32.245  23.109  24.382  1.00  0.00     0.350 C 
ATOM     11  C   UNL A   1      32.266  24.998  22.744  1.00  0.00     0.356 C 
ATOM     12  H   UNL A   1      33.511  24.632  23.886  1.00  0.00     0.349 HD
ATOM     13  C   UNL A   1      31.540  24.011  25.415  1.00  0.00     0.280 C 
ATOM     14  C   UNL A   1      31.589  25.908  23.794  1.00  0.00     0.311 C 
ATOM     15  C   UNL A   1      32.544  24.752  26.340  1.00  0.00     0.121 C 
ATOM     16  C   UNL A   1      30.661  25.041  24.681  1.00  0.00     0.191 C 
ATOM     17  C   UNL A   1      32.674  26.576  24.621  1.00  0.00     0.097 C 
ATOM     18  C   UNL A   1      33.112  26.031  25.769  1.00  0.00     0.004 C 
ATOM     19  Cl  UNL A   1      33.492  27.954  23.973  1.00  0.00    -0.081 Cl
BRANCH  13  20
ATOM     20  N   UNL A   1      30.679  23.081  26.254  1.00  0.00     0.032 N 
ATOM     21  O   UNL A   1      30.208  23.528  27.308  1.00  0.00    -0.264 OA
ATOM     22  O   UNL A   1      30.551  21.916  25.858  1.00  0.00    -0.264 OA
ENDBRANCH  13  20
BRANCH  14  23
ATOM     23  N   UNL A   1      30.722  26.946  23.094  1.00  0.00     0.038 N 
ATOM     24  O   UNL A   1      29.947  27.619  23.788  1.00  0.00    -0.263 OA
ATOM     25  O   UNL A   1      30.885  27.090  21.875  1.00  0.00    -0.263 OA
ENDBRANCH  14  23
ENDBRANCH   8   9
ENDBRANCH   6   8
ENDBRANCH   5   6
ENDBRANCH   4   5
ENDBRANCH   3   4
ENDBRANCH   2   3
ENDBRANCH   1   2
BRANCH   1  26
ATOM     26  C   UNL A   1      40.425  20.364  26.115  1.00  0.00     0.188 C 
BRANCH  26  27
ATOM     27  O   UNL A   1      41.638  20.086  26.793  1.00  0.00    -0.376 OA
BRANCH  27  28
ATOM     28  C   UNL A   1      42.825  19.844  26.051  1.00  0.00     0.202 C 
BRANCH  28  29
ATOM     29  C   UNL A   1      43.650  21.033  25.531  1.00  0.00     0.261 C 
BRANCH  29  30
ATOM     30  O   UNL A   1      43.621  22.222  26.348  1.00  0.00    -0.460 OA
BRANCH  30  31
ATOM     31  C   UNL A   1      43.590  23.404  25.679  1.00  0.00     0.338 C 
ATOM     32  O   UNL A   1      43.871  23.594  24.510  1.00  0.00    -0.246 OA
BRANCH  31  33
ATOM     33  C   UNL A   1      43.008  24.465  26.532  1.00  0.00     0.060 A 
ATOM     34  C   UNL A   1      43.541  25.761  26.452  1.00  0.00     0.016 A 
ATOM     35  C   UNL A   1      41.998  24.181  27.451  1.00  0.00     0.016 A 
ATOM     36  C   UNL A   1      43.069  26.774  27.292  1.00  0.00     0.010 A 
ATOM     37  C   UNL A   1      41.550  25.189  28.315  1.00  0.00     0.010 A 
ATOM     38  C   UNL A   1      42.093  26.487  28.254  1.00  0.00    -0.014 A 
BRANCH  38  39
ATOM     39  C   UNL A   1      41.730  27.494  29.286  1.00  0.00     0.031 A 
ATOM     40  C   UNL A   1      42.460  27.487  30.602  1.00  0.00     0.074 A 
ATOM     41  C   UNL A   1      40.750  28.391  29.072  1.00  0.00     0.049 A 
ATOM     42  N   UNL A   1      42.227  28.187  31.684  1.00  0.00    -0.248 NA
ATOM     43  C   UNL A   1      43.603  26.568  30.714  1.00  0.00     0.031 C 
ATOM     44  C   UNL A   1      39.993  28.538  27.831  1.00  0.00     0.029 A 
ATOM     45  N   UNL A   1      40.205  29.334  29.912  1.00  0.00    -0.354 N 
ATOM     46  C   UNL A   1      43.183  27.783  32.609  1.00  0.00     0.074 A 
ATOM     47  C   UNL A   1      43.992  26.770  31.964  1.00  0.00     0.031 C 
ATOM     48  C   UNL A   1      39.057  29.490  28.001  1.00  0.00     0.029 A 
ATOM     49  C   UNL A   1      39.124  29.990  29.374  1.00  0.00     0.049 A 
ATOM     50  H   UNL A   1      40.556  29.519  30.813  1.00  0.00     0.167 HD
ATOM     51  C   UNL A   1      43.368  28.216  33.878  1.00  0.00     0.037 A 
ATOM     52  C   UNL A   1      38.262  30.861  29.937  1.00  0.00     0.037 A 
ATOM     53  C   UNL A   1      42.570  29.227  34.520  1.00  0.00     0.049 A 
ATOM     54  C   UNL A   1      38.437  31.260  31.382  1.00  0.00     0.074 A 
ATOM     55  C   UNL A   1      42.716  29.759  35.790  1.00  0.00     0.029 A 
ATOM     56  N   UNL A   1      41.470  29.848  33.952  1.00  0.00    -0.354 N 
ATOM     57  N   UNL A   1      39.370  30.905  32.233  1.00  0.00    -0.248 NA
ATOM     58  C   UNL A   1      37.433  32.175  31.949  1.00  0.00     0.031 C 
ATOM     59  C   UNL A   1      41.669  30.658  36.012  1.00  0.00     0.029 A 
ATOM     60  C   UNL A   1      40.902  30.726  34.860  1.00  0.00     0.049 A 
ATOM     61  H   UNL A   1      41.140  29.687  33.038  1.00  0.00     0.167 HD
ATOM     62  C   UNL A   1      39.079  31.569  33.420  1.00  0.00     0.074 A 
ATOM     63  C   UNL A   1      37.895  32.365  33.176  1.00  0.00     0.031 C 
ATOM     64  C   UNL A   1      39.729  31.519  34.608  1.00  0.00     0.037 A 
BRANCH  51  65
ATOM     65  C   UNL A   1      44.463  27.583  34.683  1.00  0.00     0.057 A 
ATOM     66  C   UNL A   1      45.749  28.133  34.745  1.00  0.00     0.134 A 
ATOM     67  C   UNL A   1      44.201  26.455  35.470  1.00  0.00     0.134 A 
ATOM     68  F   UNL A   1      46.065  29.208  34.007  1.00  0.00    -0.206 F 
ATOM     69  C   UNL A   1      46.738  27.580  35.561  1.00  0.00     0.040 A 
ATOM     70  C   UNL A   1      45.175  25.906  36.306  1.00  0.00     0.040 A 
ATOM     71  F   UNL A   1      42.988  25.883  35.459  1.00  0.00    -0.206 F 
ATOM     72  C   UNL A   1      46.448  26.469  36.352  1.00  0.00     0.006 A 
ENDBRANCH  51  65
BRANCH  52  73
ATOM     73  C   UNL A   1      37.106  31.384  29.161  1.00  0.00     0.057 A 
ATOM     74  C   UNL A   1      37.098  32.687  28.652  1.00  0.00     0.134 A 
ATOM     75  C   UNL A   1      35.953  30.612  28.968  1.00  0.00     0.134 A 
ATOM     76  F   UNL A   1      38.161  33.488  28.829  1.00  0.00    -0.206 F 
ATOM     77  C   UNL A   1      35.979  33.216  28.006  1.00  0.00     0.040 A 
ATOM     78  C   UNL A   1      34.838  31.116  28.295  1.00  0.00     0.040 A 
ATOM     79  F   UNL A   1      35.892  29.357  29.436  1.00  0.00    -0.206 F 
ATOM     80  C   UNL A   1      34.844  32.427  27.823  1.00  0.00     0.006 A 
ENDBRANCH  52  73
BRANCH  64  81
ATOM     81  C   UNL A   1      39.194  32.363  35.730  1.00  0.00     0.057 A 
ATOM     82  C   UNL A   1      38.307  31.847  36.683  1.00  0.00     0.134 A 
ATOM     83  C   UNL A   1      39.610  33.692  35.888  1.00  0.00     0.134 A 
ATOM     84  F   UNL A   1      37.860  30.586  36.584  1.00  0.00    -0.206 F 
ATOM     85  C   UNL A   1      37.838  32.629  37.741  1.00  0.00     0.040 A 
ATOM     86  C   UNL A   1      39.170  34.474  36.956  1.00  0.00     0.040 A 
ATOM     87  F   UNL A   1      40.467  34.245  35.017  1.00  0.00    -0.206 F 
ATOM     88  C   UNL A   1      38.275  33.944  37.884  1.00  0.00     0.006 A 
ENDBRANCH  64  81
ENDBRANCH  38  39
ENDBRANCH  31  33
ENDBRANCH  30  31
ENDBRANCH  29  30
ENDBRANCH  28  29
ENDBRANCH  27  28
ENDBRANCH  26  27
ENDBRANCH   1  26
TORSDOF 20
ENDMDL
MODEL 3
REMARK VINA RESULT:     -10.5      1.227      2.117
REMARK SMILES O=C(C[N@@H+]1C[C@@]2([N+](=O)[O-])CC=C(Cl)[C@@]([N+](=O)[O-])(C1)C2)OCCOCCOCCOC(=O)c1ccc(-c2c3nc(c(-c4c(F)cccc4F)c4ccc([nH]4)c(-c4c(F)cccc4F)c4nc(c(-c5c(F)cccc5F)c5ccc2[nH]5)C=C4)C=C3)cc1
REMARK SMILES IDX 24 1 23 2 22 3 21 4 20 5 2 6 1 7 3 8 4 9 5 10 18 11 6 13
REMARK SMILES IDX 14 14 10 15 19 16 12 17 11 18 13 19 7 20 8 21 9 22 15 23
REMARK SMILES IDX 16 24 17 25 25 26 26 27 27 28 28 29 29 30 30 31 31 32 32 33
REMARK SMILES IDX 33 34 85 35 34 36 84 37 35 38 36 39 37 40 78 41 38 42 83 43
REMARK SMILES IDX 77 44 79 45 39 46 82 47 76 48 75 49 40 51 66 52 49 53 65 54
REMARK SMILES IDX 50 55 53 56 64 57 80 58 51 59 52 60 63 62 81 63 54 64 41 65
REMARK SMILES IDX 42 66 47 67 43 68 44 69 46 70 48 71 45 72 67 73 68 74 73 75
REMARK SMILES IDX 69 76 70 77 72 78 74 79 71 80 55 81 56 82 61 83 57 84 58 85
REMARK SMILES IDX 60 86 62 87 59 88
REMARK H PARENT 4 12 79 50 53 61
REMARK Flexibility Score: inf
ROOT
ATOM      1  C   UNL A   1      39.714  22.189  26.379  1.00  0.00     0.188 C 
ENDROOT
BRANCH   1   2
ATOM      2  O   UNL A   1      38.337  22.183  26.092  1.00  0.00    -0.376 OA
BRANCH   2   3
ATOM      3  C   UNL A   1      37.806  21.110  25.345  1.00  0.00     0.202 C 
BRANCH   3   4
ATOM      4  C   UNL A   1      36.329  21.155  24.976  1.00  0.00     0.261 C 
BRANCH   4   5
ATOM      5  O   UNL A   1      35.873  22.052  23.925  1.00  0.00    -0.459 OA
BRANCH   5   6
ATOM      6  C   UNL A   1      35.394  23.307  23.868  1.00  0.00     0.361 C 
ATOM      7  O   UNL A   1      35.051  23.753  22.771  1.00  0.00    -0.245 OA
BRANCH   6   8
ATOM      8  C   UNL A   1      35.415  24.234  25.070  1.00  0.00     0.386 C 
BRANCH   8   9
ATOM      9  N   UNL A   1      34.224  24.993  25.401  1.00  0.00    -0.313 N 
ATOM     10  C   UNL A   1      34.381  26.449  25.421  1.00  0.00     0.350 C 
ATOM     11  C   UNL A   1      33.069  24.428  26.089  1.00  0.00     0.356 C 
ATOM     12  H   UNL A   1      33.764  24.717  24.533  1.00  0.00     0.349 HD
ATOM     13  C   UNL A   1      33.079  27.152  24.988  1.00  0.00     0.280 C 
ATOM     14  C   UNL A   1      31.770  25.124  25.625  1.00  0.00     0.311 C 
ATOM     15  C   UNL A   1      32.746  26.919  23.489  1.00  0.00     0.121 C 
ATOM     16  C   UNL A   1      31.911  26.649  25.858  1.00  0.00     0.191 C 
ATOM     17  C   UNL A   1      31.558  24.811  24.154  1.00  0.00     0.097 C 
ATOM     18  C   UNL A   1      32.021  25.627  23.191  1.00  0.00     0.004 C 
ATOM     19  Cl  UNL A   1      30.881  23.282  23.713  1.00  0.00    -0.081 Cl
BRANCH  13  20
ATOM     20  N   UNL A   1      33.314  28.635  25.223  1.00  0.00     0.032 N 
ATOM     21  O   UNL A   1      32.681  29.436  24.524  1.00  0.00    -0.264 OA
ATOM     22  O   UNL A   1      34.169  28.948  26.061  1.00  0.00    -0.264 OA
ENDBRANCH  13  20
BRANCH  14  23
ATOM     23  N   UNL A   1      30.596  24.635  26.460  1.00  0.00     0.038 N 
ATOM     24  O   UNL A   1      30.760  23.626  27.161  1.00  0.00    -0.263 OA
ATOM     25  O   UNL A   1      29.558  25.311  26.429  1.00  0.00    -0.263 OA
ENDBRANCH  14  23
ENDBRANCH   8   9
ENDBRANCH   6   8
ENDBRANCH   5   6
ENDBRANCH   4   5
ENDBRANCH   3   4
ENDBRANCH   2   3
ENDBRANCH   1   2
BRANCH   1  26
ATOM     26  C   UNL A   1      40.350  20.812  26.598  1.00  0.00     0.188 C 
BRANCH  26  27
ATOM     27  O   UNL A   1      41.340  20.343  25.700  1.00  0.00    -0.376 OA
BRANCH  27  28
ATOM     28  C   UNL A   1      42.713  20.415  26.057  1.00  0.00     0.202 C 
BRANCH  28  29
ATOM     29  C   UNL A   1      43.578  21.562  25.510  1.00  0.00     0.261 C 
BRANCH  29  30
ATOM     30  O   UNL A   1      42.866  22.752  25.113  1.00  0.00    -0.460 OA
BRANCH  30  31
ATOM     31  C   UNL A   1      43.588  23.903  25.098  1.00  0.00     0.338 C 
ATOM     32  O   UNL A   1      44.515  24.179  24.359  1.00  0.00    -0.246 OA
BRANCH  31  33
ATOM     33  C   UNL A   1      43.002  24.893  26.029  1.00  0.00     0.060 A 
ATOM     34  C   UNL A   1      43.500  26.205  26.019  1.00  0.00     0.016 A 
ATOM     35  C   UNL A   1      42.022  24.526  26.952  1.00  0.00     0.016 A 
ATOM     36  C   UNL A   1      43.024  27.151  26.932  1.00  0.00     0.010 A 
ATOM     37  C   UNL A   1      41.570  25.466  27.888  1.00  0.00     0.010 A 
ATOM     38  C   UNL A   1      42.080  26.779  27.896  1.00  0.00    -0.014 A 
BRANCH  38  39
ATOM     39  C   UNL A   1      41.717  27.710  28.998  1.00  0.00     0.031 A 
ATOM     40  C   UNL A   1      42.480  27.640  30.293  1.00  0.00     0.074 A 
ATOM     41  C   UNL A   1      40.710  28.592  28.863  1.00  0.00     0.049 A 
ATOM     42  N   UNL A   1      42.256  28.265  31.422  1.00  0.00    -0.248 NA
ATOM     43  C   UNL A   1      43.648  26.747  30.320  1.00  0.00     0.031 C 
ATOM     44  C   UNL A   1      39.919  28.796  27.652  1.00  0.00     0.029 A 
ATOM     45  N   UNL A   1      40.163  29.466  29.774  1.00  0.00    -0.354 N 
ATOM     46  C   UNL A   1      43.245  27.830  32.297  1.00  0.00     0.074 A 
ATOM     47  C   UNL A   1      44.063  26.881  31.571  1.00  0.00     0.031 C 
ATOM     48  C   UNL A   1      38.964  29.710  27.904  1.00  0.00     0.029 A 
ATOM     49  C   UNL A   1      39.053  30.126  29.304  1.00  0.00     0.049 A 
ATOM     50  H   UNL A   1      40.532  29.604  30.676  1.00  0.00     0.167 HD
ATOM     51  C   UNL A   1      43.451  28.188  33.586  1.00  0.00     0.037 A 
ATOM     52  C   UNL A   1      38.184  30.936  29.940  1.00  0.00     0.037 A 
ATOM     53  C   UNL A   1      42.644  29.135  34.309  1.00  0.00     0.049 A 
ATOM     54  C   UNL A   1      38.385  31.249  31.403  1.00  0.00     0.074 A 
ATOM     55  C   UNL A   1      42.809  29.590  35.606  1.00  0.00     0.029 A 
ATOM     56  N   UNL A   1      41.515  29.761  33.807  1.00  0.00    -0.354 N 
ATOM     57  N   UNL A   1      39.347  30.867  32.207  1.00  0.00    -0.248 NA
ATOM     58  C   UNL A   1      37.373  32.100  32.049  1.00  0.00     0.031 C 
ATOM     59  C   UNL A   1      41.746  30.446  35.909  1.00  0.00     0.029 A 
ATOM     60  C   UNL A   1      40.948  30.565  34.782  1.00  0.00     0.049 A 
ATOM     61  H   UNL A   1      41.166  29.649  32.893  1.00  0.00     0.167 HD
ATOM     62  C   UNL A   1      39.069  31.448  33.440  1.00  0.00     0.074 A 
ATOM     63  C   UNL A   1      37.861  32.226  33.275  1.00  0.00     0.031 C 
ATOM     64  C   UNL A   1      39.750  31.341  34.607  1.00  0.00     0.037 A 
BRANCH  51  65
ATOM     65  C   UNL A   1      44.581  27.535  34.324  1.00  0.00     0.057 A 
ATOM     66  C   UNL A   1      45.858  28.107  34.378  1.00  0.00     0.134 A 
ATOM     67  C   UNL A   1      44.365  26.362  35.057  1.00  0.00     0.134 A 
ATOM     68  F   UNL A   1      46.132  29.225  33.690  1.00  0.00    -0.206 F 
ATOM     69  C   UNL A   1      46.882  27.531  35.134  1.00  0.00     0.040 A 
ATOM     70  C   UNL A   1      45.373  25.789  35.833  1.00  0.00     0.040 A 
ATOM     71  F   UNL A   1      43.162  25.767  35.051  1.00  0.00    -0.206 F 
ATOM     72  C   UNL A   1      46.637  26.374  35.873  1.00  0.00     0.006 A 
ENDBRANCH  51  65
BRANCH  52  73
ATOM     73  C   UNL A   1      36.996  31.476  29.226  1.00  0.00     0.057 A 
ATOM     74  C   UNL A   1      35.865  30.686  28.990  1.00  0.00     0.134 A 
ATOM     75  C   UNL A   1      36.992  32.776  28.704  1.00  0.00     0.134 A 
ATOM     76  F   UNL A   1      35.819  29.422  29.437  1.00  0.00    -0.206 F 
ATOM     77  C   UNL A   1      34.787  31.157  28.237  1.00  0.00     0.040 A 
ATOM     78  C   UNL A   1      35.908  33.271  27.978  1.00  0.00     0.040 A 
ATOM     79  F   UNL A   1      38.047  33.583  28.890  1.00  0.00    -0.206 F 
ATOM     80  C   UNL A   1      34.805  32.455  27.732  1.00  0.00     0.006 A 
ENDBRANCH  52  73
BRANCH  64  81
ATOM     81  C   UNL A   1      39.223  32.099  35.792  1.00  0.00     0.057 A 
ATOM     82  C   UNL A   1      39.548  33.444  36.013  1.00  0.00     0.134 A 
ATOM     83  C   UNL A   1      38.340  31.492  36.697  1.00  0.00     0.134 A 
ATOM     84  F   UNL A   1      40.396  34.081  35.192  1.00  0.00    -0.206 F 
ATOM     85  C   UNL A   1      39.029  34.151  37.100  1.00  0.00     0.040 A 
ATOM     86  C   UNL A   1      37.794  32.196  37.770  1.00  0.00     0.040 A 
ATOM     87  F   UNL A   1      37.978  30.210  36.538  1.00  0.00    -0.206 F 
ATOM     88  C   UNL A   1      38.143  33.529  37.978  1.00  0.00     0.006 A 
ENDBRANCH  64  81
ENDBRANCH  38  39
ENDBRANCH  31  33
ENDBRANCH  30  31
ENDBRANCH  29  30
ENDBRANCH  28  29
ENDBRANCH  27  28
ENDBRANCH  26  27
ENDBRANCH   1  26
TORSDOF 20
ENDMDL
