MODEL 1
REMARK VINA RESULT:     -11.3      0.000      0.000
REMARK SMILES Cc1c(Br)c(C)c2c(c1Br)O[C@H](C(F)(F)F)C(C(=O)OCCOCCOCCOC(=O)c1ccc(-c3c4nc(c(-c5c(F)cccc5F)c5ccc([nH]5)c(-c5c(F)cccc5F)c5nc(c(-c6c(F)cccc6F)c6ccc3[nH]6)C=C5)C=C4)cc1)=C2
REMARK SMILES IDX 25 1 24 2 23 3 22 4 21 5 20 6 18 7 19 8 17 9 1 10 2 11 3 12
REMARK SMILES IDX 9 13 4 14 5 15 8 16 10 17 6 18 7 19 11 20 86 21 12 22 13 23
REMARK SMILES IDX 14 24 15 25 16 26 26 27 27 28 28 29 29 30 30 31 31 32 32 33
REMARK SMILES IDX 33 34 85 35 34 36 84 37 35 38 36 39 37 40 78 41 38 42 83 43
REMARK SMILES IDX 77 44 79 45 39 46 82 47 76 48 75 49 40 51 66 52 49 53 65 54
REMARK SMILES IDX 50 55 53 56 64 57 80 58 51 59 52 60 63 62 81 63 54 64 41 65
REMARK SMILES IDX 42 66 47 67 43 68 44 69 46 70 48 71 45 72 67 73 68 74 73 75
REMARK SMILES IDX 69 76 70 77 72 78 74 79 71 80 55 81 56 82 61 83 57 84 58 85
REMARK SMILES IDX 60 86 62 87 59 88
REMARK H PARENT 79 50 53 61
REMARK Flexibility Score: inf
ROOT
ATOM      1  C   UNL A   1      33.559  34.573  28.770  1.00  0.00     0.188 C 
ENDROOT
BRANCH   1   2
ATOM      2  C   UNL A   1      33.527  33.240  27.992  1.00  0.00     0.188 C 
BRANCH   2   3
ATOM      3  O   UNL A   1      34.722  32.525  27.779  1.00  0.00    -0.376 OA
BRANCH   3   4
ATOM      4  C   UNL A   1      34.727  31.111  27.688  1.00  0.00     0.202 C 
BRANCH   4   5
ATOM      5  C   UNL A   1      33.696  30.281  26.906  1.00  0.00     0.261 C 
BRANCH   5   6
ATOM      6  O   UNL A   1      33.845  28.860  26.955  1.00  0.00    -0.460 OA
BRANCH   6   7
ATOM      7  C   UNL A   1      33.798  28.232  25.755  1.00  0.00     0.338 C 
ATOM      8  O   UNL A   1      34.144  28.689  24.677  1.00  0.00    -0.246 OA
BRANCH   7   9
ATOM      9  C   UNL A   1      33.407  26.822  25.949  1.00  0.00     0.087 C 
ATOM     10  C   UNL A   1      32.687  20.378  25.339  1.00  0.00     0.047 C 
ATOM     11  C   UNL A   1      33.145  21.793  25.612  1.00  0.00    -0.019 A 
ATOM     12  C   UNL A   1      34.515  22.132  25.467  1.00  0.00     0.025 A 
ATOM     13  C   UNL A   1      32.243  22.814  25.970  1.00  0.00     0.064 A 
ATOM     14  Br  UNL A   1      35.764  20.736  25.035  1.00  0.00    -0.050 Br
ATOM     15  C   UNL A   1      34.970  23.466  25.607  1.00  0.00    -0.026 A 
ATOM     16  C   UNL A   1      32.675  24.149  26.086  1.00  0.00     0.142 A 
ATOM     17  Br  UNL A   1      30.386  22.449  26.272  1.00  0.00    -0.046 Br
ATOM     18  C   UNL A   1      36.433  23.840  25.487  1.00  0.00     0.046 C 
ATOM     19  C   UNL A   1      34.015  24.485  25.855  1.00  0.00     0.022 A 
ATOM     20  O   UNL A   1      31.731  25.077  26.448  1.00  0.00    -0.474 OA
ATOM     21  C   UNL A   1      34.371  25.903  25.802  1.00  0.00     0.027 C 
ATOM     22  C   UNL A   1      31.987  26.490  26.285  1.00  0.00     0.316 C 
BRANCH  22  23
ATOM     23  C   UNL A   1      30.992  27.060  25.266  1.00  0.00     0.430 C 
ATOM     24  F   UNL A   1      30.771  28.379  25.473  1.00  0.00    -0.167 F 
ATOM     25  F   UNL A   1      31.451  26.937  23.998  1.00  0.00    -0.167 F 
ATOM     26  F   UNL A   1      29.797  26.431  25.325  1.00  0.00    -0.167 F 
ENDBRANCH  22  23
ENDBRANCH   7   9
ENDBRANCH   6   7
ENDBRANCH   5   6
ENDBRANCH   4   5
ENDBRANCH   3   4
ENDBRANCH   2   3
ENDBRANCH   1   2
BRANCH   1  27
ATOM     27  O   UNL A   1      33.223  34.598  30.138  1.00  0.00    -0.376 OA
BRANCH  27  28
ATOM     28  C   UNL A   1      34.257  34.607  31.111  1.00  0.00     0.202 C 
BRANCH  28  29
ATOM     29  C   UNL A   1      34.305  33.664  32.329  1.00  0.00     0.261 C 
BRANCH  29  30
ATOM     30  O   UNL A   1      34.956  32.399  32.146  1.00  0.00    -0.460 OA
BRANCH  30  31
ATOM     31  C   UNL A   1      36.063  32.192  32.909  1.00  0.00     0.338 C 
ATOM     32  O   UNL A   1      36.187  32.379  34.102  1.00  0.00    -0.246 OA
BRANCH  31  33
ATOM     33  C   UNL A   1      37.073  31.484  32.094  1.00  0.00     0.060 A 
ATOM     34  C   UNL A   1      38.092  30.783  32.754  1.00  0.00     0.016 A 
ATOM     35  C   UNL A   1      37.024  31.518  30.701  1.00  0.00     0.016 A 
ATOM     36  C   UNL A   1      39.058  30.098  32.019  1.00  0.00     0.010 A 
ATOM     37  C   UNL A   1      38.016  30.859  29.965  1.00  0.00     0.010 A 
ATOM     38  C   UNL A   1      39.045  30.158  30.621  1.00  0.00    -0.014 A 
BRANCH  38  39
ATOM     39  C   UNL A   1      40.223  29.659  29.871  1.00  0.00     0.031 A 
ATOM     40  C   UNL A   1      41.382  30.595  29.668  1.00  0.00     0.074 A 
ATOM     41  C   UNL A   1      40.302  28.387  29.442  1.00  0.00     0.049 A 
ATOM     42  N   UNL A   1      42.523  30.386  29.066  1.00  0.00    -0.248 NA
ATOM     43  C   UNL A   1      41.235  31.948  30.230  1.00  0.00     0.031 C 
ATOM     44  C   UNL A   1      39.277  27.364  29.631  1.00  0.00     0.029 A 
ATOM     45  N   UNL A   1      41.304  27.739  28.760  1.00  0.00    -0.354 N 
ATOM     46  C   UNL A   1      43.233  31.573  29.187  1.00  0.00     0.074 A 
ATOM     47  C   UNL A   1      42.381  32.512  29.881  1.00  0.00     0.031 C 
ATOM     48  C   UNL A   1      39.702  26.214  29.077  1.00  0.00     0.029 A 
ATOM     49  C   UNL A   1      41.017  26.427  28.469  1.00  0.00     0.049 A 
ATOM     50  H   UNL A   1      42.150  28.174  28.506  1.00  0.00     0.167 HD
ATOM     51  C   UNL A   1      44.490  31.851  28.772  1.00  0.00     0.037 A 
ATOM     52  C   UNL A   1      41.728  25.511  27.779  1.00  0.00     0.037 A 
ATOM     53  C   UNL A   1      45.337  30.923  28.074  1.00  0.00     0.049 A 
ATOM     54  C   UNL A   1      43.079  25.884  27.220  1.00  0.00     0.074 A 
ATOM     55  C   UNL A   1      46.626  31.118  27.611  1.00  0.00     0.029 A 
ATOM     56  N   UNL A   1      44.978  29.629  27.730  1.00  0.00    -0.354 N 
ATOM     57  N   UNL A   1      43.751  27.002  27.357  1.00  0.00    -0.248 NA
ATOM     58  C   UNL A   1      43.770  24.870  26.407  1.00  0.00     0.031 C 
ATOM     59  C   UNL A   1      47.026  29.963  26.936  1.00  0.00     0.029 A 
ATOM     60  C   UNL A   1      46.009  29.027  27.029  1.00  0.00     0.049 A 
ATOM     61  H   UNL A   1      44.118  29.202  27.951  1.00  0.00     0.167 HD
ATOM     62  C   UNL A   1      44.947  26.818  26.671  1.00  0.00     0.074 A 
ATOM     63  C   UNL A   1      44.917  25.475  26.131  1.00  0.00     0.031 C 
ATOM     64  C   UNL A   1      45.974  27.686  26.503  1.00  0.00     0.037 A 
BRANCH  51  65
ATOM     65  C   UNL A   1      45.023  33.224  29.052  1.00  0.00     0.057 A 
ATOM     66  C   UNL A   1      45.755  33.507  30.212  1.00  0.00     0.134 A 
ATOM     67  C   UNL A   1      44.850  34.260  28.125  1.00  0.00     0.134 A 
ATOM     68  F   UNL A   1      45.942  32.561  31.145  1.00  0.00    -0.206 F 
ATOM     69  C   UNL A   1      46.284  34.776  30.448  1.00  0.00     0.040 A 
ATOM     70  C   UNL A   1      45.397  35.526  28.338  1.00  0.00     0.040 A 
ATOM     71  F   UNL A   1      44.161  34.053  26.993  1.00  0.00    -0.206 F 
ATOM     72  C   UNL A   1      46.113  35.788  29.504  1.00  0.00     0.006 A 
ENDBRANCH  51  65
BRANCH  52  73
ATOM     73  C   UNL A   1      41.180  24.145  27.569  1.00  0.00     0.057 A 
ATOM     74  C   UNL A   1      41.681  23.046  28.276  1.00  0.00     0.134 A 
ATOM     75  C   UNL A   1      40.156  23.901  26.645  1.00  0.00     0.134 A 
ATOM     76  F   UNL A   1      42.681  23.208  29.155  1.00  0.00    -0.206 F 
ATOM     77  C   UNL A   1      41.192  21.754  28.067  1.00  0.00     0.040 A 
ATOM     78  C   UNL A   1      39.639  22.620  26.444  1.00  0.00     0.040 A 
ATOM     79  F   UNL A   1      39.636  24.909  25.928  1.00  0.00    -0.206 F 
ATOM     80  C   UNL A   1      40.161  21.541  27.154  1.00  0.00     0.006 A 
ENDBRANCH  52  73
BRANCH  64  81
ATOM     81  C   UNL A   1      47.170  27.229  25.714  1.00  0.00     0.057 A 
ATOM     82  C   UNL A   1      47.315  27.535  24.356  1.00  0.00     0.134 A 
ATOM     83  C   UNL A   1      48.238  26.578  26.348  1.00  0.00     0.134 A 
ATOM     84  F   UNL A   1      46.328  28.150  23.689  1.00  0.00    -0.206 F 
ATOM     85  C   UNL A   1      48.479  27.213  23.656  1.00  0.00     0.040 A 
ATOM     86  C   UNL A   1      49.418  26.275  25.665  1.00  0.00     0.040 A 
ATOM     87  F   UNL A   1      48.171  26.267  27.651  1.00  0.00    -0.206 F 
ATOM     88  C   UNL A   1      49.540  26.593  24.314  1.00  0.00     0.006 A 
ENDBRANCH  64  81
ENDBRANCH  38  39
ENDBRANCH  31  33
ENDBRANCH  30  31
ENDBRANCH  29  30
ENDBRANCH  28  29
ENDBRANCH  27  28
ENDBRANCH   1  27
TORSDOF 18
ENDMDL
MODEL 2
REMARK VINA RESULT:     -10.9      4.702      9.879
REMARK SMILES Cc1c(Br)c(C)c2c(c1Br)O[C@H](C(F)(F)F)C(C(=O)OCCOCCOCCOC(=O)c1ccc(-c3c4nc(c(-c5c(F)cccc5F)c5ccc([nH]5)c(-c5c(F)cccc5F)c5nc(c(-c6c(F)cccc6F)c6ccc3[nH]6)C=C5)C=C4)cc1)=C2
REMARK SMILES IDX 25 1 24 2 23 3 22 4 21 5 20 6 18 7 19 8 17 9 1 10 2 11 3 12
REMARK SMILES IDX 9 13 4 14 5 15 8 16 10 17 6 18 7 19 11 20 86 21 12 22 13 23
REMARK SMILES IDX 14 24 15 25 16 26 26 27 27 28 28 29 29 30 30 31 31 32 32 33
REMARK SMILES IDX 33 34 85 35 34 36 84 37 35 38 36 39 37 40 78 41 38 42 83 43
REMARK SMILES IDX 77 44 79 45 39 46 82 47 76 48 75 49 40 51 66 52 49 53 65 54
REMARK SMILES IDX 50 55 53 56 64 57 80 58 51 59 52 60 63 62 81 63 54 64 41 65
REMARK SMILES IDX 42 66 47 67 43 68 44 69 46 70 48 71 45 72 67 73 68 74 73 75
REMARK SMILES IDX 69 76 70 77 72 78 74 79 71 80 55 81 56 82 61 83 57 84 58 85
REMARK SMILES IDX 60 86 62 87 59 88
REMARK H PARENT 79 50 53 61
REMARK Flexibility Score: inf
ROOT
ATOM      1  C   UNL A   1      41.088  20.407  27.038  1.00  0.00     0.188 C 
ENDROOT
BRANCH   1   2
ATOM      2  C   UNL A   1      40.396  21.770  27.255  1.00  0.00     0.188 C 
BRANCH   2   3
ATOM      3  O   UNL A   1      39.511  22.268  26.277  1.00  0.00    -0.376 OA
BRANCH   3   4
ATOM      4  C   UNL A   1      38.541  21.434  25.670  1.00  0.00     0.202 C 
BRANCH   4   5
ATOM      5  C   UNL A   1      37.219  21.929  25.061  1.00  0.00     0.261 C 
BRANCH   5   6
ATOM      6  O   UNL A   1      36.785  23.237  25.444  1.00  0.00    -0.460 OA
BRANCH   6   7
ATOM      7  C   UNL A   1      35.512  23.312  25.901  1.00  0.00     0.338 C 
ATOM      8  O   UNL A   1      35.058  22.767  26.894  1.00  0.00    -0.246 OA
BRANCH   7   9
ATOM      9  C   UNL A   1      34.756  24.297  25.101  1.00  0.00     0.087 C 
ATOM     10  C   UNL A   1      30.603  28.914  23.141  1.00  0.00     0.047 C 
ATOM     11  C   UNL A   1      31.737  28.097  23.717  1.00  0.00    -0.019 A 
ATOM     12  C   UNL A   1      32.348  28.496  24.933  1.00  0.00     0.025 A 
ATOM     13  C   UNL A   1      32.191  26.913  23.103  1.00  0.00     0.064 A 
ATOM     14  Br  UNL A   1      31.778  30.139  25.751  1.00  0.00    -0.050 Br
ATOM     15  C   UNL A   1      33.340  27.703  25.562  1.00  0.00    -0.026 A 
ATOM     16  C   UNL A   1      33.156  26.100  23.729  1.00  0.00     0.142 A 
ATOM     17  Br  UNL A   1      31.492  26.328  21.417  1.00  0.00    -0.046 Br
ATOM     18  C   UNL A   1      34.025  28.129  26.845  1.00  0.00     0.046 C 
ATOM     19  C   UNL A   1      33.689  26.461  24.973  1.00  0.00     0.022 A 
ATOM     20  O   UNL A   1      33.546  24.971  23.056  1.00  0.00    -0.474 OA
ATOM     21  C   UNL A   1      34.540  25.493  25.665  1.00  0.00     0.027 C 
ATOM     22  C   UNL A   1      34.273  23.923  23.736  1.00  0.00     0.316 C 
BRANCH  22  23
ATOM     23  C   UNL A   1      33.417  22.649  23.742  1.00  0.00     0.430 C 
ATOM     24  F   UNL A   1      32.521  22.659  24.756  1.00  0.00    -0.167 F 
ATOM     25  F   UNL A   1      32.707  22.520  22.596  1.00  0.00    -0.167 F 
ATOM     26  F   UNL A   1      34.173  21.536  23.876  1.00  0.00    -0.167 F 
ENDBRANCH  22  23
ENDBRANCH   7   9
ENDBRANCH   6   7
ENDBRANCH   5   6
ENDBRANCH   4   5
ENDBRANCH   3   4
ENDBRANCH   2   3
ENDBRANCH   1   2
BRANCH   1  27
ATOM     27  O   UNL A   1      42.433  20.359  26.620  1.00  0.00    -0.376 OA
BRANCH  27  28
ATOM     28  C   UNL A   1      42.927  21.360  25.744  1.00  0.00     0.202 C 
BRANCH  28  29
ATOM     29  C   UNL A   1      44.393  21.837  25.717  1.00  0.00     0.261 C 
BRANCH  29  30
ATOM     30  O   UNL A   1      44.696  23.047  26.425  1.00  0.00    -0.460 OA
BRANCH  30  31
ATOM     31  C   UNL A   1      44.406  24.202  25.766  1.00  0.00     0.338 C 
ATOM     32  O   UNL A   1      44.566  24.443  24.588  1.00  0.00    -0.246 OA
BRANCH  31  33
ATOM     33  C   UNL A   1      43.645  25.086  26.674  1.00  0.00     0.060 A 
ATOM     34  C   UNL A   1      44.081  26.408  26.840  1.00  0.00     0.016 A 
ATOM     35  C   UNL A   1      42.525  24.618  27.360  1.00  0.00     0.016 A 
ATOM     36  C   UNL A   1      43.385  27.272  27.683  1.00  0.00     0.010 A 
ATOM     37  C   UNL A   1      41.849  25.478  28.235  1.00  0.00     0.010 A 
ATOM     38  C   UNL A   1      42.284  26.804  28.409  1.00  0.00    -0.014 A 
BRANCH  38  39
ATOM     39  C   UNL A   1      41.731  27.649  29.495  1.00  0.00     0.031 A 
ATOM     40  C   UNL A   1      42.423  27.631  30.830  1.00  0.00     0.074 A 
ATOM     41  C   UNL A   1      40.686  28.471  29.290  1.00  0.00     0.049 A 
ATOM     42  N   UNL A   1      42.141  28.293  31.921  1.00  0.00    -0.248 NA
ATOM     43  C   UNL A   1      43.599  26.752  30.943  1.00  0.00     0.031 C 
ATOM     44  C   UNL A   1      39.968  28.630  28.028  1.00  0.00     0.029 A 
ATOM     45  N   UNL A   1      40.052  29.335  30.150  1.00  0.00    -0.354 N 
ATOM     46  C   UNL A   1      43.109  27.921  32.844  1.00  0.00     0.074 A 
ATOM     47  C   UNL A   1      43.960  26.945  32.203  1.00  0.00     0.031 C 
ATOM     48  C   UNL A   1      38.990  29.538  28.196  1.00  0.00     0.029 A 
ATOM     49  C   UNL A   1      38.993  30.003  29.584  1.00  0.00     0.049 A 
ATOM     50  H   UNL A   1      40.332  29.465  31.085  1.00  0.00     0.167 HD
ATOM     51  C   UNL A   1      43.284  28.366  34.109  1.00  0.00     0.037 A 
ATOM     52  C   UNL A   1      38.121  30.877  30.128  1.00  0.00     0.037 A 
ATOM     53  C   UNL A   1      42.434  29.330  34.754  1.00  0.00     0.049 A 
ATOM     54  C   UNL A   1      38.264  31.266  31.579  1.00  0.00     0.074 A 
ATOM     55  C   UNL A   1      42.533  29.839  36.037  1.00  0.00     0.029 A 
ATOM     56  N   UNL A   1      41.326  29.923  34.170  1.00  0.00    -0.354 N 
ATOM     57  N   UNL A   1      39.194  30.925  32.439  1.00  0.00    -0.248 NA
ATOM     58  C   UNL A   1      37.235  32.157  32.138  1.00  0.00     0.031 C 
ATOM     59  C   UNL A   1      41.451  30.695  36.250  1.00  0.00     0.029 A 
ATOM     60  C   UNL A   1      40.711  30.767  35.081  1.00  0.00     0.049 A 
ATOM     61  H   UNL A   1      41.021  29.768  33.247  1.00  0.00     0.167 HD
ATOM     62  C   UNL A   1      38.877  31.576  33.627  1.00  0.00     0.074 A 
ATOM     63  C   UNL A   1      37.677  32.345  33.374  1.00  0.00     0.031 C 
ATOM     64  C   UNL A   1      39.522  31.536  34.818  1.00  0.00     0.037 A 
BRANCH  51  65
ATOM     65  C   UNL A   1      44.434  27.803  34.888  1.00  0.00     0.057 A 
ATOM     66  C   UNL A   1      44.289  26.672  35.701  1.00  0.00     0.134 A 
ATOM     67  C   UNL A   1      45.712  28.367  34.783  1.00  0.00     0.134 A 
ATOM     68  F   UNL A   1      43.087  26.095  35.855  1.00  0.00    -0.206 F 
ATOM     69  C   UNL A   1      45.372  26.128  36.392  1.00  0.00     0.040 A 
ATOM     70  C   UNL A   1      46.808  27.815  35.448  1.00  0.00     0.040 A 
ATOM     71  F   UNL A   1      45.919  29.450  34.020  1.00  0.00    -0.206 F 
ATOM     72  C   UNL A   1      46.638  26.694  36.259  1.00  0.00     0.006 A 
ENDBRANCH  51  65
BRANCH  52  73
ATOM     73  C   UNL A   1      37.024  31.447  29.303  1.00  0.00     0.057 A 
ATOM     74  C   UNL A   1      35.878  30.700  29.003  1.00  0.00     0.134 A 
ATOM     75  C   UNL A   1      37.101  32.743  28.778  1.00  0.00     0.134 A 
ATOM     76  F   UNL A   1      35.757  29.442  29.452  1.00  0.00    -0.206 F 
ATOM     77  C   UNL A   1      34.854  31.217  28.206  1.00  0.00     0.040 A 
ATOM     78  C   UNL A   1      36.073  33.282  28.001  1.00  0.00     0.040 A 
ATOM     79  F   UNL A   1      38.175  33.510  29.019  1.00  0.00    -0.206 F 
ATOM     80  C   UNL A   1      34.946  32.515  27.710  1.00  0.00     0.006 A 
ENDBRANCH  52  73
BRANCH  64  81
ATOM     81  C   UNL A   1      38.967  32.349  35.954  1.00  0.00     0.057 A 
ATOM     82  C   UNL A   1      38.169  31.772  36.949  1.00  0.00     0.134 A 
ATOM     83  C   UNL A   1      39.333  33.693  36.116  1.00  0.00     0.134 A 
ATOM     84  F   UNL A   1      37.778  30.493  36.850  1.00  0.00    -0.206 F 
ATOM     85  C   UNL A   1      37.753  32.501  38.064  1.00  0.00     0.040 A 
ATOM     86  C   UNL A   1      38.946  34.424  37.242  1.00  0.00     0.040 A 
ATOM     87  F   UNL A   1      40.107  34.304  35.208  1.00  0.00    -0.206 F 
ATOM     88  C   UNL A   1      38.154  33.827  38.220  1.00  0.00     0.006 A 
ENDBRANCH  64  81
ENDBRANCH  38  39
ENDBRANCH  31  33
ENDBRANCH  30  31
ENDBRANCH  29  30
ENDBRANCH  28  29
ENDBRANCH  27  28
ENDBRANCH   1  27
TORSDOF 18
ENDMDL
MODEL 3
REMARK VINA RESULT:     -10.9      0.589      6.068
REMARK SMILES Cc1c(Br)c(C)c2c(c1Br)O[C@H](C(F)(F)F)C(C(=O)OCCOCCOCCOC(=O)c1ccc(-c3c4nc(c(-c5c(F)cccc5F)c5ccc([nH]5)c(-c5c(F)cccc5F)c5nc(c(-c6c(F)cccc6F)c6ccc3[nH]6)C=C5)C=C4)cc1)=C2
REMARK SMILES IDX 25 1 24 2 23 3 22 4 21 5 20 6 18 7 19 8 17 9 1 10 2 11 3 12
REMARK SMILES IDX 9 13 4 14 5 15 8 16 10 17 6 18 7 19 11 20 86 21 12 22 13 23
REMARK SMILES IDX 14 24 15 25 16 26 26 27 27 28 28 29 29 30 30 31 31 32 32 33
REMARK SMILES IDX 33 34 85 35 34 36 84 37 35 38 36 39 37 40 78 41 38 42 83 43
REMARK SMILES IDX 77 44 79 45 39 46 82 47 76 48 75 49 40 51 66 52 49 53 65 54
REMARK SMILES IDX 50 55 53 56 64 57 80 58 51 59 52 60 63 62 81 63 54 64 41 65
REMARK SMILES IDX 42 66 47 67 43 68 44 69 46 70 48 71 45 72 67 73 68 74 73 75
REMARK SMILES IDX 69 76 70 77 72 78 74 79 71 80 55 81 56 82 61 83 57 84 58 85
REMARK SMILES IDX 60 86 62 87 59 88
REMARK H PARENT 79 50 53 61
REMARK Flexibility Score: inf
ROOT
ATOM      1  C   UNL A   1      34.751  33.814  28.481  1.00  0.00     0.188 C 
ENDROOT
BRANCH   1   2
ATOM      2  C   UNL A   1      35.215  32.445  27.939  1.00  0.00     0.188 C 
BRANCH   2   3
ATOM      3  O   UNL A   1      34.491  31.281  28.263  1.00  0.00    -0.376 OA
BRANCH   3   4
ATOM      4  C   UNL A   1      35.053  29.993  28.090  1.00  0.00     0.202 C 
BRANCH   4   5
ATOM      5  C   UNL A   1      34.980  29.174  26.791  1.00  0.00     0.261 C 
BRANCH   5   6
ATOM      6  O   UNL A   1      33.682  28.987  26.221  1.00  0.00    -0.460 OA
BRANCH   6   7
ATOM      7  C   UNL A   1      33.651  28.250  25.084  1.00  0.00     0.338 C 
ATOM      8  O   UNL A   1      33.998  28.609  23.971  1.00  0.00    -0.246 OA
BRANCH   7   9
ATOM      9  C   UNL A   1      33.276  26.859  25.407  1.00  0.00     0.087 C 
ATOM     10  C   UNL A   1      32.618  20.380  25.381  1.00  0.00     0.047 C 
ATOM     11  C   UNL A   1      33.064  21.818  25.521  1.00  0.00    -0.019 A 
ATOM     12  C   UNL A   1      34.429  22.155  25.334  1.00  0.00     0.025 A 
ATOM     13  C   UNL A   1      32.155  22.858  25.796  1.00  0.00     0.064 A 
ATOM     14  Br  UNL A   1      35.689  20.739  25.016  1.00  0.00    -0.050 Br
ATOM     15  C   UNL A   1      34.871  23.501  25.351  1.00  0.00    -0.026 A 
ATOM     16  C   UNL A   1      32.573  24.202  25.789  1.00  0.00     0.142 A 
ATOM     17  Br  UNL A   1      30.304  22.503  26.147  1.00  0.00    -0.046 Br
ATOM     18  C   UNL A   1      36.330  23.878  25.184  1.00  0.00     0.046 C 
ATOM     19  C   UNL A   1      33.908  24.529  25.516  1.00  0.00     0.022 A 
ATOM     20  O   UNL A   1      31.623  25.149  26.075  1.00  0.00    -0.474 OA
ATOM     21  C   UNL A   1      34.248  25.940  25.333  1.00  0.00     0.027 C 
ATOM     22  C   UNL A   1      31.863  26.544  25.785  1.00  0.00     0.316 C 
BRANCH  22  23
ATOM     23  C   UNL A   1      30.853  27.012  24.728  1.00  0.00     0.430 C 
ATOM     24  F   UNL A   1      30.638  28.345  24.805  1.00  0.00    -0.167 F 
ATOM     25  F   UNL A   1      31.293  26.760  23.472  1.00  0.00    -0.167 F 
ATOM     26  F   UNL A   1      29.658  26.395  24.868  1.00  0.00    -0.167 F 
ENDBRANCH  22  23
ENDBRANCH   7   9
ENDBRANCH   6   7
ENDBRANCH   5   6
ENDBRANCH   4   5
ENDBRANCH   3   4
ENDBRANCH   2   3
ENDBRANCH   1   2
BRANCH   1  27
ATOM     27  O   UNL A   1      33.907  33.875  29.608  1.00  0.00    -0.376 OA
BRANCH  27  28
ATOM     28  C   UNL A   1      34.447  34.257  30.864  1.00  0.00     0.202 C 
BRANCH  28  29
ATOM     29  C   UNL A   1      34.445  33.356  32.115  1.00  0.00     0.261 C 
BRANCH  29  30
ATOM     30  O   UNL A   1      35.144  32.108  32.019  1.00  0.00    -0.460 OA
BRANCH  30  31
ATOM     31  C   UNL A   1      36.247  31.991  32.807  1.00  0.00     0.338 C 
ATOM     32  O   UNL A   1      36.324  32.168  34.005  1.00  0.00    -0.246 OA
BRANCH  31  33
ATOM     33  C   UNL A   1      37.337  31.392  32.009  1.00  0.00     0.060 A 
ATOM     34  C   UNL A   1      38.414  30.801  32.684  1.00  0.00     0.016 A 
ATOM     35  C   UNL A   1      37.306  31.420  30.615  1.00  0.00     0.016 A 
ATOM     36  C   UNL A   1      39.457  30.221  31.965  1.00  0.00     0.010 A 
ATOM     37  C   UNL A   1      38.372  30.869  29.894  1.00  0.00     0.010 A 
ATOM     38  C   UNL A   1      39.458  30.279  30.566  1.00  0.00    -0.014 A 
BRANCH  38  39
ATOM     39  C   UNL A   1      40.693  29.906  29.836  1.00  0.00     0.031 A 
ATOM     40  C   UNL A   1      40.807  28.504  29.305  1.00  0.00     0.074 A 
ATOM     41  C   UNL A   1      41.664  30.802  29.582  1.00  0.00     0.049 A 
ATOM     42  N   UNL A   1      41.774  27.950  28.622  1.00  0.00    -0.248 NA
ATOM     43  C   UNL A   1      39.668  27.610  29.572  1.00  0.00     0.031 C 
ATOM     44  C   UNL A   1      41.647  32.206  29.986  1.00  0.00     0.029 A 
ATOM     45  N   UNL A   1      42.854  30.658  28.912  1.00  0.00    -0.354 N 
ATOM     46  C   UNL A   1      41.357  26.650  28.369  1.00  0.00     0.074 A 
ATOM     47  C   UNL A   1      40.070  26.483  29.005  1.00  0.00     0.031 C 
ATOM     48  C   UNL A   1      42.776  32.796  29.555  1.00  0.00     0.029 A 
ATOM     49  C   UNL A   1      43.609  31.806  28.871  1.00  0.00     0.049 A 
ATOM     50  H   UNL A   1      43.140  29.811  28.499  1.00  0.00     0.167 HD
ATOM     51  C   UNL A   1      41.982  25.686  27.655  1.00  0.00     0.037 A 
ATOM     52  C   UNL A   1      44.836  32.025  28.353  1.00  0.00     0.037 A 
ATOM     53  C   UNL A   1      43.266  25.846  27.029  1.00  0.00     0.049 A 
ATOM     54  C   UNL A   1      45.567  30.897  27.666  1.00  0.00     0.074 A 
ATOM     55  C   UNL A   1      43.979  24.922  26.287  1.00  0.00     0.029 A 
ATOM     56  N   UNL A   1      44.032  27.000  27.078  1.00  0.00    -0.354 N 
ATOM     57  N   UNL A   1      45.156  29.677  27.414  1.00  0.00    -0.248 NA
ATOM     58  C   UNL A   1      46.934  31.174  27.195  1.00  0.00     0.031 C 
ATOM     59  C   UNL A   1      45.203  25.496  25.936  1.00  0.00     0.029 A 
ATOM     60  C   UNL A   1      45.227  26.798  26.409  1.00  0.00     0.049 A 
ATOM     61  H   UNL A   1      43.766  27.838  27.522  1.00  0.00     0.167 HD
ATOM     62  C   UNL A   1      46.199  29.053  26.738  1.00  0.00     0.074 A 
ATOM     63  C   UNL A   1      47.256  30.032  26.604  1.00  0.00     0.031 C 
ATOM     64  C   UNL A   1      46.271  27.782  26.272  1.00  0.00     0.037 A 
BRANCH  51  65
ATOM     65  C   UNL A   1      41.290  24.363  27.524  1.00  0.00     0.057 A 
ATOM     66  C   UNL A   1      40.208  24.182  26.653  1.00  0.00     0.134 A 
ATOM     67  C   UNL A   1      41.744  23.246  28.236  1.00  0.00     0.134 A 
ATOM     68  F   UNL A   1      39.716  25.217  25.955  1.00  0.00    -0.206 F 
ATOM     69  C   UNL A   1      39.593  22.939  26.504  1.00  0.00     0.040 A 
ATOM     70  C   UNL A   1      41.154  21.991  28.075  1.00  0.00     0.040 A 
ATOM     71  F   UNL A   1      42.777  23.352  29.085  1.00  0.00    -0.206 F 
ATOM     72  C   UNL A   1      40.073  21.836  27.210  1.00  0.00     0.006 A 
ENDBRANCH  51  65
BRANCH  52  73
ATOM     73  C   UNL A   1      45.463  33.368  28.464  1.00  0.00     0.057 A 
ATOM     74  C   UNL A   1      46.231  33.720  29.581  1.00  0.00     0.134 A 
ATOM     75  C   UNL A   1      45.296  34.339  27.469  1.00  0.00     0.134 A 
ATOM     76  F   UNL A   1      46.405  32.844  30.582  1.00  0.00    -0.206 F 
ATOM     77  C   UNL A   1      46.802  34.988  29.709  1.00  0.00     0.040 A 
ATOM     78  C   UNL A   1      45.882  35.603  27.571  1.00  0.00     0.040 A 
ATOM     79  F   UNL A   1      44.565  34.071  26.377  1.00  0.00    -0.206 F 
ATOM     80  C   UNL A   1      46.635  35.931  28.696  1.00  0.00     0.006 A 
ENDBRANCH  52  73
BRANCH  64  81
ATOM     81  C   UNL A   1      47.525  27.356  25.561  1.00  0.00     0.057 A 
ATOM     82  C   UNL A   1      48.568  26.710  26.235  1.00  0.00     0.134 A 
ATOM     83  C   UNL A   1      47.637  27.488  24.170  1.00  0.00     0.134 A 
ATOM     84  F   UNL A   1      48.526  26.558  27.567  1.00  0.00    -0.206 F 
ATOM     85  C   UNL A   1      49.678  26.210  25.552  1.00  0.00     0.040 A 
ATOM     86  C   UNL A   1      48.730  26.967  23.473  1.00  0.00     0.040 A 
ATOM     87  F   UNL A   1      46.668  28.084  23.460  1.00  0.00    -0.206 F 
ATOM     88  C   UNL A   1      49.755  26.326  24.165  1.00  0.00     0.006 A 
ENDBRANCH  64  81
ENDBRANCH  38  39
ENDBRANCH  31  33
ENDBRANCH  30  31
ENDBRANCH  29  30
ENDBRANCH  28  29
ENDBRANCH  27  28
ENDBRANCH   1  27
TORSDOF 18
ENDMDL
