MODEL 1
REMARK VINA RESULT:     -11.1      0.000      0.000
REMARK SMILES NS(=O)(=O)c1ccc(N2N=C(C(=O)OCCOCCOCCOC(=O)c3ccc(-c4c5nc(c(-c6c(F)cccc6F)c6ccc([nH]6)c(-c6c(F)cccc6F)c6nc(c(-c7c(F)cccc7F)c7ccc4[nH]7)C=C6)C=C5)cc3)C[C@H]2c2cccs2)cc1
REMARK SMILES IDX 18 1 17 2 16 3 15 4 14 5 12 6 13 7 11 8 9 9 10 10 81 11
REMARK SMILES IDX 80 12 8 13 5 14 6 15 88 16 7 17 87 18 2 19 3 20 4 21 1 22
REMARK SMILES IDX 82 25 83 26 86 27 84 28 85 29 19 30 20 31 21 32 22 33 23 34
REMARK SMILES IDX 24 35 25 36 26 37 27 38 79 39 28 40 78 41 29 42 30 43 31 44
REMARK SMILES IDX 72 45 32 46 77 47 71 48 73 49 33 50 76 51 70 52 69 53 34 55
REMARK SMILES IDX 60 56 43 57 59 58 44 59 47 60 58 61 74 62 45 63 46 64 57 66
REMARK SMILES IDX 75 67 48 68 35 69 36 70 41 71 37 72 38 73 40 74 42 75 39 76
REMARK SMILES IDX 61 77 62 78 67 79 63 80 64 81 66 82 68 83 65 84 49 85 50 86
REMARK SMILES IDX 55 87 51 88 52 89 54 90 56 91 53 92
REMARK H PARENT 1 23 1 24 73 54 47 65
REMARK Flexibility Score: inf
ROOT
ATOM      1  C   UNL A   1      38.347  21.981  25.740  1.00  0.00     0.188 C 
ENDROOT
BRANCH   1   2
ATOM      2  O   UNL A   1      37.560  22.237  24.579  1.00  0.00    -0.376 OA
BRANCH   2   3
ATOM      3  C   UNL A   1      36.258  22.801  24.722  1.00  0.00     0.202 C 
BRANCH   3   4
ATOM      4  C   UNL A   1      35.324  22.799  23.503  1.00  0.00     0.261 C 
BRANCH   4   5
ATOM      5  O   UNL A   1      34.649  24.053  23.317  1.00  0.00    -0.459 OA
BRANCH   5   6
ATOM      6  C   UNL A   1      33.568  24.012  22.517  1.00  0.00     0.354 C 
ATOM      7  O   UNL A   1      33.423  23.389  21.483  1.00  0.00    -0.245 OA
BRANCH   6   8
ATOM      8  C   UNL A   1      32.439  24.779  23.155  1.00  0.00     0.148 C 
ATOM      9  N   UNL A   1      30.938  26.242  23.457  1.00  0.00    -0.256 N 
ATOM     10  N   UNL A   1      31.800  25.725  22.531  1.00  0.00    -0.169 NA
ATOM     11  C   UNL A   1      31.280  25.808  24.829  1.00  0.00     0.154 C 
ATOM     12  C   UNL A   1      31.950  24.456  24.532  1.00  0.00     0.099 C 
BRANCH   9  13
ATOM     13  C   UNL A   1      30.251  27.408  23.148  1.00  0.00     0.060 A 
ATOM     14  C   UNL A   1      28.880  29.767  22.458  1.00  0.00     0.082 A 
ATOM     15  C   UNL A   1      30.241  29.646  22.169  1.00  0.00     0.024 A 
ATOM     16  C   UNL A   1      28.209  28.745  23.127  1.00  0.00     0.024 A 
ATOM     17  C   UNL A   1      30.915  28.466  22.510  1.00  0.00     0.029 A 
ATOM     18  C   UNL A   1      28.901  27.583  23.482  1.00  0.00     0.029 A 
BRANCH  14  19
ATOM     19  S   UNL A   1      28.029  31.239  21.975  1.00  0.00     0.238 S 
ATOM     20  O   UNL A   1      27.091  31.578  23.016  1.00  0.00    -0.207 OA
ATOM     21  O   UNL A   1      27.651  31.125  20.585  1.00  0.00    -0.207 OA
BRANCH  19  22
ATOM     22  N   UNL A   1      29.208  32.438  22.011  1.00  0.00    -0.225 NA
ATOM     23  H   UNL A   1      28.807  33.299  22.384  1.00  0.00     0.137 HD
ATOM     24  H   UNL A   1      29.551  32.607  21.065  1.00  0.00     0.137 HD
ENDBRANCH  19  22
ENDBRANCH  14  19
ENDBRANCH   9  13
BRANCH  11  25
ATOM     25  C   UNL A   1      32.156  26.739  25.661  1.00  0.00     0.030 A 
ATOM     26  C   UNL A   1      33.528  26.902  25.559  1.00  0.00     0.017 A 
ATOM     27  S   UNL A   1      31.526  27.739  26.912  1.00  0.00    -0.147 S 
ATOM     28  C   UNL A   1      34.045  27.849  26.490  1.00  0.00     0.012 A 
ATOM     29  C   UNL A   1      33.052  28.407  27.261  1.00  0.00     0.065 A 
ENDBRANCH  11  25
ENDBRANCH   6   8
ENDBRANCH   5   6
ENDBRANCH   4   5
ENDBRANCH   3   4
ENDBRANCH   2   3
ENDBRANCH   1   2
BRANCH   1  30
ATOM     30  C   UNL A   1      39.289  20.761  25.758  1.00  0.00     0.188 C 
BRANCH  30  31
ATOM     31  O   UNL A   1      40.311  20.838  26.729  1.00  0.00    -0.376 OA
BRANCH  31  32
ATOM     32  C   UNL A   1      41.529  20.162  26.458  1.00  0.00     0.202 C 
BRANCH  32  33
ATOM     33  C   UNL A   1      42.718  20.928  25.849  1.00  0.00     0.261 C 
BRANCH  33  34
ATOM     34  O   UNL A   1      43.103  22.154  26.489  1.00  0.00    -0.460 OA
BRANCH  34  35
ATOM     35  C   UNL A   1      43.083  23.281  25.742  1.00  0.00     0.338 C 
ATOM     36  O   UNL A   1      43.270  23.373  24.543  1.00  0.00    -0.246 OA
BRANCH  35  37
ATOM     37  C   UNL A   1      42.597  24.378  26.608  1.00  0.00     0.060 A 
ATOM     38  C   UNL A   1      43.232  25.626  26.549  1.00  0.00     0.016 A 
ATOM     39  C   UNL A   1      41.512  24.176  27.464  1.00  0.00     0.016 A 
ATOM     40  C   UNL A   1      42.795  26.672  27.364  1.00  0.00     0.010 A 
ATOM     41  C   UNL A   1      41.089  25.218  28.294  1.00  0.00     0.010 A 
ATOM     42  C   UNL A   1      41.745  26.462  28.268  1.00  0.00    -0.014 A 
BRANCH  42  43
ATOM     43  C   UNL A   1      41.438  27.480  29.302  1.00  0.00     0.031 A 
ATOM     44  C   UNL A   1      42.236  27.471  30.576  1.00  0.00     0.074 A 
ATOM     45  C   UNL A   1      40.469  28.393  29.120  1.00  0.00     0.049 A 
ATOM     46  N   UNL A   1      42.111  28.217  31.643  1.00  0.00    -0.248 NA
ATOM     47  C   UNL A   1      43.321  26.480  30.655  1.00  0.00     0.031 C 
ATOM     48  C   UNL A   1      39.650  28.529  27.920  1.00  0.00     0.029 A 
ATOM     49  N   UNL A   1      40.005  29.373  29.963  1.00  0.00    -0.354 N 
ATOM     50  C   UNL A   1      43.093  27.782  32.523  1.00  0.00     0.074 A 
ATOM     51  C   UNL A   1      43.786  26.687  31.878  1.00  0.00     0.031 C 
ATOM     52  C   UNL A   1      38.767  29.526  28.109  1.00  0.00     0.029 A 
ATOM     53  C   UNL A   1      38.941  30.075  29.453  1.00  0.00     0.049 A 
ATOM     54  H   UNL A   1      40.398  29.555  30.846  1.00  0.00     0.167 HD
ATOM     55  C   UNL A   1      43.396  28.255  33.755  1.00  0.00     0.037 A 
ATOM     56  C   UNL A   1      38.182  31.034  30.017  1.00  0.00     0.037 A 
ATOM     57  C   UNL A   1      42.702  29.339  34.399  1.00  0.00     0.049 A 
ATOM     58  C   UNL A   1      38.489  31.499  31.417  1.00  0.00     0.074 A 
ATOM     59  C   UNL A   1      42.950  29.908  35.636  1.00  0.00     0.029 A 
ATOM     60  N   UNL A   1      41.613  30.009  33.860  1.00  0.00    -0.354 N 
ATOM     61  N   UNL A   1      39.438  31.103  32.232  1.00  0.00    -0.248 NA
ATOM     62  C   UNL A   1      37.622  32.548  31.974  1.00  0.00     0.031 C 
ATOM     63  C   UNL A   1      41.977  30.886  35.869  1.00  0.00     0.029 A 
ATOM     64  C   UNL A   1      41.158  30.964  34.754  1.00  0.00     0.049 A 
ATOM     65  H   UNL A   1      41.224  29.833  32.974  1.00  0.00     0.167 HD
ATOM     66  C   UNL A   1      39.300  31.870  33.382  1.00  0.00     0.074 A 
ATOM     67  C   UNL A   1      38.180  32.760  33.158  1.00  0.00     0.031 C 
ATOM     68  C   UNL A   1      40.039  31.843  34.520  1.00  0.00     0.037 A 
BRANCH  55  69
ATOM     69  C   UNL A   1      44.506  27.569  34.496  1.00  0.00     0.057 A 
ATOM     70  C   UNL A   1      45.837  27.995  34.403  1.00  0.00     0.134 A 
ATOM     71  C   UNL A   1      44.237  26.467  35.318  1.00  0.00     0.134 A 
ATOM     72  F   UNL A   1      46.166  29.035  33.620  1.00  0.00    -0.206 F 
ATOM     73  C   UNL A   1      46.866  27.329  35.073  1.00  0.00     0.040 A 
ATOM     74  C   UNL A   1      45.254  25.810  36.013  1.00  0.00     0.040 A 
ATOM     75  F   UNL A   1      42.984  26.008  35.454  1.00  0.00    -0.206 F 
ATOM     76  C   UNL A   1      46.574  26.235  35.884  1.00  0.00     0.006 A 
ENDBRANCH  55  69
BRANCH  56  77
ATOM     77  C   UNL A   1      37.042  31.610  29.261  1.00  0.00     0.057 A 
ATOM     78  C   UNL A   1      35.860  30.887  29.064  1.00  0.00     0.134 A 
ATOM     79  C   UNL A   1      37.109  32.899  28.716  1.00  0.00     0.134 A 
ATOM     80  F   UNL A   1      35.745  29.639  29.537  1.00  0.00    -0.206 F 
ATOM     81  C   UNL A   1      34.787  31.423  28.348  1.00  0.00     0.040 A 
ATOM     82  C   UNL A   1      36.036  33.454  28.018  1.00  0.00     0.040 A 
ATOM     83  F   UNL A   1      38.216  33.640  28.865  1.00  0.00    -0.206 F 
ATOM     84  C   UNL A   1      34.871  32.713  27.829  1.00  0.00     0.006 A 
ENDBRANCH  56  77
BRANCH  68  85
ATOM     85  C   UNL A   1      39.680  32.822  35.601  1.00  0.00     0.057 A 
ATOM     86  C   UNL A   1      40.180  34.130  35.613  1.00  0.00     0.134 A 
ATOM     87  C   UNL A   1      38.783  32.464  36.617  1.00  0.00     0.134 A 
ATOM     88  F   UNL A   1      41.051  34.533  34.675  1.00  0.00    -0.206 F 
ATOM     89  C   UNL A   1      39.817  35.041  36.607  1.00  0.00     0.040 A 
ATOM     90  C   UNL A   1      38.392  33.374  37.601  1.00  0.00     0.040 A 
ATOM     91  F   UNL A   1      38.257  31.231  36.659  1.00  0.00    -0.206 F 
ATOM     92  C   UNL A   1      38.914  34.665  37.601  1.00  0.00     0.006 A 
ENDBRANCH  68  85
ENDBRANCH  42  43
ENDBRANCH  35  37
ENDBRANCH  34  35
ENDBRANCH  33  34
ENDBRANCH  32  33
ENDBRANCH  31  32
ENDBRANCH  30  31
ENDBRANCH   1  30
TORSDOF 21
ENDMDL
MODEL 2
REMARK VINA RESULT:     -10.7      4.881     10.003
REMARK SMILES NS(=O)(=O)c1ccc(N2N=C(C(=O)OCCOCCOCCOC(=O)c3ccc(-c4c5nc(c(-c6c(F)cccc6F)c6ccc([nH]6)c(-c6c(F)cccc6F)c6nc(c(-c7c(F)cccc7F)c7ccc4[nH]7)C=C6)C=C5)cc3)C[C@H]2c2cccs2)cc1
REMARK SMILES IDX 18 1 17 2 16 3 15 4 14 5 12 6 13 7 11 8 9 9 10 10 81 11
REMARK SMILES IDX 80 12 8 13 5 14 6 15 88 16 7 17 87 18 2 19 3 20 4 21 1 22
REMARK SMILES IDX 82 25 83 26 86 27 84 28 85 29 19 30 20 31 21 32 22 33 23 34
REMARK SMILES IDX 24 35 25 36 26 37 27 38 79 39 28 40 78 41 29 42 30 43 31 44
REMARK SMILES IDX 72 45 32 46 77 47 71 48 73 49 33 50 76 51 70 52 69 53 34 55
REMARK SMILES IDX 60 56 43 57 59 58 44 59 47 60 58 61 74 62 45 63 46 64 57 66
REMARK SMILES IDX 75 67 48 68 35 69 36 70 41 71 37 72 38 73 40 74 42 75 39 76
REMARK SMILES IDX 61 77 62 78 67 79 63 80 64 81 66 82 68 83 65 84 49 85 50 86
REMARK SMILES IDX 55 87 51 88 52 89 54 90 56 91 53 92
REMARK H PARENT 1 23 1 24 73 54 47 65
REMARK Flexibility Score: inf
ROOT
ATOM      1  C   UNL A   1      34.108  32.448  27.989  1.00  0.00     0.188 C 
ENDROOT
BRANCH   1   2
ATOM      2  O   UNL A   1      33.641  31.116  27.794  1.00  0.00    -0.376 OA
BRANCH   2   3
ATOM      3  C   UNL A   1      32.572  30.872  26.883  1.00  0.00     0.202 C 
BRANCH   3   4
ATOM      4  C   UNL A   1      32.644  29.626  25.988  1.00  0.00     0.261 C 
BRANCH   4   5
ATOM      5  O   UNL A   1      32.850  28.416  26.735  1.00  0.00    -0.459 OA
BRANCH   5   6
ATOM      6  C   UNL A   1      31.733  27.838  27.213  1.00  0.00     0.354 C 
ATOM      7  O   UNL A   1      31.036  28.203  28.139  1.00  0.00    -0.245 OA
BRANCH   6   8
ATOM      8  C   UNL A   1      31.352  26.676  26.333  1.00  0.00     0.148 C 
ATOM      9  N   UNL A   1      31.315  24.731  25.497  1.00  0.00    -0.256 N 
ATOM     10  N   UNL A   1      31.784  25.468  26.547  1.00  0.00    -0.169 NA
ATOM     11  C   UNL A   1      30.828  25.590  24.396  1.00  0.00     0.154 C 
ATOM     12  C   UNL A   1      30.401  26.837  25.188  1.00  0.00     0.099 C 
BRANCH   9  13
ATOM     13  C   UNL A   1      31.778  23.432  25.336  1.00  0.00     0.060 A 
ATOM     14  C   UNL A   1      32.696  20.784  25.073  1.00  0.00     0.082 A 
ATOM     15  C   UNL A   1      33.084  21.546  26.178  1.00  0.00     0.024 A 
ATOM     16  C   UNL A   1      31.896  21.343  24.079  1.00  0.00     0.024 A 
ATOM     17  C   UNL A   1      32.618  22.861  26.305  1.00  0.00     0.029 A 
ATOM     18  C   UNL A   1      31.458  22.664  24.209  1.00  0.00     0.029 A 
BRANCH  14  19
ATOM     19  S   UNL A   1      33.248  19.109  24.951  1.00  0.00     0.238 S 
ATOM     20  O   UNL A   1      34.686  19.116  24.845  1.00  0.00    -0.207 OA
ATOM     21  O   UNL A   1      32.396  18.403  24.022  1.00  0.00    -0.207 OA
BRANCH  19  22
ATOM     22  N   UNL A   1      32.901  18.441  26.456  1.00  0.00    -0.225 NA
ATOM     23  H   UNL A   1      32.252  17.663  26.341  1.00  0.00     0.137 HD
ATOM     24  H   UNL A   1      32.477  19.151  27.054  1.00  0.00     0.137 HD
ENDBRANCH  19  22
ENDBRANCH  14  19
ENDBRANCH   9  13
BRANCH  11  25
ATOM     25  C   UNL A   1      31.803  25.903  23.267  1.00  0.00     0.030 A 
ATOM     26  C   UNL A   1      31.780  25.390  21.980  1.00  0.00     0.017 A 
ATOM     27  S   UNL A   1      33.141  26.969  23.461  1.00  0.00    -0.147 S 
ATOM     28  C   UNL A   1      32.841  25.882  21.167  1.00  0.00     0.012 A 
ATOM     29  C   UNL A   1      33.633  26.781  21.843  1.00  0.00     0.065 A 
ENDBRANCH  11  25
ENDBRANCH   6   8
ENDBRANCH   5   6
ENDBRANCH   4   5
ENDBRANCH   3   4
ENDBRANCH   2   3
ENDBRANCH   1   2
BRANCH   1  30
ATOM     30  C   UNL A   1      33.095  33.611  27.984  1.00  0.00     0.188 C 
BRANCH  30  31
ATOM     31  O   UNL A   1      32.929  34.235  29.239  1.00  0.00    -0.376 OA
BRANCH  31  32
ATOM     32  C   UNL A   1      34.092  34.725  29.889  1.00  0.00     0.202 C 
BRANCH  32  33
ATOM     33  C   UNL A   1      34.409  34.294  31.333  1.00  0.00     0.261 C 
BRANCH  33  34
ATOM     34  O   UNL A   1      35.758  33.888  31.613  1.00  0.00    -0.460 OA
BRANCH  34  35
ATOM     35  C   UNL A   1      35.932  32.753  32.326  1.00  0.00     0.338 C 
ATOM     36  O   UNL A   1      35.238  32.338  33.235  1.00  0.00    -0.246 OA
BRANCH  35  37
ATOM     37  C   UNL A   1      37.019  31.986  31.676  1.00  0.00     0.060 A 
ATOM     38  C   UNL A   1      37.992  31.370  32.476  1.00  0.00     0.016 A 
ATOM     39  C   UNL A   1      37.068  31.867  30.286  1.00  0.00     0.016 A 
ATOM     40  C   UNL A   1      39.030  30.649  31.883  1.00  0.00     0.010 A 
ATOM     41  C   UNL A   1      38.119  31.163  29.692  1.00  0.00     0.010 A 
ATOM     42  C   UNL A   1      39.119  30.573  30.486  1.00  0.00    -0.014 A 
BRANCH  42  43
ATOM     43  C   UNL A   1      40.341  30.026  29.848  1.00  0.00     0.031 A 
ATOM     44  C   UNL A   1      41.507  30.948  29.622  1.00  0.00     0.074 A 
ATOM     45  C   UNL A   1      40.418  28.738  29.471  1.00  0.00     0.049 A 
ATOM     46  N   UNL A   1      42.650  30.716  29.030  1.00  0.00    -0.248 NA
ATOM     47  C   UNL A   1      41.356  32.321  30.130  1.00  0.00     0.031 C 
ATOM     48  C   UNL A   1      39.374  27.736  29.665  1.00  0.00     0.029 A 
ATOM     49  N   UNL A   1      41.425  28.061  28.830  1.00  0.00    -0.354 N 
ATOM     50  C   UNL A   1      43.352  31.913  29.087  1.00  0.00     0.074 A 
ATOM     51  C   UNL A   1      42.495  32.877  29.744  1.00  0.00     0.031 C 
ATOM     52  C   UNL A   1      39.787  26.572  29.136  1.00  0.00     0.029 A 
ATOM     53  C   UNL A   1      41.110  26.756  28.541  1.00  0.00     0.049 A 
ATOM     54  H   UNL A   1      42.290  28.471  28.600  1.00  0.00     0.167 HD
ATOM     55  C   UNL A   1      44.601  32.185  28.639  1.00  0.00     0.037 A 
ATOM     56  C   UNL A   1      41.803  25.825  27.855  1.00  0.00     0.037 A 
ATOM     57  C   UNL A   1      45.451  31.228  27.981  1.00  0.00     0.049 A 
ATOM     58  C   UNL A   1      43.162  26.167  27.302  1.00  0.00     0.074 A 
ATOM     59  C   UNL A   1      46.741  31.399  27.513  1.00  0.00     0.029 A 
ATOM     60  N   UNL A   1      45.087  29.922  27.685  1.00  0.00    -0.354 N 
ATOM     61  N   UNL A   1      43.831  27.293  27.386  1.00  0.00    -0.248 NA
ATOM     62  C   UNL A   1      43.864  25.108  26.563  1.00  0.00     0.031 C 
ATOM     63  C   UNL A   1      47.139  30.214  26.885  1.00  0.00     0.029 A 
ATOM     64  C   UNL A   1      46.116  29.286  27.011  1.00  0.00     0.049 A 
ATOM     65  H   UNL A   1      44.225  29.509  27.920  1.00  0.00     0.167 HD
ATOM     66  C   UNL A   1      45.039  27.069  26.737  1.00  0.00     0.074 A 
ATOM     67  C   UNL A   1      45.015  25.698  26.271  1.00  0.00     0.031 C 
ATOM     68  C   UNL A   1      46.078  27.921  26.549  1.00  0.00     0.037 A 
BRANCH  55  69
ATOM     69  C   UNL A   1      45.101  33.588  28.819  1.00  0.00     0.057 A 
ATOM     70  C   UNL A   1      44.928  34.571  27.835  1.00  0.00     0.134 A 
ATOM     71  C   UNL A   1      45.764  33.961  29.995  1.00  0.00     0.134 A 
ATOM     72  F   UNL A   1      44.317  34.276  26.678  1.00  0.00    -0.206 F 
ATOM     73  C   UNL A   1      45.427  35.865  28.001  1.00  0.00     0.040 A 
ATOM     74  C   UNL A   1      46.243  35.259  30.183  1.00  0.00     0.040 A 
ATOM     75  F   UNL A   1      45.961  33.070  30.978  1.00  0.00    -0.206 F 
ATOM     76  C   UNL A   1      46.083  36.212  29.180  1.00  0.00     0.006 A 
ENDBRANCH  55  69
BRANCH  56  77
ATOM     77  C   UNL A   1      41.213  24.482  27.637  1.00  0.00     0.057 A 
ATOM     78  C   UNL A   1      40.189  24.278  26.704  1.00  0.00     0.134 A 
ATOM     79  C   UNL A   1      41.659  23.366  28.358  1.00  0.00     0.134 A 
ATOM     80  F   UNL A   1      39.699  25.310  26.004  1.00  0.00    -0.206 F 
ATOM     81  C   UNL A   1      39.626  23.017  26.501  1.00  0.00     0.040 A 
ATOM     82  C   UNL A   1      41.121  22.096  28.148  1.00  0.00     0.040 A 
ATOM     83  F   UNL A   1      42.633  23.496  29.270  1.00  0.00    -0.206 F 
ATOM     84  C   UNL A   1      40.098  21.919  27.219  1.00  0.00     0.006 A 
ENDBRANCH  56  77
BRANCH  68  85
ATOM     85  C   UNL A   1      47.287  27.390  25.834  1.00  0.00     0.057 A 
ATOM     86  C   UNL A   1      48.324  26.738  26.512  1.00  0.00     0.134 A 
ATOM     87  C   UNL A   1      47.391  27.492  24.440  1.00  0.00     0.134 A 
ATOM     88  F   UNL A   1      48.292  26.617  27.848  1.00  0.00    -0.206 F 
ATOM     89  C   UNL A   1      49.431  26.224  25.833  1.00  0.00     0.040 A 
ATOM     90  C   UNL A   1      48.479  26.958  23.746  1.00  0.00     0.040 A 
ATOM     91  F   UNL A   1      46.428  28.095  23.726  1.00  0.00    -0.206 F 
ATOM     92  C   UNL A   1      49.506  26.327  24.445  1.00  0.00     0.006 A 
ENDBRANCH  68  85
ENDBRANCH  42  43
ENDBRANCH  35  37
ENDBRANCH  34  35
ENDBRANCH  33  34
ENDBRANCH  32  33
ENDBRANCH  31  32
ENDBRANCH  30  31
ENDBRANCH   1  30
TORSDOF 21
ENDMDL
MODEL 3
REMARK VINA RESULT:     -10.6      3.393      8.892
REMARK SMILES NS(=O)(=O)c1ccc(N2N=C(C(=O)OCCOCCOCCOC(=O)c3ccc(-c4c5nc(c(-c6c(F)cccc6F)c6ccc([nH]6)c(-c6c(F)cccc6F)c6nc(c(-c7c(F)cccc7F)c7ccc4[nH]7)C=C6)C=C5)cc3)C[C@H]2c2cccs2)cc1
REMARK SMILES IDX 18 1 17 2 16 3 15 4 14 5 12 6 13 7 11 8 9 9 10 10 81 11
REMARK SMILES IDX 80 12 8 13 5 14 6 15 88 16 7 17 87 18 2 19 3 20 4 21 1 22
REMARK SMILES IDX 82 25 83 26 86 27 84 28 85 29 19 30 20 31 21 32 22 33 23 34
REMARK SMILES IDX 24 35 25 36 26 37 27 38 79 39 28 40 78 41 29 42 30 43 31 44
REMARK SMILES IDX 72 45 32 46 77 47 71 48 73 49 33 50 76 51 70 52 69 53 34 55
REMARK SMILES IDX 60 56 43 57 59 58 44 59 47 60 58 61 74 62 45 63 46 64 57 66
REMARK SMILES IDX 75 67 48 68 35 69 36 70 41 71 37 72 38 73 40 74 42 75 39 76
REMARK SMILES IDX 61 77 62 78 67 79 63 80 64 81 66 82 68 83 65 84 49 85 50 86
REMARK SMILES IDX 55 87 51 88 52 89 54 90 56 91 53 92
REMARK H PARENT 1 23 1 24 73 54 47 65
REMARK Flexibility Score: inf
ROOT
ATOM      1  C   UNL A   1      31.468  28.916  24.734  1.00  0.00     0.188 C 
ENDROOT
BRANCH   1   2
ATOM      2  O   UNL A   1      30.752  29.293  23.561  1.00  0.00    -0.376 OA
BRANCH   2   3
ATOM      3  C   UNL A   1      30.787  28.449  22.413  1.00  0.00     0.202 C 
BRANCH   3   4
ATOM      4  C   UNL A   1      30.951  26.937  22.624  1.00  0.00     0.261 C 
BRANCH   4   5
ATOM      5  O   UNL A   1      31.848  26.337  21.676  1.00  0.00    -0.459 OA
BRANCH   5   6
ATOM      6  C   UNL A   1      33.152  26.390  22.003  1.00  0.00     0.354 C 
ATOM      7  O   UNL A   1      33.987  27.191  21.630  1.00  0.00    -0.245 OA
BRANCH   6   8
ATOM      8  C   UNL A   1      33.452  25.348  23.049  1.00  0.00     0.148 C 
ATOM      9  N   UNL A   1      33.684  23.460  23.980  1.00  0.00    -0.256 N 
ATOM     10  N   UNL A   1      33.493  24.078  22.776  1.00  0.00    -0.169 NA
ATOM     11  C   UNL A   1      33.431  24.376  25.113  1.00  0.00     0.154 C 
ATOM     12  C   UNL A   1      33.778  25.725  24.461  1.00  0.00     0.099 C 
BRANCH   9  13
ATOM     13  C   UNL A   1      33.574  22.078  24.045  1.00  0.00     0.060 A 
ATOM     14  C   UNL A   1      33.352  19.279  24.244  1.00  0.00     0.082 A 
ATOM     15  C   UNL A   1      34.383  19.943  24.913  1.00  0.00     0.024 A 
ATOM     16  C   UNL A   1      32.461  19.991  23.443  1.00  0.00     0.024 A 
ATOM     17  C   UNL A   1      34.483  21.336  24.814  1.00  0.00     0.029 A 
ATOM     18  C   UNL A   1      32.588  21.379  23.336  1.00  0.00     0.029 A 
BRANCH  14  19
ATOM     19  S   UNL A   1      33.204  17.527  24.420  1.00  0.00     0.238 S 
ATOM     20  O   UNL A   1      33.246  16.938  23.104  1.00  0.00    -0.207 OA
ATOM     21  O   UNL A   1      32.158  17.240  25.375  1.00  0.00    -0.207 OA
BRANCH  19  22
ATOM     22  N   UNL A   1      34.630  17.058  25.179  1.00  0.00    -0.225 NA
ATOM     23  H   UNL A   1      35.377  17.708  24.930  1.00  0.00     0.137 HD
ATOM     24  H   UNL A   1      34.884  16.118  24.875  1.00  0.00     0.137 HD
ENDBRANCH  19  22
ENDBRANCH  14  19
ENDBRANCH   9  13
BRANCH  11  25
ATOM     25  C   UNL A   1      32.039  24.353  25.735  1.00  0.00     0.030 A 
ATOM     26  C   UNL A   1      31.117  25.388  25.750  1.00  0.00     0.017 A 
ATOM     27  S   UNL A   1      31.411  22.979  26.561  1.00  0.00    -0.147 S 
ATOM     28  C   UNL A   1      29.908  25.043  26.421  1.00  0.00     0.012 A 
ATOM     29  C   UNL A   1      29.924  23.746  26.876  1.00  0.00     0.065 A 
ENDBRANCH  11  25
ENDBRANCH   6   8
ENDBRANCH   5   6
ENDBRANCH   4   5
ENDBRANCH   3   4
ENDBRANCH   2   3
ENDBRANCH   1   2
BRANCH   1  30
ATOM     30  C   UNL A   1      32.231  29.993  25.531  1.00  0.00     0.188 C 
BRANCH  30  31
ATOM     31  O   UNL A   1      31.484  30.567  26.584  1.00  0.00    -0.376 OA
BRANCH  31  32
ATOM     32  C   UNL A   1      31.680  31.946  26.854  1.00  0.00     0.202 C 
BRANCH  32  33
ATOM     33  C   UNL A   1      32.952  32.417  27.582  1.00  0.00     0.261 C 
BRANCH  33  34
ATOM     34  O   UNL A   1      33.352  33.782  27.382  1.00  0.00    -0.460 OA
BRANCH  34  35
ATOM     35  C   UNL A   1      33.370  34.592  28.465  1.00  0.00     0.338 C 
ATOM     36  O   UNL A   1      32.528  35.407  28.790  1.00  0.00    -0.246 OA
BRANCH  35  37
ATOM     37  C   UNL A   1      34.514  34.176  29.307  1.00  0.00     0.060 A 
ATOM     38  C   UNL A   1      35.815  34.308  28.803  1.00  0.00     0.016 A 
ATOM     39  C   UNL A   1      34.301  33.674  30.592  1.00  0.00     0.016 A 
ATOM     40  C   UNL A   1      36.908  33.915  29.578  1.00  0.00     0.010 A 
ATOM     41  C   UNL A   1      35.394  33.261  31.359  1.00  0.00     0.010 A 
ATOM     42  C   UNL A   1      36.701  33.354  30.846  1.00  0.00    -0.014 A 
BRANCH  42  43
ATOM     43  C   UNL A   1      37.825  32.712  31.568  1.00  0.00     0.031 A 
ATOM     44  C   UNL A   1      38.469  31.497  30.959  1.00  0.00     0.074 A 
ATOM     45  C   UNL A   1      38.268  33.191  32.744  1.00  0.00     0.049 A 
ATOM     46  N   UNL A   1      39.420  30.733  31.431  1.00  0.00    -0.248 NA
ATOM     47  C   UNL A   1      37.963  31.089  29.639  1.00  0.00     0.031 C 
ATOM     48  C   UNL A   1      37.754  34.378  33.420  1.00  0.00     0.029 A 
ATOM     49  N   UNL A   1      39.247  32.718  33.581  1.00  0.00    -0.354 N 
ATOM     50  C   UNL A   1      39.622  29.750  30.471  1.00  0.00     0.074 A 
ATOM     51  C   UNL A   1      38.675  29.996  29.405  1.00  0.00     0.031 C 
ATOM     52  C   UNL A   1      38.412  34.532  34.583  1.00  0.00     0.029 A 
ATOM     53  C   UNL A   1      39.370  33.439  34.743  1.00  0.00     0.049 A 
ATOM     54  H   UNL A   1      39.809  31.939  33.368  1.00  0.00     0.167 HD
ATOM     55  C   UNL A   1      40.520  28.737  30.474  1.00  0.00     0.037 A 
ATOM     56  C   UNL A   1      40.150  33.226  35.821  1.00  0.00     0.037 A 
ATOM     57  C   UNL A   1      41.458  28.488  31.537  1.00  0.00     0.049 A 
ATOM     58  C   UNL A   1      41.094  32.052  35.835  1.00  0.00     0.074 A 
ATOM     59  C   UNL A   1      42.425  27.502  31.621  1.00  0.00     0.029 A 
ATOM     60  N   UNL A   1      41.534  29.226  32.709  1.00  0.00    -0.354 N 
ATOM     61  N   UNL A   1      41.300  31.143  34.912  1.00  0.00    -0.248 NA
ATOM     62  C   UNL A   1      41.915  31.875  37.042  1.00  0.00     0.031 C 
ATOM     63  C   UNL A   1      43.050  27.610  32.868  1.00  0.00     0.029 A 
ATOM     64  C   UNL A   1      42.511  28.698  33.537  1.00  0.00     0.049 A 
ATOM     65  H   UNL A   1      40.978  30.010  32.920  1.00  0.00     0.167 HD
ATOM     66  C   UNL A   1      42.291  30.307  35.412  1.00  0.00     0.074 A 
ATOM     67  C   UNL A   1      42.650  30.820  36.717  1.00  0.00     0.031 C 
ATOM     68  C   UNL A   1      42.857  29.216  34.837  1.00  0.00     0.037 A 
BRANCH  55  69
ATOM     69  C   UNL A   1      40.499  27.802  29.300  1.00  0.00     0.057 A 
ATOM     70  C   UNL A   1      39.632  26.703  29.239  1.00  0.00     0.134 A 
ATOM     71  C   UNL A   1      41.359  28.006  28.213  1.00  0.00     0.134 A 
ATOM     72  F   UNL A   1      38.794  26.440  30.255  1.00  0.00    -0.206 F 
ATOM     73  C   UNL A   1      39.644  25.822  28.156  1.00  0.00     0.040 A 
ATOM     74  C   UNL A   1      41.361  27.147  27.113  1.00  0.00     0.040 A 
ATOM     75  F   UNL A   1      42.213  29.040  28.205  1.00  0.00    -0.206 F 
ATOM     76  C   UNL A   1      40.508  26.046  27.086  1.00  0.00     0.006 A 
ENDBRANCH  55  69
BRANCH  56  77
ATOM     77  C   UNL A   1      40.059  34.139  36.987  1.00  0.00     0.057 A 
ATOM     78  C   UNL A   1      40.900  35.251  37.108  1.00  0.00     0.134 A 
ATOM     79  C   UNL A   1      39.126  33.920  38.010  1.00  0.00     0.134 A 
ATOM     80  F   UNL A   1      41.831  35.498  36.177  1.00  0.00    -0.206 F 
ATOM     81  C   UNL A   1      40.822  36.109  38.207  1.00  0.00     0.040 A 
ATOM     82  C   UNL A   1      39.023  34.783  39.102  1.00  0.00     0.040 A 
ATOM     83  F   UNL A   1      38.296  32.869  37.956  1.00  0.00    -0.206 F 
ATOM     84  C   UNL A   1      39.876  35.880  39.204  1.00  0.00     0.006 A 
ENDBRANCH  56  77
BRANCH  68  85
ATOM     85  C   UNL A   1      43.944  28.517  35.602  1.00  0.00     0.057 A 
ATOM     86  C   UNL A   1      45.293  28.861  35.456  1.00  0.00     0.134 A 
ATOM     87  C   UNL A   1      43.629  27.519  36.535  1.00  0.00     0.134 A 
ATOM     88  F   UNL A   1      45.663  29.801  34.573  1.00  0.00    -0.206 F 
ATOM     89  C   UNL A   1      46.293  28.224  36.194  1.00  0.00     0.040 A 
ATOM     90  C   UNL A   1      44.617  26.893  37.297  1.00  0.00     0.040 A 
ATOM     91  F   UNL A   1      42.356  27.148  36.733  1.00  0.00    -0.206 F 
ATOM     92  C   UNL A   1      45.954  27.242  37.124  1.00  0.00     0.006 A 
ENDBRANCH  68  85
ENDBRANCH  42  43
ENDBRANCH  35  37
ENDBRANCH  34  35
ENDBRANCH  33  34
ENDBRANCH  32  33
ENDBRANCH  31  32
ENDBRANCH  30  31
ENDBRANCH   1  30
TORSDOF 21
ENDMDL
