MODEL 1
REMARK VINA RESULT:     -10.1      0.000      0.000
REMARK SMILES CC[C@H](NC(=O)c1ccc(C)nc1)C(=O)OCCOCCOCCOC(=O)c1ccc(-c2c3nc(c(-c4c(F)cccc4F)c4ccc([nH]4)c(-c4c(F)cccc4F)c4nc(c(-c5c(F)cccc5F)c5ccc2[nH]5)C=C4)C=C3)cc1
REMARK SMILES IDX 20 1 19 2 18 3 17 4 16 5 14 6 15 7 3 8 2 9 1 10 4 11 5 12
REMARK SMILES IDX 6 14 7 15 8 16 13 17 9 18 12 19 10 20 11 21 21 22 22 23
REMARK SMILES IDX 23 24 24 25 25 26 26 27 27 28 28 29 29 30 81 31 30 32 80 33
REMARK SMILES IDX 31 34 32 35 33 36 74 37 34 38 79 39 73 40 75 41 35 42 78 43
REMARK SMILES IDX 72 44 71 45 36 47 62 48 45 49 61 50 46 51 49 52 60 53 76 54
REMARK SMILES IDX 47 55 48 56 59 58 77 59 50 60 37 61 38 62 43 63 39 64 40 65
REMARK SMILES IDX 42 66 44 67 41 68 63 69 64 70 69 71 65 72 66 73 68 74 70 75
REMARK SMILES IDX 67 76 51 77 52 78 57 79 53 80 54 81 56 82 58 83 55 84
REMARK H PARENT 4 13 75 46 49 57
REMARK Flexibility Score: inf
ROOT
ATOM      1  C   UNL A   1      32.706  28.351  25.408  1.00  0.00     0.188 C 
ENDROOT
BRANCH   1   2
ATOM      2  O   UNL A   1      31.417  27.740  25.391  1.00  0.00    -0.376 OA
BRANCH   2   3
ATOM      3  C   UNL A   1      31.076  26.907  26.494  1.00  0.00     0.202 C 
BRANCH   3   4
ATOM      4  C   UNL A   1      30.604  25.480  26.182  1.00  0.00     0.261 C 
BRANCH   4   5
ATOM      5  O   UNL A   1      30.994  24.494  27.163  1.00  0.00    -0.462 OA
BRANCH   5   6
ATOM      6  C   UNL A   1      30.671  23.212  26.820  1.00  0.00     0.328 C 
ATOM      7  O   UNL A   1      29.676  22.616  27.227  1.00  0.00    -0.250 OA
BRANCH   6   8
ATOM      8  C   UNL A   1      31.755  22.479  26.013  1.00  0.00     0.192 C 
BRANCH   8   9
ATOM      9  C   UNL A   1      33.137  22.918  26.578  1.00  0.00     0.033 C 
ATOM     10  C   UNL A   1      33.642  22.188  27.820  1.00  0.00     0.007 C 
ENDBRANCH   8   9
BRANCH   8  11
ATOM     11  N   UNL A   1      31.727  22.532  24.554  1.00  0.00    -0.339 N 
ATOM     12  C   UNL A   1      32.582  21.918  23.681  1.00  0.00     0.253 C 
ATOM     13  H   UNL A   1      31.008  23.072  24.152  1.00  0.00     0.164 HD
ATOM     14  O   UNL A   1      32.850  22.462  22.614  1.00  0.00    -0.269 OA
BRANCH  12  15
ATOM     15  C   UNL A   1      32.934  20.507  23.864  1.00  0.00     0.058 A 
ATOM     16  C   UNL A   1      32.192  19.615  23.109  1.00  0.00     0.017 A 
ATOM     17  C   UNL A   1      33.992  19.997  24.577  1.00  0.00     0.125 A 
ATOM     18  C   UNL A   1      32.484  18.260  23.097  1.00  0.00     0.024 A 
ATOM     19  N   UNL A   1      34.311  18.667  24.584  1.00  0.00    -0.261 NA
ATOM     20  C   UNL A   1      33.583  17.825  23.806  1.00  0.00     0.037 A 
ATOM     21  C   UNL A   1      34.011  16.394  23.655  1.00  0.00     0.066 C 
ENDBRANCH  12  15
ENDBRANCH   8  11
ENDBRANCH   6   8
ENDBRANCH   5   6
ENDBRANCH   4   5
ENDBRANCH   3   4
ENDBRANCH   2   3
ENDBRANCH   1   2
BRANCH   1  22
ATOM     22  C   UNL A   1      33.099  29.140  26.681  1.00  0.00     0.188 C 
BRANCH  22  23
ATOM     23  O   UNL A   1      32.108  30.053  27.168  1.00  0.00    -0.376 OA
BRANCH  23  24
ATOM     24  C   UNL A   1      31.716  31.122  26.294  1.00  0.00     0.202 C 
BRANCH  24  25
ATOM     25  C   UNL A   1      31.487  32.493  26.973  1.00  0.00     0.261 C 
BRANCH  25  26
ATOM     26  O   UNL A   1      32.669  33.332  26.824  1.00  0.00    -0.460 OA
BRANCH  26  27
ATOM     27  C   UNL A   1      33.144  33.870  27.991  1.00  0.00     0.338 C 
ATOM     28  O   UNL A   1      32.547  34.657  28.689  1.00  0.00    -0.246 OA
BRANCH  27  29
ATOM     29  C   UNL A   1      34.425  33.207  28.413  1.00  0.00     0.060 A 
ATOM     30  C   UNL A   1      34.348  31.893  28.897  1.00  0.00     0.016 A 
ATOM     31  C   UNL A   1      35.683  33.811  28.317  1.00  0.00     0.016 A 
ATOM     32  C   UNL A   1      35.506  31.180  29.257  1.00  0.00     0.010 A 
ATOM     33  C   UNL A   1      36.845  33.102  28.698  1.00  0.00     0.010 A 
ATOM     34  C   UNL A   1      36.772  31.780  29.180  1.00  0.00    -0.014 A 
BRANCH  34  35
ATOM     35  C   UNL A   1      37.959  31.100  29.796  1.00  0.00     0.031 A 
ATOM     36  C   UNL A   1      38.291  31.410  31.231  1.00  0.00     0.074 A 
ATOM     37  C   UNL A   1      38.728  30.194  29.157  1.00  0.00     0.049 A 
ATOM     38  N   UNL A   1      39.235  30.918  31.994  1.00  0.00    -0.248 NA
ATOM     39  C   UNL A   1      37.435  32.405  31.893  1.00  0.00     0.031 C 
ATOM     40  C   UNL A   1      38.538  29.749  27.789  1.00  0.00     0.029 A 
ATOM     41  N   UNL A   1      39.831  29.482  29.580  1.00  0.00    -0.354 N 
ATOM     42  C   UNL A   1      39.071  31.522  33.231  1.00  0.00     0.074 A 
ATOM     43  C   UNL A   1      37.962  32.445  33.106  1.00  0.00     0.031 C 
ATOM     44  C   UNL A   1      39.481  28.845  27.470  1.00  0.00     0.029 A 
ATOM     45  C   UNL A   1      40.367  28.653  28.617  1.00  0.00     0.049 A 
ATOM     46  H   UNL A   1      40.203  29.557  30.488  1.00  0.00     0.167 HD
ATOM     47  C   UNL A   1      39.768  31.330  34.376  1.00  0.00     0.037 A 
ATOM     48  C   UNL A   1      41.444  27.842  28.645  1.00  0.00     0.037 A 
ATOM     49  C   UNL A   1      40.906  30.465  34.522  1.00  0.00     0.049 A 
ATOM     50  C   UNL A   1      42.277  27.731  29.898  1.00  0.00     0.074 A 
ATOM     51  C   UNL A   1      41.688  30.253  35.645  1.00  0.00     0.029 A 
ATOM     52  N   UNL A   1      41.440  29.684  33.510  1.00  0.00    -0.354 N 
ATOM     53  N   UNL A   1      42.082  28.281  31.071  1.00  0.00    -0.248 NA
ATOM     54  C   UNL A   1      43.482  26.887  29.829  1.00  0.00     0.031 C 
ATOM     55  C   UNL A   1      42.722  29.375  35.301  1.00  0.00     0.029 A 
ATOM     56  C   UNL A   1      42.559  29.010  33.976  1.00  0.00     0.049 A 
ATOM     57  H   UNL A   1      41.079  29.617  32.597  1.00  0.00     0.167 HD
ATOM     58  C   UNL A   1      43.118  27.827  31.881  1.00  0.00     0.074 A 
ATOM     59  C   UNL A   1      43.935  26.950  31.074  1.00  0.00     0.031 C 
ATOM     60  C   UNL A   1      43.365  28.120  33.181  1.00  0.00     0.037 A 
BRANCH  47  61
ATOM     61  C   UNL A   1      39.316  32.120  35.563  1.00  0.00     0.057 A 
ATOM     62  C   UNL A   1      39.789  33.418  35.797  1.00  0.00     0.134 A 
ATOM     63  C   UNL A   1      38.431  31.567  36.495  1.00  0.00     0.134 A 
ATOM     64  F   UNL A   1      40.657  33.989  34.948  1.00  0.00    -0.206 F 
ATOM     65  C   UNL A   1      39.418  34.129  36.938  1.00  0.00     0.040 A 
ATOM     66  C   UNL A   1      38.037  32.277  37.628  1.00  0.00     0.040 A 
ATOM     67  F   UNL A   1      37.948  30.328  36.324  1.00  0.00    -0.206 F 
ATOM     68  C   UNL A   1      38.539  33.558  37.857  1.00  0.00     0.006 A 
ENDBRANCH  47  61
BRANCH  48  69
ATOM     69  C   UNL A   1      41.843  27.060  27.442  1.00  0.00     0.057 A 
ATOM     70  C   UNL A   1      41.372  25.757  27.235  1.00  0.00     0.134 A 
ATOM     71  C   UNL A   1      42.769  27.562  26.520  1.00  0.00     0.134 A 
ATOM     72  F   UNL A   1      40.512  25.204  28.103  1.00  0.00    -0.206 F 
ATOM     73  C   UNL A   1      41.826  24.974  26.171  1.00  0.00     0.040 A 
ATOM     74  C   UNL A   1      43.214  26.799  25.439  1.00  0.00     0.040 A 
ATOM     75  F   UNL A   1      43.271  28.797  26.670  1.00  0.00    -0.206 F 
ATOM     76  C   UNL A   1      42.749  25.496  25.267  1.00  0.00     0.006 A 
ENDBRANCH  48  69
BRANCH  60  77
ATOM     77  C   UNL A   1      44.544  27.463  33.836  1.00  0.00     0.057 A 
ATOM     78  C   UNL A   1      44.445  26.209  34.452  1.00  0.00     0.134 A 
ATOM     79  C   UNL A   1      45.809  28.064  33.795  1.00  0.00     0.134 A 
ATOM     80  F   UNL A   1      43.261  25.585  34.538  1.00  0.00    -0.206 F 
ATOM     81  C   UNL A   1      45.561  25.582  35.013  1.00  0.00     0.040 A 
ATOM     82  C   UNL A   1      46.935  27.438  34.332  1.00  0.00     0.040 A 
ATOM     83  F   UNL A   1      45.974  29.263  33.215  1.00  0.00    -0.206 F 
ATOM     84  C   UNL A   1      46.811  26.193  34.945  1.00  0.00     0.006 A 
ENDBRANCH  60  77
ENDBRANCH  34  35
ENDBRANCH  27  29
ENDBRANCH  26  27
ENDBRANCH  25  26
ENDBRANCH  24  25
ENDBRANCH  23  24
ENDBRANCH  22  23
ENDBRANCH   1  22
TORSDOF 20
ENDMDL
MODEL 2
REMARK VINA RESULT:      -9.8      3.048      8.064
REMARK SMILES CC[C@H](NC(=O)c1ccc(C)nc1)C(=O)OCCOCCOCCOC(=O)c1ccc(-c2c3nc(c(-c4c(F)cccc4F)c4ccc([nH]4)c(-c4c(F)cccc4F)c4nc(c(-c5c(F)cccc5F)c5ccc2[nH]5)C=C4)C=C3)cc1
REMARK SMILES IDX 20 1 19 2 18 3 17 4 16 5 14 6 15 7 3 8 2 9 1 10 4 11 5 12
REMARK SMILES IDX 6 14 7 15 8 16 13 17 9 18 12 19 10 20 11 21 21 22 22 23
REMARK SMILES IDX 23 24 24 25 25 26 26 27 27 28 28 29 29 30 81 31 30 32 80 33
REMARK SMILES IDX 31 34 32 35 33 36 74 37 34 38 79 39 73 40 75 41 35 42 78 43
REMARK SMILES IDX 72 44 71 45 36 47 62 48 45 49 61 50 46 51 49 52 60 53 76 54
REMARK SMILES IDX 47 55 48 56 59 58 77 59 50 60 37 61 38 62 43 63 39 64 40 65
REMARK SMILES IDX 42 66 44 67 41 68 63 69 64 70 69 71 65 72 66 73 68 74 70 75
REMARK SMILES IDX 67 76 51 77 52 78 57 79 53 80 54 81 56 82 58 83 55 84
REMARK H PARENT 4 13 75 46 49 57
REMARK Flexibility Score: inf
ROOT
ATOM      1  C   UNL A   1      39.977  20.083  25.867  1.00  0.00     0.188 C 
ENDROOT
BRANCH   1   2
ATOM      2  O   UNL A   1      38.885  19.352  25.313  1.00  0.00    -0.376 OA
BRANCH   2   3
ATOM      3  C   UNL A   1      37.713  20.087  24.977  1.00  0.00     0.202 C 
BRANCH   3   4
ATOM      4  C   UNL A   1      37.756  21.610  25.162  1.00  0.00     0.261 C 
BRANCH   4   5
ATOM      5  O   UNL A   1      36.463  22.254  25.120  1.00  0.00    -0.462 OA
BRANCH   5   6
ATOM      6  C   UNL A   1      36.087  22.662  23.873  1.00  0.00     0.328 C 
ATOM      7  O   UNL A   1      36.872  22.951  22.972  1.00  0.00    -0.250 OA
BRANCH   6   8
ATOM      8  C   UNL A   1      34.579  22.918  23.718  1.00  0.00     0.192 C 
BRANCH   8   9
ATOM      9  C   UNL A   1      34.404  24.349  23.132  1.00  0.00     0.033 C 
ATOM     10  C   UNL A   1      33.091  24.648  22.413  1.00  0.00     0.007 C 
ENDBRANCH   8   9
BRANCH   8  11
ATOM     11  N   UNL A   1      33.688  22.687  24.852  1.00  0.00    -0.339 N 
ATOM     12  C   UNL A   1      32.738  21.712  24.979  1.00  0.00     0.253 C 
ATOM     13  H   UNL A   1      33.784  23.304  25.613  1.00  0.00     0.164 HD
ATOM     14  O   UNL A   1      31.714  21.945  25.614  1.00  0.00    -0.269 OA
BRANCH  12  15
ATOM     15  C   UNL A   1      33.056  20.322  24.636  1.00  0.00     0.058 A 
ATOM     16  C   UNL A   1      32.286  19.779  23.621  1.00  0.00     0.017 A 
ATOM     17  C   UNL A   1      34.106  19.568  25.100  1.00  0.00     0.125 A 
ATOM     18  C   UNL A   1      32.544  18.514  23.117  1.00  0.00     0.024 A 
ATOM     19  N   UNL A   1      34.392  18.319  24.622  1.00  0.00    -0.261 NA
ATOM     20  C   UNL A   1      33.636  17.830  23.604  1.00  0.00     0.037 A 
ATOM     21  C   UNL A   1      34.028  16.541  22.940  1.00  0.00     0.066 C 
ENDBRANCH  12  15
ENDBRANCH   8  11
ENDBRANCH   6   8
ENDBRANCH   5   6
ENDBRANCH   4   5
ENDBRANCH   3   4
ENDBRANCH   2   3
ENDBRANCH   1   2
BRANCH   1  22
ATOM     22  C   UNL A   1      41.335  19.349  25.984  1.00  0.00     0.188 C 
BRANCH  22  23
ATOM     23  O   UNL A   1      42.221  19.852  26.991  1.00  0.00    -0.376 OA
BRANCH  23  24
ATOM     24  C   UNL A   1      42.606  21.231  26.895  1.00  0.00     0.202 C 
BRANCH  24  25
ATOM     25  C   UNL A   1      43.178  21.673  25.528  1.00  0.00     0.261 C 
BRANCH  25  26
ATOM     26  O   UNL A   1      42.652  22.983  25.163  1.00  0.00    -0.460 OA
BRANCH  26  27
ATOM     27  C   UNL A   1      43.552  24.011  25.256  1.00  0.00     0.338 C 
ATOM     28  O   UNL A   1      44.428  24.246  24.455  1.00  0.00    -0.246 OA
BRANCH  27  29
ATOM     29  C   UNL A   1      43.196  24.945  26.378  1.00  0.00     0.060 A 
ATOM     30  C   UNL A   1      42.299  24.480  27.351  1.00  0.00     0.016 A 
ATOM     31  C   UNL A   1      43.733  26.229  26.524  1.00  0.00     0.016 A 
ATOM     32  C   UNL A   1      41.960  25.269  28.466  1.00  0.00     0.010 A 
ATOM     33  C   UNL A   1      43.376  27.030  27.633  1.00  0.00     0.010 A 
ATOM     34  C   UNL A   1      42.480  26.563  28.614  1.00  0.00    -0.014 A 
BRANCH  34  35
ATOM     35  C   UNL A   1      41.921  27.476  29.666  1.00  0.00     0.031 A 
ATOM     36  C   UNL A   1      42.597  27.509  31.011  1.00  0.00     0.074 A 
ATOM     37  C   UNL A   1      40.872  28.302  29.472  1.00  0.00     0.049 A 
ATOM     38  N   UNL A   1      42.328  28.245  32.062  1.00  0.00    -0.248 NA
ATOM     39  C   UNL A   1      43.732  26.592  31.188  1.00  0.00     0.031 C 
ATOM     40  C   UNL A   1      40.123  28.430  28.235  1.00  0.00     0.029 A 
ATOM     41  N   UNL A   1      40.253  29.198  30.320  1.00  0.00    -0.354 N 
ATOM     42  C   UNL A   1      43.276  27.899  33.013  1.00  0.00     0.074 A 
ATOM     43  C   UNL A   1      44.101  26.860  32.430  1.00  0.00     0.031 C 
ATOM     44  C   UNL A   1      39.144  29.340  28.389  1.00  0.00     0.029 A 
ATOM     45  C   UNL A   1      39.183  29.857  29.756  1.00  0.00     0.049 A 
ATOM     46  H   UNL A   1      40.550  29.352  31.246  1.00  0.00     0.167 HD
ATOM     47  C   UNL A   1      43.458  28.397  34.259  1.00  0.00     0.037 A 
ATOM     48  C   UNL A   1      38.327  30.762  30.273  1.00  0.00     0.037 A 
ATOM     49  C   UNL A   1      42.627  29.386  34.889  1.00  0.00     0.049 A 
ATOM     50  C   UNL A   1      38.478  31.218  31.703  1.00  0.00     0.074 A 
ATOM     51  C   UNL A   1      42.729  29.908  36.167  1.00  0.00     0.029 A 
ATOM     52  N   UNL A   1      41.529  29.989  34.298  1.00  0.00    -0.354 N 
ATOM     53  N   UNL A   1      39.405  30.909  32.575  1.00  0.00    -0.248 NA
ATOM     54  C   UNL A   1      37.460  32.149  32.220  1.00  0.00     0.031 C 
ATOM     55  C   UNL A   1      41.666  30.795  36.366  1.00  0.00     0.029 A 
ATOM     56  C   UNL A   1      40.928  30.856  35.197  1.00  0.00     0.049 A 
ATOM     57  H   UNL A   1      41.222  29.825  33.377  1.00  0.00     0.167 HD
ATOM     58  C   UNL A   1      39.099  31.627  33.727  1.00  0.00     0.074 A 
ATOM     59  C   UNL A   1      37.908  32.395  33.444  1.00  0.00     0.031 C 
ATOM     60  C   UNL A   1      39.753  31.639  34.913  1.00  0.00     0.037 A 
BRANCH  47  61
ATOM     61  C   UNL A   1      44.605  27.830  35.033  1.00  0.00     0.057 A 
ATOM     62  C   UNL A   1      44.430  26.753  35.912  1.00  0.00     0.134 A 
ATOM     63  C   UNL A   1      45.884  28.387  34.928  1.00  0.00     0.134 A 
ATOM     64  F   UNL A   1      43.220  26.194  36.070  1.00  0.00    -0.206 F 
ATOM     65  C   UNL A   1      45.486  26.267  36.683  1.00  0.00     0.040 A 
ATOM     66  C   UNL A   1      46.952  27.896  35.679  1.00  0.00     0.040 A 
ATOM     67  F   UNL A   1      46.111  29.422  34.105  1.00  0.00    -0.206 F 
ATOM     68  C   UNL A   1      46.751  26.840  36.566  1.00  0.00     0.006 A 
ENDBRANCH  47  61
BRANCH  48  69
ATOM     69  C   UNL A   1      37.211  31.312  29.453  1.00  0.00     0.057 A 
ATOM     70  C   UNL A   1      36.063  30.553  29.189  1.00  0.00     0.134 A 
ATOM     71  C   UNL A   1      37.304  32.569  28.844  1.00  0.00     0.134 A 
ATOM     72  F   UNL A   1      35.930  29.325  29.711  1.00  0.00    -0.206 F 
ATOM     73  C   UNL A   1      35.062  31.014  28.331  1.00  0.00     0.040 A 
ATOM     74  C   UNL A   1      36.300  33.051  28.002  1.00  0.00     0.040 A 
ATOM     75  F   UNL A   1      38.385  33.338  29.042  1.00  0.00    -0.206 F 
ATOM     76  C   UNL A   1      35.178  32.268  27.736  1.00  0.00     0.006 A 
ENDBRANCH  48  69
BRANCH  60  77
ATOM     77  C   UNL A   1      39.226  32.536  35.994  1.00  0.00     0.057 A 
ATOM     78  C   UNL A   1      38.285  32.090  36.932  1.00  0.00     0.134 A 
ATOM     79  C   UNL A   1      39.712  33.841  36.139  1.00  0.00     0.134 A 
ATOM     80  F   UNL A   1      37.769  30.855  36.844  1.00  0.00    -0.206 F 
ATOM     81  C   UNL A   1      37.839  32.916  37.967  1.00  0.00     0.040 A 
ATOM     82  C   UNL A   1      39.290  34.669  37.182  1.00  0.00     0.040 A 
ATOM     83  F   UNL A   1      40.618  34.329  35.278  1.00  0.00    -0.206 F 
ATOM     84  C   UNL A   1      38.349  34.205  38.099  1.00  0.00     0.006 A 
ENDBRANCH  60  77
ENDBRANCH  34  35
ENDBRANCH  27  29
ENDBRANCH  26  27
ENDBRANCH  25  26
ENDBRANCH  24  25
ENDBRANCH  23  24
ENDBRANCH  22  23
ENDBRANCH   1  22
TORSDOF 20
ENDMDL
MODEL 3
REMARK VINA RESULT:      -9.7      1.356      2.034
REMARK SMILES CC[C@H](NC(=O)c1ccc(C)nc1)C(=O)OCCOCCOCCOC(=O)c1ccc(-c2c3nc(c(-c4c(F)cccc4F)c4ccc([nH]4)c(-c4c(F)cccc4F)c4nc(c(-c5c(F)cccc5F)c5ccc2[nH]5)C=C4)C=C3)cc1
REMARK SMILES IDX 20 1 19 2 18 3 17 4 16 5 14 6 15 7 3 8 2 9 1 10 4 11 5 12
REMARK SMILES IDX 6 14 7 15 8 16 13 17 9 18 12 19 10 20 11 21 21 22 22 23
REMARK SMILES IDX 23 24 24 25 25 26 26 27 27 28 28 29 29 30 81 31 30 32 80 33
REMARK SMILES IDX 31 34 32 35 33 36 74 37 34 38 79 39 73 40 75 41 35 42 78 43
REMARK SMILES IDX 72 44 71 45 36 47 62 48 45 49 61 50 46 51 49 52 60 53 76 54
REMARK SMILES IDX 47 55 48 56 59 58 77 59 50 60 37 61 38 62 43 63 39 64 40 65
REMARK SMILES IDX 42 66 44 67 41 68 63 69 64 70 69 71 65 72 66 73 68 74 70 75
REMARK SMILES IDX 67 76 51 77 52 78 57 79 53 80 54 81 56 82 58 83 55 84
REMARK H PARENT 4 13 75 46 49 57
REMARK Flexibility Score: inf
ROOT
ATOM      1  C   UNL A   1      32.448  29.029  24.846  1.00  0.00     0.188 C 
ENDROOT
BRANCH   1   2
ATOM      2  O   UNL A   1      33.478  28.455  25.649  1.00  0.00    -0.376 OA
BRANCH   2   3
ATOM      3  C   UNL A   1      33.105  27.402  26.532  1.00  0.00     0.202 C 
BRANCH   3   4
ATOM      4  C   UNL A   1      32.013  26.434  26.056  1.00  0.00     0.261 C 
BRANCH   4   5
ATOM      5  O   UNL A   1      31.838  25.271  26.895  1.00  0.00    -0.462 OA
BRANCH   5   6
ATOM      6  C   UNL A   1      30.934  24.369  26.413  1.00  0.00     0.328 C 
ATOM      7  O   UNL A   1      29.784  24.251  26.831  1.00  0.00    -0.250 OA
BRANCH   6   8
ATOM      8  C   UNL A   1      31.517  23.361  25.410  1.00  0.00     0.192 C 
BRANCH   8   9
ATOM      9  C   UNL A   1      30.908  23.682  24.015  1.00  0.00     0.033 C 
ATOM     10  C   UNL A   1      31.862  23.674  22.823  1.00  0.00     0.007 C 
ENDBRANCH   8   9
BRANCH   8  11
ATOM     11  N   UNL A   1      31.460  21.933  25.708  1.00  0.00    -0.339 N 
ATOM     12  C   UNL A   1      32.370  20.972  25.362  1.00  0.00     0.253 C 
ATOM     13  H   UNL A   1      30.676  21.625  26.218  1.00  0.00     0.164 HD
ATOM     14  O   UNL A   1      31.984  19.832  25.120  1.00  0.00    -0.269 OA
BRANCH  12  15
ATOM     15  C   UNL A   1      33.803  21.205  25.569  1.00  0.00     0.058 A 
ATOM     16  C   UNL A   1      34.640  20.299  24.939  1.00  0.00     0.017 A 
ATOM     17  C   UNL A   1      34.392  22.281  26.186  1.00  0.00     0.125 A 
ATOM     18  C   UNL A   1      36.017  20.456  24.958  1.00  0.00     0.024 A 
ATOM     19  N   UNL A   1      35.746  22.469  26.219  1.00  0.00    -0.261 NA
ATOM     20  C   UNL A   1      36.536  21.580  25.563  1.00  0.00     0.037 A 
ATOM     21  C   UNL A   1      38.008  21.848  25.432  1.00  0.00     0.066 C 
ENDBRANCH  12  15
ENDBRANCH   8  11
ENDBRANCH   6   8
ENDBRANCH   5   6
ENDBRANCH   4   5
ENDBRANCH   3   4
ENDBRANCH   2   3
ENDBRANCH   1   2
BRANCH   1  22
ATOM     22  C   UNL A   1      31.518  30.066  25.521  1.00  0.00     0.188 C 
BRANCH  22  23
ATOM     23  O   UNL A   1      32.104  30.804  26.601  1.00  0.00    -0.376 OA
BRANCH  23  24
ATOM     24  C   UNL A   1      31.638  32.146  26.805  1.00  0.00     0.202 C 
BRANCH  24  25
ATOM     25  C   UNL A   1      32.717  33.175  27.218  1.00  0.00     0.261 C 
BRANCH  25  26
ATOM     26  O   UNL A   1      32.115  34.253  27.993  1.00  0.00    -0.460 OA
BRANCH  26  27
ATOM     27  C   UNL A   1      32.995  34.973  28.756  1.00  0.00     0.338 C 
ATOM     28  O   UNL A   1      32.771  36.060  29.241  1.00  0.00    -0.246 OA
BRANCH  27  29
ATOM     29  C   UNL A   1      34.214  34.161  29.094  1.00  0.00     0.060 A 
ATOM     30  C   UNL A   1      34.039  33.039  29.916  1.00  0.00     0.016 A 
ATOM     31  C   UNL A   1      35.496  34.440  28.608  1.00  0.00     0.016 A 
ATOM     32  C   UNL A   1      35.117  32.191  30.231  1.00  0.00     0.010 A 
ATOM     33  C   UNL A   1      36.583  33.601  28.942  1.00  0.00     0.010 A 
ATOM     34  C   UNL A   1      36.409  32.470  29.763  1.00  0.00    -0.014 A 
BRANCH  34  35
ATOM     35  C   UNL A   1      37.581  31.705  30.307  1.00  0.00     0.031 A 
ATOM     36  C   UNL A   1      38.002  31.964  31.729  1.00  0.00     0.074 A 
ATOM     37  C   UNL A   1      38.259  30.767  29.614  1.00  0.00     0.049 A 
ATOM     38  N   UNL A   1      38.950  31.399  32.434  1.00  0.00    -0.248 NA
ATOM     39  C   UNL A   1      37.244  32.996  32.450  1.00  0.00     0.031 C 
ATOM     40  C   UNL A   1      37.974  30.362  28.250  1.00  0.00     0.029 A 
ATOM     41  N   UNL A   1      39.335  29.978  29.968  1.00  0.00    -0.354 N 
ATOM     42  C   UNL A   1      38.885  31.986  33.688  1.00  0.00     0.074 A 
ATOM     43  C   UNL A   1      37.832  32.979  33.635  1.00  0.00     0.031 C 
ATOM     44  C   UNL A   1      38.842  29.408  27.868  1.00  0.00     0.029 A 
ATOM     45  C   UNL A   1      39.769  29.138  28.965  1.00  0.00     0.049 A 
ATOM     46  H   UNL A   1      39.755  30.012  30.858  1.00  0.00     0.167 HD
ATOM     47  C   UNL A   1      39.624  31.729  34.793  1.00  0.00     0.037 A 
ATOM     48  C   UNL A   1      40.793  28.262  28.925  1.00  0.00     0.037 A 
ATOM     49  C   UNL A   1      40.712  30.792  34.866  1.00  0.00     0.049 A 
ATOM     50  C   UNL A   1      41.678  28.074  30.132  1.00  0.00     0.074 A 
ATOM     51  C   UNL A   1      41.533  30.508  35.944  1.00  0.00     0.029 A 
ATOM     52  N   UNL A   1      41.145  30.000  33.815  1.00  0.00    -0.354 N 
ATOM     53  N   UNL A   1      41.576  28.610  31.323  1.00  0.00    -0.248 NA
ATOM     54  C   UNL A   1      42.823  27.158  29.987  1.00  0.00     0.031 C 
ATOM     55  C   UNL A   1      42.492  29.576  35.533  1.00  0.00     0.029 A 
ATOM     56  C   UNL A   1      42.241  29.249  34.212  1.00  0.00     0.049 A 
ATOM     57  H   UNL A   1      40.736  29.974  32.920  1.00  0.00     0.167 HD
ATOM     58  C   UNL A   1      42.621  28.076  32.072  1.00  0.00     0.074 A 
ATOM     59  C   UNL A   1      43.340  27.167  31.209  1.00  0.00     0.031 C 
ATOM     60  C   UNL A   1      42.949  28.327  33.362  1.00  0.00     0.037 A 
BRANCH  47  61
ATOM     61  C   UNL A   1      39.282  32.520  36.014  1.00  0.00     0.057 A 
ATOM     62  C   UNL A   1      39.884  33.759  36.272  1.00  0.00     0.134 A 
ATOM     63  C   UNL A   1      38.372  32.026  36.955  1.00  0.00     0.134 A 
ATOM     64  F   UNL A   1      40.781  34.270  35.416  1.00  0.00    -0.206 F 
ATOM     65  C   UNL A   1      39.614  34.466  37.444  1.00  0.00     0.040 A 
ATOM     66  C   UNL A   1      38.079  32.735  38.120  1.00  0.00     0.040 A 
ATOM     67  F   UNL A   1      37.767  30.845  36.764  1.00  0.00    -0.206 F 
ATOM     68  C   UNL A   1      38.708  33.954  38.371  1.00  0.00     0.006 A 
ENDBRANCH  47  61
BRANCH  48  69
ATOM     69  C   UNL A   1      41.082  27.481  27.689  1.00  0.00     0.057 A 
ATOM     70  C   UNL A   1      40.581  26.184  27.517  1.00  0.00     0.134 A 
ATOM     71  C   UNL A   1      41.934  27.978  26.696  1.00  0.00     0.134 A 
ATOM     72  F   UNL A   1      39.790  25.636  28.451  1.00  0.00    -0.206 F 
ATOM     73  C   UNL A   1      40.936  25.401  26.416  1.00  0.00     0.040 A 
ATOM     74  C   UNL A   1      42.279  27.215  25.579  1.00  0.00     0.040 A 
ATOM     75  F   UNL A   1      42.461  29.206  26.809  1.00  0.00    -0.206 F 
ATOM     76  C   UNL A   1      41.787  25.918  25.441  1.00  0.00     0.006 A 
ENDBRANCH  48  69
BRANCH  60  77
ATOM     77  C   UNL A   1      44.116  27.585  33.945  1.00  0.00     0.057 A 
ATOM     78  C   UNL A   1      45.408  28.127  33.952  1.00  0.00     0.134 A 
ATOM     79  C   UNL A   1      43.934  26.341  34.562  1.00  0.00     0.134 A 
ATOM     80  F   UNL A   1      45.653  29.309  33.367  1.00  0.00    -0.206 F 
ATOM     81  C   UNL A   1      46.478  27.453  34.544  1.00  0.00     0.040 A 
ATOM     82  C   UNL A   1      44.992  25.667  35.176  1.00  0.00     0.040 A 
ATOM     83  F   UNL A   1      42.722  25.768  34.595  1.00  0.00    -0.206 F 
ATOM     84  C   UNL A   1      46.269  26.224  35.166  1.00  0.00     0.006 A 
ENDBRANCH  60  77
ENDBRANCH  34  35
ENDBRANCH  27  29
ENDBRANCH  26  27
ENDBRANCH  25  26
ENDBRANCH  24  25
ENDBRANCH  23  24
ENDBRANCH  22  23
ENDBRANCH   1  22
TORSDOF 20
ENDMDL
