MODEL 1
REMARK VINA RESULT:     -11.4      0.000      0.000
REMARK SMILES Cc1ccccc1CCNc1ccc(C(=O)OCCOCCOCCOC(=O)c2ccc(-c3c4nc(c(-c5c(F)cccc5F)c5ccc([nH]5)c(-c5c(F)cccc5F)c5nc(c(-c6c(F)cccc6F)c6ccc3[nH]6)C=C5)C=C4)cc2)cc1N
REMARK SMILES IDX 21 1 20 2 19 3 18 4 17 5 15 6 16 7 14 8 11 9 12 10 84 11
REMARK SMILES IDX 13 12 83 13 10 14 9 16 8 17 7 18 1 19 2 20 3 21 4 22 6 23
REMARK SMILES IDX 5 24 85 25 22 28 23 29 24 30 25 31 26 32 27 33 28 34 29 35
REMARK SMILES IDX 30 36 82 37 31 38 81 39 32 40 33 41 34 42 75 43 35 44 80 45
REMARK SMILES IDX 74 46 76 47 36 48 79 49 73 50 72 51 37 53 63 54 46 55 62 56
REMARK SMILES IDX 47 57 50 58 61 59 77 60 48 61 49 62 60 64 78 65 51 66 38 67
REMARK SMILES IDX 39 68 44 69 40 70 41 71 43 72 45 73 42 74 64 75 65 76 70 77
REMARK SMILES IDX 66 78 67 79 69 80 71 81 68 82 52 83 53 84 58 85 54 86 55 87
REMARK SMILES IDX 57 88 59 89 56 90
REMARK H PARENT 10 15 85 26 85 27 76 52 50 63
REMARK Flexibility Score: inf
ROOT
ATOM      1  C   UNL A   1      40.546  21.106  26.371  1.00  0.00     0.188 C 
ENDROOT
BRANCH   1   2
ATOM      2  O   UNL A   1      39.221  21.510  26.029  1.00  0.00    -0.376 OA
BRANCH   2   3
ATOM      3  C   UNL A   1      38.709  22.767  26.489  1.00  0.00     0.202 C 
BRANCH   3   4
ATOM      4  C   UNL A   1      37.359  23.413  25.966  1.00  0.00     0.261 C 
BRANCH   4   5
ATOM      5  O   UNL A   1      37.106  23.796  24.530  1.00  0.00    -0.460 OA
BRANCH   5   6
ATOM      6  C   UNL A   1      36.277  23.276  23.472  1.00  0.00     0.338 C 
ATOM      7  O   UNL A   1      36.774  22.728  22.522  1.00  0.00    -0.246 OA
BRANCH   6   8
ATOM      8  C   UNL A   1      34.579  23.406  23.627  1.00  0.00     0.062 A 
ATOM      9  C   UNL A   1      31.685  23.941  23.826  1.00  0.00     0.057 A 
ATOM     10  C   UNL A   1      32.547  24.640  22.962  1.00  0.00     0.029 A 
ATOM     11  C   UNL A   1      32.242  22.910  24.559  1.00  0.00     0.056 A 
ATOM     12  C   UNL A   1      33.958  24.403  22.885  1.00  0.00     0.018 A 
ATOM     13  C   UNL A   1      33.616  22.633  24.360  1.00  0.00     0.043 A 
BRANCH   9  14
ATOM     14  N   UNL A   1      30.333  24.251  23.944  1.00  0.00    -0.383 N 
ATOM     15  H   UNL A   1      29.672  23.528  24.043  1.00  0.00     0.160 HD
BRANCH  14  16
ATOM     16  C   UNL A   1      29.886  25.641  23.921  1.00  0.00     0.117 C 
BRANCH  16  17
ATOM     17  C   UNL A   1      30.100  26.375  25.265  1.00  0.00     0.057 C 
BRANCH  17  18
ATOM     18  C   UNL A   1      31.375  27.199  25.318  1.00  0.00    -0.043 A 
ATOM     19  C   UNL A   1      30.452  29.131  23.877  1.00  0.00     0.044 C 
ATOM     20  C   UNL A   1      31.541  28.428  24.642  1.00  0.00    -0.048 A 
ATOM     21  C   UNL A   1      32.789  29.081  24.702  1.00  0.00     0.004 A 
ATOM     22  C   UNL A   1      33.856  28.536  25.412  1.00  0.00     0.000 A 
ATOM     23  C   UNL A   1      32.457  26.686  26.059  1.00  0.00     0.004 A 
ATOM     24  C   UNL A   1      33.687  27.342  26.099  1.00  0.00     0.000 A 
ENDBRANCH  17  18
ENDBRANCH  16  17
ENDBRANCH  14  16
ENDBRANCH   9  14
BRANCH  11  25
ATOM     25  N   UNL A   1      31.468  22.094  25.390  1.00  0.00    -0.397 N 
ATOM     26  H   UNL A   1      31.835  21.773  26.245  1.00  0.00     0.156 HD
ATOM     27  H   UNL A   1      30.555  21.841  25.119  1.00  0.00     0.156 HD
ENDBRANCH  11  25
ENDBRANCH   6   8
ENDBRANCH   5   6
ENDBRANCH   4   5
ENDBRANCH   3   4
ENDBRANCH   2   3
ENDBRANCH   1   2
BRANCH   1  28
ATOM     28  C   UNL A   1      40.948  19.664  26.319  1.00  0.00     0.188 C 
BRANCH  28  29
ATOM     29  O   UNL A   1      42.001  19.565  25.376  1.00  0.00    -0.376 OA
BRANCH  29  30
ATOM     30  C   UNL A   1      43.024  18.668  25.759  1.00  0.00     0.202 C 
BRANCH  30  31
ATOM     31  C   UNL A   1      44.356  19.000  25.069  1.00  0.00     0.261 C 
BRANCH  31  32
ATOM     32  O   UNL A   1      44.288  20.318  24.464  1.00  0.00    -0.460 OA
BRANCH  32  33
ATOM     33  C   UNL A   1      45.319  21.194  24.692  1.00  0.00     0.338 C 
ATOM     34  O   UNL A   1      46.410  20.884  25.156  1.00  0.00    -0.246 OA
BRANCH  33  35
ATOM     35  C   UNL A   1      44.833  22.609  24.551  1.00  0.00     0.060 A 
ATOM     36  C   UNL A   1      45.642  23.752  24.523  1.00  0.00     0.016 A 
ATOM     37  C   UNL A   1      43.541  22.825  24.875  1.00  0.00     0.016 A 
ATOM     38  C   UNL A   1      45.227  25.011  25.129  1.00  0.00     0.010 A 
ATOM     39  C   UNL A   1      43.289  23.955  25.652  1.00  0.00     0.010 A 
ATOM     40  C   UNL A   1      44.067  25.128  25.904  1.00  0.00    -0.014 A 
BRANCH  40  41
ATOM     41  C   UNL A   1      43.808  26.370  27.043  1.00  0.00     0.031 A 
ATOM     42  C   UNL A   1      42.473  27.335  27.414  1.00  0.00     0.074 A 
ATOM     43  C   UNL A   1      44.863  26.756  27.790  1.00  0.00     0.049 A 
ATOM     44  N   UNL A   1      42.330  28.641  27.239  1.00  0.00    -0.248 NA
ATOM     45  C   UNL A   1      41.138  26.883  27.913  1.00  0.00     0.031 C 
ATOM     46  C   UNL A   1      44.863  27.639  28.949  1.00  0.00     0.029 A 
ATOM     47  N   UNL A   1      46.215  26.450  27.623  1.00  0.00    -0.354 N 
ATOM     48  C   UNL A   1      40.997  28.906  27.682  1.00  0.00     0.074 A 
ATOM     49  C   UNL A   1      40.304  27.738  27.328  1.00  0.00     0.031 C 
ATOM     50  C   UNL A   1      46.122  28.064  29.163  1.00  0.00     0.029 A 
ATOM     51  C   UNL A   1      46.935  27.560  28.068  1.00  0.00     0.049 A 
ATOM     52  H   UNL A   1      46.588  25.614  27.262  1.00  0.00     0.167 HD
ATOM     53  C   UNL A   1      40.641  29.581  28.841  1.00  0.00     0.037 A 
ATOM     54  C   UNL A   1      47.710  28.254  27.194  1.00  0.00     0.037 A 
ATOM     55  C   UNL A   1      41.819  30.223  29.360  1.00  0.00     0.049 A 
ATOM     56  C   UNL A   1      47.179  29.657  27.121  1.00  0.00     0.074 A 
ATOM     57  C   UNL A   1      42.598  30.043  30.484  1.00  0.00     0.029 A 
ATOM     58  N   UNL A   1      42.536  31.006  28.484  1.00  0.00    -0.354 N 
ATOM     59  N   UNL A   1      45.939  29.955  27.418  1.00  0.00    -0.248 NA
ATOM     60  C   UNL A   1      47.996  30.841  26.890  1.00  0.00     0.031 C 
ATOM     61  C   UNL A   1      43.876  30.606  30.188  1.00  0.00     0.029 A 
ATOM     62  C   UNL A   1      43.829  31.153  28.913  1.00  0.00     0.049 A 
ATOM     63  H   UNL A   1      42.169  31.405  27.662  1.00  0.00     0.167 HD
ATOM     64  C   UNL A   1      45.827  31.303  27.568  1.00  0.00     0.074 A 
ATOM     65  C   UNL A   1      47.119  31.823  27.163  1.00  0.00     0.031 C 
ATOM     66  C   UNL A   1      44.722  31.919  28.069  1.00  0.00     0.037 A 
BRANCH  53  67
ATOM     67  C   UNL A   1      39.320  29.437  29.703  1.00  0.00     0.057 A 
ATOM     68  C   UNL A   1      38.211  30.261  29.399  1.00  0.00     0.134 A 
ATOM     69  C   UNL A   1      39.057  28.609  30.834  1.00  0.00     0.134 A 
ATOM     70  F   UNL A   1      38.258  31.129  28.378  1.00  0.00    -0.206 F 
ATOM     71  C   UNL A   1      36.994  30.258  30.125  1.00  0.00     0.040 A 
ATOM     72  C   UNL A   1      37.828  28.556  31.528  1.00  0.00     0.040 A 
ATOM     73  F   UNL A   1      39.968  27.838  31.427  1.00  0.00    -0.206 F 
ATOM     74  C   UNL A   1      36.789  29.389  31.182  1.00  0.00     0.006 A 
ENDBRANCH  53  67
BRANCH  54  75
ATOM     75  C   UNL A   1      48.364  27.368  26.177  1.00  0.00     0.057 A 
ATOM     76  C   UNL A   1      47.856  27.451  24.855  1.00  0.00     0.134 A 
ATOM     77  C   UNL A   1      49.627  26.787  26.305  1.00  0.00     0.134 A 
ATOM     78  F   UNL A   1      46.642  27.985  24.636  1.00  0.00    -0.206 F 
ATOM     79  C   UNL A   1      48.616  27.137  23.722  1.00  0.00     0.040 A 
ATOM     80  C   UNL A   1      50.383  26.414  25.171  1.00  0.00     0.040 A 
ATOM     81  F   UNL A   1      50.231  26.716  27.500  1.00  0.00    -0.206 F 
ATOM     82  C   UNL A   1      49.898  26.635  23.878  1.00  0.00     0.006 A 
ENDBRANCH  54  75
BRANCH  66  83
ATOM     83  C   UNL A   1      44.323  33.322  27.709  1.00  0.00     0.057 A 
ATOM     84  C   UNL A   1      43.941  33.681  26.409  1.00  0.00     0.134 A 
ATOM     85  C   UNL A   1      44.039  34.272  28.716  1.00  0.00     0.134 A 
ATOM     86  F   UNL A   1      44.043  32.825  25.383  1.00  0.00    -0.206 F 
ATOM     87  C   UNL A   1      43.362  34.917  26.121  1.00  0.00     0.040 A 
ATOM     88  C   UNL A   1      43.391  35.476  28.448  1.00  0.00     0.040 A 
ATOM     89  F   UNL A   1      44.319  34.039  30.008  1.00  0.00    -0.206 F 
ATOM     90  C   UNL A   1      43.067  35.810  27.143  1.00  0.00     0.006 A 
ENDBRANCH  66  83
ENDBRANCH  40  41
ENDBRANCH  33  35
ENDBRANCH  32  33
ENDBRANCH  31  32
ENDBRANCH  30  31
ENDBRANCH  29  30
ENDBRANCH  28  29
ENDBRANCH   1  28
TORSDOF 22
ENDMDL
MODEL 2
REMARK VINA RESULT:     -10.8      4.546      9.736
REMARK SMILES Cc1ccccc1CCNc1ccc(C(=O)OCCOCCOCCOC(=O)c2ccc(-c3c4nc(c(-c5c(F)cccc5F)c5ccc([nH]5)c(-c5c(F)cccc5F)c5nc(c(-c6c(F)cccc6F)c6ccc3[nH]6)C=C5)C=C4)cc2)cc1N
REMARK SMILES IDX 21 1 20 2 19 3 18 4 17 5 15 6 16 7 14 8 11 9 12 10 84 11
REMARK SMILES IDX 13 12 83 13 10 14 9 16 8 17 7 18 1 19 2 20 3 21 4 22 6 23
REMARK SMILES IDX 5 24 85 25 22 28 23 29 24 30 25 31 26 32 27 33 28 34 29 35
REMARK SMILES IDX 30 36 82 37 31 38 81 39 32 40 33 41 34 42 75 43 35 44 80 45
REMARK SMILES IDX 74 46 76 47 36 48 79 49 73 50 72 51 37 53 63 54 46 55 62 56
REMARK SMILES IDX 47 57 50 58 61 59 77 60 48 61 49 62 60 64 78 65 51 66 38 67
REMARK SMILES IDX 39 68 44 69 40 70 41 71 43 72 45 73 42 74 64 75 65 76 70 77
REMARK SMILES IDX 66 78 67 79 69 80 71 81 68 82 52 83 53 84 58 85 54 86 55 87
REMARK SMILES IDX 57 88 59 89 56 90
REMARK H PARENT 10 15 85 26 85 27 76 52 50 63
REMARK Flexibility Score: inf
ROOT
ATOM      1  C   UNL A   1      33.218  33.502  28.185  1.00  0.00     0.188 C 
ENDROOT
BRANCH   1   2
ATOM      2  O   UNL A   1      33.496  32.213  27.640  1.00  0.00    -0.376 OA
BRANCH   2   3
ATOM      3  C   UNL A   1      32.485  31.506  26.909  1.00  0.00     0.202 C 
BRANCH   3   4
ATOM      4  C   UNL A   1      32.334  29.928  26.917  1.00  0.00     0.261 C 
BRANCH   4   5
ATOM      5  O   UNL A   1      31.476  29.156  25.947  1.00  0.00    -0.460 OA
BRANCH   5   6
ATOM      6  C   UNL A   1      31.703  28.057  25.043  1.00  0.00     0.338 C 
ATOM      7  O   UNL A   1      31.896  28.260  23.872  1.00  0.00    -0.246 OA
BRANCH   6   8
ATOM      8  C   UNL A   1      31.748  26.471  25.682  1.00  0.00     0.062 A 
ATOM      9  C   UNL A   1      32.101  23.698  26.625  1.00  0.00     0.057 A 
ATOM     10  C   UNL A   1      33.172  24.568  26.350  1.00  0.00     0.029 A 
ATOM     11  C   UNL A   1      30.828  24.221  26.502  1.00  0.00     0.056 A 
ATOM     12  C   UNL A   1      33.003  25.905  25.862  1.00  0.00     0.018 A 
ATOM     13  C   UNL A   1      30.713  25.584  26.135  1.00  0.00     0.043 A 
BRANCH   9  14
ATOM     14  N   UNL A   1      32.295  22.376  27.014  1.00  0.00    -0.383 N 
ATOM     15  H   UNL A   1      31.525  21.833  27.300  1.00  0.00     0.160 HD
BRANCH  14  16
ATOM     16  C   UNL A   1      33.631  21.787  27.002  1.00  0.00     0.117 C 
BRANCH  16  17
ATOM     17  C   UNL A   1      33.906  20.918  25.753  1.00  0.00     0.057 C 
BRANCH  17  18
ATOM     18  C   UNL A   1      33.762  21.669  24.440  1.00  0.00    -0.043 A 
ATOM     19  C   UNL A   1      36.062  22.831  24.594  1.00  0.00     0.044 C 
ATOM     20  C   UNL A   1      34.727  22.574  23.947  1.00  0.00    -0.048 A 
ATOM     21  C   UNL A   1      34.466  23.270  22.749  1.00  0.00     0.004 A 
ATOM     22  C   UNL A   1      33.277  23.082  22.049  1.00  0.00     0.000 A 
ATOM     23  C   UNL A   1      32.583  21.468  23.696  1.00  0.00     0.004 A 
ATOM     24  C   UNL A   1      32.339  22.173  22.518  1.00  0.00     0.000 A 
ENDBRANCH  17  18
ENDBRANCH  16  17
ENDBRANCH  14  16
ENDBRANCH   9  14
BRANCH  11  25
ATOM     25  N   UNL A   1      29.690  23.477  26.827  1.00  0.00    -0.397 N 
ATOM     26  H   UNL A   1      29.496  22.639  26.347  1.00  0.00     0.156 HD
ATOM     27  H   UNL A   1      29.082  23.790  27.536  1.00  0.00     0.156 HD
ENDBRANCH  11  25
ENDBRANCH   6   8
ENDBRANCH   5   6
ENDBRANCH   4   5
ENDBRANCH   3   4
ENDBRANCH   2   3
ENDBRANCH   1   2
BRANCH   1  28
ATOM     28  C   UNL A   1      34.287  34.292  28.876  1.00  0.00     0.188 C 
BRANCH  28  29
ATOM     29  O   UNL A   1      33.970  34.291  30.258  1.00  0.00    -0.376 OA
BRANCH  29  30
ATOM     30  C   UNL A   1      34.404  33.131  30.939  1.00  0.00     0.202 C 
BRANCH  30  31
ATOM     31  C   UNL A   1      35.888  32.837  30.667  1.00  0.00     0.261 C 
BRANCH  31  32
ATOM     32  O   UNL A   1      36.034  31.519  30.077  1.00  0.00    -0.460 OA
BRANCH  32  33
ATOM     33  C   UNL A   1      36.753  31.401  28.914  1.00  0.00     0.338 C 
ATOM     34  O   UNL A   1      36.779  32.239  28.021  1.00  0.00    -0.246 OA
BRANCH  33  35
ATOM     35  C   UNL A   1      37.276  30.000  28.773  1.00  0.00     0.060 A 
ATOM     36  C   UNL A   1      37.585  29.133  29.828  1.00  0.00     0.016 A 
ATOM     37  C   UNL A   1      37.862  29.703  27.594  1.00  0.00     0.016 A 
ATOM     38  C   UNL A   1      38.707  28.204  29.766  1.00  0.00     0.010 A 
ATOM     39  C   UNL A   1      39.060  28.993  27.670  1.00  0.00     0.010 A 
ATOM     40  C   UNL A   1      39.637  28.214  28.720  1.00  0.00    -0.014 A 
BRANCH  40  41
ATOM     41  C   UNL A   1      41.207  27.560  28.841  1.00  0.00     0.031 A 
ATOM     42  C   UNL A   1      41.869  26.065  28.418  1.00  0.00     0.074 A 
ATOM     43  C   UNL A   1      42.148  28.313  29.447  1.00  0.00     0.049 A 
ATOM     44  N   UNL A   1      42.344  25.122  29.219  1.00  0.00    -0.248 NA
ATOM     45  C   UNL A   1      41.946  25.460  27.053  1.00  0.00     0.031 C 
ATOM     46  C   UNL A   1      43.585  28.075  29.502  1.00  0.00     0.029 A 
ATOM     47  N   UNL A   1      41.988  29.474  30.206  1.00  0.00    -0.354 N 
ATOM     48  C   UNL A   1      42.725  24.071  28.328  1.00  0.00     0.074 A 
ATOM     49  C   UNL A   1      41.776  24.165  27.298  1.00  0.00     0.031 C 
ATOM     50  C   UNL A   1      44.104  28.821  30.495  1.00  0.00     0.029 A 
ATOM     51  C   UNL A   1      42.990  29.458  31.178  1.00  0.00     0.049 A 
ATOM     52  H   UNL A   1      41.302  30.168  30.080  1.00  0.00     0.167 HD
ATOM     53  C   UNL A   1      44.024  23.691  28.021  1.00  0.00     0.037 A 
ATOM     54  C   UNL A   1      42.651  29.397  32.492  1.00  0.00     0.037 A 
ATOM     55  C   UNL A   1      44.906  24.323  28.966  1.00  0.00     0.049 A 
ATOM     56  C   UNL A   1      43.224  28.129  33.058  1.00  0.00     0.074 A 
ATOM     57  C   UNL A   1      45.868  25.308  28.876  1.00  0.00     0.029 A 
ATOM     58  N   UNL A   1      44.603  24.164  30.298  1.00  0.00    -0.354 N 
ATOM     59  N   UNL A   1      43.503  27.090  32.311  1.00  0.00    -0.248 NA
ATOM     60  C   UNL A   1      43.686  27.969  34.430  1.00  0.00     0.031 C 
ATOM     61  C   UNL A   1      46.015  25.854  30.187  1.00  0.00     0.029 A 
ATOM     62  C   UNL A   1      45.175  25.160  31.047  1.00  0.00     0.049 A 
ATOM     63  H   UNL A   1      44.050  23.435  30.664  1.00  0.00     0.167 HD
ATOM     64  C   UNL A   1      44.284  26.229  33.019  1.00  0.00     0.074 A 
ATOM     65  C   UNL A   1      44.317  26.783  34.358  1.00  0.00     0.031 C 
ATOM     66  C   UNL A   1      44.910  25.152  32.471  1.00  0.00     0.037 A 
BRANCH  53  67
ATOM     67  C   UNL A   1      44.568  23.005  26.700  1.00  0.00     0.057 A 
ATOM     68  C   UNL A   1      44.025  21.760  26.304  1.00  0.00     0.134 A 
ATOM     69  C   UNL A   1      45.609  23.422  25.820  1.00  0.00     0.134 A 
ATOM     70  F   UNL A   1      43.042  21.181  27.009  1.00  0.00    -0.206 F 
ATOM     71  C   UNL A   1      44.459  21.027  25.172  1.00  0.00     0.040 A 
ATOM     72  C   UNL A   1      46.009  22.728  24.657  1.00  0.00     0.040 A 
ATOM     73  F   UNL A   1      46.390  24.481  26.030  1.00  0.00    -0.206 F 
ATOM     74  C   UNL A   1      45.441  21.518  24.330  1.00  0.00     0.006 A 
ENDBRANCH  53  67
BRANCH  54  75
ATOM     75  C   UNL A   1      41.401  30.166  32.800  1.00  0.00     0.057 A 
ATOM     76  C   UNL A   1      40.233  29.394  33.036  1.00  0.00     0.134 A 
ATOM     77  C   UNL A   1      41.354  31.486  33.250  1.00  0.00     0.134 A 
ATOM     78  F   UNL A   1      40.182  28.115  32.626  1.00  0.00    -0.206 F 
ATOM     79  C   UNL A   1      39.161  29.847  33.813  1.00  0.00     0.040 A 
ATOM     80  C   UNL A   1      40.253  31.973  33.990  1.00  0.00     0.040 A 
ATOM     81  F   UNL A   1      42.424  32.287  33.139  1.00  0.00    -0.206 F 
ATOM     82  C   UNL A   1      39.179  31.139  34.313  1.00  0.00     0.006 A 
ENDBRANCH  54  75
BRANCH  66  83
ATOM     83  C   UNL A   1      45.246  23.910  33.245  1.00  0.00     0.057 A 
ATOM     84  C   UNL A   1      46.449  23.770  33.950  1.00  0.00     0.134 A 
ATOM     85  C   UNL A   1      44.251  22.949  33.535  1.00  0.00     0.134 A 
ATOM     86  F   UNL A   1      47.429  24.681  33.860  1.00  0.00    -0.206 F 
ATOM     87  C   UNL A   1      46.669  22.721  34.843  1.00  0.00     0.040 A 
ATOM     88  C   UNL A   1      44.434  21.944  34.482  1.00  0.00     0.040 A 
ATOM     89  F   UNL A   1      43.040  22.988  32.958  1.00  0.00    -0.206 F 
ATOM     90  C   UNL A   1      45.654  21.816  35.127  1.00  0.00     0.006 A 
ENDBRANCH  66  83
ENDBRANCH  40  41
ENDBRANCH  33  35
ENDBRANCH  32  33
ENDBRANCH  31  32
ENDBRANCH  30  31
ENDBRANCH  29  30
ENDBRANCH  28  29
ENDBRANCH   1  28
TORSDOF 22
ENDMDL
MODEL 3
REMARK VINA RESULT:     -10.8      5.459     10.871
REMARK SMILES Cc1ccccc1CCNc1ccc(C(=O)OCCOCCOCCOC(=O)c2ccc(-c3c4nc(c(-c5c(F)cccc5F)c5ccc([nH]5)c(-c5c(F)cccc5F)c5nc(c(-c6c(F)cccc6F)c6ccc3[nH]6)C=C5)C=C4)cc2)cc1N
REMARK SMILES IDX 21 1 20 2 19 3 18 4 17 5 15 6 16 7 14 8 11 9 12 10 84 11
REMARK SMILES IDX 13 12 83 13 10 14 9 16 8 17 7 18 1 19 2 20 3 21 4 22 6 23
REMARK SMILES IDX 5 24 85 25 22 28 23 29 24 30 25 31 26 32 27 33 28 34 29 35
REMARK SMILES IDX 30 36 82 37 31 38 81 39 32 40 33 41 34 42 75 43 35 44 80 45
REMARK SMILES IDX 74 46 76 47 36 48 79 49 73 50 72 51 37 53 63 54 46 55 62 56
REMARK SMILES IDX 47 57 50 58 61 59 77 60 48 61 49 62 60 64 78 65 51 66 38 67
REMARK SMILES IDX 39 68 44 69 40 70 41 71 43 72 45 73 42 74 64 75 65 76 70 77
REMARK SMILES IDX 66 78 67 79 69 80 71 81 68 82 52 83 53 84 58 85 54 86 55 87
REMARK SMILES IDX 57 88 59 89 56 90
REMARK H PARENT 10 15 85 26 85 27 76 52 50 63
REMARK Flexibility Score: inf
ROOT
ATOM      1  C   UNL A   1      33.595  35.508  29.128  1.00  0.00     0.188 C 
ENDROOT
BRANCH   1   2
ATOM      2  O   UNL A   1      32.609  34.526  28.813  1.00  0.00    -0.376 OA
BRANCH   2   3
ATOM      3  C   UNL A   1      32.869  33.542  27.803  1.00  0.00     0.202 C 
BRANCH   3   4
ATOM      4  C   UNL A   1      34.129  32.579  27.816  1.00  0.00     0.261 C 
BRANCH   4   5
ATOM      5  O   UNL A   1      34.097  31.150  28.294  1.00  0.00    -0.460 OA
BRANCH   5   6
ATOM      6  C   UNL A   1      34.549  29.890  27.760  1.00  0.00     0.338 C 
ATOM      7  O   UNL A   1      35.613  29.435  28.089  1.00  0.00    -0.246 OA
BRANCH   6   8
ATOM      8  C   UNL A   1      33.515  29.036  26.699  1.00  0.00     0.062 A 
ATOM      9  C   UNL A   1      31.741  27.821  24.680  1.00  0.00     0.057 A 
ATOM     10  C   UNL A   1      32.756  28.743  24.368  1.00  0.00     0.029 A 
ATOM     11  C   UNL A   1      31.637  27.434  26.002  1.00  0.00     0.056 A 
ATOM     12  C   UNL A   1      33.600  29.357  25.351  1.00  0.00     0.018 A 
ATOM     13  C   UNL A   1      32.571  27.976  26.918  1.00  0.00     0.043 A 
BRANCH   9  14
ATOM     14  N   UNL A   1      30.879  27.306  23.716  1.00  0.00    -0.383 N 
ATOM     15  H   UNL A   1      30.640  26.351  23.733  1.00  0.00     0.160 HD
BRANCH  14  16
ATOM     16  C   UNL A   1      30.324  28.171  22.677  1.00  0.00     0.117 C 
BRANCH  16  17
ATOM     17  C   UNL A   1      28.948  28.768  23.050  1.00  0.00     0.057 C 
BRANCH  17  18
ATOM     18  C   UNL A   1      28.725  30.173  22.517  1.00  0.00    -0.043 A 
ATOM     19  C   UNL A   1      29.643  31.358  24.619  1.00  0.00     0.044 C 
ATOM     20  C   UNL A   1      28.999  31.343  23.258  1.00  0.00    -0.048 A 
ATOM     21  C   UNL A   1      28.693  32.599  22.696  1.00  0.00     0.004 A 
ATOM     22  C   UNL A   1      28.127  32.704  21.427  1.00  0.00     0.000 A 
ATOM     23  C   UNL A   1      28.186  30.305  21.223  1.00  0.00     0.004 A 
ATOM     24  C   UNL A   1      27.881  31.557  20.686  1.00  0.00     0.000 A 
ENDBRANCH  17  18
ENDBRANCH  16  17
ENDBRANCH  14  16
ENDBRANCH   9  14
BRANCH  11  25
ATOM     25  N   UNL A   1      30.719  26.464  26.417  1.00  0.00    -0.397 N 
ATOM     26  H   UNL A   1      30.969  25.512  26.404  1.00  0.00     0.156 HD
ATOM     27  H   UNL A   1      29.823  26.733  26.724  1.00  0.00     0.156 HD
ENDBRANCH  11  25
ENDBRANCH   6   8
ENDBRANCH   5   6
ENDBRANCH   4   5
ENDBRANCH   3   4
ENDBRANCH   2   3
ENDBRANCH   1   2
BRANCH   1  28
ATOM     28  C   UNL A   1      33.222  36.770  29.843  1.00  0.00     0.188 C 
BRANCH  28  29
ATOM     29  O   UNL A   1      32.458  36.390  30.975  1.00  0.00    -0.376 OA
BRANCH  29  30
ATOM     30  C   UNL A   1      32.949  36.913  32.193  1.00  0.00     0.202 C 
BRANCH  30  31
ATOM     31  C   UNL A   1      34.136  36.093  32.723  1.00  0.00     0.261 C 
BRANCH  31  32
ATOM     32  O   UNL A   1      33.764  34.695  32.837  1.00  0.00    -0.460 OA
BRANCH  32  33
ATOM     33  C   UNL A   1      34.492  33.767  32.136  1.00  0.00     0.338 C 
ATOM     34  O   UNL A   1      34.012  32.882  31.439  1.00  0.00    -0.246 OA
BRANCH  33  35
ATOM     35  C   UNL A   1      35.934  33.823  32.555  1.00  0.00     0.060 A 
ATOM     36  C   UNL A   1      36.983  34.368  31.805  1.00  0.00     0.016 A 
ATOM     37  C   UNL A   1      36.306  32.947  33.512  1.00  0.00     0.016 A 
ATOM     38  C   UNL A   1      38.321  33.790  31.806  1.00  0.00     0.010 A 
ATOM     39  C   UNL A   1      37.513  32.282  33.294  1.00  0.00     0.010 A 
ATOM     40  C   UNL A   1      38.615  32.573  32.433  1.00  0.00    -0.014 A 
BRANCH  40  41
ATOM     41  C   UNL A   1      39.961  31.604  32.039  1.00  0.00     0.031 A 
ATOM     42  C   UNL A   1      40.138  30.189  31.135  1.00  0.00     0.074 A 
ATOM     43  C   UNL A   1      41.150  31.943  32.579  1.00  0.00     0.049 A 
ATOM     44  N   UNL A   1      40.478  28.980  31.561  1.00  0.00    -0.248 NA
ATOM     45  C   UNL A   1      39.835  29.995  29.684  1.00  0.00     0.031 C 
ATOM     46  C   UNL A   1      42.466  31.411  32.252  1.00  0.00     0.029 A 
ATOM     47  N   UNL A   1      41.420  32.848  33.608  1.00  0.00    -0.354 N 
ATOM     48  C   UNL A   1      40.425  28.171  30.383  1.00  0.00     0.074 A 
ATOM     49  C   UNL A   1      39.379  28.747  29.646  1.00  0.00     0.031 C 
ATOM     50  C   UNL A   1      43.313  31.720  33.250  1.00  0.00     0.029 A 
ATOM     51  C   UNL A   1      42.527  32.351  34.298  1.00  0.00     0.049 A 
ATOM     52  H   UNL A   1      40.925  33.674  33.809  1.00  0.00     0.167 HD
ATOM     53  C   UNL A   1      41.516  27.636  29.711  1.00  0.00     0.037 A 
ATOM     54  C   UNL A   1      42.401  31.990  35.602  1.00  0.00     0.037 A 
ATOM     55  C   UNL A   1      42.671  27.778  30.556  1.00  0.00     0.049 A 
ATOM     56  C   UNL A   1      42.711  30.524  35.706  1.00  0.00     0.074 A 
ATOM     57  C   UNL A   1      43.827  28.529  30.489  1.00  0.00     0.029 A 
ATOM     58  N   UNL A   1      42.557  27.313  31.846  1.00  0.00    -0.354 N 
ATOM     59  N   UNL A   1      42.589  29.706  34.690  1.00  0.00    -0.248 NA
ATOM     60  C   UNL A   1      43.332  29.888  36.860  1.00  0.00     0.031 C 
ATOM     61  C   UNL A   1      44.319  28.637  31.825  1.00  0.00     0.029 A 
ATOM     62  C   UNL A   1      43.480  27.915  32.661  1.00  0.00     0.049 A 
ATOM     63  H   UNL A   1      41.902  26.639  32.142  1.00  0.00     0.167 HD
ATOM     64  C   UNL A   1      43.225  28.538  34.979  1.00  0.00     0.074 A 
ATOM     65  C   UNL A   1      43.615  28.669  36.368  1.00  0.00     0.031 C 
ATOM     66  C   UNL A   1      43.455  27.557  34.064  1.00  0.00     0.037 A 
BRANCH  53  67
ATOM     67  C   UNL A   1      41.643  27.257  28.178  1.00  0.00     0.057 A 
ATOM     68  C   UNL A   1      41.626  25.892  27.807  1.00  0.00     0.134 A 
ATOM     69  C   UNL A   1      41.837  28.101  27.045  1.00  0.00     0.134 A 
ATOM     70  F   UNL A   1      41.471  24.930  28.728  1.00  0.00    -0.206 F 
ATOM     71  C   UNL A   1      41.778  25.427  26.478  1.00  0.00     0.040 A 
ATOM     72  C   UNL A   1      41.931  27.651  25.710  1.00  0.00     0.040 A 
ATOM     73  F   UNL A   1      42.035  29.417  27.115  1.00  0.00    -0.206 F 
ATOM     74  C   UNL A   1      41.911  26.306  25.418  1.00  0.00     0.006 A 
ENDBRANCH  53  67
BRANCH  54  75
ATOM     75  C   UNL A   1      41.458  32.878  36.356  1.00  0.00     0.057 A 
ATOM     76  C   UNL A   1      41.971  34.138  36.759  1.00  0.00     0.134 A 
ATOM     77  C   UNL A   1      40.067  32.762  36.359  1.00  0.00     0.134 A 
ATOM     78  F   UNL A   1      43.300  34.338  36.800  1.00  0.00    -0.206 F 
ATOM     79  C   UNL A   1      41.162  35.258  36.985  1.00  0.00     0.040 A 
ATOM     80  C   UNL A   1      39.237  33.872  36.639  1.00  0.00     0.040 A 
ATOM     81  F   UNL A   1      39.472  31.638  35.935  1.00  0.00    -0.206 F 
ATOM     82  C   UNL A   1      39.785  35.131  36.903  1.00  0.00     0.006 A 
ENDBRANCH  54  75
BRANCH  66  83
ATOM     83  C   UNL A   1      43.581  26.105  34.425  1.00  0.00     0.057 A 
ATOM     84  C   UNL A   1      42.508  25.366  34.944  1.00  0.00     0.134 A 
ATOM     85  C   UNL A   1      44.692  25.347  33.990  1.00  0.00     0.134 A 
ATOM     86  F   UNL A   1      41.349  25.949  35.279  1.00  0.00    -0.206 F 
ATOM     87  C   UNL A   1      42.555  23.978  35.071  1.00  0.00     0.040 A 
ATOM     88  C   UNL A   1      44.716  23.955  34.041  1.00  0.00     0.040 A 
ATOM     89  F   UNL A   1      45.771  25.925  33.439  1.00  0.00    -0.206 F 
ATOM     90  C   UNL A   1      43.652  23.266  34.601  1.00  0.00     0.006 A 
ENDBRANCH  66  83
ENDBRANCH  40  41
ENDBRANCH  33  35
ENDBRANCH  32  33
ENDBRANCH  31  32
ENDBRANCH  30  31
ENDBRANCH  29  30
ENDBRANCH  28  29
ENDBRANCH   1  28
TORSDOF 22
ENDMDL
