MODEL 1
REMARK VINA RESULT:     -11.0      0.000      0.000
REMARK SMILES CC(C)CCn1nc(C(=O)OCCOCCOCCOC(=O)c2ccc(-c3c4nc(c(-c5c(F)cccc5F)c5ccc([nH]5)c(-c5c(F)cccc5F)c5nc(c(-c6c(F)cccc6F)c6ccc3[nH]6)C=C5)C=C4)cc2)c2c1CCN(C(=O)[C@@H]1CCc3nn(C)c(=O)n3C1)C2
REMARK SMILES IDX 15 1 14 2 13 3 12 4 11 5 9 6 10 7 8 8 6 9 7 10 78 11 77 12
REMARK SMILES IDX 79 13 95 14 80 15 81 16 5 17 4 18 2 19 1 20 3 21 82 22 83 23
REMARK SMILES IDX 84 24 85 25 94 26 86 27 93 28 87 29 91 30 88 31 89 32 92 33
REMARK SMILES IDX 90 34 16 35 17 36 18 37 19 38 20 39 21 40 22 41 23 42 24 43
REMARK SMILES IDX 76 44 25 45 75 46 26 47 27 48 28 49 69 50 29 51 74 52 68 53
REMARK SMILES IDX 70 54 30 55 73 56 67 57 66 58 31 60 57 61 40 62 56 63 41 64
REMARK SMILES IDX 44 65 55 66 71 67 42 68 43 69 54 71 72 72 45 73 32 74 33 75
REMARK SMILES IDX 38 76 34 77 35 78 37 79 39 80 36 81 58 82 59 83 64 84 60 85
REMARK SMILES IDX 61 86 63 87 65 88 62 89 46 90 47 91 52 92 48 93 49 94 51 95
REMARK SMILES IDX 53 96 50 97
REMARK H PARENT 70 59 44 70
REMARK Flexibility Score: inf
ROOT
ATOM      1  C   UNL A   1      39.578  23.047  26.886  1.00  0.00     0.188 C 
ENDROOT
BRANCH   1   2
ATOM      2  O   UNL A   1      38.769  24.074  26.327  1.00  0.00    -0.376 OA
BRANCH   2   3
ATOM      3  C   UNL A   1      37.350  24.019  26.432  1.00  0.00     0.202 C 
BRANCH   3   4
ATOM      4  C   UNL A   1      36.499  23.121  25.510  1.00  0.00     0.261 C 
BRANCH   4   5
ATOM      5  O   UNL A   1      36.090  21.872  26.070  1.00  0.00    -0.458 OA
BRANCH   5   6
ATOM      6  C   UNL A   1      34.798  21.779  26.510  1.00  0.00     0.359 C 
ATOM      7  O   UNL A   1      34.408  22.200  27.585  1.00  0.00    -0.244 OA
BRANCH   6   8
ATOM      8  C   UNL A   1      33.930  21.203  25.464  1.00  0.00     0.175 A 
ATOM      9  N   UNL A   1      32.891  19.723  24.290  1.00  0.00    -0.268 N 
ATOM     10  N   UNL A   1      33.752  19.869  25.325  1.00  0.00    -0.165 NA
ATOM     11  C   UNL A   1      32.612  20.922  23.712  1.00  0.00     0.046 A 
ATOM     12  C   UNL A   1      33.123  21.910  24.534  1.00  0.00     0.028 A 
ATOM     13  C   UNL A   1      31.982  21.243  22.419  1.00  0.00     0.078 C 
ATOM     14  C   UNL A   1      32.910  23.391  24.308  1.00  0.00     0.159 C 
ATOM     15  C   UNL A   1      32.584  22.597  22.023  1.00  0.00     0.126 C 
ATOM     16  N   UNL A   1      32.233  23.603  23.006  1.00  0.00    -0.338 N 
BRANCH   9  17
ATOM     17  C   UNL A   1      32.303  18.412  24.064  1.00  0.00     0.145 C 
BRANCH  17  18
ATOM     18  C   UNL A   1      32.432  17.350  25.165  1.00  0.00     0.027 C 
BRANCH  18  19
ATOM     19  C   UNL A   1      33.190  16.074  24.748  1.00  0.00    -0.016 C 
ATOM     20  C   UNL A   1      34.688  16.176  25.009  1.00  0.00     0.007 C 
ATOM     21  C   UNL A   1      32.608  14.854  25.472  1.00  0.00     0.007 C 
ENDBRANCH  18  19
ENDBRANCH  17  18
ENDBRANCH   9  17
BRANCH  16  22
ATOM     22  C   UNL A   1      31.312  24.623  22.865  1.00  0.00     0.227 C 
ATOM     23  O   UNL A   1      30.257  24.587  23.514  1.00  0.00    -0.274 OA
BRANCH  22  24
ATOM     24  C   UNL A   1      31.507  25.847  21.925  1.00  0.00     0.099 C 
ATOM     25  C   UNL A   1      32.891  26.049  21.291  1.00  0.00     0.023 C 
ATOM     26  C   UNL A   1      30.874  27.164  22.367  1.00  0.00     0.142 C 
ATOM     27  C   UNL A   1      33.841  27.004  22.009  1.00  0.00     0.078 C 
ATOM     28  N   UNL A   1      31.821  28.081  22.963  1.00  0.00    -0.278 N 
ATOM     29  C   UNL A   1      33.165  28.014  22.887  1.00  0.00     0.133 A 
ATOM     30  C   UNL A   1      31.539  28.896  24.034  1.00  0.00     0.345 A 
ATOM     31  N   UNL A   1      33.801  28.725  23.775  1.00  0.00    -0.155 NA
ATOM     32  N   UNL A   1      32.790  29.290  24.524  1.00  0.00    -0.216 N 
ATOM     33  O   UNL A   1      30.447  29.094  24.542  1.00  0.00    -0.246 OA
ATOM     34  C   UNL A   1      33.015  29.830  25.840  1.00  0.00     0.179 C 
ENDBRANCH  22  24
ENDBRANCH  16  22
ENDBRANCH   6   8
ENDBRANCH   5   6
ENDBRANCH   4   5
ENDBRANCH   3   4
ENDBRANCH   2   3
ENDBRANCH   1   2
BRANCH   1  35
ATOM     35  C   UNL A   1      39.821  21.734  26.107  1.00  0.00     0.188 C 
BRANCH  35  36
ATOM     36  O   UNL A   1      40.993  21.052  26.498  1.00  0.00    -0.376 OA
BRANCH  36  37
ATOM     37  C   UNL A   1      42.294  21.564  26.251  1.00  0.00     0.202 C 
BRANCH  37  38
ATOM     38  C   UNL A   1      42.539  22.859  25.472  1.00  0.00     0.261 C 
BRANCH  38  39
ATOM     39  O   UNL A   1      43.287  22.690  24.290  1.00  0.00    -0.460 OA
BRANCH  39  40
ATOM     40  C   UNL A   1      44.402  21.949  24.447  1.00  0.00     0.338 C 
ATOM     41  O   UNL A   1      44.536  20.759  24.242  1.00  0.00    -0.246 OA
BRANCH  40  42
ATOM     42  C   UNL A   1      45.471  22.841  24.924  1.00  0.00     0.060 A 
ATOM     43  C   UNL A   1      46.015  22.471  26.153  1.00  0.00     0.016 A 
ATOM     44  C   UNL A   1      45.411  24.167  24.482  1.00  0.00     0.016 A 
ATOM     45  C   UNL A   1      46.031  23.438  27.120  1.00  0.00     0.010 A 
ATOM     46  C   UNL A   1      45.400  25.126  25.449  1.00  0.00     0.010 A 
ATOM     47  C   UNL A   1      45.565  24.706  26.766  1.00  0.00    -0.014 A 
BRANCH  47  48
ATOM     48  C   UNL A   1      45.243  25.627  27.822  1.00  0.00     0.031 A 
ATOM     49  C   UNL A   1      46.381  26.505  28.126  1.00  0.00     0.074 A 
ATOM     50  C   UNL A   1      44.002  25.687  28.337  1.00  0.00     0.049 A 
ATOM     51  N   UNL A   1      47.157  26.454  29.156  1.00  0.00    -0.248 NA
ATOM     52  C   UNL A   1      46.879  27.358  27.033  1.00  0.00     0.031 C 
ATOM     53  C   UNL A   1      42.776  25.022  27.883  1.00  0.00     0.029 A 
ATOM     54  N   UNL A   1      43.562  26.484  29.344  1.00  0.00    -0.354 N 
ATOM     55  C   UNL A   1      48.104  27.445  28.932  1.00  0.00     0.074 A 
ATOM     56  C   UNL A   1      48.050  27.747  27.530  1.00  0.00     0.031 C 
ATOM     57  C   UNL A   1      41.705  25.629  28.447  1.00  0.00     0.029 A 
ATOM     58  C   UNL A   1      42.177  26.628  29.387  1.00  0.00     0.049 A 
ATOM     59  H   UNL A   1      44.166  26.921  29.987  1.00  0.00     0.167 HD
ATOM     60  C   UNL A   1      48.615  28.165  29.964  1.00  0.00     0.037 A 
ATOM     61  C   UNL A   1      41.540  27.613  30.072  1.00  0.00     0.037 A 
ATOM     62  C   UNL A   1      48.377  27.498  31.221  1.00  0.00     0.049 A 
ATOM     63  C   UNL A   1      42.516  28.139  31.072  1.00  0.00     0.074 A 
ATOM     64  C   UNL A   1      48.743  26.274  31.749  1.00  0.00     0.029 A 
ATOM     65  N   UNL A   1      47.318  27.936  31.981  1.00  0.00    -0.354 N 
ATOM     66  N   UNL A   1      42.958  27.436  32.083  1.00  0.00    -0.248 NA
ATOM     67  C   UNL A   1      43.388  29.226  30.642  1.00  0.00     0.031 C 
ATOM     68  C   UNL A   1      47.601  25.829  32.474  1.00  0.00     0.029 A 
ATOM     69  C   UNL A   1      46.632  26.833  32.415  1.00  0.00     0.049 A 
ATOM     70  H   UNL A   1      47.094  28.875  32.176  1.00  0.00     0.167 HD
ATOM     71  C   UNL A   1      44.318  27.716  32.146  1.00  0.00     0.074 A 
ATOM     72  C   UNL A   1      44.517  28.859  31.258  1.00  0.00     0.031 C 
ATOM     73  C   UNL A   1      45.209  26.819  32.664  1.00  0.00     0.037 A 
BRANCH  60  74
ATOM     74  C   UNL A   1      48.931  29.637  29.879  1.00  0.00     0.057 A 
ATOM     75  C   UNL A   1      50.199  30.070  30.300  1.00  0.00     0.134 A 
ATOM     76  C   UNL A   1      47.983  30.666  29.687  1.00  0.00     0.134 A 
ATOM     77  F   UNL A   1      51.191  29.191  30.513  1.00  0.00    -0.206 F 
ATOM     78  C   UNL A   1      50.469  31.407  30.604  1.00  0.00     0.040 A 
ATOM     79  C   UNL A   1      48.259  32.010  29.934  1.00  0.00     0.040 A 
ATOM     80  F   UNL A   1      46.710  30.438  29.345  1.00  0.00    -0.206 F 
ATOM     81  C   UNL A   1      49.494  32.382  30.433  1.00  0.00     0.006 A 
ENDBRANCH  60  74
BRANCH  61  82
ATOM     82  C   UNL A   1      40.337  28.368  29.650  1.00  0.00     0.057 A 
ATOM     83  C   UNL A   1      40.304  29.086  28.447  1.00  0.00     0.134 A 
ATOM     84  C   UNL A   1      39.097  28.196  30.295  1.00  0.00     0.134 A 
ATOM     85  F   UNL A   1      41.424  29.258  27.729  1.00  0.00    -0.206 F 
ATOM     86  C   UNL A   1      39.111  29.598  27.915  1.00  0.00     0.040 A 
ATOM     87  C   UNL A   1      37.902  28.704  29.778  1.00  0.00     0.040 A 
ATOM     88  F   UNL A   1      38.991  27.451  31.405  1.00  0.00    -0.206 F 
ATOM     89  C   UNL A   1      37.903  29.401  28.578  1.00  0.00     0.006 A 
ENDBRANCH  61  82
BRANCH  73  90
ATOM     90  C   UNL A   1      44.674  25.590  33.346  1.00  0.00     0.057 A 
ATOM     91  C   UNL A   1      44.168  25.582  34.655  1.00  0.00     0.134 A 
ATOM     92  C   UNL A   1      44.455  24.443  32.576  1.00  0.00     0.134 A 
ATOM     93  F   UNL A   1      44.247  26.669  35.432  1.00  0.00    -0.206 F 
ATOM     94  C   UNL A   1      43.491  24.475  35.177  1.00  0.00     0.040 A 
ATOM     95  C   UNL A   1      43.754  23.344  33.073  1.00  0.00     0.040 A 
ATOM     96  F   UNL A   1      44.860  24.403  31.296  1.00  0.00    -0.206 F 
ATOM     97  C   UNL A   1      43.271  23.356  34.380  1.00  0.00     0.006 A 
ENDBRANCH  73  90
ENDBRANCH  47  48
ENDBRANCH  40  42
ENDBRANCH  39  40
ENDBRANCH  38  39
ENDBRANCH  37  38
ENDBRANCH  36  37
ENDBRANCH  35  36
ENDBRANCH   1  35
TORSDOF 22
ENDMDL
MODEL 2
REMARK VINA RESULT:     -10.8      3.041      8.178
REMARK SMILES CC(C)CCn1nc(C(=O)OCCOCCOCCOC(=O)c2ccc(-c3c4nc(c(-c5c(F)cccc5F)c5ccc([nH]5)c(-c5c(F)cccc5F)c5nc(c(-c6c(F)cccc6F)c6ccc3[nH]6)C=C5)C=C4)cc2)c2c1CCN(C(=O)[C@@H]1CCc3nn(C)c(=O)n3C1)C2
REMARK SMILES IDX 15 1 14 2 13 3 12 4 11 5 9 6 10 7 8 8 6 9 7 10 78 11 77 12
REMARK SMILES IDX 79 13 95 14 80 15 81 16 5 17 4 18 2 19 1 20 3 21 82 22 83 23
REMARK SMILES IDX 84 24 85 25 94 26 86 27 93 28 87 29 91 30 88 31 89 32 92 33
REMARK SMILES IDX 90 34 16 35 17 36 18 37 19 38 20 39 21 40 22 41 23 42 24 43
REMARK SMILES IDX 76 44 25 45 75 46 26 47 27 48 28 49 69 50 29 51 74 52 68 53
REMARK SMILES IDX 70 54 30 55 73 56 67 57 66 58 31 60 57 61 40 62 56 63 41 64
REMARK SMILES IDX 44 65 55 66 71 67 42 68 43 69 54 71 72 72 45 73 32 74 33 75
REMARK SMILES IDX 38 76 34 77 35 78 37 79 39 80 36 81 58 82 59 83 64 84 60 85
REMARK SMILES IDX 61 86 63 87 65 88 62 89 46 90 47 91 52 92 48 93 49 94 51 95
REMARK SMILES IDX 53 96 50 97
REMARK H PARENT 70 59 44 70
REMARK Flexibility Score: inf
ROOT
ATOM      1  C   UNL A   1      36.276  30.491  29.184  1.00  0.00     0.188 C 
ENDROOT
BRANCH   1   2
ATOM      2  O   UNL A   1      35.246  30.278  28.227  1.00  0.00    -0.376 OA
BRANCH   2   3
ATOM      3  C   UNL A   1      34.279  31.290  27.965  1.00  0.00     0.202 C 
BRANCH   3   4
ATOM      4  C   UNL A   1      32.987  30.998  27.175  1.00  0.00     0.261 C 
BRANCH   4   5
ATOM      5  O   UNL A   1      32.701  29.617  26.947  1.00  0.00    -0.458 OA
BRANCH   5   6
ATOM      6  C   UNL A   1      32.996  29.115  25.709  1.00  0.00     0.359 C 
ATOM      7  O   UNL A   1      34.126  28.891  25.312  1.00  0.00    -0.244 OA
BRANCH   6   8
ATOM      8  C   UNL A   1      31.761  28.783  24.971  1.00  0.00     0.175 A 
ATOM      9  N   UNL A   1      29.936  29.062  23.858  1.00  0.00    -0.268 N 
ATOM     10  N   UNL A   1      30.937  29.734  24.476  1.00  0.00    -0.165 NA
ATOM     11  C   UNL A   1      30.057  27.722  24.048  1.00  0.00     0.046 A 
ATOM     12  C   UNL A   1      31.298  27.490  24.611  1.00  0.00     0.028 A 
ATOM     13  C   UNL A   1      29.092  26.629  23.830  1.00  0.00     0.078 C 
ATOM     14  C   UNL A   1      31.870  26.111  24.862  1.00  0.00     0.159 C 
ATOM     15  C   UNL A   1      29.494  25.553  24.848  1.00  0.00     0.126 C 
ATOM     16  N   UNL A   1      30.838  25.086  24.572  1.00  0.00    -0.338 N 
BRANCH   9  17
ATOM     17  C   UNL A   1      29.030  29.813  23.003  1.00  0.00     0.145 C 
BRANCH  17  18
ATOM     18  C   UNL A   1      28.613  31.226  23.436  1.00  0.00     0.027 C 
BRANCH  18  19
ATOM     19  C   UNL A   1      28.978  32.341  22.438  1.00  0.00    -0.016 C 
ATOM     20  C   UNL A   1      28.081  32.336  21.205  1.00  0.00     0.007 C 
ATOM     21  C   UNL A   1      28.919  33.708  23.130  1.00  0.00     0.007 C 
ENDBRANCH  18  19
ENDBRANCH  17  18
ENDBRANCH   9  17
BRANCH  16  22
ATOM     22  C   UNL A   1      31.205  23.877  24.016  1.00  0.00     0.227 C 
ATOM     23  O   UNL A   1      31.262  23.763  22.783  1.00  0.00    -0.274 OA
BRANCH  22  24
ATOM     24  C   UNL A   1      31.560  22.609  24.846  1.00  0.00     0.099 C 
ATOM     25  C   UNL A   1      31.303  22.650  26.359  1.00  0.00     0.023 C 
ATOM     26  C   UNL A   1      32.865  21.899  24.497  1.00  0.00     0.142 C 
ATOM     27  C   UNL A   1      32.488  23.025  27.244  1.00  0.00     0.078 C 
ATOM     28  N   UNL A   1      33.944  22.209  25.409  1.00  0.00    -0.278 N 
ATOM     29  C   UNL A   1      33.832  22.776  26.628  1.00  0.00     0.133 A 
ATOM     30  C   UNL A   1      35.255  22.377  25.029  1.00  0.00     0.345 A 
ATOM     31  N   UNL A   1      34.938  23.272  27.105  1.00  0.00    -0.155 NA
ATOM     32  N   UNL A   1      35.859  23.040  26.104  1.00  0.00    -0.216 N 
ATOM     33  O   UNL A   1      35.738  22.147  23.932  1.00  0.00    -0.246 OA
ATOM     34  C   UNL A   1      37.106  23.754  26.022  1.00  0.00     0.179 C 
ENDBRANCH  22  24
ENDBRANCH  16  22
ENDBRANCH   6   8
ENDBRANCH   5   6
ENDBRANCH   4   5
ENDBRANCH   3   4
ENDBRANCH   2   3
ENDBRANCH   1   2
BRANCH   1  35
ATOM     35  C   UNL A   1      36.538  29.449  30.295  1.00  0.00     0.188 C 
BRANCH  35  36
ATOM     36  O   UNL A   1      36.323  29.945  31.598  1.00  0.00    -0.376 OA
BRANCH  36  37
ATOM     37  C   UNL A   1      37.379  30.422  32.420  1.00  0.00     0.202 C 
BRANCH  37  38
ATOM     38  C   UNL A   1      37.930  31.846  32.313  1.00  0.00     0.261 C 
BRANCH  38  39
ATOM     39  O   UNL A   1      38.729  32.073  31.175  1.00  0.00    -0.460 OA
BRANCH  39  40
ATOM     40  C   UNL A   1      40.029  31.758  31.346  1.00  0.00     0.338 C 
ATOM     41  O   UNL A   1      40.682  31.834  32.368  1.00  0.00    -0.246 OA
BRANCH  40  42
ATOM     42  C   UNL A   1      40.552  31.289  30.053  1.00  0.00     0.060 A 
ATOM     43  C   UNL A   1      39.841  30.224  29.504  1.00  0.00     0.016 A 
ATOM     44  C   UNL A   1      41.918  31.493  29.830  1.00  0.00     0.016 A 
ATOM     45  C   UNL A   1      40.575  29.121  29.164  1.00  0.00     0.010 A 
ATOM     46  C   UNL A   1      42.651  30.388  29.519  1.00  0.00     0.010 A 
ATOM     47  C   UNL A   1      41.958  29.194  29.339  1.00  0.00    -0.014 A 
BRANCH  47  48
ATOM     48  C   UNL A   1      42.706  27.966  29.329  1.00  0.00     0.031 A 
ATOM     49  C   UNL A   1      43.360  27.730  30.624  1.00  0.00     0.074 A 
ATOM     50  C   UNL A   1      42.672  27.140  28.267  1.00  0.00     0.049 A 
ATOM     51  N   UNL A   1      44.614  27.848  30.901  1.00  0.00    -0.248 NA
ATOM     52  C   UNL A   1      42.486  27.618  31.803  1.00  0.00     0.031 C 
ATOM     53  C   UNL A   1      41.827  27.204  27.069  1.00  0.00     0.029 A 
ATOM     54  N   UNL A   1      43.339  25.969  28.107  1.00  0.00    -0.354 N 
ATOM     55  C   UNL A   1      44.700  27.586  32.262  1.00  0.00     0.074 A 
ATOM     56  C   UNL A   1      43.373  27.738  32.788  1.00  0.00     0.031 C 
ATOM     57  C   UNL A   1      41.855  26.005  26.441  1.00  0.00     0.029 A 
ATOM     58  C   UNL A   1      42.809  25.146  27.116  1.00  0.00     0.049 A 
ATOM     59  H   UNL A   1      44.127  25.722  28.644  1.00  0.00     0.167 HD
ATOM     60  C   UNL A   1      45.779  26.945  32.781  1.00  0.00     0.037 A 
ATOM     61  C   UNL A   1      43.086  23.822  27.005  1.00  0.00     0.037 A 
ATOM     62  C   UNL A   1      46.890  26.987  31.862  1.00  0.00     0.049 A 
ATOM     63  C   UNL A   1      44.342  23.580  27.777  1.00  0.00     0.074 A 
ATOM     64  C   UNL A   1      47.631  28.003  31.288  1.00  0.00     0.029 A 
ATOM     65  N   UNL A   1      47.117  25.871  31.090  1.00  0.00    -0.354 N 
ATOM     66  N   UNL A   1      45.505  24.066  27.427  1.00  0.00    -0.248 NA
ATOM     67  C   UNL A   1      44.199  23.264  29.194  1.00  0.00     0.031 C 
ATOM     68  C   UNL A   1      47.874  27.573  29.952  1.00  0.00     0.029 A 
ATOM     69  C   UNL A   1      47.339  26.292  29.805  1.00  0.00     0.049 A 
ATOM     70  H   UNL A   1      47.118  24.939  31.405  1.00  0.00     0.167 HD
ATOM     71  C   UNL A   1      46.083  24.500  28.615  1.00  0.00     0.074 A 
ATOM     72  C   UNL A   1      45.248  23.940  29.676  1.00  0.00     0.031 C 
ATOM     73  C   UNL A   1      46.995  25.517  28.635  1.00  0.00     0.037 A 
BRANCH  60  74
ATOM     74  C   UNL A   1      45.693  25.934  33.897  1.00  0.00     0.057 A 
ATOM     75  C   UNL A   1      46.507  26.120  35.026  1.00  0.00     0.134 A 
ATOM     76  C   UNL A   1      45.086  24.663  33.802  1.00  0.00     0.134 A 
ATOM     77  F   UNL A   1      47.137  27.286  35.236  1.00  0.00    -0.206 F 
ATOM     78  C   UNL A   1      46.776  25.090  35.931  1.00  0.00     0.040 A 
ATOM     79  C   UNL A   1      45.305  23.645  34.729  1.00  0.00     0.040 A 
ATOM     80  F   UNL A   1      44.327  24.286  32.768  1.00  0.00    -0.206 F 
ATOM     81  C   UNL A   1      46.185  23.842  35.778  1.00  0.00     0.006 A 
ENDBRANCH  60  74
BRANCH  61  82
ATOM     82  C   UNL A   1      42.149  22.734  26.636  1.00  0.00     0.057 A 
ATOM     83  C   UNL A   1      42.583  21.590  25.953  1.00  0.00     0.134 A 
ATOM     84  C   UNL A   1      40.848  22.672  27.172  1.00  0.00     0.134 A 
ATOM     85  F   UNL A   1      43.826  21.529  25.453  1.00  0.00    -0.206 F 
ATOM     86  C   UNL A   1      41.774  20.452  25.814  1.00  0.00     0.040 A 
ATOM     87  C   UNL A   1      40.031  21.546  27.036  1.00  0.00     0.040 A 
ATOM     88  F   UNL A   1      40.359  23.670  27.922  1.00  0.00    -0.206 F 
ATOM     89  C   UNL A   1      40.495  20.425  26.363  1.00  0.00     0.006 A 
ENDBRANCH  61  82
BRANCH  73  90
ATOM     90  C   UNL A   1      47.514  26.040  27.325  1.00  0.00     0.057 A 
ATOM     91  C   UNL A   1      46.920  27.097  26.617  1.00  0.00     0.134 A 
ATOM     92  C   UNL A   1      48.774  25.616  26.891  1.00  0.00     0.134 A 
ATOM     93  F   UNL A   1      45.760  27.631  27.018  1.00  0.00    -0.206 F 
ATOM     94  C   UNL A   1      47.548  27.690  25.515  1.00  0.00     0.040 A 
ATOM     95  C   UNL A   1      49.424  26.220  25.814  1.00  0.00     0.040 A 
ATOM     96  F   UNL A   1      49.426  24.650  27.557  1.00  0.00    -0.206 F 
ATOM     97  C   UNL A   1      48.810  27.259  25.120  1.00  0.00     0.006 A 
ENDBRANCH  73  90
ENDBRANCH  47  48
ENDBRANCH  40  42
ENDBRANCH  39  40
ENDBRANCH  38  39
ENDBRANCH  37  38
ENDBRANCH  36  37
ENDBRANCH  35  36
ENDBRANCH   1  35
TORSDOF 22
ENDMDL
MODEL 3
REMARK VINA RESULT:     -10.5      1.602      5.779
REMARK SMILES CC(C)CCn1nc(C(=O)OCCOCCOCCOC(=O)c2ccc(-c3c4nc(c(-c5c(F)cccc5F)c5ccc([nH]5)c(-c5c(F)cccc5F)c5nc(c(-c6c(F)cccc6F)c6ccc3[nH]6)C=C5)C=C4)cc2)c2c1CCN(C(=O)[C@@H]1CCc3nn(C)c(=O)n3C1)C2
REMARK SMILES IDX 15 1 14 2 13 3 12 4 11 5 9 6 10 7 8 8 6 9 7 10 78 11 77 12
REMARK SMILES IDX 79 13 95 14 80 15 81 16 5 17 4 18 2 19 1 20 3 21 82 22 83 23
REMARK SMILES IDX 84 24 85 25 94 26 86 27 93 28 87 29 91 30 88 31 89 32 92 33
REMARK SMILES IDX 90 34 16 35 17 36 18 37 19 38 20 39 21 40 22 41 23 42 24 43
REMARK SMILES IDX 76 44 25 45 75 46 26 47 27 48 28 49 69 50 29 51 74 52 68 53
REMARK SMILES IDX 70 54 30 55 73 56 67 57 66 58 31 60 57 61 40 62 56 63 41 64
REMARK SMILES IDX 44 65 55 66 71 67 42 68 43 69 54 71 72 72 45 73 32 74 33 75
REMARK SMILES IDX 38 76 34 77 35 78 37 79 39 80 36 81 58 82 59 83 64 84 60 85
REMARK SMILES IDX 61 86 63 87 65 88 62 89 46 90 47 91 52 92 48 93 49 94 51 95
REMARK SMILES IDX 53 96 50 97
REMARK H PARENT 70 59 44 70
REMARK Flexibility Score: inf
ROOT
ATOM      1  C   UNL A   1      39.634  22.787  26.824  1.00  0.00     0.188 C 
ENDROOT
BRANCH   1   2
ATOM      2  O   UNL A   1      38.894  23.838  26.215  1.00  0.00    -0.376 OA
BRANCH   2   3
ATOM      3  C   UNL A   1      37.505  23.996  26.483  1.00  0.00     0.202 C 
BRANCH   3   4
ATOM      4  C   UNL A   1      36.426  23.271  25.652  1.00  0.00     0.261 C 
BRANCH   4   5
ATOM      5  O   UNL A   1      36.100  21.948  26.083  1.00  0.00    -0.458 OA
BRANCH   5   6
ATOM      6  C   UNL A   1      34.822  21.732  26.521  1.00  0.00     0.359 C 
ATOM      7  O   UNL A   1      34.418  22.033  27.631  1.00  0.00    -0.244 OA
BRANCH   6   8
ATOM      8  C   UNL A   1      33.981  21.191  25.434  1.00  0.00     0.175 A 
ATOM      9  N   UNL A   1      32.964  19.752  24.193  1.00  0.00    -0.268 N 
ATOM     10  N   UNL A   1      33.794  19.863  25.258  1.00  0.00    -0.165 NA
ATOM     11  C   UNL A   1      32.718  20.967  23.636  1.00  0.00     0.046 A 
ATOM     12  C   UNL A   1      33.212  21.929  24.496  1.00  0.00     0.028 A 
ATOM     13  C   UNL A   1      32.133  21.325  22.331  1.00  0.00     0.078 C 
ATOM     14  C   UNL A   1      33.024  23.418  24.300  1.00  0.00     0.159 C 
ATOM     15  C   UNL A   1      32.762  22.682  21.987  1.00  0.00     0.126 C 
ATOM     16  N   UNL A   1      32.390  23.668  22.982  1.00  0.00    -0.338 N 
BRANCH   9  17
ATOM     17  C   UNL A   1      32.370  18.453  23.918  1.00  0.00     0.145 C 
BRANCH  17  18
ATOM     18  C   UNL A   1      33.272  17.329  23.389  1.00  0.00     0.027 C 
BRANCH  18  19
ATOM     19  C   UNL A   1      33.557  16.200  24.399  1.00  0.00    -0.016 C 
ATOM     20  C   UNL A   1      34.990  16.231  24.918  1.00  0.00     0.007 C 
ATOM     21  C   UNL A   1      32.568  16.275  25.568  1.00  0.00     0.007 C 
ENDBRANCH  18  19
ENDBRANCH  17  18
ENDBRANCH   9  17
BRANCH  16  22
ATOM     22  C   UNL A   1      31.486  24.701  22.837  1.00  0.00     0.227 C 
ATOM     23  O   UNL A   1      30.420  24.675  23.469  1.00  0.00    -0.274 OA
BRANCH  22  24
ATOM     24  C   UNL A   1      31.712  25.932  21.911  1.00  0.00     0.099 C 
ATOM     25  C   UNL A   1      33.159  26.301  21.553  1.00  0.00     0.023 C 
ATOM     26  C   UNL A   1      30.847  27.161  22.173  1.00  0.00     0.142 C 
ATOM     27  C   UNL A   1      33.823  27.376  22.408  1.00  0.00     0.078 C 
ATOM     28  N   UNL A   1      31.537  28.197  22.911  1.00  0.00    -0.278 N 
ATOM     29  C   UNL A   1      32.868  28.301  23.101  1.00  0.00     0.133 A 
ATOM     30  C   UNL A   1      30.950  28.981  23.876  1.00  0.00     0.345 A 
ATOM     31  N   UNL A   1      33.222  29.096  24.071  1.00  0.00    -0.155 NA
ATOM     32  N   UNL A   1      32.021  29.536  24.588  1.00  0.00    -0.216 N 
ATOM     33  O   UNL A   1      29.763  29.043  24.153  1.00  0.00    -0.246 OA
ATOM     34  C   UNL A   1      31.912  30.113  25.902  1.00  0.00     0.179 C 
ENDBRANCH  22  24
ENDBRANCH  16  22
ENDBRANCH   6   8
ENDBRANCH   5   6
ENDBRANCH   4   5
ENDBRANCH   3   4
ENDBRANCH   2   3
ENDBRANCH   1   2
BRANCH   1  35
ATOM     35  C   UNL A   1      39.772  21.419  26.118  1.00  0.00     0.188 C 
BRANCH  35  36
ATOM     36  O   UNL A   1      41.041  20.824  26.279  1.00  0.00    -0.376 OA
BRANCH  36  37
ATOM     37  C   UNL A   1      42.250  21.566  26.201  1.00  0.00     0.202 C 
BRANCH  37  38
ATOM     38  C   UNL A   1      42.350  22.908  25.473  1.00  0.00     0.261 C 
BRANCH  38  39
ATOM     39  O   UNL A   1      43.251  22.913  24.390  1.00  0.00    -0.460 OA
BRANCH  39  40
ATOM     40  C   UNL A   1      44.280  22.054  24.529  1.00  0.00     0.338 C 
ATOM     41  O   UNL A   1      44.294  20.866  24.271  1.00  0.00    -0.246 OA
BRANCH  40  42
ATOM     42  C   UNL A   1      45.427  22.807  25.060  1.00  0.00     0.060 A 
ATOM     43  C   UNL A   1      45.829  22.409  26.333  1.00  0.00     0.016 A 
ATOM     44  C   UNL A   1      45.581  24.113  24.583  1.00  0.00     0.016 A 
ATOM     45  C   UNL A   1      45.912  23.397  27.276  1.00  0.00     0.010 A 
ATOM     46  C   UNL A   1      45.637  25.097  25.522  1.00  0.00     0.010 A 
ATOM     47  C   UNL A   1      45.651  24.704  26.858  1.00  0.00    -0.014 A 
BRANCH  47  48
ATOM     48  C   UNL A   1      45.388  25.695  27.865  1.00  0.00     0.031 A 
ATOM     49  C   UNL A   1      43.997  26.163  27.800  1.00  0.00     0.074 A 
ATOM     50  C   UNL A   1      46.318  26.018  28.782  1.00  0.00     0.049 A 
ATOM     51  N   UNL A   1      43.572  27.298  27.357  1.00  0.00    -0.248 NA
ATOM     52  C   UNL A   1      42.942  25.154  27.993  1.00  0.00     0.031 C 
ATOM     53  C   UNL A   1      47.616  25.388  29.048  1.00  0.00     0.029 A 
ATOM     54  N   UNL A   1      46.220  26.944  29.770  1.00  0.00    -0.354 N 
ATOM     55  C   UNL A   1      42.188  27.215  27.446  1.00  0.00     0.074 A 
ATOM     56  C   UNL A   1      41.873  25.819  27.561  1.00  0.00     0.031 C 
ATOM     57  C   UNL A   1      48.061  25.782  30.265  1.00  0.00     0.029 A 
ATOM     58  C   UNL A   1      47.148  26.778  30.795  1.00  0.00     0.049 A 
ATOM     59  H   UNL A   1      45.553  27.669  29.763  1.00  0.00     0.167 HD
ATOM     60  C   UNL A   1      41.444  28.309  27.752  1.00  0.00     0.037 A 
ATOM     61  C   UNL A   1      47.034  27.355  32.019  1.00  0.00     0.037 A 
ATOM     62  C   UNL A   1      42.202  29.519  27.542  1.00  0.00     0.049 A 
ATOM     63  C   UNL A   1      46.073  28.489  31.870  1.00  0.00     0.074 A 
ATOM     64  C   UNL A   1      42.807  30.101  26.445  1.00  0.00     0.029 A 
ATOM     65  N   UNL A   1      42.771  30.109  28.646  1.00  0.00    -0.354 N 
ATOM     66  N   UNL A   1      46.328  29.557  31.160  1.00  0.00    -0.248 NA
ATOM     67  C   UNL A   1      44.658  28.189  32.060  1.00  0.00     0.031 C 
ATOM     68  C   UNL A   1      44.024  30.649  26.942  1.00  0.00     0.029 A 
ATOM     69  C   UNL A   1      44.061  30.440  28.322  1.00  0.00     0.049 A 
ATOM     70  H   UNL A   1      42.331  30.264  29.513  1.00  0.00     0.167 HD
ATOM     71  C   UNL A   1      45.146  29.822  30.477  1.00  0.00     0.074 A 
ATOM     72  C   UNL A   1      44.139  28.970  31.106  1.00  0.00     0.031 C 
ATOM     73  C   UNL A   1      45.145  30.472  29.276  1.00  0.00     0.037 A 
BRANCH  60  74
ATOM     74  C   UNL A   1      40.219  28.266  28.631  1.00  0.00     0.057 A 
ATOM     75  C   UNL A   1      39.059  28.921  28.186  1.00  0.00     0.134 A 
ATOM     76  C   UNL A   1      40.201  27.876  29.988  1.00  0.00     0.134 A 
ATOM     77  F   UNL A   1      38.948  29.337  26.915  1.00  0.00    -0.206 F 
ATOM     78  C   UNL A   1      38.010  29.252  29.049  1.00  0.00     0.040 A 
ATOM     79  C   UNL A   1      39.136  28.153  30.844  1.00  0.00     0.040 A 
ATOM     80  F   UNL A   1      41.238  27.295  30.599  1.00  0.00    -0.206 F 
ATOM     81  C   UNL A   1      38.052  28.880  30.386  1.00  0.00     0.006 A 
ENDBRANCH  60  74
BRANCH  61  82
ATOM     82  C   UNL A   1      47.370  26.754  33.331  1.00  0.00     0.057 A 
ATOM     83  C   UNL A   1      48.176  27.423  34.261  1.00  0.00     0.134 A 
ATOM     84  C   UNL A   1      46.696  25.615  33.812  1.00  0.00     0.134 A 
ATOM     85  F   UNL A   1      48.818  28.550  33.917  1.00  0.00    -0.206 F 
ATOM     86  C   UNL A   1      48.303  26.989  35.590  1.00  0.00     0.040 A 
ATOM     87  C   UNL A   1      46.816  25.169  35.131  1.00  0.00     0.040 A 
ATOM     88  F   UNL A   1      45.827  24.947  33.040  1.00  0.00    -0.206 F 
ATOM     89  C   UNL A   1      47.615  25.861  36.030  1.00  0.00     0.006 A 
ENDBRANCH  61  82
BRANCH  73  90
ATOM     90  C   UNL A   1      46.434  31.071  28.784  1.00  0.00     0.057 A 
ATOM     91  C   UNL A   1      47.354  30.386  27.975  1.00  0.00     0.134 A 
ATOM     92  C   UNL A   1      46.634  32.446  28.945  1.00  0.00     0.134 A 
ATOM     93  F   UNL A   1      47.189  29.089  27.688  1.00  0.00    -0.206 F 
ATOM     94  C   UNL A   1      48.432  31.040  27.369  1.00  0.00     0.040 A 
ATOM     95  C   UNL A   1      47.687  33.116  28.321  1.00  0.00     0.040 A 
ATOM     96  F   UNL A   1      45.760  33.175  29.658  1.00  0.00    -0.206 F 
ATOM     97  C   UNL A   1      48.593  32.412  27.531  1.00  0.00     0.006 A 
ENDBRANCH  73  90
ENDBRANCH  47  48
ENDBRANCH  40  42
ENDBRANCH  39  40
ENDBRANCH  38  39
ENDBRANCH  37  38
ENDBRANCH  36  37
ENDBRANCH  35  36
ENDBRANCH   1  35
TORSDOF 22
ENDMDL
