MODEL 1
REMARK VINA RESULT:     -10.1      0.000      0.000
REMARK SMILES Cc1cc([C@H]([NH3+])C(=O)OCCOCCOCCOC(=O)c2ccc(-c3c4nc(c(-c5c(F)cccc5F)c5ccc([nH]5)c(-c5c(F)cccc5F)c5nc(c(-c6c(F)cccc6F)c6ccc3[nH]6)C=C5)C=C4)cc2)ccc1Cl
REMARK SMILES IDX 14 1 13 2 12 3 11 4 10 5 9 6 7 7 8 8 5 9 4 10 1 11 2 12 3 13
REMARK SMILES IDX 77 14 76 15 78 16 75 17 6 18 15 22 16 23 17 24 18 25 19 26
REMARK SMILES IDX 20 27 21 28 22 29 74 30 23 31 73 32 24 33 25 34 26 35 67 36
REMARK SMILES IDX 27 37 72 38 66 39 68 40 28 41 71 42 65 43 64 44 29 46 55 47
REMARK SMILES IDX 38 48 54 49 39 50 42 51 53 52 69 53 40 54 41 55 52 57 70 58
REMARK SMILES IDX 43 59 30 60 31 61 36 62 32 63 33 64 35 65 37 66 34 67 56 68
REMARK SMILES IDX 57 69 62 70 58 71 59 72 61 73 63 74 60 75 44 76 45 77 50 78
REMARK SMILES IDX 46 79 47 80 49 81 51 82 48 83
REMARK H PARENT 6 19 6 20 6 21 68 45 42 56
REMARK Flexibility Score: inf
ROOT
ATOM      1  C   UNL A   1      41.347  20.921  27.470  1.00  0.00     0.188 C 
ENDROOT
BRANCH   1   2
ATOM      2  C   UNL A   1      39.998  20.807  26.732  1.00  0.00     0.188 C 
BRANCH   2   3
ATOM      3  O   UNL A   1      39.396  21.971  26.176  1.00  0.00    -0.376 OA
BRANCH   3   4
ATOM      4  C   UNL A   1      38.156  21.859  25.492  1.00  0.00     0.202 C 
BRANCH   4   5
ATOM      5  C   UNL A   1      37.277  23.109  25.322  1.00  0.00     0.261 C 
BRANCH   5   6
ATOM      6  O   UNL A   1      36.312  23.353  26.364  1.00  0.00    -0.459 OA
BRANCH   6   7
ATOM      7  C   UNL A   1      35.001  23.249  25.994  1.00  0.00     0.369 C 
ATOM      8  O   UNL A   1      34.090  22.957  26.767  1.00  0.00    -0.245 OA
BRANCH   7   9
ATOM      9  C   UNL A   1      34.749  23.452  24.480  1.00  0.00     0.323 C 
BRANCH   9  10
ATOM     10  C   UNL A   1      34.209  24.836  24.218  1.00  0.00     0.021 A 
ATOM     11  C   UNL A   1      33.758  28.098  26.123  1.00  0.00     0.046 C 
ATOM     12  C   UNL A   1      33.731  27.099  25.002  1.00  0.00    -0.032 A 
ATOM     13  C   UNL A   1      34.175  25.795  25.245  1.00  0.00     0.015 A 
ATOM     14  C   UNL A   1      33.300  27.427  23.709  1.00  0.00     0.043 A 
ATOM     15  C   UNL A   1      33.304  26.471  22.689  1.00  0.00     0.021 A 
ATOM     16  Cl  UNL A   1      32.764  29.020  23.316  1.00  0.00    -0.084 Cl
ATOM     17  C   UNL A   1      33.753  25.177  22.943  1.00  0.00     0.012 A 
ENDBRANCH   9  10
BRANCH   9  18
ATOM     18  N   UNL A   1      33.898  22.446  23.814  1.00  0.00    -0.342 N 
ATOM     19  H   UNL A   1      33.076  22.904  23.421  1.00  0.00     0.345 HD
ATOM     20  H   UNL A   1      33.605  21.745  24.494  1.00  0.00     0.345 HD
ATOM     21  H   UNL A   1      34.427  21.995  23.067  1.00  0.00     0.345 HD
ENDBRANCH   9  18
ENDBRANCH   7   9
ENDBRANCH   6   7
ENDBRANCH   5   6
ENDBRANCH   4   5
ENDBRANCH   3   4
ENDBRANCH   2   3
ENDBRANCH   1   2
BRANCH   1  22
ATOM     22  O   UNL A   1      42.330  20.022  27.021  1.00  0.00    -0.376 OA
BRANCH  22  23
ATOM     23  C   UNL A   1      42.927  20.244  25.761  1.00  0.00     0.202 C 
BRANCH  23  24
ATOM     24  C   UNL A   1      43.743  21.515  25.458  1.00  0.00     0.261 C 
BRANCH  24  25
ATOM     25  O   UNL A   1      43.029  22.700  25.076  1.00  0.00    -0.460 OA
BRANCH  25  26
ATOM     26  C   UNL A   1      43.737  23.856  25.011  1.00  0.00     0.338 C 
ATOM     27  O   UNL A   1      44.641  24.119  24.244  1.00  0.00    -0.246 OA
BRANCH  26  28
ATOM     28  C   UNL A   1      43.093  24.842  25.911  1.00  0.00     0.060 A 
ATOM     29  C   UNL A   1      43.549  26.169  25.909  1.00  0.00     0.016 A 
ATOM     30  C   UNL A   1      42.051  24.458  26.756  1.00  0.00     0.016 A 
ATOM     31  C   UNL A   1      42.981  27.110  26.774  1.00  0.00     0.010 A 
ATOM     32  C   UNL A   1      41.500  25.395  27.638  1.00  0.00     0.010 A 
ATOM     33  C   UNL A   1      41.980  26.717  27.673  1.00  0.00    -0.014 A 
BRANCH  33  34
ATOM     34  C   UNL A   1      41.567  27.616  28.781  1.00  0.00     0.031 A 
ATOM     35  C   UNL A   1      42.313  27.529  30.085  1.00  0.00     0.074 A 
ATOM     36  C   UNL A   1      40.547  28.482  28.651  1.00  0.00     0.049 A 
ATOM     37  N   UNL A   1      42.069  28.120  31.227  1.00  0.00    -0.248 NA
ATOM     38  C   UNL A   1      43.490  26.644  30.103  1.00  0.00     0.031 C 
ATOM     39  C   UNL A   1      39.771  28.702  27.434  1.00  0.00     0.029 A 
ATOM     40  N   UNL A   1      39.975  29.326  29.574  1.00  0.00    -0.354 N 
ATOM     41  C   UNL A   1      43.051  27.668  32.101  1.00  0.00     0.074 A 
ATOM     42  C   UNL A   1      43.877  26.735  31.366  1.00  0.00     0.031 C 
ATOM     43  C   UNL A   1      38.807  29.604  27.689  1.00  0.00     0.029 A 
ATOM     44  C   UNL A   1      38.875  29.997  29.097  1.00  0.00     0.049 A 
ATOM     45  H   UNL A   1      40.321  29.438  30.488  1.00  0.00     0.167 HD
ATOM     46  C   UNL A   1      43.250  28.001  33.398  1.00  0.00     0.037 A 
ATOM     47  C   UNL A   1      38.005  30.806  29.734  1.00  0.00     0.037 A 
ATOM     48  C   UNL A   1      42.426  28.925  34.132  1.00  0.00     0.049 A 
ATOM     49  C   UNL A   1      38.197  31.102  31.201  1.00  0.00     0.074 A 
ATOM     50  C   UNL A   1      42.558  29.341  35.446  1.00  0.00     0.029 A 
ATOM     51  N   UNL A   1      41.310  29.568  33.619  1.00  0.00    -0.354 N 
ATOM     52  N   UNL A   1      39.139  30.688  32.014  1.00  0.00    -0.248 NA
ATOM     53  C   UNL A   1      37.202  31.979  31.839  1.00  0.00     0.031 C 
ATOM     54  C   UNL A   1      41.489  30.191  35.744  1.00  0.00     0.029 A 
ATOM     55  C   UNL A   1      40.728  30.357  34.599  1.00  0.00     0.049 A 
ATOM     56  H   UNL A   1      40.981  29.478  32.696  1.00  0.00     0.167 HD
ATOM     57  C   UNL A   1      38.872  31.282  33.243  1.00  0.00     0.074 A 
ATOM     58  C   UNL A   1      37.685  32.090  33.068  1.00  0.00     0.031 C 
ATOM     59  C   UNL A   1      39.554  31.171  34.410  1.00  0.00     0.037 A 
BRANCH  46  60
ATOM     60  C   UNL A   1      44.385  27.333  34.117  1.00  0.00     0.057 A 
ATOM     61  C   UNL A   1      44.234  26.099  34.761  1.00  0.00     0.134 A 
ATOM     62  C   UNL A   1      45.656  27.923  34.143  1.00  0.00     0.134 A 
ATOM     63  F   UNL A   1      43.040  25.486  34.787  1.00  0.00    -0.206 F 
ATOM     64  C   UNL A   1      45.298  25.486  35.426  1.00  0.00     0.040 A 
ATOM     65  C   UNL A   1      46.735  27.306  34.778  1.00  0.00     0.040 A 
ATOM     66  F   UNL A   1      45.872  29.103  33.543  1.00  0.00    -0.206 F 
ATOM     67  C   UNL A   1      46.555  26.087  35.429  1.00  0.00     0.006 A 
ENDBRANCH  46  60
BRANCH  47  68
ATOM     68  C   UNL A   1      36.852  31.390  28.998  1.00  0.00     0.057 A 
ATOM     69  C   UNL A   1      36.841  32.736  28.615  1.00  0.00     0.134 A 
ATOM     70  C   UNL A   1      35.720  30.624  28.691  1.00  0.00     0.134 A 
ATOM     71  F   UNL A   1      37.882  33.529  28.907  1.00  0.00    -0.206 F 
ATOM     72  C   UNL A   1      35.741  33.304  27.970  1.00  0.00     0.040 A 
ATOM     73  C   UNL A   1      34.625  31.173  28.021  1.00  0.00     0.040 A 
ATOM     74  F   UNL A   1      35.664  29.329  29.035  1.00  0.00    -0.206 F 
ATOM     75  C   UNL A   1      34.631  32.520  27.666  1.00  0.00     0.006 A 
ENDBRANCH  47  68
BRANCH  59  76
ATOM     76  C   UNL A   1      39.072  31.982  35.580  1.00  0.00     0.057 A 
ATOM     77  C   UNL A   1      38.283  31.430  36.598  1.00  0.00     0.134 A 
ATOM     78  C   UNL A   1      39.450  33.325  35.716  1.00  0.00     0.134 A 
ATOM     79  F   UNL A   1      37.877  30.153  36.527  1.00  0.00    -0.206 F 
ATOM     80  C   UNL A   1      37.870  32.189  37.694  1.00  0.00     0.040 A 
ATOM     81  C   UNL A   1      39.069  34.086  36.822  1.00  0.00     0.040 A 
ATOM     82  F   UNL A   1      40.215  33.914  34.784  1.00  0.00    -0.206 F 
ATOM     83  C   UNL A   1      38.271  33.519  37.813  1.00  0.00     0.006 A 
ENDBRANCH  59  76
ENDBRANCH  33  34
ENDBRANCH  26  28
ENDBRANCH  25  26
ENDBRANCH  24  25
ENDBRANCH  23  24
ENDBRANCH  22  23
ENDBRANCH   1  22
TORSDOF 19
ENDMDL
MODEL 2
REMARK VINA RESULT:     -10.1      2.176      3.028
REMARK SMILES Cc1cc([C@H]([NH3+])C(=O)OCCOCCOCCOC(=O)c2ccc(-c3c4nc(c(-c5c(F)cccc5F)c5ccc([nH]5)c(-c5c(F)cccc5F)c5nc(c(-c6c(F)cccc6F)c6ccc3[nH]6)C=C5)C=C4)cc2)ccc1Cl
REMARK SMILES IDX 14 1 13 2 12 3 11 4 10 5 9 6 7 7 8 8 5 9 4 10 1 11 2 12 3 13
REMARK SMILES IDX 77 14 76 15 78 16 75 17 6 18 15 22 16 23 17 24 18 25 19 26
REMARK SMILES IDX 20 27 21 28 22 29 74 30 23 31 73 32 24 33 25 34 26 35 67 36
REMARK SMILES IDX 27 37 72 38 66 39 68 40 28 41 71 42 65 43 64 44 29 46 55 47
REMARK SMILES IDX 38 48 54 49 39 50 42 51 53 52 69 53 40 54 41 55 52 57 70 58
REMARK SMILES IDX 43 59 30 60 31 61 36 62 32 63 33 64 35 65 37 66 34 67 56 68
REMARK SMILES IDX 57 69 62 70 58 71 59 72 61 73 63 74 60 75 44 76 45 77 50 78
REMARK SMILES IDX 46 79 47 80 49 81 51 82 48 83
REMARK H PARENT 6 19 6 20 6 21 68 45 42 56
REMARK Flexibility Score: inf
ROOT
ATOM      1  C   UNL A   1      39.694  21.004  26.165  1.00  0.00     0.188 C 
ENDROOT
BRANCH   1   2
ATOM      2  C   UNL A   1      38.781  22.245  26.110  1.00  0.00     0.188 C 
BRANCH   2   3
ATOM      3  O   UNL A   1      37.650  22.253  25.246  1.00  0.00    -0.376 OA
BRANCH   3   4
ATOM      4  C   UNL A   1      37.069  23.491  24.863  1.00  0.00     0.202 C 
BRANCH   4   5
ATOM      5  C   UNL A   1      35.550  23.571  24.643  1.00  0.00     0.261 C 
BRANCH   5   6
ATOM      6  O   UNL A   1      35.019  22.762  23.574  1.00  0.00    -0.459 OA
BRANCH   6   7
ATOM      7  C   UNL A   1      33.878  23.230  22.986  1.00  0.00     0.369 C 
ATOM      8  O   UNL A   1      33.865  23.955  21.993  1.00  0.00    -0.245 OA
BRANCH   7   9
ATOM      9  C   UNL A   1      32.575  22.838  23.724  1.00  0.00     0.323 C 
BRANCH   9  10
ATOM     10  C   UNL A   1      32.605  21.378  24.104  1.00  0.00     0.021 A 
ATOM     11  C   UNL A   1      32.395  18.003  22.359  1.00  0.00     0.046 C 
ATOM     12  C   UNL A   1      32.528  19.025  23.452  1.00  0.00    -0.032 A 
ATOM     13  C   UNL A   1      32.445  20.383  23.124  1.00  0.00     0.015 A 
ATOM     14  C   UNL A   1      32.758  18.675  24.790  1.00  0.00     0.043 A 
ATOM     15  C   UNL A   1      32.889  19.659  25.774  1.00  0.00     0.021 A 
ATOM     16  Cl  UNL A   1      32.903  17.025  25.276  1.00  0.00    -0.084 Cl
ATOM     17  C   UNL A   1      32.810  21.007  25.434  1.00  0.00     0.012 A 
ENDBRANCH   9  10
BRANCH   9  18
ATOM     18  N   UNL A   1      31.308  23.152  23.034  1.00  0.00    -0.342 N 
ATOM     19  H   UNL A   1      30.526  22.788  23.577  1.00  0.00     0.345 HD
ATOM     20  H   UNL A   1      31.310  22.722  22.109  1.00  0.00     0.345 HD
ATOM     21  H   UNL A   1      31.215  24.163  22.939  1.00  0.00     0.345 HD
ENDBRANCH   9  18
ENDBRANCH   7   9
ENDBRANCH   6   7
ENDBRANCH   5   6
ENDBRANCH   4   5
ENDBRANCH   3   4
ENDBRANCH   2   3
ENDBRANCH   1   2
BRANCH   1  22
ATOM     22  O   UNL A   1      40.586  20.990  27.252  1.00  0.00    -0.376 OA
BRANCH  22  23
ATOM     23  C   UNL A   1      41.854  20.393  27.082  1.00  0.00     0.202 C 
BRANCH  23  24
ATOM     24  C   UNL A   1      42.904  20.971  26.114  1.00  0.00     0.261 C 
BRANCH  24  25
ATOM     25  O   UNL A   1      43.511  22.227  26.449  1.00  0.00    -0.460 OA
BRANCH  25  26
ATOM     26  C   UNL A   1      43.253  23.278  25.631  1.00  0.00     0.338 C 
ATOM     27  O   UNL A   1      43.298  23.292  24.417  1.00  0.00    -0.246 OA
BRANCH  26  28
ATOM     28  C   UNL A   1      42.705  24.381  26.457  1.00  0.00     0.060 A 
ATOM     29  C   UNL A   1      43.313  25.645  26.400  1.00  0.00     0.016 A 
ATOM     30  C   UNL A   1      41.604  24.167  27.287  1.00  0.00     0.016 A 
ATOM     31  C   UNL A   1      42.835  26.692  27.195  1.00  0.00     0.010 A 
ATOM     32  C   UNL A   1      41.143  25.210  28.100  1.00  0.00     0.010 A 
ATOM     33  C   UNL A   1      41.773  26.468  28.081  1.00  0.00    -0.014 A 
BRANCH  33  34
ATOM     34  C   UNL A   1      41.439  27.469  29.125  1.00  0.00     0.031 A 
ATOM     35  C   UNL A   1      42.215  27.439  30.415  1.00  0.00     0.074 A 
ATOM     36  C   UNL A   1      40.463  28.378  28.953  1.00  0.00     0.049 A 
ATOM     37  N   UNL A   1      42.034  28.127  31.514  1.00  0.00    -0.248 NA
ATOM     38  C   UNL A   1      43.343  26.495  30.473  1.00  0.00     0.031 C 
ATOM     39  C   UNL A   1      39.666  28.547  27.741  1.00  0.00     0.029 A 
ATOM     40  N   UNL A   1      39.962  29.318  29.822  1.00  0.00    -0.354 N 
ATOM     41  C   UNL A   1      43.014  27.689  32.396  1.00  0.00     0.074 A 
ATOM     42  C   UNL A   1      43.769  26.659  31.716  1.00  0.00     0.031 C 
ATOM     43  C   UNL A   1      38.759  29.518  27.949  1.00  0.00     0.029 A 
ATOM     44  C   UNL A   1      38.886  30.011  29.321  1.00  0.00     0.049 A 
ATOM     45  H   UNL A   1      40.339  29.480  30.716  1.00  0.00     0.167 HD
ATOM     46  C   UNL A   1      43.266  28.108  33.659  1.00  0.00     0.037 A 
ATOM     47  C   UNL A   1      38.078  30.913  29.914  1.00  0.00     0.037 A 
ATOM     48  C   UNL A   1      42.513  29.128  34.339  1.00  0.00     0.049 A 
ATOM     49  C   UNL A   1      38.326  31.307  31.349  1.00  0.00     0.074 A 
ATOM     50  C   UNL A   1      42.703  29.634  35.613  1.00  0.00     0.029 A 
ATOM     51  N   UNL A   1      41.419  29.791  33.805  1.00  0.00    -0.354 N 
ATOM     52  N   UNL A   1      39.268  30.905  32.169  1.00  0.00    -0.248 NA
ATOM     53  C   UNL A   1      37.398  32.283  31.941  1.00  0.00     0.031 C 
ATOM     54  C   UNL A   1      41.689  30.562  35.871  1.00  0.00     0.029 A 
ATOM     55  C   UNL A   1      40.907  30.682  34.734  1.00  0.00     0.049 A 
ATOM     56  H   UNL A   1      41.060  29.650  32.899  1.00  0.00     0.167 HD
ATOM     57  C   UNL A   1      39.066  31.603  33.355  1.00  0.00     0.074 A 
ATOM     58  C   UNL A   1      37.919  32.460  33.146  1.00  0.00     0.031 C 
ATOM     59  C   UNL A   1      39.773  31.543  34.511  1.00  0.00     0.037 A 
BRANCH  46  60
ATOM     60  C   UNL A   1      44.384  27.434  34.400  1.00  0.00     0.057 A 
ATOM     61  C   UNL A   1      44.181  26.270  35.153  1.00  0.00     0.134 A 
ATOM     62  C   UNL A   1      45.687  27.944  34.338  1.00  0.00     0.134 A 
ATOM     63  F   UNL A   1      42.955  25.737  35.266  1.00  0.00    -0.206 F 
ATOM     64  C   UNL A   1      45.230  25.652  35.838  1.00  0.00     0.040 A 
ATOM     65  C   UNL A   1      46.749  27.318  34.993  1.00  0.00     0.040 A 
ATOM     66  F   UNL A   1      45.952  29.054  33.633  1.00  0.00    -0.206 F 
ATOM     67  C   UNL A   1      46.519  26.172  35.752  1.00  0.00     0.006 A 
ENDBRANCH  46  60
BRANCH  47  68
ATOM     68  C   UNL A   1      36.938  31.502  29.163  1.00  0.00     0.057 A 
ATOM     69  C   UNL A   1      36.990  32.812  28.673  1.00  0.00     0.134 A 
ATOM     70  C   UNL A   1      35.758  30.781  28.947  1.00  0.00     0.134 A 
ATOM     71  F   UNL A   1      38.083  33.564  28.873  1.00  0.00    -0.206 F 
ATOM     72  C   UNL A   1      35.905  33.390  28.011  1.00  0.00     0.040 A 
ATOM     73  C   UNL A   1      34.675  31.337  28.262  1.00  0.00     0.040 A 
ATOM     74  F   UNL A   1      35.639  29.523  29.396  1.00  0.00    -0.206 F 
ATOM     75  C   UNL A   1      34.745  32.650  27.800  1.00  0.00     0.006 A 
ENDBRANCH  47  68
BRANCH  59  76
ATOM     76  C   UNL A   1      39.367  32.465  35.626  1.00  0.00     0.057 A 
ATOM     77  C   UNL A   1      39.854  33.775  35.727  1.00  0.00     0.134 A 
ATOM     78  C   UNL A   1      38.432  32.051  36.584  1.00  0.00     0.134 A 
ATOM     79  F   UNL A   1      40.759  34.234  34.849  1.00  0.00    -0.206 F 
ATOM     80  C   UNL A   1      39.443  34.630  36.752  1.00  0.00     0.040 A 
ATOM     81  C   UNL A   1      37.990  32.906  37.595  1.00  0.00     0.040 A 
ATOM     82  F   UNL A   1      37.915  30.814  36.540  1.00  0.00    -0.206 F 
ATOM     83  C   UNL A   1      38.500  34.199  37.684  1.00  0.00     0.006 A 
ENDBRANCH  59  76
ENDBRANCH  33  34
ENDBRANCH  26  28
ENDBRANCH  25  26
ENDBRANCH  24  25
ENDBRANCH  23  24
ENDBRANCH  22  23
ENDBRANCH   1  22
TORSDOF 19
ENDMDL
MODEL 3
REMARK VINA RESULT:     -10.1      5.197     10.406
REMARK SMILES Cc1cc([C@H]([NH3+])C(=O)OCCOCCOCCOC(=O)c2ccc(-c3c4nc(c(-c5c(F)cccc5F)c5ccc([nH]5)c(-c5c(F)cccc5F)c5nc(c(-c6c(F)cccc6F)c6ccc3[nH]6)C=C5)C=C4)cc2)ccc1Cl
REMARK SMILES IDX 14 1 13 2 12 3 11 4 10 5 9 6 7 7 8 8 5 9 4 10 1 11 2 12 3 13
REMARK SMILES IDX 77 14 76 15 78 16 75 17 6 18 15 22 16 23 17 24 18 25 19 26
REMARK SMILES IDX 20 27 21 28 22 29 74 30 23 31 73 32 24 33 25 34 26 35 67 36
REMARK SMILES IDX 27 37 72 38 66 39 68 40 28 41 71 42 65 43 64 44 29 46 55 47
REMARK SMILES IDX 38 48 54 49 39 50 42 51 53 52 69 53 40 54 41 55 52 57 70 58
REMARK SMILES IDX 43 59 30 60 31 61 36 62 32 63 33 64 35 65 37 66 34 67 56 68
REMARK SMILES IDX 57 69 62 70 58 71 59 72 61 73 63 74 60 75 44 76 45 77 50 78
REMARK SMILES IDX 46 79 47 80 49 81 51 82 48 83
REMARK H PARENT 6 19 6 20 6 21 68 45 42 56
REMARK Flexibility Score: inf
ROOT
ATOM      1  C   UNL A   1      32.650  36.236  32.001  1.00  0.00     0.188 C 
ENDROOT
BRANCH   1   2
ATOM      2  C   UNL A   1      32.599  36.056  30.471  1.00  0.00     0.188 C 
BRANCH   2   3
ATOM      3  O   UNL A   1      32.803  34.767  29.903  1.00  0.00    -0.376 OA
BRANCH   3   4
ATOM      4  C   UNL A   1      34.074  34.433  29.362  1.00  0.00     0.202 C 
BRANCH   4   5
ATOM      5  C   UNL A   1      34.150  33.788  27.969  1.00  0.00     0.261 C 
BRANCH   5   6
ATOM      6  O   UNL A   1      34.564  32.407  27.930  1.00  0.00    -0.459 OA
BRANCH   6   7
ATOM      7  C   UNL A   1      33.637  31.524  27.453  1.00  0.00     0.369 C 
ATOM      8  O   UNL A   1      32.444  31.786  27.320  1.00  0.00    -0.245 OA
BRANCH   7   9
ATOM      9  C   UNL A   1      34.199  30.112  27.157  1.00  0.00     0.323 C 
BRANCH   9  10
ATOM     10  C   UNL A   1      33.221  29.321  26.323  1.00  0.00     0.021 A 
ATOM     11  C   UNL A   1      31.028  26.237  26.711  1.00  0.00     0.046 C 
ATOM     12  C   UNL A   1      31.671  27.447  26.097  1.00  0.00    -0.032 A 
ATOM     13  C   UNL A   1      32.623  28.158  26.837  1.00  0.00     0.015 A 
ATOM     14  C   UNL A   1      31.339  27.911  24.817  1.00  0.00     0.043 A 
ATOM     15  C   UNL A   1      31.952  29.051  24.287  1.00  0.00     0.021 A 
ATOM     16  Cl  UNL A   1      30.155  27.111  23.849  1.00  0.00    -0.084 Cl
ATOM     17  C   UNL A   1      32.893  29.753  25.036  1.00  0.00     0.012 A 
ENDBRANCH   9  10
BRANCH   9  18
ATOM     18  N   UNL A   1      34.621  29.315  28.326  1.00  0.00    -0.342 N 
ATOM     19  H   UNL A   1      35.443  29.744  28.750  1.00  0.00     0.345 HD
ATOM     20  H   UNL A   1      34.849  28.367  28.027  1.00  0.00     0.345 HD
ATOM     21  H   UNL A   1      33.863  29.284  29.008  1.00  0.00     0.345 HD
ENDBRANCH   9  18
ENDBRANCH   7   9
ENDBRANCH   6   7
ENDBRANCH   5   6
ENDBRANCH   4   5
ENDBRANCH   3   4
ENDBRANCH   2   3
ENDBRANCH   1   2
BRANCH   1  22
ATOM     22  O   UNL A   1      33.196  35.141  32.694  1.00  0.00    -0.376 OA
BRANCH  22  23
ATOM     23  C   UNL A   1      34.463  35.284  33.299  1.00  0.00     0.202 C 
BRANCH  23  24
ATOM     24  C   UNL A   1      35.204  34.089  33.930  1.00  0.00     0.261 C 
BRANCH  24  25
ATOM     25  O   UNL A   1      36.078  33.318  33.092  1.00  0.00    -0.460 OA
BRANCH  25  26
ATOM     26  C   UNL A   1      35.507  32.365  32.313  1.00  0.00     0.338 C 
ATOM     27  O   UNL A   1      34.330  32.251  32.036  1.00  0.00    -0.246 OA
BRANCH  26  28
ATOM     28  C   UNL A   1      36.592  31.578  31.680  1.00  0.00     0.060 A 
ATOM     29  C   UNL A   1      37.445  30.813  32.492  1.00  0.00     0.016 A 
ATOM     30  C   UNL A   1      36.772  31.599  30.297  1.00  0.00     0.016 A 
ATOM     31  C   UNL A   1      38.497  30.088  31.922  1.00  0.00     0.010 A 
ATOM     32  C   UNL A   1      37.839  30.893  29.731  1.00  0.00     0.010 A 
ATOM     33  C   UNL A   1      38.725  30.158  30.541  1.00  0.00    -0.014 A 
BRANCH  33  34
ATOM     34  C   UNL A   1      39.987  29.635  29.958  1.00  0.00     0.031 A 
ATOM     35  C   UNL A   1      41.145  30.584  29.799  1.00  0.00     0.074 A 
ATOM     36  C   UNL A   1      40.111  28.357  29.561  1.00  0.00     0.049 A 
ATOM     37  N   UNL A   1      42.302  30.398  29.217  1.00  0.00    -0.248 NA
ATOM     38  C   UNL A   1      40.966  31.929  30.370  1.00  0.00     0.031 C 
ATOM     39  C   UNL A   1      39.088  27.324  29.697  1.00  0.00     0.029 A 
ATOM     40  N   UNL A   1      41.155  27.719  28.935  1.00  0.00    -0.354 N 
ATOM     41  C   UNL A   1      42.981  31.605  29.337  1.00  0.00     0.074 A 
ATOM     42  C   UNL A   1      42.098  32.522  30.024  1.00  0.00     0.031 C 
ATOM     43  C   UNL A   1      39.546  26.184  29.150  1.00  0.00     0.029 A 
ATOM     44  C   UNL A   1      40.878  26.418  28.591  1.00  0.00     0.049 A 
ATOM     45  H   UNL A   1      42.019  28.152  28.752  1.00  0.00     0.167 HD
ATOM     46  C   UNL A   1      44.229  31.921  28.916  1.00  0.00     0.037 A 
ATOM     47  C   UNL A   1      41.602  25.531  27.878  1.00  0.00     0.037 A 
ATOM     48  C   UNL A   1      45.105  31.012  28.228  1.00  0.00     0.049 A 
ATOM     49  C   UNL A   1      42.957  25.929  27.348  1.00  0.00     0.074 A 
ATOM     50  C   UNL A   1      46.395  31.233  27.778  1.00  0.00     0.029 A 
ATOM     51  N   UNL A   1      44.780  29.709  27.882  1.00  0.00    -0.354 N 
ATOM     52  N   UNL A   1      43.600  27.064  27.485  1.00  0.00    -0.248 NA
ATOM     53  C   UNL A   1      43.687  24.921  26.564  1.00  0.00     0.031 C 
ATOM     54  C   UNL A   1      46.828  30.085  27.108  1.00  0.00     0.029 A 
ATOM     55  C   UNL A   1      45.834  29.124  27.198  1.00  0.00     0.049 A 
ATOM     56  H   UNL A   1      43.926  29.266  28.091  1.00  0.00     0.167 HD
ATOM     57  C   UNL A   1      44.820  26.893  26.838  1.00  0.00     0.074 A 
ATOM     58  C   UNL A   1      44.830  25.544  26.316  1.00  0.00     0.031 C 
ATOM     59  C   UNL A   1      45.841  27.774  26.696  1.00  0.00     0.037 A 
BRANCH  46  60
ATOM     60  C   UNL A   1      44.705  33.323  29.159  1.00  0.00     0.057 A 
ATOM     61  C   UNL A   1      44.491  34.352  28.232  1.00  0.00     0.134 A 
ATOM     62  C   UNL A   1      45.365  33.655  30.350  1.00  0.00     0.134 A 
ATOM     63  F   UNL A   1      43.878  34.100  27.065  1.00  0.00    -0.206 F 
ATOM     64  C   UNL A   1      44.938  35.654  28.470  1.00  0.00     0.040 A 
ATOM     65  C   UNL A   1      45.789  34.958  30.611  1.00  0.00     0.040 A 
ATOM     66  F   UNL A   1      45.600  32.719  31.282  1.00  0.00    -0.206 F 
ATOM     67  C   UNL A   1      45.582  35.960  29.666  1.00  0.00     0.006 A 
ENDBRANCH  46  60
BRANCH  47  68
ATOM     68  C   UNL A   1      41.059  24.175  27.601  1.00  0.00     0.057 A 
ATOM     69  C   UNL A   1      41.543  23.048  28.274  1.00  0.00     0.134 A 
ATOM     70  C   UNL A   1      40.069  23.970  26.633  1.00  0.00     0.134 A 
ATOM     71  F   UNL A   1      42.512  23.175  29.193  1.00  0.00    -0.206 F 
ATOM     72  C   UNL A   1      41.075  21.764  27.984  1.00  0.00     0.040 A 
ATOM     73  C   UNL A   1      39.572  22.696  26.352  1.00  0.00     0.040 A 
ATOM     74  F   UNL A   1      39.566  25.007  25.947  1.00  0.00    -0.206 F 
ATOM     75  C   UNL A   1      40.083  21.587  27.024  1.00  0.00     0.006 A 
ENDBRANCH  47  68
BRANCH  59  76
ATOM     76  C   UNL A   1      47.082  27.297  25.996  1.00  0.00     0.057 A 
ATOM     77  C   UNL A   1      48.116  26.638  26.674  1.00  0.00     0.134 A 
ATOM     78  C   UNL A   1      47.219  27.453  24.610  1.00  0.00     0.134 A 
ATOM     79  F   UNL A   1      48.055  26.463  28.002  1.00  0.00    -0.206 F 
ATOM     80  C   UNL A   1      49.249  26.172  26.002  1.00  0.00     0.040 A 
ATOM     81  C   UNL A   1      48.331  26.965  23.923  1.00  0.00     0.040 A 
ATOM     82  F   UNL A   1      46.261  28.063  23.896  1.00  0.00    -0.206 F 
ATOM     83  C   UNL A   1      49.354  26.327  24.621  1.00  0.00     0.006 A 
ENDBRANCH  59  76
ENDBRANCH  33  34
ENDBRANCH  26  28
ENDBRANCH  25  26
ENDBRANCH  24  25
ENDBRANCH  23  24
ENDBRANCH  22  23
ENDBRANCH   1  22
TORSDOF 19
ENDMDL
