MODEL 1
REMARK VINA RESULT:     -10.8      0.000      0.000
REMARK SMILES [NH3+]C[C@H]1CC[C@@H](C(=O)Nc2ccc(O)c(C(=O)OCCOCCOCCOC(=O)c3ccc(-c4c5nc(c(-c6c(F)cccc6F)c6ccc([nH]6)c(-c6c(F)cccc6F)c6nc(c(-c7c(F)cccc7F)c7ccc4[nH]7)C=C6)C=C5)cc3)c2)O1
REMARK SMILES IDX 22 1 21 2 20 3 19 4 18 5 16 6 17 7 15 8 10 9 11 10 84 11
REMARK SMILES IDX 12 12 13 13 9 14 7 15 8 16 6 18 3 19 4 20 85 21 5 22 2 23
REMARK SMILES IDX 1 24 14 28 23 30 24 31 25 32 26 33 27 34 28 35 29 36 30 37
REMARK SMILES IDX 31 38 83 39 32 40 82 41 33 42 34 43 35 44 76 45 36 46 81 47
REMARK SMILES IDX 75 48 77 49 37 50 80 51 74 52 73 53 38 55 64 56 47 57 63 58
REMARK SMILES IDX 48 59 51 60 62 61 78 62 49 63 50 64 61 66 79 67 52 68 39 69
REMARK SMILES IDX 40 70 45 71 41 72 42 73 44 74 46 75 43 76 65 77 66 78 71 79
REMARK SMILES IDX 67 80 68 81 70 82 72 83 69 84 53 85 54 86 59 87 55 88 56 89
REMARK SMILES IDX 58 90 60 91 57 92
REMARK H PARENT 9 17 1 25 1 26 1 27 14 29 77 54 51 65
REMARK Flexibility Score: inf
ROOT
ATOM      1  C   UNL A   1      41.087  21.002  26.894  1.00  0.00     0.188 C 
ENDROOT
BRANCH   1   2
ATOM      2  O   UNL A   1      40.432  22.000  26.119  1.00  0.00    -0.376 OA
BRANCH   2   3
ATOM      3  C   UNL A   1      39.032  22.206  26.299  1.00  0.00     0.202 C 
BRANCH   3   4
ATOM      4  C   UNL A   1      38.063  21.550  25.309  1.00  0.00     0.261 C 
BRANCH   4   5
ATOM      5  O   UNL A   1      36.709  21.956  25.543  1.00  0.00    -0.460 OA
BRANCH   5   6
ATOM      6  C   UNL A   1      35.743  21.095  25.125  1.00  0.00     0.342 C 
ATOM      7  O   UNL A   1      35.846  19.902  24.959  1.00  0.00    -0.246 OA
BRANCH   6   8
ATOM      8  C   UNL A   1      34.438  21.794  25.166  1.00  0.00     0.103 A 
ATOM      9  C   UNL A   1      33.123  23.660  24.379  1.00  0.00     0.042 A 
ATOM     10  C   UNL A   1      31.994  23.108  24.986  1.00  0.00     0.030 A 
ATOM     11  C   UNL A   1      34.334  22.977  24.415  1.00  0.00     0.045 A 
ATOM     12  C   UNL A   1      32.092  21.933  25.732  1.00  0.00     0.049 A 
ATOM     13  C   UNL A   1      33.322  21.289  25.842  1.00  0.00     0.130 A 
BRANCH   9  14
ATOM     14  N   UNL A   1      33.020  24.852  23.661  1.00  0.00    -0.324 N 
ATOM     15  C   UNL A   1      32.528  26.055  24.113  1.00  0.00     0.253 C 
ATOM     16  O   UNL A   1      32.180  26.898  23.284  1.00  0.00    -0.272 OA
ATOM     17  H   UNL A   1      33.334  24.830  22.728  1.00  0.00     0.170 HD
BRANCH  15  18
ATOM     18  C   UNL A   1      32.637  26.375  25.627  1.00  0.00     0.208 C 
ATOM     19  C   UNL A   1      33.096  28.483  26.559  1.00  0.00     0.174 C 
ATOM     20  C   UNL A   1      31.924  27.894  27.315  1.00  0.00     0.041 C 
ATOM     21  O   UNL A   1      33.657  27.372  25.841  1.00  0.00    -0.359 OA
ATOM     22  C   UNL A   1      31.387  26.891  26.320  1.00  0.00     0.045 C 
BRANCH  19  23
ATOM     23  C   UNL A   1      32.661  29.606  25.590  1.00  0.00     0.291 C 
BRANCH  23  24
ATOM     24  N   UNL A   1      33.357  29.551  24.304  1.00  0.00    -0.355 N 
ATOM     25  H   UNL A   1      32.675  29.554  23.547  1.00  0.00     0.344 HD
ATOM     26  H   UNL A   1      33.915  28.697  24.256  1.00  0.00     0.344 HD
ATOM     27  H   UNL A   1      33.970  30.362  24.214  1.00  0.00     0.344 HD
ENDBRANCH  23  24
ENDBRANCH  19  23
ENDBRANCH  15  18
ENDBRANCH   9  14
BRANCH  13  28
ATOM     28  O   UNL A   1      33.423  20.162  26.605  1.00  0.00    -0.507 OA
ATOM     29  H   UNL A   1      32.694  19.577  26.674  1.00  0.00     0.293 HD
ENDBRANCH  13  28
ENDBRANCH   6   8
ENDBRANCH   5   6
ENDBRANCH   4   5
ENDBRANCH   3   4
ENDBRANCH   2   3
ENDBRANCH   1   2
BRANCH   1  30
ATOM     30  C   UNL A   1      41.680  19.763  26.192  1.00  0.00     0.188 C 
BRANCH  30  31
ATOM     31  O   UNL A   1      42.759  20.003  25.325  1.00  0.00    -0.376 OA
BRANCH  31  32
ATOM     32  C   UNL A   1      43.724  20.997  25.614  1.00  0.00     0.202 C 
BRANCH  32  33
ATOM     33  C   UNL A   1      44.227  22.085  24.644  1.00  0.00     0.261 C 
BRANCH  33  34
ATOM     34  O   UNL A   1      43.550  23.341  24.615  1.00  0.00    -0.460 OA
BRANCH  34  35
ATOM     35  C   UNL A   1      44.284  24.412  24.993  1.00  0.00     0.338 C 
ATOM     36  O   UNL A   1      45.407  24.707  24.623  1.00  0.00    -0.246 OA
BRANCH  35  37
ATOM     37  C   UNL A   1      43.441  25.299  25.816  1.00  0.00     0.060 A 
ATOM     38  C   UNL A   1      43.871  26.615  26.019  1.00  0.00     0.016 A 
ATOM     39  C   UNL A   1      42.281  24.823  26.434  1.00  0.00     0.016 A 
ATOM     40  C   UNL A   1      43.175  27.445  26.896  1.00  0.00     0.010 A 
ATOM     41  C   UNL A   1      41.593  25.652  27.326  1.00  0.00     0.010 A 
ATOM     42  C   UNL A   1      42.067  26.948  27.597  1.00  0.00    -0.014 A 
BRANCH  42  43
ATOM     43  C   UNL A   1      41.565  27.705  28.768  1.00  0.00     0.031 A 
ATOM     44  C   UNL A   1      42.297  27.558  30.077  1.00  0.00     0.074 A 
ATOM     45  C   UNL A   1      40.522  28.547  28.667  1.00  0.00     0.049 A 
ATOM     46  N   UNL A   1      42.065  28.133  31.229  1.00  0.00    -0.248 NA
ATOM     47  C   UNL A   1      43.447  26.638  30.084  1.00  0.00     0.031 C 
ATOM     48  C   UNL A   1      39.749  28.801  27.453  1.00  0.00     0.029 A 
ATOM     49  N   UNL A   1      39.937  29.351  29.615  1.00  0.00    -0.354 N 
ATOM     50  C   UNL A   1      43.036  27.645  32.094  1.00  0.00     0.074 A 
ATOM     51  C   UNL A   1      43.841  26.704  31.347  1.00  0.00     0.031 C 
ATOM     52  C   UNL A   1      38.784  29.695  27.732  1.00  0.00     0.029 A 
ATOM     53  C   UNL A   1      38.861  30.062  29.146  1.00  0.00     0.049 A 
ATOM     54  H   UNL A   1      40.258  29.410  30.543  1.00  0.00     0.167 HD
ATOM     55  C   UNL A   1      43.250  27.962  33.393  1.00  0.00     0.037 A 
ATOM     56  C   UNL A   1      38.030  30.903  29.791  1.00  0.00     0.037 A 
ATOM     57  C   UNL A   1      42.457  28.901  34.140  1.00  0.00     0.049 A 
ATOM     58  C   UNL A   1      38.261  31.202  31.250  1.00  0.00     0.074 A 
ATOM     59  C   UNL A   1      42.605  29.297  35.457  1.00  0.00     0.029 A 
ATOM     60  N   UNL A   1      41.367  29.588  33.632  1.00  0.00    -0.354 N 
ATOM     61  N   UNL A   1      39.202  30.760  32.049  1.00  0.00    -0.248 NA
ATOM     62  C   UNL A   1      37.316  32.127  31.895  1.00  0.00     0.031 C 
ATOM     63  C   UNL A   1      41.576  30.195  35.759  1.00  0.00     0.029 A 
ATOM     64  C   UNL A   1      40.819  30.393  34.617  1.00  0.00     0.049 A 
ATOM     65  H   UNL A   1      41.032  29.516  32.710  1.00  0.00     0.167 HD
ATOM     66  C   UNL A   1      38.986  31.379  33.274  1.00  0.00     0.074 A 
ATOM     67  C   UNL A   1      37.831  32.236  33.111  1.00  0.00     0.031 C 
ATOM     68  C   UNL A   1      39.679  31.253  34.433  1.00  0.00     0.037 A 
BRANCH  55  69
ATOM     69  C   UNL A   1      44.379  27.270  34.096  1.00  0.00     0.057 A 
ATOM     70  C   UNL A   1      45.650  27.847  34.197  1.00  0.00     0.134 A 
ATOM     71  C   UNL A   1      44.179  26.029  34.714  1.00  0.00     0.134 A 
ATOM     72  F   UNL A   1      45.912  29.025  33.610  1.00  0.00    -0.206 F 
ATOM     73  C   UNL A   1      46.688  27.209  34.878  1.00  0.00     0.040 A 
ATOM     74  C   UNL A   1      45.202  25.393  35.418  1.00  0.00     0.040 A 
ATOM     75  F   UNL A   1      42.984  25.423  34.654  1.00  0.00    -0.206 F 
ATOM     76  C   UNL A   1      46.463  25.982  35.498  1.00  0.00     0.006 A 
ENDBRANCH  55  69
BRANCH  56  77
ATOM     77  C   UNL A   1      36.884  31.525  29.076  1.00  0.00     0.057 A 
ATOM     78  C   UNL A   1      36.921  32.862  28.664  1.00  0.00     0.134 A 
ATOM     79  C   UNL A   1      35.703  30.812  28.845  1.00  0.00     0.134 A 
ATOM     80  F   UNL A   1      38.016  33.606  28.885  1.00  0.00    -0.206 F 
ATOM     81  C   UNL A   1      35.816  33.477  28.074  1.00  0.00     0.040 A 
ATOM     82  C   UNL A   1      34.598  31.407  28.232  1.00  0.00     0.040 A 
ATOM     83  F   UNL A   1      35.601  29.527  29.217  1.00  0.00    -0.206 F 
ATOM     84  C   UNL A   1      34.649  32.747  27.856  1.00  0.00     0.006 A 
ENDBRANCH  56  77
BRANCH  68  85
ATOM     85  C   UNL A   1      39.238  32.093  35.596  1.00  0.00     0.057 A 
ATOM     86  C   UNL A   1      39.681  33.411  35.770  1.00  0.00     0.134 A 
ATOM     87  C   UNL A   1      38.336  31.584  36.539  1.00  0.00     0.134 A 
ATOM     88  F   UNL A   1      40.554  33.954  34.908  1.00  0.00    -0.206 F 
ATOM     89  C   UNL A   1      39.265  34.181  36.857  1.00  0.00     0.040 A 
ATOM     90  C   UNL A   1      37.891  32.355  37.613  1.00  0.00     0.040 A 
ATOM     91  F   UNL A   1      37.861  30.334  36.423  1.00  0.00    -0.206 F 
ATOM     92  C   UNL A   1      38.363  33.655  37.779  1.00  0.00     0.006 A 
ENDBRANCH  68  85
ENDBRANCH  42  43
ENDBRANCH  35  37
ENDBRANCH  34  35
ENDBRANCH  33  34
ENDBRANCH  32  33
ENDBRANCH  31  32
ENDBRANCH  30  31
ENDBRANCH   1  30
TORSDOF 22
ENDMDL
MODEL 2
REMARK VINA RESULT:     -10.8      1.855      3.783
REMARK SMILES [NH3+]C[C@H]1CC[C@@H](C(=O)Nc2ccc(O)c(C(=O)OCCOCCOCCOC(=O)c3ccc(-c4c5nc(c(-c6c(F)cccc6F)c6ccc([nH]6)c(-c6c(F)cccc6F)c6nc(c(-c7c(F)cccc7F)c7ccc4[nH]7)C=C6)C=C5)cc3)c2)O1
REMARK SMILES IDX 22 1 21 2 20 3 19 4 18 5 16 6 17 7 15 8 10 9 11 10 84 11
REMARK SMILES IDX 12 12 13 13 9 14 7 15 8 16 6 18 3 19 4 20 85 21 5 22 2 23
REMARK SMILES IDX 1 24 14 28 23 30 24 31 25 32 26 33 27 34 28 35 29 36 30 37
REMARK SMILES IDX 31 38 83 39 32 40 82 41 33 42 34 43 35 44 76 45 36 46 81 47
REMARK SMILES IDX 75 48 77 49 37 50 80 51 74 52 73 53 38 55 64 56 47 57 63 58
REMARK SMILES IDX 48 59 51 60 62 61 78 62 49 63 50 64 61 66 79 67 52 68 39 69
REMARK SMILES IDX 40 70 45 71 41 72 42 73 44 74 46 75 43 76 65 77 66 78 71 79
REMARK SMILES IDX 67 80 68 81 70 82 72 83 69 84 53 85 54 86 59 87 55 88 56 89
REMARK SMILES IDX 58 90 60 91 57 92
REMARK H PARENT 9 17 1 25 1 26 1 27 14 29 77 54 51 65
REMARK Flexibility Score: inf
ROOT
ATOM      1  C   UNL A   1      40.113  20.973  26.501  1.00  0.00     0.188 C 
ENDROOT
BRANCH   1   2
ATOM      2  O   UNL A   1      39.271  21.630  25.562  1.00  0.00    -0.376 OA
BRANCH   2   3
ATOM      3  C   UNL A   1      38.167  22.397  26.042  1.00  0.00     0.202 C 
BRANCH   3   4
ATOM      4  C   UNL A   1      37.855  23.735  25.361  1.00  0.00     0.261 C 
BRANCH   4   5
ATOM      5  O   UNL A   1      36.460  23.867  25.064  1.00  0.00    -0.460 OA
BRANCH   5   6
ATOM      6  C   UNL A   1      36.070  23.469  23.823  1.00  0.00     0.342 C 
ATOM      7  O   UNL A   1      36.767  23.322  22.848  1.00  0.00    -0.246 OA
BRANCH   6   8
ATOM      8  C   UNL A   1      34.680  22.962  23.906  1.00  0.00     0.103 A 
ATOM      9  C   UNL A   1      33.163  21.390  24.934  1.00  0.00     0.042 A 
ATOM     10  C   UNL A   1      32.091  22.035  24.315  1.00  0.00     0.030 A 
ATOM     11  C   UNL A   1      34.453  21.886  24.780  1.00  0.00     0.045 A 
ATOM     12  C   UNL A   1      32.311  23.105  23.447  1.00  0.00     0.049 A 
ATOM     13  C   UNL A   1      33.610  23.553  23.223  1.00  0.00     0.130 A 
BRANCH   9  14
ATOM     14  N   UNL A   1      32.934  20.302  25.776  1.00  0.00    -0.324 N 
ATOM     15  C   UNL A   1      32.778  18.985  25.410  1.00  0.00     0.253 C 
ATOM     16  O   UNL A   1      32.243  18.210  26.206  1.00  0.00    -0.272 OA
ATOM     17  H   UNL A   1      32.877  20.498  26.739  1.00  0.00     0.170 HD
BRANCH  15  18
ATOM     18  C   UNL A   1      33.471  18.493  24.112  1.00  0.00     0.208 C 
ATOM     19  C   UNL A   1      35.191  16.895  23.990  1.00  0.00     0.174 C 
ATOM     20  C   UNL A   1      34.163  16.542  22.937  1.00  0.00     0.041 C 
ATOM     21  O   UNL A   1      34.868  18.244  24.372  1.00  0.00    -0.359 OA
ATOM     22  C   UNL A   1      32.927  17.228  23.469  1.00  0.00     0.045 C 
BRANCH  19  23
ATOM     23  C   UNL A   1      35.131  15.946  25.209  1.00  0.00     0.291 C 
BRANCH  23  24
ATOM     24  N   UNL A   1      36.263  16.115  26.120  1.00  0.00    -0.355 N 
ATOM     25  H   UNL A   1      35.962  15.928  27.076  1.00  0.00     0.344 HD
ATOM     26  H   UNL A   1      36.613  17.071  26.053  1.00  0.00     0.344 HD
ATOM     27  H   UNL A   1      37.006  15.463  25.864  1.00  0.00     0.344 HD
ENDBRANCH  23  24
ENDBRANCH  19  23
ENDBRANCH  15  18
ENDBRANCH   9  14
BRANCH  13  28
ATOM     28  O   UNL A   1      33.826  24.573  22.343  1.00  0.00    -0.507 OA
ATOM     29  H   UNL A   1      34.461  25.234  22.540  1.00  0.00     0.293 HD
ENDBRANCH  13  28
ENDBRANCH   6   8
ENDBRANCH   5   6
ENDBRANCH   4   5
ENDBRANCH   3   4
ENDBRANCH   2   3
ENDBRANCH   1   2
BRANCH   1  30
ATOM     30  C   UNL A   1      40.793  19.644  26.111  1.00  0.00     0.188 C 
BRANCH  30  31
ATOM     31  O   UNL A   1      42.072  19.751  25.539  1.00  0.00    -0.376 OA
BRANCH  31  32
ATOM     32  C   UNL A   1      43.032  20.654  26.054  1.00  0.00     0.202 C 
BRANCH  32  33
ATOM     33  C   UNL A   1      43.906  21.620  25.229  1.00  0.00     0.261 C 
BRANCH  33  34
ATOM     34  O   UNL A   1      43.303  22.796  24.690  1.00  0.00    -0.460 OA
BRANCH  34  35
ATOM     35  C   UNL A   1      44.018  23.936  24.825  1.00  0.00     0.338 C 
ATOM     36  O   UNL A   1      45.057  24.228  24.262  1.00  0.00    -0.246 OA
BRANCH  35  37
ATOM     37  C   UNL A   1      43.247  24.884  25.651  1.00  0.00     0.060 A 
ATOM     38  C   UNL A   1      43.775  26.166  25.850  1.00  0.00     0.016 A 
ATOM     39  C   UNL A   1      42.058  24.497  26.276  1.00  0.00     0.016 A 
ATOM     40  C   UNL A   1      43.147  27.046  26.729  1.00  0.00     0.010 A 
ATOM     41  C   UNL A   1      41.438  25.376  27.169  1.00  0.00     0.010 A 
ATOM     42  C   UNL A   1      42.008  26.633  27.436  1.00  0.00    -0.014 A 
BRANCH  42  43
ATOM     43  C   UNL A   1      41.570  27.428  28.609  1.00  0.00     0.031 A 
ATOM     44  C   UNL A   1      42.344  27.284  29.893  1.00  0.00     0.074 A 
ATOM     45  C   UNL A   1      40.548  28.297  28.527  1.00  0.00     0.049 A 
ATOM     46  N   UNL A   1      42.170  27.888  31.041  1.00  0.00    -0.248 NA
ATOM     47  C   UNL A   1      43.467  26.332  29.879  1.00  0.00     0.031 C 
ATOM     48  C   UNL A   1      39.740  28.549  27.336  1.00  0.00     0.029 A 
ATOM     49  N   UNL A   1      40.020  29.135  29.478  1.00  0.00    -0.354 N 
ATOM     50  C   UNL A   1      43.157  27.390  31.881  1.00  0.00     0.074 A 
ATOM     51  C   UNL A   1      43.908  26.412  31.126  1.00  0.00     0.031 C 
ATOM     52  C   UNL A   1      38.811  29.476  27.630  1.00  0.00     0.029 A 
ATOM     53  C   UNL A   1      38.948  29.868  29.033  1.00  0.00     0.049 A 
ATOM     54  H   UNL A   1      40.376  29.203  30.393  1.00  0.00     0.167 HD
ATOM     55  C   UNL A   1      43.426  27.725  33.165  1.00  0.00     0.037 A 
ATOM     56  C   UNL A   1      38.165  30.746  29.689  1.00  0.00     0.037 A 
ATOM     57  C   UNL A   1      42.687  28.701  33.920  1.00  0.00     0.049 A 
ATOM     58  C   UNL A   1      38.457  31.066  31.133  1.00  0.00     0.074 A 
ATOM     59  C   UNL A   1      42.893  29.118  35.223  1.00  0.00     0.029 A 
ATOM     60  N   UNL A   1      41.599  29.410  33.437  1.00  0.00    -0.354 N 
ATOM     61  N   UNL A   1      39.413  30.612  31.907  1.00  0.00    -0.248 NA
ATOM     62  C   UNL A   1      37.562  32.030  31.792  1.00  0.00     0.031 C 
ATOM     63  C   UNL A   1      41.901  30.051  35.543  1.00  0.00     0.029 A 
ATOM     64  C   UNL A   1      41.109  30.249  34.423  1.00  0.00     0.049 A 
ATOM     65  H   UNL A   1      41.229  29.329  32.528  1.00  0.00     0.167 HD
ATOM     66  C   UNL A   1      39.258  31.262  33.126  1.00  0.00     0.074 A 
ATOM     67  C   UNL A   1      38.122  32.148  32.986  1.00  0.00     0.031 C 
ATOM     68  C   UNL A   1      39.988  31.137  34.262  1.00  0.00     0.037 A 
BRANCH  55  69
ATOM     69  C   UNL A   1      44.560  27.015  33.842  1.00  0.00     0.057 A 
ATOM     70  C   UNL A   1      45.864  27.521  33.823  1.00  0.00     0.134 A 
ATOM     71  C   UNL A   1      44.333  25.831  34.556  1.00  0.00     0.134 A 
ATOM     72  F   UNL A   1      46.150  28.641  33.141  1.00  0.00    -0.206 F 
ATOM     73  C   UNL A   1      46.909  26.868  34.480  1.00  0.00     0.040 A 
ATOM     74  C   UNL A   1      45.364  25.183  35.236  1.00  0.00     0.040 A 
ATOM     75  F   UNL A   1      43.105  25.295  34.612  1.00  0.00    -0.206 F 
ATOM     76  C   UNL A   1      46.658  25.700  35.196  1.00  0.00     0.006 A 
ENDBRANCH  55  69
BRANCH  56  77
ATOM     77  C   UNL A   1      37.013  31.386  29.003  1.00  0.00     0.057 A 
ATOM     78  C   UNL A   1      37.063  32.722  28.586  1.00  0.00     0.134 A 
ATOM     79  C   UNL A   1      35.813  30.693  28.803  1.00  0.00     0.134 A 
ATOM     80  F   UNL A   1      38.175  33.447  28.777  1.00  0.00    -0.206 F 
ATOM     81  C   UNL A   1      35.953  33.355  28.024  1.00  0.00     0.040 A 
ATOM     82  C   UNL A   1      34.704  31.306  28.218  1.00  0.00     0.040 A 
ATOM     83  F   UNL A   1      35.699  29.411  29.181  1.00  0.00    -0.206 F 
ATOM     84  C   UNL A   1      34.769  32.645  27.837  1.00  0.00     0.006 A 
ENDBRANCH  56  77
BRANCH  68  85
ATOM     85  C   UNL A   1      39.613  32.012  35.423  1.00  0.00     0.057 A 
ATOM     86  C   UNL A   1      40.171  33.285  35.603  1.00  0.00     0.134 A 
ATOM     87  C   UNL A   1      38.659  31.586  36.355  1.00  0.00     0.134 A 
ATOM     88  F   UNL A   1      41.097  33.749  34.751  1.00  0.00    -0.206 F 
ATOM     89  C   UNL A   1      39.815  34.088  36.688  1.00  0.00     0.040 A 
ATOM     90  C   UNL A   1      38.275  32.392  37.427  1.00  0.00     0.040 A 
ATOM     91  F   UNL A   1      38.076  30.384  36.233  1.00  0.00    -0.206 F 
ATOM     92  C   UNL A   1      38.860  33.645  37.600  1.00  0.00     0.006 A 
ENDBRANCH  68  85
ENDBRANCH  42  43
ENDBRANCH  35  37
ENDBRANCH  34  35
ENDBRANCH  33  34
ENDBRANCH  32  33
ENDBRANCH  31  32
ENDBRANCH  30  31
ENDBRANCH   1  30
TORSDOF 22
ENDMDL
MODEL 3
REMARK VINA RESULT:     -10.1      1.144      6.242
REMARK SMILES [NH3+]C[C@H]1CC[C@@H](C(=O)Nc2ccc(O)c(C(=O)OCCOCCOCCOC(=O)c3ccc(-c4c5nc(c(-c6c(F)cccc6F)c6ccc([nH]6)c(-c6c(F)cccc6F)c6nc(c(-c7c(F)cccc7F)c7ccc4[nH]7)C=C6)C=C5)cc3)c2)O1
REMARK SMILES IDX 22 1 21 2 20 3 19 4 18 5 16 6 17 7 15 8 10 9 11 10 84 11
REMARK SMILES IDX 12 12 13 13 9 14 7 15 8 16 6 18 3 19 4 20 85 21 5 22 2 23
REMARK SMILES IDX 1 24 14 28 23 30 24 31 25 32 26 33 27 34 28 35 29 36 30 37
REMARK SMILES IDX 31 38 83 39 32 40 82 41 33 42 34 43 35 44 76 45 36 46 81 47
REMARK SMILES IDX 75 48 77 49 37 50 80 51 74 52 73 53 38 55 64 56 47 57 63 58
REMARK SMILES IDX 48 59 51 60 62 61 78 62 49 63 50 64 61 66 79 67 52 68 39 69
REMARK SMILES IDX 40 70 45 71 41 72 42 73 44 74 46 75 43 76 65 77 66 78 71 79
REMARK SMILES IDX 67 80 68 81 70 82 72 83 69 84 53 85 54 86 59 87 55 88 56 89
REMARK SMILES IDX 58 90 60 91 57 92
REMARK H PARENT 9 17 1 25 1 26 1 27 14 29 77 54 51 65
REMARK Flexibility Score: inf
ROOT
ATOM      1  C   UNL A   1      40.981  20.991  27.003  1.00  0.00     0.188 C 
ENDROOT
BRANCH   1   2
ATOM      2  O   UNL A   1      39.891  20.859  26.099  1.00  0.00    -0.376 OA
BRANCH   2   3
ATOM      3  C   UNL A   1      38.851  21.835  26.121  1.00  0.00     0.202 C 
BRANCH   3   4
ATOM      4  C   UNL A   1      37.739  21.744  25.069  1.00  0.00     0.261 C 
BRANCH   4   5
ATOM      5  O   UNL A   1      36.443  21.939  25.648  1.00  0.00    -0.460 OA
BRANCH   5   6
ATOM      6  C   UNL A   1      35.656  22.876  25.056  1.00  0.00     0.342 C 
ATOM      7  O   UNL A   1      35.977  23.672  24.206  1.00  0.00    -0.246 OA
BRANCH   6   8
ATOM      8  C   UNL A   1      34.244  22.596  25.409  1.00  0.00     0.103 A 
ATOM      9  C   UNL A   1      32.152  23.489  26.216  1.00  0.00     0.042 A 
ATOM     10  C   UNL A   1      31.532  22.273  25.926  1.00  0.00     0.030 A 
ATOM     11  C   UNL A   1      33.493  23.675  25.904  1.00  0.00     0.045 A 
ATOM     12  C   UNL A   1      32.272  21.198  25.432  1.00  0.00     0.049 A 
ATOM     13  C   UNL A   1      33.636  21.353  25.197  1.00  0.00     0.130 A 
BRANCH   9  14
ATOM     14  N   UNL A   1      31.407  24.547  26.738  1.00  0.00    -0.324 N 
ATOM     15  C   UNL A   1      30.991  25.678  26.075  1.00  0.00     0.253 C 
ATOM     16  O   UNL A   1      30.656  26.662  26.738  1.00  0.00    -0.272 OA
ATOM     17  H   UNL A   1      31.152  24.477  27.686  1.00  0.00     0.170 HD
BRANCH  15  18
ATOM     18  C   UNL A   1      30.756  25.591  24.544  1.00  0.00     0.208 C 
ATOM     19  C   UNL A   1      30.137  27.373  23.142  1.00  0.00     0.174 C 
ATOM     20  C   UNL A   1      31.275  26.635  22.469  1.00  0.00     0.041 C 
ATOM     21  O   UNL A   1      29.680  26.473  24.166  1.00  0.00    -0.359 OA
ATOM     22  C   UNL A   1      31.927  25.938  23.640  1.00  0.00     0.045 C 
BRANCH  19  23
ATOM     23  C   UNL A   1      30.592  28.719  23.750  1.00  0.00     0.291 C 
BRANCH  23  24
ATOM     24  N   UNL A   1      30.970  29.705  22.737  1.00  0.00    -0.355 N 
ATOM     25  H   UNL A   1      30.721  29.355  21.812  1.00  0.00     0.344 HD
ATOM     26  H   UNL A   1      31.977  29.867  22.781  1.00  0.00     0.344 HD
ATOM     27  H   UNL A   1      30.477  30.581  22.914  1.00  0.00     0.344 HD
ENDBRANCH  23  24
ENDBRANCH  19  23
ENDBRANCH  15  18
ENDBRANCH   9  14
BRANCH  13  28
ATOM     28  O   UNL A   1      34.366  20.290  24.753  1.00  0.00    -0.507 OA
ATOM     29  H   UNL A   1      33.974  19.660  24.180  1.00  0.00     0.293 HD
ENDBRANCH  13  28
ENDBRANCH   6   8
ENDBRANCH   5   6
ENDBRANCH   4   5
ENDBRANCH   3   4
ENDBRANCH   2   3
ENDBRANCH   1   2
BRANCH   1  30
ATOM     30  C   UNL A   1      42.197  20.052  26.869  1.00  0.00     0.188 C 
BRANCH  30  31
ATOM     31  O   UNL A   1      42.838  20.050  25.619  1.00  0.00    -0.376 OA
BRANCH  31  32
ATOM     32  C   UNL A   1      43.983  20.848  25.380  1.00  0.00     0.202 C 
BRANCH  32  33
ATOM     33  C   UNL A   1      44.013  22.188  24.619  1.00  0.00     0.261 C 
BRANCH  33  34
ATOM     34  O   UNL A   1      43.248  23.281  25.128  1.00  0.00    -0.460 OA
BRANCH  34  35
ATOM     35  C   UNL A   1      43.909  24.453  25.252  1.00  0.00     0.338 C 
ATOM     36  O   UNL A   1      44.887  24.820  24.625  1.00  0.00    -0.246 OA
BRANCH  35  37
ATOM     37  C   UNL A   1      43.153  25.330  26.165  1.00  0.00     0.060 A 
ATOM     38  C   UNL A   1      43.518  26.680  26.234  1.00  0.00     0.016 A 
ATOM     39  C   UNL A   1      42.147  24.819  26.990  1.00  0.00     0.016 A 
ATOM     40  C   UNL A   1      42.919  27.513  27.178  1.00  0.00     0.010 A 
ATOM     41  C   UNL A   1      41.559  25.652  27.947  1.00  0.00     0.010 A 
ATOM     42  C   UNL A   1      41.979  26.987  28.076  1.00  0.00    -0.014 A 
BRANCH  42  43
ATOM     43  C   UNL A   1      41.625  27.776  29.281  1.00  0.00     0.031 A 
ATOM     44  C   UNL A   1      40.417  28.674  29.214  1.00  0.00     0.074 A 
ATOM     45  C   UNL A   1      42.320  27.661  30.426  1.00  0.00     0.049 A 
ATOM     46  N   UNL A   1      39.896  29.438  30.139  1.00  0.00    -0.248 NA
ATOM     47  C   UNL A   1      39.700  28.711  27.928  1.00  0.00     0.031 C 
ATOM     48  C   UNL A   1      43.488  26.806  30.629  1.00  0.00     0.029 A 
ATOM     49  N   UNL A   1      42.133  28.272  31.642  1.00  0.00    -0.354 N 
ATOM     50  C   UNL A   1      38.795  30.045  29.549  1.00  0.00     0.074 A 
ATOM     51  C   UNL A   1      38.738  29.588  28.178  1.00  0.00     0.031 C 
ATOM     52  C   UNL A   1      43.919  26.954  31.895  1.00  0.00     0.029 A 
ATOM     53  C   UNL A   1      43.069  27.925  32.583  1.00  0.00     0.049 A 
ATOM     54  H   UNL A   1      41.397  28.901  31.820  1.00  0.00     0.167 HD
ATOM     55  C   UNL A   1      37.900  30.898  30.101  1.00  0.00     0.037 A 
ATOM     56  C   UNL A   1      43.224  28.352  33.851  1.00  0.00     0.037 A 
ATOM     57  C   UNL A   1      37.948  31.352  31.464  1.00  0.00     0.049 A 
ATOM     58  C   UNL A   1      42.240  29.340  34.427  1.00  0.00     0.074 A 
ATOM     59  C   UNL A   1      37.078  32.206  32.118  1.00  0.00     0.029 A 
ATOM     60  N   UNL A   1      38.921  30.988  32.381  1.00  0.00    -0.354 N 
ATOM     61  N   UNL A   1      41.184  29.881  33.869  1.00  0.00    -0.248 NA
ATOM     62  C   UNL A   1      42.468  29.768  35.816  1.00  0.00     0.031 C 
ATOM     63  C   UNL A   1      37.549  32.393  33.422  1.00  0.00     0.029 A 
ATOM     64  C   UNL A   1      38.684  31.617  33.592  1.00  0.00     0.049 A 
ATOM     65  H   UNL A   1      39.669  30.375  32.199  1.00  0.00     0.167 HD
ATOM     66  C   UNL A   1      40.604  30.681  34.847  1.00  0.00     0.074 A 
ATOM     67  C   UNL A   1      41.418  30.546  36.035  1.00  0.00     0.031 C 
ATOM     68  C   UNL A   1      39.496  31.458  34.770  1.00  0.00     0.037 A 
BRANCH  55  69
ATOM     69  C   UNL A   1      36.800  31.411  29.220  1.00  0.00     0.057 A 
ATOM     70  C   UNL A   1      35.698  30.619  28.879  1.00  0.00     0.134 A 
ATOM     71  C   UNL A   1      36.827  32.727  28.743  1.00  0.00     0.134 A 
ATOM     72  F   UNL A   1      35.623  29.344  29.288  1.00  0.00    -0.206 F 
ATOM     73  C   UNL A   1      34.664  31.114  28.081  1.00  0.00     0.040 A 
ATOM     74  C   UNL A   1      35.789  33.241  27.965  1.00  0.00     0.040 A 
ATOM     75  F   UNL A   1      37.856  33.537  29.035  1.00  0.00    -0.206 F 
ATOM     76  C   UNL A   1      34.704  32.432  27.630  1.00  0.00     0.006 A 
ENDBRANCH  55  69
BRANCH  56  77
ATOM     77  C   UNL A   1      44.361  27.867  34.676  1.00  0.00     0.057 A 
ATOM     78  C   UNL A   1      44.233  26.748  35.508  1.00  0.00     0.134 A 
ATOM     79  C   UNL A   1      45.583  28.549  34.696  1.00  0.00     0.134 A 
ATOM     80  F   UNL A   1      43.076  26.071  35.554  1.00  0.00    -0.206 F 
ATOM     81  C   UNL A   1      45.268  26.343  36.352  1.00  0.00     0.040 A 
ATOM     82  C   UNL A   1      46.635  28.139  35.517  1.00  0.00     0.040 A 
ATOM     83  F   UNL A   1      45.770  29.630  33.924  1.00  0.00    -0.206 F 
ATOM     84  C   UNL A   1      46.475  27.039  36.356  1.00  0.00     0.006 A 
ENDBRANCH  56  77
BRANCH  68  85
ATOM     85  C   UNL A   1      39.073  32.182  36.016  1.00  0.00     0.057 A 
ATOM     86  C   UNL A   1      39.499  33.487  36.297  1.00  0.00     0.134 A 
ATOM     87  C   UNL A   1      38.204  31.574  36.930  1.00  0.00     0.134 A 
ATOM     88  F   UNL A   1      40.340  34.121  35.466  1.00  0.00    -0.206 F 
ATOM     89  C   UNL A   1      39.100  34.148  37.460  1.00  0.00     0.040 A 
ATOM     90  C   UNL A   1      37.775  32.236  38.082  1.00  0.00     0.040 A 
ATOM     91  F   UNL A   1      37.746  30.331  36.714  1.00  0.00    -0.206 F 
ATOM     92  C   UNL A   1      38.231  33.525  38.353  1.00  0.00     0.006 A 
ENDBRANCH  68  85
ENDBRANCH  42  43
ENDBRANCH  35  37
ENDBRANCH  34  35
ENDBRANCH  33  34
ENDBRANCH  32  33
ENDBRANCH  31  32
ENDBRANCH  30  31
ENDBRANCH   1  30
TORSDOF 22
ENDMDL
