MODEL 1
REMARK VINA RESULT:     -10.1      0.000      0.000
REMARK SMILES C[C@@H]1[C@@H](C(=O)OCCOCCOCCOC(=O)c2ccc(-c3c4nc(c(-c5c(F)cccc5F)c5ccc([nH]5)c(-c5c(F)cccc5F)c5nc(c(-c6c(F)cccc6F)c6ccc3[nH]6)C=C5)C=C4)cc2)CCN1C(=O)N[C@@H](C)Cc1ccco1
REMARK SMILES IDX 10 1 9 2 8 3 7 4 6 5 4 6 5 7 3 8 1 9 2 10 74 11 72 12 73 13
REMARK SMILES IDX 75 14 76 15 77 16 78 18 79 19 80 20 81 21 82 22 85 23 83 24
REMARK SMILES IDX 84 25 11 26 12 27 13 28 14 29 15 30 16 31 17 32 18 33 19 34
REMARK SMILES IDX 71 35 20 36 70 37 21 38 22 39 23 40 64 41 24 42 69 43 63 44
REMARK SMILES IDX 65 45 25 46 68 47 62 48 61 49 26 51 52 52 35 53 51 54 36 55
REMARK SMILES IDX 39 56 50 57 66 58 37 59 38 60 49 62 67 63 40 64 27 65 28 66
REMARK SMILES IDX 33 67 29 68 30 69 32 70 34 71 31 72 53 73 54 74 59 75 55 76
REMARK SMILES IDX 56 77 58 78 60 79 57 80 41 81 42 82 47 83 43 84 44 85 46 86
REMARK SMILES IDX 48 87 45 88
REMARK H PARENT 77 17 65 50 39 61
REMARK Flexibility Score: inf
ROOT
ATOM      1  C   UNL A   1      36.280  22.960  23.745  1.00  0.00     0.188 C 
ENDROOT
BRANCH   1   2
ATOM      2  O   UNL A   1      34.900  23.205  23.966  1.00  0.00    -0.376 OA
BRANCH   2   3
ATOM      3  C   UNL A   1      34.033  23.024  22.852  1.00  0.00     0.202 C 
BRANCH   3   4
ATOM      4  C   UNL A   1      32.571  23.460  23.005  1.00  0.00     0.261 C 
BRANCH   4   5
ATOM      5  O   UNL A   1      32.399  24.761  23.587  1.00  0.00    -0.463 OA
BRANCH   5   6
ATOM      6  C   UNL A   1      32.631  25.850  22.810  1.00  0.00     0.311 C 
ATOM      7  O   UNL A   1      32.123  26.043  21.717  1.00  0.00    -0.252 OA
BRANCH   6   8
ATOM      8  C   UNL A   1      33.608  26.777  23.522  1.00  0.00     0.123 C 
ATOM      9  C   UNL A   1      33.994  27.783  25.804  1.00  0.00     0.032 C 
ATOM     10  C   UNL A   1      32.947  27.455  24.730  1.00  0.00     0.098 C 
ATOM     11  N   UNL A   1      32.366  28.680  24.176  1.00  0.00    -0.321 N 
ATOM     12  C   UNL A   1      34.035  27.939  22.639  1.00  0.00     0.039 C 
ATOM     13  C   UNL A   1      32.942  28.969  22.866  1.00  0.00     0.122 C 
BRANCH  11  14
ATOM     14  C   UNL A   1      31.288  29.414  24.552  1.00  0.00     0.317 C 
ATOM     15  O   UNL A   1      31.372  30.255  25.455  1.00  0.00    -0.249 OA
ATOM     16  N   UNL A   1      30.076  29.311  23.988  1.00  0.00    -0.335 N 
ATOM     17  H   UNL A   1      29.474  30.024  24.299  1.00  0.00     0.165 HD
BRANCH  16  18
ATOM     18  C   UNL A   1      29.407  28.427  23.035  1.00  0.00     0.088 C 
ATOM     19  C   UNL A   1      29.220  27.059  23.696  1.00  0.00     0.031 C 
BRANCH  18  20
ATOM     20  C   UNL A   1      28.038  28.978  22.610  1.00  0.00     0.100 C 
BRANCH  20  21
ATOM     21  C   UNL A   1      28.078  30.389  22.154  1.00  0.00     0.105 A 
ATOM     22  C   UNL A   1      27.985  30.980  20.911  1.00  0.00     0.045 A 
ATOM     23  O   UNL A   1      28.293  31.335  23.110  1.00  0.00    -0.469 OA
ATOM     24  C   UNL A   1      28.156  32.367  21.118  1.00  0.00     0.042 A 
ATOM     25  C   UNL A   1      28.360  32.529  22.468  1.00  0.00     0.195 A 
ENDBRANCH  20  21
ENDBRANCH  18  20
ENDBRANCH  16  18
ENDBRANCH  11  14
ENDBRANCH   6   8
ENDBRANCH   5   6
ENDBRANCH   4   5
ENDBRANCH   3   4
ENDBRANCH   2   3
ENDBRANCH   1   2
BRANCH   1  26
ATOM     26  C   UNL A   1      37.158  23.121  25.004  1.00  0.00     0.188 C 
BRANCH  26  27
ATOM     27  O   UNL A   1      37.930  22.029  25.482  1.00  0.00    -0.376 OA
BRANCH  27  28
ATOM     28  C   UNL A   1      37.694  20.734  24.940  1.00  0.00     0.202 C 
BRANCH  28  29
ATOM     29  C   UNL A   1      38.778  19.656  25.090  1.00  0.00     0.261 C 
BRANCH  29  30
ATOM     30  O   UNL A   1      39.542  19.737  26.305  1.00  0.00    -0.460 OA
BRANCH  30  31
ATOM     31  C   UNL A   1      40.888  19.680  26.141  1.00  0.00     0.338 C 
ATOM     32  O   UNL A   1      41.529  18.838  25.537  1.00  0.00    -0.246 OA
BRANCH  31  33
ATOM     33  C   UNL A   1      41.509  20.914  26.660  1.00  0.00     0.060 A 
ATOM     34  C   UNL A   1      41.317  21.229  28.013  1.00  0.00     0.016 A 
ATOM     35  C   UNL A   1      42.190  21.791  25.817  1.00  0.00     0.016 A 
ATOM     36  C   UNL A   1      41.789  22.436  28.524  1.00  0.00     0.010 A 
ATOM     37  C   UNL A   1      42.634  23.018  26.324  1.00  0.00     0.010 A 
ATOM     38  C   UNL A   1      42.408  23.356  27.670  1.00  0.00    -0.014 A 
BRANCH  38  39
ATOM     39  C   UNL A   1      42.648  24.739  28.142  1.00  0.00     0.031 A 
ATOM     40  C   UNL A   1      44.051  25.145  28.496  1.00  0.00     0.074 A 
ATOM     41  C   UNL A   1      41.644  25.627  28.239  1.00  0.00     0.049 A 
ATOM     42  N   UNL A   1      44.489  26.278  28.981  1.00  0.00    -0.248 NA
ATOM     43  C   UNL A   1      45.098  24.134  28.279  1.00  0.00     0.031 C 
ATOM     44  C   UNL A   1      40.249  25.364  27.898  1.00  0.00     0.029 A 
ATOM     45  N   UNL A   1      41.648  26.932  28.666  1.00  0.00    -0.354 N 
ATOM     46  C   UNL A   1      45.860  26.114  29.135  1.00  0.00     0.074 A 
ATOM     47  C   UNL A   1      46.179  24.769  28.707  1.00  0.00     0.031 C 
ATOM     48  C   UNL A   1      39.529  26.474  28.138  1.00  0.00     0.029 A 
ATOM     49  C   UNL A   1      40.405  27.515  28.665  1.00  0.00     0.049 A 
ATOM     50  H   UNL A   1      42.466  27.405  28.945  1.00  0.00     0.167 HD
ATOM     51  C   UNL A   1      46.770  27.004  29.595  1.00  0.00     0.037 A 
ATOM     52  C   UNL A   1      40.018  28.742  29.062  1.00  0.00     0.037 A 
ATOM     53  C   UNL A   1      46.453  28.335  30.038  1.00  0.00     0.049 A 
ATOM     54  C   UNL A   1      41.041  29.692  29.628  1.00  0.00     0.074 A 
ATOM     55  C   UNL A   1      47.305  29.304  30.537  1.00  0.00     0.029 A 
ATOM     56  N   UNL A   1      45.179  28.880  30.041  1.00  0.00    -0.354 N 
ATOM     57  N   UNL A   1      42.334  29.528  29.768  1.00  0.00    -0.248 NA
ATOM     58  C   UNL A   1      40.545  30.990  30.107  1.00  0.00     0.031 C 
ATOM     59  C   UNL A   1      46.540  30.426  30.874  1.00  0.00     0.029 A 
ATOM     60  C   UNL A   1      45.218  30.169  30.547  1.00  0.00     0.049 A 
ATOM     61  H   UNL A   1      44.366  28.419  29.729  1.00  0.00     0.167 HD
ATOM     62  C   UNL A   1      42.808  30.706  30.332  1.00  0.00     0.074 A 
ATOM     63  C   UNL A   1      41.668  31.583  30.491  1.00  0.00     0.031 C 
ATOM     64  C   UNL A   1      44.075  31.031  30.690  1.00  0.00     0.037 A 
BRANCH  51  65
ATOM     65  C   UNL A   1      48.195  26.545  29.672  1.00  0.00     0.057 A 
ATOM     66  C   UNL A   1      49.095  26.763  28.621  1.00  0.00     0.134 A 
ATOM     67  C   UNL A   1      48.676  25.896  30.815  1.00  0.00     0.134 A 
ATOM     68  F   UNL A   1      48.690  27.361  27.491  1.00  0.00    -0.206 F 
ATOM     69  C   UNL A   1      50.421  26.333  28.699  1.00  0.00     0.040 A 
ATOM     70  C   UNL A   1      50.005  25.482  30.914  1.00  0.00     0.040 A 
ATOM     71  F   UNL A   1      47.862  25.659  31.855  1.00  0.00    -0.206 F 
ATOM     72  C   UNL A   1      50.880  25.696  29.851  1.00  0.00     0.006 A 
ENDBRANCH  51  65
BRANCH  52  73
ATOM     73  C   UNL A   1      38.594  29.151  28.958  1.00  0.00     0.057 A 
ATOM     74  C   UNL A   1      38.071  29.645  27.757  1.00  0.00     0.134 A 
ATOM     75  C   UNL A   1      37.732  29.090  30.060  1.00  0.00     0.134 A 
ATOM     76  F   UNL A   1      38.854  29.749  26.673  1.00  0.00    -0.206 F 
ATOM     77  C   UNL A   1      36.748  30.082  27.658  1.00  0.00     0.040 A 
ATOM     78  C   UNL A   1      36.400  29.498  29.969  1.00  0.00     0.040 A 
ATOM     79  F   UNL A   1      38.171  28.627  31.239  1.00  0.00    -0.206 F 
ATOM     80  C   UNL A   1      35.908  30.005  28.767  1.00  0.00     0.006 A 
ENDBRANCH  52  73
BRANCH  64  81
ATOM     81  C   UNL A   1      44.298  32.400  31.258  1.00  0.00     0.057 A 
ATOM     82  C   UNL A   1      44.237  32.646  32.635  1.00  0.00     0.134 A 
ATOM     83  C   UNL A   1      44.620  33.476  30.420  1.00  0.00     0.134 A 
ATOM     84  F   UNL A   1      43.920  31.661  33.489  1.00  0.00    -0.206 F 
ATOM     85  C   UNL A   1      44.470  33.919  33.157  1.00  0.00     0.040 A 
ATOM     86  C   UNL A   1      44.878  34.747  30.933  1.00  0.00     0.040 A 
ATOM     87  F   UNL A   1      44.701  33.303  29.092  1.00  0.00    -0.206 F 
ATOM     88  C   UNL A   1      44.799  34.973  32.306  1.00  0.00     0.006 A 
ENDBRANCH  64  81
ENDBRANCH  38  39
ENDBRANCH  31  33
ENDBRANCH  30  31
ENDBRANCH  29  30
ENDBRANCH  28  29
ENDBRANCH  27  28
ENDBRANCH  26  27
ENDBRANCH   1  26
TORSDOF 21
ENDMDL
MODEL 2
REMARK VINA RESULT:     -10.0      3.573      5.360
REMARK SMILES C[C@@H]1[C@@H](C(=O)OCCOCCOCCOC(=O)c2ccc(-c3c4nc(c(-c5c(F)cccc5F)c5ccc([nH]5)c(-c5c(F)cccc5F)c5nc(c(-c6c(F)cccc6F)c6ccc3[nH]6)C=C5)C=C4)cc2)CCN1C(=O)N[C@@H](C)Cc1ccco1
REMARK SMILES IDX 10 1 9 2 8 3 7 4 6 5 4 6 5 7 3 8 1 9 2 10 74 11 72 12 73 13
REMARK SMILES IDX 75 14 76 15 77 16 78 18 79 19 80 20 81 21 82 22 85 23 83 24
REMARK SMILES IDX 84 25 11 26 12 27 13 28 14 29 15 30 16 31 17 32 18 33 19 34
REMARK SMILES IDX 71 35 20 36 70 37 21 38 22 39 23 40 64 41 24 42 69 43 63 44
REMARK SMILES IDX 65 45 25 46 68 47 62 48 61 49 26 51 52 52 35 53 51 54 36 55
REMARK SMILES IDX 39 56 50 57 66 58 37 59 38 60 49 62 67 63 40 64 27 65 28 66
REMARK SMILES IDX 33 67 29 68 30 69 32 70 34 71 31 72 53 73 54 74 59 75 55 76
REMARK SMILES IDX 56 77 58 78 60 79 57 80 41 81 42 82 47 83 43 84 44 85 46 86
REMARK SMILES IDX 48 87 45 88
REMARK H PARENT 77 17 65 50 39 61
REMARK Flexibility Score: inf
ROOT
ATOM      1  C   UNL A   1      39.262  20.586  25.904  1.00  0.00     0.188 C 
ENDROOT
BRANCH   1   2
ATOM      2  O   UNL A   1      38.409  21.272  25.002  1.00  0.00    -0.376 OA
BRANCH   2   3
ATOM      3  C   UNL A   1      37.465  22.170  25.572  1.00  0.00     0.202 C 
BRANCH   3   4
ATOM      4  C   UNL A   1      36.063  21.633  25.883  1.00  0.00     0.261 C 
BRANCH   4   5
ATOM      5  O   UNL A   1      35.312  21.234  24.726  1.00  0.00    -0.463 OA
BRANCH   5   6
ATOM      6  C   UNL A   1      34.038  20.798  24.905  1.00  0.00     0.311 C 
ATOM      7  O   UNL A   1      33.689  20.007  25.767  1.00  0.00    -0.252 OA
BRANCH   6   8
ATOM      8  C   UNL A   1      33.132  21.455  23.870  1.00  0.00     0.123 C 
ATOM      9  C   UNL A   1      33.277  23.053  21.922  1.00  0.00     0.032 C 
ATOM     10  C   UNL A   1      33.741  22.768  23.358  1.00  0.00     0.098 C 
ATOM     11  N   UNL A   1      33.229  23.782  24.283  1.00  0.00    -0.321 N 
ATOM     12  C   UNL A   1      31.801  21.879  24.468  1.00  0.00     0.039 C 
ATOM     13  C   UNL A   1      32.097  23.255  25.038  1.00  0.00     0.122 C 
BRANCH  11  14
ATOM     14  C   UNL A   1      33.745  24.970  24.689  1.00  0.00     0.317 C 
ATOM     15  O   UNL A   1      34.372  25.063  25.751  1.00  0.00    -0.249 OA
ATOM     16  N   UNL A   1      33.639  26.111  23.994  1.00  0.00    -0.335 N 
ATOM     17  H   UNL A   1      34.199  26.821  24.383  1.00  0.00     0.165 HD
BRANCH  16  18
ATOM     18  C   UNL A   1      32.919  26.588  22.815  1.00  0.00     0.088 C 
ATOM     19  C   UNL A   1      31.476  26.080  22.893  1.00  0.00     0.031 C 
BRANCH  18  20
ATOM     20  C   UNL A   1      32.915  28.120  22.730  1.00  0.00     0.100 C 
BRANCH  20  21
ATOM     21  C   UNL A   1      32.591  28.789  24.014  1.00  0.00     0.105 A 
ATOM     22  C   UNL A   1      31.440  29.361  24.513  1.00  0.00     0.045 A 
ATOM     23  O   UNL A   1      33.614  28.936  24.901  1.00  0.00    -0.469 OA
ATOM     24  C   UNL A   1      31.778  29.892  25.779  1.00  0.00     0.042 A 
ATOM     25  C   UNL A   1      33.114  29.626  25.958  1.00  0.00     0.195 A 
ENDBRANCH  20  21
ENDBRANCH  18  20
ENDBRANCH  16  18
ENDBRANCH  11  14
ENDBRANCH   6   8
ENDBRANCH   5   6
ENDBRANCH   4   5
ENDBRANCH   3   4
ENDBRANCH   2   3
ENDBRANCH   1   2
BRANCH   1  26
ATOM     26  C   UNL A   1      40.082  21.515  26.825  1.00  0.00     0.188 C 
BRANCH  26  27
ATOM     27  O   UNL A   1      41.419  21.183  27.168  1.00  0.00    -0.376 OA
BRANCH  27  28
ATOM     28  C   UNL A   1      42.291  20.710  26.147  1.00  0.00     0.202 C 
BRANCH  28  29
ATOM     29  C   UNL A   1      43.322  21.676  25.542  1.00  0.00     0.261 C 
BRANCH  29  30
ATOM     30  O   UNL A   1      42.765  22.884  24.996  1.00  0.00    -0.460 OA
BRANCH  30  31
ATOM     31  C   UNL A   1      43.546  23.986  25.126  1.00  0.00     0.338 C 
ATOM     32  O   UNL A   1      44.580  24.240  24.532  1.00  0.00    -0.246 OA
BRANCH  31  33
ATOM     33  C   UNL A   1      42.874  24.978  25.988  1.00  0.00     0.060 A 
ATOM     34  C   UNL A   1      43.490  26.226  26.159  1.00  0.00     0.016 A 
ATOM     35  C   UNL A   1      41.710  24.660  26.687  1.00  0.00     0.016 A 
ATOM     36  C   UNL A   1      42.955  27.155  27.048  1.00  0.00     0.010 A 
ATOM     37  C   UNL A   1      41.192  25.580  27.605  1.00  0.00     0.010 A 
ATOM     38  C   UNL A   1      41.829  26.817  27.809  1.00  0.00    -0.014 A 
BRANCH  38  39
ATOM     39  C   UNL A   1      41.435  27.680  28.947  1.00  0.00     0.031 A 
ATOM     40  C   UNL A   1      42.209  27.573  30.231  1.00  0.00     0.074 A 
ATOM     41  C   UNL A   1      40.421  28.554  28.841  1.00  0.00     0.049 A 
ATOM     42  N   UNL A   1      42.012  28.184  31.371  1.00  0.00    -0.248 NA
ATOM     43  C   UNL A   1      43.355  26.651  30.229  1.00  0.00     0.031 C 
ATOM     44  C   UNL A   1      39.615  28.770  27.643  1.00  0.00     0.029 A 
ATOM     45  N   UNL A   1      39.889  29.418  29.767  1.00  0.00    -0.354 N 
ATOM     46  C   UNL A   1      43.001  27.714  32.224  1.00  0.00     0.074 A 
ATOM     47  C   UNL A   1      43.789  26.757  31.477  1.00  0.00     0.031 C 
ATOM     48  C   UNL A   1      38.684  29.703  27.910  1.00  0.00     0.029 A 
ATOM     49  C   UNL A   1      38.816  30.134  29.299  1.00  0.00     0.049 A 
ATOM     50  H   UNL A   1      40.247  29.515  30.680  1.00  0.00     0.167 HD
ATOM     51  C   UNL A   1      43.232  28.047  33.516  1.00  0.00     0.037 A 
ATOM     52  C   UNL A   1      38.020  31.021  29.925  1.00  0.00     0.037 A 
ATOM     53  C   UNL A   1      42.440  28.984  34.266  1.00  0.00     0.049 A 
ATOM     54  C   UNL A   1      38.260  31.329  31.380  1.00  0.00     0.074 A 
ATOM     55  C   UNL A   1      42.586  29.374  35.586  1.00  0.00     0.029 A 
ATOM     56  N   UNL A   1      41.348  29.673  33.762  1.00  0.00    -0.354 N 
ATOM     57  N   UNL A   1      39.199  30.880  32.176  1.00  0.00    -0.248 NA
ATOM     58  C   UNL A   1      37.316  32.253  32.026  1.00  0.00     0.031 C 
ATOM     59  C   UNL A   1      41.558  30.274  35.890  1.00  0.00     0.029 A 
ATOM     60  C   UNL A   1      40.799  30.475  34.748  1.00  0.00     0.049 A 
ATOM     61  H   UNL A   1      41.012  29.601  32.839  1.00  0.00     0.167 HD
ATOM     62  C   UNL A   1      38.972  31.480  33.409  1.00  0.00     0.074 A 
ATOM     63  C   UNL A   1      37.817  32.339  33.251  1.00  0.00     0.031 C 
ATOM     64  C   UNL A   1      39.656  31.330  34.570  1.00  0.00     0.037 A 
BRANCH  51  65
ATOM     65  C   UNL A   1      44.373  27.362  34.205  1.00  0.00     0.057 A 
ATOM     66  C   UNL A   1      45.654  27.926  34.244  1.00  0.00     0.134 A 
ATOM     67  C   UNL A   1      44.183  26.135  34.851  1.00  0.00     0.134 A 
ATOM     68  F   UNL A   1      45.904  29.090  33.627  1.00  0.00    -0.206 F 
ATOM     69  C   UNL A   1      46.712  27.282  34.888  1.00  0.00     0.040 A 
ATOM     70  C   UNL A   1      45.228  25.492  35.517  1.00  0.00     0.040 A 
ATOM     71  F   UNL A   1      42.979  25.543  34.849  1.00  0.00    -0.206 F 
ATOM     72  C   UNL A   1      46.498  26.064  35.532  1.00  0.00     0.006 A 
ENDBRANCH  51  65
BRANCH  52  73
ATOM     73  C   UNL A   1      36.908  31.679  29.195  1.00  0.00     0.057 A 
ATOM     74  C   UNL A   1      37.019  33.002  28.751  1.00  0.00     0.134 A 
ATOM     75  C   UNL A   1      35.697  31.018  28.952  1.00  0.00     0.134 A 
ATOM     76  F   UNL A   1      38.144  33.697  28.974  1.00  0.00    -0.206 F 
ATOM     77  C   UNL A   1      35.961  33.651  28.108  1.00  0.00     0.040 A 
ATOM     78  C   UNL A   1      34.641  31.645  28.288  1.00  0.00     0.040 A 
ATOM     79  F   UNL A   1      35.527  29.750  29.353  1.00  0.00    -0.206 F 
ATOM     80  C   UNL A   1      34.769  32.969  27.872  1.00  0.00     0.006 A 
ENDBRANCH  52  73
BRANCH  64  81
ATOM     81  C   UNL A   1      39.193  32.134  35.748  1.00  0.00     0.057 A 
ATOM     82  C   UNL A   1      39.641  33.442  35.971  1.00  0.00     0.134 A 
ATOM     83  C   UNL A   1      38.255  31.607  36.646  1.00  0.00     0.134 A 
ATOM     84  F   UNL A   1      40.548  33.999  35.154  1.00  0.00    -0.206 F 
ATOM     85  C   UNL A   1      39.186  34.192  37.057  1.00  0.00     0.040 A 
ATOM     86  C   UNL A   1      37.776  32.355  37.721  1.00  0.00     0.040 A 
ATOM     87  F   UNL A   1      37.782  30.362  36.483  1.00  0.00    -0.206 F 
ATOM     88  C   UNL A   1      38.245  33.651  37.932  1.00  0.00     0.006 A 
ENDBRANCH  64  81
ENDBRANCH  38  39
ENDBRANCH  31  33
ENDBRANCH  30  31
ENDBRANCH  29  30
ENDBRANCH  28  29
ENDBRANCH  27  28
ENDBRANCH  26  27
ENDBRANCH   1  26
TORSDOF 21
ENDMDL
MODEL 3
REMARK VINA RESULT:     -10.0      4.170      8.434
REMARK SMILES C[C@@H]1[C@@H](C(=O)OCCOCCOCCOC(=O)c2ccc(-c3c4nc(c(-c5c(F)cccc5F)c5ccc([nH]5)c(-c5c(F)cccc5F)c5nc(c(-c6c(F)cccc6F)c6ccc3[nH]6)C=C5)C=C4)cc2)CCN1C(=O)N[C@@H](C)Cc1ccco1
REMARK SMILES IDX 10 1 9 2 8 3 7 4 6 5 4 6 5 7 3 8 1 9 2 10 74 11 72 12 73 13
REMARK SMILES IDX 75 14 76 15 77 16 78 18 79 19 80 20 81 21 82 22 85 23 83 24
REMARK SMILES IDX 84 25 11 26 12 27 13 28 14 29 15 30 16 31 17 32 18 33 19 34
REMARK SMILES IDX 71 35 20 36 70 37 21 38 22 39 23 40 64 41 24 42 69 43 63 44
REMARK SMILES IDX 65 45 25 46 68 47 62 48 61 49 26 51 52 52 35 53 51 54 36 55
REMARK SMILES IDX 39 56 50 57 66 58 37 59 38 60 49 62 67 63 40 64 27 65 28 66
REMARK SMILES IDX 33 67 29 68 30 69 32 70 34 71 31 72 53 73 54 74 59 75 55 76
REMARK SMILES IDX 56 77 58 78 60 79 57 80 41 81 42 82 47 83 43 84 44 85 46 86
REMARK SMILES IDX 48 87 45 88
REMARK H PARENT 77 17 65 50 39 61
REMARK Flexibility Score: inf
ROOT
ATOM      1  C   UNL A   1      32.370  27.077  24.007  1.00  0.00     0.188 C 
ENDROOT
BRANCH   1   2
ATOM      2  O   UNL A   1      31.669  26.389  22.983  1.00  0.00    -0.376 OA
BRANCH   2   3
ATOM      3  C   UNL A   1      31.730  24.968  23.012  1.00  0.00     0.202 C 
BRANCH   3   4
ATOM      4  C   UNL A   1      30.610  24.217  23.742  1.00  0.00     0.261 C 
BRANCH   4   5
ATOM      5  O   UNL A   1      30.662  24.322  25.173  1.00  0.00    -0.463 OA
BRANCH   5   6
ATOM      6  C   UNL A   1      31.191  23.287  25.876  1.00  0.00     0.311 C 
ATOM      7  O   UNL A   1      30.657  22.199  26.015  1.00  0.00    -0.252 OA
BRANCH   6   8
ATOM      8  C   UNL A   1      32.542  23.704  26.444  1.00  0.00     0.123 C 
ATOM      9  C   UNL A   1      34.847  24.358  25.649  1.00  0.00     0.032 C 
ATOM     10  C   UNL A   1      33.678  23.379  25.463  1.00  0.00     0.098 C 
ATOM     11  N   UNL A   1      34.077  22.017  25.819  1.00  0.00    -0.321 N 
ATOM     12  C   UNL A   1      32.901  22.915  27.692  1.00  0.00     0.039 C 
ATOM     13  C   UNL A   1      33.557  21.662  27.136  1.00  0.00     0.122 C 
BRANCH  11  14
ATOM     14  C   UNL A   1      34.618  21.016  25.079  1.00  0.00     0.317 C 
ATOM     15  O   UNL A   1      35.836  20.799  25.092  1.00  0.00    -0.249 OA
ATOM     16  N   UNL A   1      33.906  20.186  24.303  1.00  0.00    -0.335 N 
ATOM     17  H   UNL A   1      34.460  19.445  23.967  1.00  0.00     0.165 HD
BRANCH  16  18
ATOM     18  C   UNL A   1      32.530  20.083  23.821  1.00  0.00     0.088 C 
ATOM     19  C   UNL A   1      32.310  21.162  22.757  1.00  0.00     0.031 C 
BRANCH  18  20
ATOM     20  C   UNL A   1      32.240  18.703  23.213  1.00  0.00     0.100 C 
BRANCH  20  21
ATOM     21  C   UNL A   1      32.799  17.576  23.998  1.00  0.00     0.105 A 
ATOM     22  C   UNL A   1      33.730  16.599  23.711  1.00  0.00     0.045 A 
ATOM     23  O   UNL A   1      32.295  17.393  25.250  1.00  0.00    -0.469 OA
ATOM     24  C   UNL A   1      33.796  15.767  24.852  1.00  0.00     0.042 A 
ATOM     25  C   UNL A   1      32.890  16.280  25.750  1.00  0.00     0.195 A 
ENDBRANCH  20  21
ENDBRANCH  18  20
ENDBRANCH  16  18
ENDBRANCH  11  14
ENDBRANCH   6   8
ENDBRANCH   5   6
ENDBRANCH   4   5
ENDBRANCH   3   4
ENDBRANCH   2   3
ENDBRANCH   1   2
BRANCH   1  26
ATOM     26  C   UNL A   1      31.516  27.392  25.254  1.00  0.00     0.188 C 
BRANCH  26  27
ATOM     27  O   UNL A   1      32.126  27.498  26.531  1.00  0.00    -0.376 OA
BRANCH  27  28
ATOM     28  C   UNL A   1      31.740  28.568  27.387  1.00  0.00     0.202 C 
BRANCH  28  29
ATOM     29  C   UNL A   1      31.780  30.005  26.846  1.00  0.00     0.261 C 
BRANCH  29  30
ATOM     30  O   UNL A   1      33.087  30.469  26.468  1.00  0.00    -0.460 OA
BRANCH  30  31
ATOM     31  C   UNL A   1      33.569  31.497  27.210  1.00  0.00     0.338 C 
ATOM     32  O   UNL A   1      32.989  32.521  27.529  1.00  0.00    -0.246 OA
BRANCH  31  33
ATOM     33  C   UNL A   1      34.889  31.140  27.766  1.00  0.00     0.060 A 
ATOM     34  C   UNL A   1      35.118  29.800  28.108  1.00  0.00     0.016 A 
ATOM     35  C   UNL A   1      35.851  32.115  28.031  1.00  0.00     0.016 A 
ATOM     36  C   UNL A   1      36.305  29.432  28.738  1.00  0.00     0.010 A 
ATOM     37  C   UNL A   1      37.028  31.749  28.694  1.00  0.00     0.010 A 
ATOM     38  C   UNL A   1      37.245  30.413  29.075  1.00  0.00    -0.014 A 
BRANCH  38  39
ATOM     39  C   UNL A   1      38.359  30.070  29.988  1.00  0.00     0.031 A 
ATOM     40  C   UNL A   1      39.440  29.152  29.490  1.00  0.00     0.074 A 
ATOM     41  C   UNL A   1      38.423  30.575  31.232  1.00  0.00     0.049 A 
ATOM     42  N   UNL A   1      40.478  28.672  30.125  1.00  0.00    -0.248 NA
ATOM     43  C   UNL A   1      39.332  28.715  28.090  1.00  0.00     0.031 C 
ATOM     44  C   UNL A   1      37.454  31.496  31.819  1.00  0.00     0.029 A 
ATOM     45  N   UNL A   1      39.345  30.372  32.229  1.00  0.00    -0.354 N 
ATOM     46  C   UNL A   1      41.141  27.869  29.206  1.00  0.00     0.074 A 
ATOM     47  C   UNL A   1      40.382  27.915  27.975  1.00  0.00     0.031 C 
ATOM     48  C   UNL A   1      37.830  31.773  33.080  1.00  0.00     0.029 A 
ATOM     49  C   UNL A   1      39.051  31.036  33.393  1.00  0.00     0.049 A 
ATOM     50  H   UNL A   1      40.143  29.805  32.117  1.00  0.00     0.167 HD
ATOM     51  C   UNL A   1      42.278  27.155  29.374  1.00  0.00     0.037 A 
ATOM     52  C   UNL A   1      39.684  31.034  34.582  1.00  0.00     0.037 A 
ATOM     53  C   UNL A   1      43.024  27.093  30.602  1.00  0.00     0.049 A 
ATOM     54  C   UNL A   1      40.913  30.182  34.761  1.00  0.00     0.074 A 
ATOM     55  C   UNL A   1      44.181  26.383  30.874  1.00  0.00     0.029 A 
ATOM     56  N   UNL A   1      42.682  27.763  31.765  1.00  0.00    -0.354 N 
ATOM     57  N   UNL A   1      41.532  29.429  33.886  1.00  0.00    -0.248 NA
ATOM     58  C   UNL A   1      41.520  30.169  36.101  1.00  0.00     0.031 C 
ATOM     59  C   UNL A   1      44.518  26.597  32.215  1.00  0.00     0.029 A 
ATOM     60  C   UNL A   1      43.595  27.473  32.765  1.00  0.00     0.049 A 
ATOM     61  H   UNL A   1      41.903  28.358  31.866  1.00  0.00     0.167 HD
ATOM     62  C   UNL A   1      42.610  28.868  34.560  1.00  0.00     0.074 A 
ATOM     63  C   UNL A   1      42.571  29.382  35.914  1.00  0.00     0.031 C 
ATOM     64  C   UNL A   1      43.546  28.001  34.102  1.00  0.00     0.037 A 
BRANCH  51  65
ATOM     65  C   UNL A   1      42.763  26.356  28.202  1.00  0.00     0.057 A 
ATOM     66  C   UNL A   1      42.271  25.072  27.934  1.00  0.00     0.134 A 
ATOM     67  C   UNL A   1      43.716  26.883  27.323  1.00  0.00     0.134 A 
ATOM     68  F   UNL A   1      41.371  24.504  28.751  1.00  0.00    -0.206 F 
ATOM     69  C   UNL A   1      42.727  24.332  26.841  1.00  0.00     0.040 A 
ATOM     70  C   UNL A   1      44.162  26.162  26.214  1.00  0.00     0.040 A 
ATOM     71  F   UNL A   1      44.225  28.108  27.526  1.00  0.00    -0.206 F 
ATOM     72  C   UNL A   1      43.670  24.881  25.974  1.00  0.00     0.006 A 
ENDBRANCH  51  65
BRANCH  52  73
ATOM     73  C   UNL A   1      39.168  31.850  35.710  1.00  0.00     0.057 A 
ATOM     74  C   UNL A   1      39.613  33.161  35.915  1.00  0.00     0.134 A 
ATOM     75  C   UNL A   1      38.246  31.332  36.628  1.00  0.00     0.134 A 
ATOM     76  F   UNL A   1      40.513  33.705  35.083  1.00  0.00    -0.206 F 
ATOM     77  C   UNL A   1      39.176  33.923  37.001  1.00  0.00     0.040 A 
ATOM     78  C   UNL A   1      37.780  32.090  37.703  1.00  0.00     0.040 A 
ATOM     79  F   UNL A   1      37.781  30.082  36.488  1.00  0.00    -0.206 F 
ATOM     80  C   UNL A   1      38.253  33.387  37.897  1.00  0.00     0.006 A 
ENDBRANCH  52  73
BRANCH  64  81
ATOM     81  C   UNL A   1      44.619  27.580  35.060  1.00  0.00     0.057 A 
ATOM     82  C   UNL A   1      44.490  26.435  35.857  1.00  0.00     0.134 A 
ATOM     83  C   UNL A   1      45.815  28.305  35.155  1.00  0.00     0.134 A 
ATOM     84  F   UNL A   1      43.365  25.706  35.822  1.00  0.00    -0.206 F 
ATOM     85  C   UNL A   1      45.505  26.037  36.728  1.00  0.00     0.040 A 
ATOM     86  C   UNL A   1      46.845  27.903  36.005  1.00  0.00     0.040 A 
ATOM     87  F   UNL A   1      46.003  29.406  34.412  1.00  0.00    -0.206 F 
ATOM     88  C   UNL A   1      46.690  26.768  36.799  1.00  0.00     0.006 A 
ENDBRANCH  64  81
ENDBRANCH  38  39
ENDBRANCH  31  33
ENDBRANCH  30  31
ENDBRANCH  29  30
ENDBRANCH  28  29
ENDBRANCH  27  28
ENDBRANCH  26  27
ENDBRANCH   1  26
TORSDOF 21
ENDMDL
