MODEL 1
REMARK VINA RESULT:     -11.1      0.000      0.000
REMARK SMILES O=C(N[C@@H](Cc1ccc(O)cc1)C(=O)N[C@@H](CO)C(=O)OCCOCCOCCOC(=O)c1ccc(-c2c3nc(c(-c4c(F)cccc4F)c4ccc([nH]4)c(-c4c(F)cccc4F)c4nc(c(-c5c(F)cccc5F)c5ccc2[nH]5)C=C4)C=C3)cc1)c1ccc(F)cc1
REMARK SMILES IDX 24 1 23 2 22 3 21 4 19 5 20 6 16 7 15 8 13 9 14 10 4 12 3 13
REMARK SMILES IDX 1 14 2 15 87 17 88 18 93 19 89 20 92 21 90 22 91 23 5 24
REMARK SMILES IDX 6 25 7 26 12 27 8 28 11 29 9 30 10 31 17 33 18 34 25 36
REMARK SMILES IDX 26 37 27 38 28 39 29 40 30 41 31 42 32 43 33 44 34 45 86 46
REMARK SMILES IDX 35 47 85 48 36 49 37 50 38 51 79 52 39 53 84 54 78 55 80 56
REMARK SMILES IDX 40 57 83 58 77 59 76 60 41 62 67 63 50 64 66 65 51 66 54 67
REMARK SMILES IDX 65 68 81 69 52 70 53 71 64 73 82 74 55 75 42 76 43 77 48 78
REMARK SMILES IDX 44 79 45 80 47 81 49 82 46 83 68 84 69 85 74 86 70 87 71 88
REMARK SMILES IDX 73 89 75 90 72 91 56 92 57 93 62 94 58 95 59 96 61 97 63 98
REMARK SMILES IDX 60 99
REMARK H PARENT 15 11 3 16 10 32 18 35 80 61 54 72
REMARK Flexibility Score: inf
ROOT
ATOM      1  O   UNL A   1      41.087  20.398  27.532  1.00  0.00    -0.376 OA
ENDROOT
BRANCH   1   2
ATOM      2  C   UNL A   1      40.191  20.406  26.422  1.00  0.00     0.202 C 
BRANCH   2   3
ATOM      3  C   UNL A   1      39.696  21.815  26.108  1.00  0.00     0.261 C 
BRANCH   3   4
ATOM      4  O   UNL A   1      38.257  21.897  26.088  1.00  0.00    -0.462 OA
BRANCH   4   5
ATOM      5  C   UNL A   1      37.596  21.172  25.143  1.00  0.00     0.331 C 
ATOM      6  O   UNL A   1      37.978  20.087  24.716  1.00  0.00    -0.250 OA
BRANCH   5   7
ATOM      7  C   UNL A   1      36.362  21.940  24.608  1.00  0.00     0.218 C 
BRANCH   7   8
ATOM      8  N   UNL A   1      35.458  22.425  25.661  1.00  0.00    -0.339 N 
ATOM      9  C   UNL A   1      34.112  22.529  25.775  1.00  0.00     0.243 C 
ATOM     10  O   UNL A   1      33.699  22.898  26.882  1.00  0.00    -0.273 OA
ATOM     11  H   UNL A   1      35.936  22.746  26.459  1.00  0.00     0.164 HD
BRANCH   9  12
ATOM     12  C   UNL A   1      33.072  22.223  24.670  1.00  0.00     0.176 C 
BRANCH  12  13
ATOM     13  N   UNL A   1      33.568  22.387  23.307  1.00  0.00    -0.340 N 
ATOM     14  O   UNL A   1      33.650  23.358  21.277  1.00  0.00    -0.269 OA
ATOM     15  C   UNL A   1      33.382  23.466  22.470  1.00  0.00     0.251 C 
ATOM     16  H   UNL A   1      34.096  21.640  22.943  1.00  0.00     0.164 HD
BRANCH  15  17
ATOM     17  C   UNL A   1      32.831  24.749  22.982  1.00  0.00     0.040 A 
ATOM     18  C   UNL A   1      31.477  25.077  22.820  1.00  0.00     0.017 A 
ATOM     19  C   UNL A   1      33.678  25.614  23.688  1.00  0.00     0.017 A 
ATOM     20  C   UNL A   1      30.989  26.293  23.307  1.00  0.00     0.040 A 
ATOM     21  C   UNL A   1      33.183  26.825  24.185  1.00  0.00     0.040 A 
ATOM     22  C   UNL A   1      31.846  27.155  23.983  1.00  0.00     0.123 A 
ATOM     23  F   UNL A   1      31.375  28.318  24.453  1.00  0.00    -0.207 F 
ENDBRANCH  15  17
ENDBRANCH  12  13
BRANCH  12  24
ATOM     24  C   UNL A   1      32.148  21.004  24.862  1.00  0.00     0.070 C 
BRANCH  24  25
ATOM     25  C   UNL A   1      32.573  19.668  24.323  1.00  0.00    -0.045 A 
ATOM     26  C   UNL A   1      33.517  18.909  25.034  1.00  0.00     0.007 A 
ATOM     27  C   UNL A   1      32.054  19.156  23.125  1.00  0.00     0.007 A 
ATOM     28  C   UNL A   1      34.043  17.742  24.488  1.00  0.00     0.046 A 
ATOM     29  C   UNL A   1      32.594  17.995  22.568  1.00  0.00     0.046 A 
ATOM     30  C   UNL A   1      33.613  17.331  23.236  1.00  0.00     0.115 A 
BRANCH  30  31
ATOM     31  O   UNL A   1      34.268  16.314  22.612  1.00  0.00    -0.508 OA
ATOM     32  H   UNL A   1      34.572  16.422  21.733  1.00  0.00     0.293 HD
ENDBRANCH  30  31
ENDBRANCH  24  25
ENDBRANCH  12  24
ENDBRANCH   9  12
ENDBRANCH   7   8
BRANCH   7  33
ATOM     33  C   UNL A   1      36.872  23.105  23.755  1.00  0.00     0.193 C 
BRANCH  33  34
ATOM     34  O   UNL A   1      36.610  22.889  22.369  1.00  0.00    -0.394 OA
ATOM     35  H   UNL A   1      35.722  22.514  22.262  1.00  0.00     0.210 HD
ENDBRANCH  33  34
ENDBRANCH   7  33
ENDBRANCH   5   7
ENDBRANCH   4   5
ENDBRANCH   3   4
ENDBRANCH   2   3
ENDBRANCH   1   2
BRANCH   1  36
ATOM     36  C   UNL A   1      42.304  19.686  27.326  1.00  0.00     0.188 C 
BRANCH  36  37
ATOM     37  C   UNL A   1      42.326  18.880  26.021  1.00  0.00     0.188 C 
BRANCH  37  38
ATOM     38  O   UNL A   1      43.067  19.365  24.907  1.00  0.00    -0.376 OA
BRANCH  38  39
ATOM     39  C   UNL A   1      44.206  20.168  25.159  1.00  0.00     0.202 C 
BRANCH  39  40
ATOM     40  C   UNL A   1      44.118  21.628  24.707  1.00  0.00     0.261 C 
BRANCH  40  41
ATOM     41  O   UNL A   1      43.476  22.494  25.657  1.00  0.00    -0.460 OA
BRANCH  41  42
ATOM     42  C   UNL A   1      44.322  23.156  26.482  1.00  0.00     0.338 C 
ATOM     43  O   UNL A   1      45.514  22.967  26.646  1.00  0.00    -0.246 OA
BRANCH  42  44
ATOM     44  C   UNL A   1      43.601  24.257  27.144  1.00  0.00     0.060 A 
ATOM     45  C   UNL A   1      44.049  25.565  26.933  1.00  0.00     0.016 A 
ATOM     46  C   UNL A   1      42.581  23.993  28.059  1.00  0.00     0.016 A 
ATOM     47  C   UNL A   1      43.480  26.621  27.648  1.00  0.00     0.010 A 
ATOM     48  C   UNL A   1      42.032  25.048  28.792  1.00  0.00     0.010 A 
ATOM     49  C   UNL A   1      42.493  26.364  28.607  1.00  0.00    -0.014 A 
BRANCH  49  50
ATOM     50  C   UNL A   1      42.091  27.421  29.564  1.00  0.00     0.031 A 
ATOM     51  C   UNL A   1      42.856  27.543  30.851  1.00  0.00     0.074 A 
ATOM     52  C   UNL A   1      41.080  28.269  29.306  1.00  0.00     0.049 A 
ATOM     53  N   UNL A   1      42.569  28.226  31.929  1.00  0.00    -0.248 NA
ATOM     54  C   UNL A   1      44.122  26.796  30.926  1.00  0.00     0.031 C 
ATOM     55  C   UNL A   1      40.339  28.350  28.050  1.00  0.00     0.029 A 
ATOM     56  N   UNL A   1      40.499  29.221  30.106  1.00  0.00    -0.354 N 
ATOM     57  C   UNL A   1      43.601  27.967  32.820  1.00  0.00     0.074 A 
ATOM     58  C   UNL A   1      44.526  27.075  32.155  1.00  0.00     0.031 C 
ATOM     59  C   UNL A   1      39.383  29.290  28.171  1.00  0.00     0.029 A 
ATOM     60  C   UNL A   1      39.409  29.827  29.531  1.00  0.00     0.049 A 
ATOM     61  H   UNL A   1      40.832  29.448  31.004  1.00  0.00     0.167 HD
ATOM     62  C   UNL A   1      43.757  28.421  34.086  1.00  0.00     0.037 A 
ATOM     63  C   UNL A   1      38.507  30.677  30.064  1.00  0.00     0.037 A 
ATOM     64  C   UNL A   1      42.835  29.304  34.747  1.00  0.00     0.049 A 
ATOM     65  C   UNL A   1      38.626  31.072  31.515  1.00  0.00     0.074 A 
ATOM     66  C   UNL A   1      42.870  29.778  36.046  1.00  0.00     0.029 A 
ATOM     67  N   UNL A   1      41.709  29.851  34.150  1.00  0.00    -0.354 N 
ATOM     68  N   UNL A   1      39.554  30.758  32.386  1.00  0.00    -0.248 NA
ATOM     69  C   UNL A   1      37.554  31.917  32.064  1.00  0.00     0.031 C 
ATOM     70  C   UNL A   1      41.747  30.586  36.246  1.00  0.00     0.029 A 
ATOM     71  C   UNL A   1      41.035  30.648  35.059  1.00  0.00     0.049 A 
ATOM     72  H   UNL A   1      41.431  29.695  33.219  1.00  0.00     0.167 HD
ATOM     73  C   UNL A   1      39.194  31.387  33.573  1.00  0.00     0.074 A 
ATOM     74  C   UNL A   1      37.963  32.104  33.310  1.00  0.00     0.031 C 
ATOM     75  C   UNL A   1      39.824  31.372  34.772  1.00  0.00     0.037 A 
BRANCH  62  76
ATOM     76  C   UNL A   1      44.940  27.913  34.850  1.00  0.00     0.057 A 
ATOM     77  C   UNL A   1      44.885  26.734  35.602  1.00  0.00     0.134 A 
ATOM     78  C   UNL A   1      46.148  28.621  34.836  1.00  0.00     0.134 A 
ATOM     79  F   UNL A   1      43.749  26.025  35.673  1.00  0.00    -0.206 F 
ATOM     80  C   UNL A   1      45.987  26.288  36.334  1.00  0.00     0.040 A 
ATOM     81  C   UNL A   1      47.263  28.173  35.545  1.00  0.00     0.040 A 
ATOM     82  F   UNL A   1      46.263  29.759  34.135  1.00  0.00    -0.206 F 
ATOM     83  C   UNL A   1      47.181  27.007  36.303  1.00  0.00     0.006 A 
ENDBRANCH  62  76
BRANCH  63  84
ATOM     84  C   UNL A   1      37.371  31.172  29.248  1.00  0.00     0.057 A 
ATOM     85  C   UNL A   1      37.337  32.489  28.777  1.00  0.00     0.134 A 
ATOM     86  C   UNL A   1      36.272  30.354  28.955  1.00  0.00     0.134 A 
ATOM     87  F   UNL A   1      38.345  33.330  29.053  1.00  0.00    -0.206 F 
ATOM     88  C   UNL A   1      36.247  32.980  28.055  1.00  0.00     0.040 A 
ATOM     89  C   UNL A   1      35.186  30.825  28.214  1.00  0.00     0.040 A 
ATOM     90  F   UNL A   1      36.238  29.085  29.387  1.00  0.00    -0.206 F 
ATOM     91  C   UNL A   1      35.170  32.144  27.768  1.00  0.00     0.006 A 
ENDBRANCH  63  84
BRANCH  75  92
ATOM     92  C   UNL A   1      39.231  32.190  35.880  1.00  0.00     0.057 A 
ATOM     93  C   UNL A   1      39.540  33.545  36.045  1.00  0.00     0.134 A 
ATOM     94  C   UNL A   1      38.289  31.628  36.751  1.00  0.00     0.134 A 
ATOM     95  F   UNL A   1      40.443  34.138  35.249  1.00  0.00    -0.206 F 
ATOM     96  C   UNL A   1      38.935  34.313  37.042  1.00  0.00     0.040 A 
ATOM     97  C   UNL A   1      37.663  32.389  37.738  1.00  0.00     0.040 A 
ATOM     98  F   UNL A   1      37.946  30.335  36.639  1.00  0.00    -0.206 F 
ATOM     99  C   UNL A   1      37.988  33.736  37.887  1.00  0.00     0.006 A 
ENDBRANCH  75  92
ENDBRANCH  49  50
ENDBRANCH  42  44
ENDBRANCH  41  42
ENDBRANCH  40  41
ENDBRANCH  39  40
ENDBRANCH  38  39
ENDBRANCH  37  38
ENDBRANCH  36  37
ENDBRANCH   1  36
TORSDOF 26
ENDMDL
MODEL 2
REMARK VINA RESULT:     -11.0      4.594      7.655
REMARK SMILES O=C(N[C@@H](Cc1ccc(O)cc1)C(=O)N[C@@H](CO)C(=O)OCCOCCOCCOC(=O)c1ccc(-c2c3nc(c(-c4c(F)cccc4F)c4ccc([nH]4)c(-c4c(F)cccc4F)c4nc(c(-c5c(F)cccc5F)c5ccc2[nH]5)C=C4)C=C3)cc1)c1ccc(F)cc1
REMARK SMILES IDX 24 1 23 2 22 3 21 4 19 5 20 6 16 7 15 8 13 9 14 10 4 12 3 13
REMARK SMILES IDX 1 14 2 15 87 17 88 18 93 19 89 20 92 21 90 22 91 23 5 24
REMARK SMILES IDX 6 25 7 26 12 27 8 28 11 29 9 30 10 31 17 33 18 34 25 36
REMARK SMILES IDX 26 37 27 38 28 39 29 40 30 41 31 42 32 43 33 44 34 45 86 46
REMARK SMILES IDX 35 47 85 48 36 49 37 50 38 51 79 52 39 53 84 54 78 55 80 56
REMARK SMILES IDX 40 57 83 58 77 59 76 60 41 62 67 63 50 64 66 65 51 66 54 67
REMARK SMILES IDX 65 68 81 69 52 70 53 71 64 73 82 74 55 75 42 76 43 77 48 78
REMARK SMILES IDX 44 79 45 80 47 81 49 82 46 83 68 84 69 85 74 86 70 87 71 88
REMARK SMILES IDX 73 89 75 90 72 91 56 92 57 93 62 94 58 95 59 96 61 97 63 98
REMARK SMILES IDX 60 99
REMARK H PARENT 15 11 3 16 10 32 18 35 80 61 54 72
REMARK Flexibility Score: inf
ROOT
ATOM      1  O   UNL A   1      37.817  21.339  24.947  1.00  0.00    -0.376 OA
ENDROOT
BRANCH   1   2
ATOM      2  C   UNL A   1      36.604  21.517  25.677  1.00  0.00     0.202 C 
BRANCH   2   3
ATOM      3  C   UNL A   1      35.435  20.799  25.009  1.00  0.00     0.261 C 
BRANCH   3   4
ATOM      4  O   UNL A   1      34.161  21.343  25.403  1.00  0.00    -0.462 OA
BRANCH   4   5
ATOM      5  C   UNL A   1      33.376  21.880  24.427  1.00  0.00     0.331 C 
ATOM      6  O   UNL A   1      33.199  21.369  23.326  1.00  0.00    -0.250 OA
BRANCH   5   7
ATOM      7  C   UNL A   1      32.822  23.264  24.850  1.00  0.00     0.218 C 
BRANCH   7   8
ATOM      8  N   UNL A   1      31.797  23.201  25.902  1.00  0.00    -0.339 N 
ATOM      9  C   UNL A   1      30.910  24.089  26.410  1.00  0.00     0.243 C 
ATOM     10  O   UNL A   1      30.113  23.631  27.240  1.00  0.00    -0.273 OA
ATOM     11  H   UNL A   1      31.745  22.318  26.334  1.00  0.00     0.164 HD
BRANCH   9  12
ATOM     12  C   UNL A   1      30.801  25.588  26.041  1.00  0.00     0.176 C 
BRANCH  12  13
ATOM     13  N   UNL A   1      29.704  25.913  25.134  1.00  0.00    -0.340 N 
ATOM     14  O   UNL A   1      28.698  27.093  23.501  1.00  0.00    -0.269 OA
ATOM     15  C   UNL A   1      29.747  26.723  24.020  1.00  0.00     0.251 C 
ATOM     16  H   UNL A   1      28.832  25.505  25.343  1.00  0.00     0.164 HD
BRANCH  15  17
ATOM     17  C   UNL A   1      31.043  27.186  23.457  1.00  0.00     0.040 A 
ATOM     18  C   UNL A   1      31.936  26.288  22.851  1.00  0.00     0.017 A 
ATOM     19  C   UNL A   1      31.343  28.554  23.485  1.00  0.00     0.017 A 
ATOM     20  C   UNL A   1      33.149  26.752  22.334  1.00  0.00     0.040 A 
ATOM     21  C   UNL A   1      32.553  29.016  22.955  1.00  0.00     0.040 A 
ATOM     22  C   UNL A   1      33.447  28.109  22.393  1.00  0.00     0.123 A 
ATOM     23  F   UNL A   1      34.608  28.551  21.893  1.00  0.00    -0.207 F 
ENDBRANCH  15  17
ENDBRANCH  12  13
BRANCH  12  24
ATOM     24  C   UNL A   1      31.023  26.628  27.158  1.00  0.00     0.070 C 
BRANCH  24  25
ATOM     25  C   UNL A   1      31.991  27.754  26.931  1.00  0.00    -0.045 A 
ATOM     26  C   UNL A   1      33.285  27.465  26.469  1.00  0.00     0.007 A 
ATOM     27  C   UNL A   1      31.639  29.090  27.171  1.00  0.00     0.007 A 
ATOM     28  C   UNL A   1      34.250  28.465  26.394  1.00  0.00     0.046 A 
ATOM     29  C   UNL A   1      32.611  30.091  27.114  1.00  0.00     0.046 A 
ATOM     30  C   UNL A   1      33.913  29.755  26.771  1.00  0.00     0.115 A 
BRANCH  30  31
ATOM     31  O   UNL A   1      34.897  30.687  26.896  1.00  0.00    -0.508 OA
ATOM     32  H   UNL A   1      35.486  30.846  26.185  1.00  0.00     0.293 HD
ENDBRANCH  30  31
ENDBRANCH  24  25
ENDBRANCH  12  24
ENDBRANCH   9  12
ENDBRANCH   7   8
BRANCH   7  33
ATOM     33  C   UNL A   1      34.007  24.122  25.301  1.00  0.00     0.193 C 
BRANCH  33  34
ATOM     34  O   UNL A   1      34.986  24.240  24.270  1.00  0.00    -0.394 OA
ATOM     35  H   UNL A   1      34.851  23.540  23.612  1.00  0.00     0.210 HD
ENDBRANCH  33  34
ENDBRANCH   7  33
ENDBRANCH   5   7
ENDBRANCH   4   5
ENDBRANCH   3   4
ENDBRANCH   2   3
ENDBRANCH   1   2
BRANCH   1  36
ATOM     36  C   UNL A   1      38.877  20.723  25.673  1.00  0.00     0.188 C 
BRANCH  36  37
ATOM     37  C   UNL A   1      39.957  21.711  26.134  1.00  0.00     0.188 C 
BRANCH  37  38
ATOM     38  O   UNL A   1      41.302  21.268  26.273  1.00  0.00    -0.376 OA
BRANCH  38  39
ATOM     39  C   UNL A   1      41.548  20.106  27.046  1.00  0.00     0.202 C 
BRANCH  39  40
ATOM     40  C   UNL A   1      42.319  18.982  26.350  1.00  0.00     0.261 C 
BRANCH  40  41
ATOM     41  O   UNL A   1      42.713  19.293  25.004  1.00  0.00    -0.460 OA
BRANCH  41  42
ATOM     42  C   UNL A   1      44.052  19.340  24.802  1.00  0.00     0.338 C 
ATOM     43  O   UNL A   1      44.798  18.429  24.496  1.00  0.00    -0.246 OA
BRANCH  42  44
ATOM     44  C   UNL A   1      44.518  20.732  24.925  1.00  0.00     0.060 A 
ATOM     45  C   UNL A   1      45.184  21.108  26.096  1.00  0.00     0.016 A 
ATOM     46  C   UNL A   1      44.191  21.682  23.957  1.00  0.00     0.016 A 
ATOM     47  C   UNL A   1      45.519  22.447  26.310  1.00  0.00     0.010 A 
ATOM     48  C   UNL A   1      44.503  23.025  24.185  1.00  0.00     0.010 A 
ATOM     49  C   UNL A   1      45.149  23.417  25.371  1.00  0.00    -0.014 A 
BRANCH  49  50
ATOM     50  C   UNL A   1      45.239  24.856  25.713  1.00  0.00     0.031 A 
ATOM     51  C   UNL A   1      46.567  25.541  25.561  1.00  0.00     0.074 A 
ATOM     52  C   UNL A   1      44.172  25.555  26.139  1.00  0.00     0.049 A 
ATOM     53  N   UNL A   1      46.954  26.713  25.994  1.00  0.00    -0.248 NA
ATOM     54  C   UNL A   1      47.595  24.802  24.811  1.00  0.00     0.031 C 
ATOM     55  C   UNL A   1      42.801  25.055  26.210  1.00  0.00     0.029 A 
ATOM     56  N   UNL A   1      44.089  26.844  26.604  1.00  0.00    -0.354 N 
ATOM     57  C   UNL A   1      48.278  26.839  25.595  1.00  0.00     0.074 A 
ATOM     58  C   UNL A   1      48.624  25.631  24.878  1.00  0.00     0.031 C 
ATOM     59  C   UNL A   1      42.013  26.024  26.712  1.00  0.00     0.029 A 
ATOM     60  C   UNL A   1      42.837  27.184  27.054  1.00  0.00     0.049 A 
ATOM     61  H   UNL A   1      44.853  27.465  26.613  1.00  0.00     0.167 HD
ATOM     62  C   UNL A   1      49.133  27.864  25.821  1.00  0.00     0.037 A 
ATOM     63  C   UNL A   1      42.420  28.283  27.714  1.00  0.00     0.037 A 
ATOM     64  C   UNL A   1      48.788  29.061  26.538  1.00  0.00     0.049 A 
ATOM     65  C   UNL A   1      43.417  29.359  28.068  1.00  0.00     0.074 A 
ATOM     66  C   UNL A   1      49.597  30.134  26.870  1.00  0.00     0.029 A 
ATOM     67  N   UNL A   1      47.523  29.342  27.030  1.00  0.00    -0.354 N 
ATOM     68  N   UNL A   1      44.690  29.440  27.768  1.00  0.00    -0.248 NA
ATOM     69  C   UNL A   1      42.922  30.483  28.878  1.00  0.00     0.031 C 
ATOM     70  C   UNL A   1      48.827  31.051  27.593  1.00  0.00     0.029 A 
ATOM     71  C   UNL A   1      47.531  30.567  27.674  1.00  0.00     0.049 A 
ATOM     72  H   UNL A   1      46.737  28.758  26.936  1.00  0.00     0.167 HD
ATOM     73  C   UNL A   1      45.140  30.632  28.327  1.00  0.00     0.074 A 
ATOM     74  C   UNL A   1      44.003  31.243  28.982  1.00  0.00     0.031 C 
ATOM     75  C   UNL A   1      46.383  31.170  28.301  1.00  0.00     0.037 A 
BRANCH  62  76
ATOM     76  C   UNL A   1      50.539  27.695  25.335  1.00  0.00     0.057 A 
ATOM     77  C   UNL A   1      51.588  27.367  26.202  1.00  0.00     0.134 A 
ATOM     78  C   UNL A   1      50.846  27.871  23.980  1.00  0.00     0.134 A 
ATOM     79  F   UNL A   1      51.360  27.209  27.515  1.00  0.00    -0.206 F 
ATOM     80  C   UNL A   1      52.899  27.243  25.741  1.00  0.00     0.040 A 
ATOM     81  C   UNL A   1      52.149  27.727  23.503  1.00  0.00     0.040 A 
ATOM     82  F   UNL A   1      49.884  28.188  23.099  1.00  0.00    -0.206 F 
ATOM     83  C   UNL A   1      53.181  27.419  24.387  1.00  0.00     0.006 A 
ENDBRANCH  62  76
BRANCH  63  84
ATOM     84  C   UNL A   1      41.005  28.408  28.144  1.00  0.00     0.057 A 
ATOM     85  C   UNL A   1      40.594  27.982  29.411  1.00  0.00     0.134 A 
ATOM     86  C   UNL A   1      40.023  28.915  27.284  1.00  0.00     0.134 A 
ATOM     87  F   UNL A   1      41.482  27.455  30.268  1.00  0.00    -0.206 F 
ATOM     88  C   UNL A   1      39.255  28.043  29.805  1.00  0.00     0.040 A 
ATOM     89  C   UNL A   1      38.685  29.006  27.673  1.00  0.00     0.040 A 
ATOM     90  F   UNL A   1      40.350  29.331  26.051  1.00  0.00    -0.206 F 
ATOM     91  C   UNL A   1      38.298  28.562  28.935  1.00  0.00     0.006 A 
ENDBRANCH  63  84
BRANCH  75  92
ATOM     92  C   UNL A   1      46.576  32.507  28.952  1.00  0.00     0.057 A 
ATOM     93  C   UNL A   1      46.927  32.627  30.302  1.00  0.00     0.134 A 
ATOM     94  C   UNL A   1      46.477  33.684  28.199  1.00  0.00     0.134 A 
ATOM     95  F   UNL A   1      47.028  31.538  31.078  1.00  0.00    -0.206 F 
ATOM     96  C   UNL A   1      47.165  33.874  30.882  1.00  0.00     0.040 A 
ATOM     97  C   UNL A   1      46.731  34.934  28.763  1.00  0.00     0.040 A 
ATOM     98  F   UNL A   1      46.152  33.633  26.898  1.00  0.00    -0.206 F 
ATOM     99  C   UNL A   1      47.075  35.032  30.110  1.00  0.00     0.006 A 
ENDBRANCH  75  92
ENDBRANCH  49  50
ENDBRANCH  42  44
ENDBRANCH  41  42
ENDBRANCH  40  41
ENDBRANCH  39  40
ENDBRANCH  38  39
ENDBRANCH  37  38
ENDBRANCH  36  37
ENDBRANCH   1  36
TORSDOF 26
ENDMDL
MODEL 3
REMARK VINA RESULT:     -11.0      3.899      9.045
REMARK SMILES O=C(N[C@@H](Cc1ccc(O)cc1)C(=O)N[C@@H](CO)C(=O)OCCOCCOCCOC(=O)c1ccc(-c2c3nc(c(-c4c(F)cccc4F)c4ccc([nH]4)c(-c4c(F)cccc4F)c4nc(c(-c5c(F)cccc5F)c5ccc2[nH]5)C=C4)C=C3)cc1)c1ccc(F)cc1
REMARK SMILES IDX 24 1 23 2 22 3 21 4 19 5 20 6 16 7 15 8 13 9 14 10 4 12 3 13
REMARK SMILES IDX 1 14 2 15 87 17 88 18 93 19 89 20 92 21 90 22 91 23 5 24
REMARK SMILES IDX 6 25 7 26 12 27 8 28 11 29 9 30 10 31 17 33 18 34 25 36
REMARK SMILES IDX 26 37 27 38 28 39 29 40 30 41 31 42 32 43 33 44 34 45 86 46
REMARK SMILES IDX 35 47 85 48 36 49 37 50 38 51 79 52 39 53 84 54 78 55 80 56
REMARK SMILES IDX 40 57 83 58 77 59 76 60 41 62 67 63 50 64 66 65 51 66 54 67
REMARK SMILES IDX 65 68 81 69 52 70 53 71 64 73 82 74 55 75 42 76 43 77 48 78
REMARK SMILES IDX 44 79 45 80 47 81 49 82 46 83 68 84 69 85 74 86 70 87 71 88
REMARK SMILES IDX 73 89 75 90 72 91 56 92 57 93 62 94 58 95 59 96 61 97 63 98
REMARK SMILES IDX 60 99
REMARK H PARENT 15 11 3 16 10 32 18 35 80 61 54 72
REMARK Flexibility Score: inf
ROOT
ATOM      1  O   UNL A   1      34.676  31.615  29.080  1.00  0.00    -0.376 OA
ENDROOT
BRANCH   1   2
ATOM      2  C   UNL A   1      34.596  31.746  27.662  1.00  0.00     0.202 C 
BRANCH   2   3
ATOM      3  C   UNL A   1      33.409  30.975  27.092  1.00  0.00     0.261 C 
BRANCH   3   4
ATOM      4  O   UNL A   1      33.514  29.558  27.325  1.00  0.00    -0.462 OA
BRANCH   4   5
ATOM      5  C   UNL A   1      33.582  28.742  26.235  1.00  0.00     0.331 C 
ATOM      6  O   UNL A   1      34.142  27.651  26.226  1.00  0.00    -0.250 OA
BRANCH   5   7
ATOM      7  C   UNL A   1      32.955  29.417  24.989  1.00  0.00     0.218 C 
BRANCH   7   8
ATOM      8  N   UNL A   1      33.623  29.072  23.725  1.00  0.00    -0.339 N 
ATOM      9  C   UNL A   1      33.638  27.972  22.935  1.00  0.00     0.243 C 
ATOM     10  O   UNL A   1      34.250  28.093  21.865  1.00  0.00    -0.273 OA
ATOM     11  H   UNL A   1      34.183  29.803  23.376  1.00  0.00     0.164 HD
BRANCH   9  12
ATOM     12  C   UNL A   1      32.962  26.614  23.243  1.00  0.00     0.176 C 
BRANCH  12  13
ATOM     13  N   UNL A   1      31.505  26.625  23.150  1.00  0.00    -0.340 N 
ATOM     14  O   UNL A   1      29.446  25.747  23.395  1.00  0.00    -0.269 OA
ATOM     15  C   UNL A   1      30.619  25.763  23.758  1.00  0.00     0.251 C 
ATOM     16  H   UNL A   1      31.111  27.330  22.587  1.00  0.00     0.164 HD
BRANCH  15  17
ATOM     17  C   UNL A   1      31.066  24.828  24.825  1.00  0.00     0.040 A 
ATOM     18  C   UNL A   1      31.527  25.302  26.063  1.00  0.00     0.017 A 
ATOM     19  C   UNL A   1      30.966  23.449  24.601  1.00  0.00     0.017 A 
ATOM     20  C   UNL A   1      31.946  24.399  27.044  1.00  0.00     0.040 A 
ATOM     21  C   UNL A   1      31.374  22.548  25.591  1.00  0.00     0.040 A 
ATOM     22  C   UNL A   1      31.867  23.032  26.798  1.00  0.00     0.123 A 
ATOM     23  F   UNL A   1      32.264  22.169  27.743  1.00  0.00    -0.207 F 
ENDBRANCH  15  17
ENDBRANCH  12  13
BRANCH  12  24
ATOM     24  C   UNL A   1      33.619  25.335  22.686  1.00  0.00     0.070 C 
BRANCH  24  25
ATOM     25  C   UNL A   1      34.319  24.398  23.628  1.00  0.00    -0.045 A 
ATOM     26  C   UNL A   1      34.390  23.032  23.313  1.00  0.00     0.007 A 
ATOM     27  C   UNL A   1      34.905  24.851  24.819  1.00  0.00     0.007 A 
ATOM     28  C   UNL A   1      34.896  22.118  24.233  1.00  0.00     0.046 A 
ATOM     29  C   UNL A   1      35.396  23.934  25.750  1.00  0.00     0.046 A 
ATOM     30  C   UNL A   1      35.342  22.577  25.462  1.00  0.00     0.115 A 
BRANCH  30  31
ATOM     31  O   UNL A   1      35.643  21.676  26.436  1.00  0.00    -0.508 OA
ATOM     32  H   UNL A   1      36.310  21.034  26.292  1.00  0.00     0.293 HD
ENDBRANCH  30  31
ENDBRANCH  24  25
ENDBRANCH  12  24
ENDBRANCH   9  12
ENDBRANCH   7   8
BRANCH   7  33
ATOM     33  C   UNL A   1      31.476  29.026  24.943  1.00  0.00     0.193 C 
BRANCH  33  34
ATOM     34  O   UNL A   1      30.792  29.701  23.888  1.00  0.00    -0.394 OA
ATOM     35  H   UNL A   1      30.154  29.097  23.477  1.00  0.00     0.210 HD
ENDBRANCH  33  34
ENDBRANCH   7  33
ENDBRANCH   5   7
ENDBRANCH   4   5
ENDBRANCH   3   4
ENDBRANCH   2   3
ENDBRANCH   1   2
BRANCH   1  36
ATOM     36  C   UNL A   1      34.680  32.842  29.804  1.00  0.00     0.188 C 
BRANCH  36  37
ATOM     37  C   UNL A   1      35.449  33.966  29.099  1.00  0.00     0.188 C 
BRANCH  37  38
ATOM     38  O   UNL A   1      34.777  35.173  28.759  1.00  0.00    -0.376 OA
BRANCH  38  39
ATOM     39  C   UNL A   1      33.361  35.189  28.813  1.00  0.00     0.202 C 
BRANCH  39  40
ATOM     40  C   UNL A   1      32.728  36.328  29.617  1.00  0.00     0.261 C 
BRANCH  40  41
ATOM     41  O   UNL A   1      33.329  36.535  30.905  1.00  0.00    -0.460 OA
BRANCH  41  42
ATOM     42  C   UNL A   1      32.817  35.773  31.900  1.00  0.00     0.338 C 
ATOM     43  O   UNL A   1      31.646  35.594  32.183  1.00  0.00    -0.246 OA
BRANCH  42  44
ATOM     44  C   UNL A   1      33.911  35.075  32.597  1.00  0.00     0.060 A 
ATOM     45  C   UNL A   1      35.201  35.606  32.507  1.00  0.00     0.016 A 
ATOM     46  C   UNL A   1      33.689  33.847  33.223  1.00  0.00     0.016 A 
ATOM     47  C   UNL A   1      36.285  34.903  33.037  1.00  0.00     0.010 A 
ATOM     48  C   UNL A   1      34.778  33.132  33.728  1.00  0.00     0.010 A 
ATOM     49  C   UNL A   1      36.083  33.645  33.619  1.00  0.00    -0.014 A 
BRANCH  49  50
ATOM     50  C   UNL A   1      37.241  32.771  33.921  1.00  0.00     0.031 A 
ATOM     51  C   UNL A   1      37.975  32.985  35.214  1.00  0.00     0.074 A 
ATOM     52  C   UNL A   1      37.635  31.797  33.083  1.00  0.00     0.049 A 
ATOM     53  N   UNL A   1      39.130  32.511  35.604  1.00  0.00    -0.248 NA
ATOM     54  C   UNL A   1      37.309  33.849  36.202  1.00  0.00     0.031 C 
ATOM     55  C   UNL A   1      36.941  31.393  31.862  1.00  0.00     0.029 A 
ATOM     56  N   UNL A   1      38.734  30.976  33.138  1.00  0.00    -0.354 N 
ATOM     57  C   UNL A   1      39.342  33.041  36.869  1.00  0.00     0.074 A 
ATOM     58  C   UNL A   1      38.195  33.864  37.185  1.00  0.00     0.031 C 
ATOM     59  C   UNL A   1      37.645  30.411  31.269  1.00  0.00     0.029 A 
ATOM     60  C   UNL A   1      38.867  30.165  32.036  1.00  0.00     0.049 A 
ATOM     61  H   UNL A   1      39.366  30.968  33.893  1.00  0.00     0.167 HD
ATOM     62  C   UNL A   1      40.406  32.870  37.687  1.00  0.00     0.037 A 
ATOM     63  C   UNL A   1      39.883  29.359  31.669  1.00  0.00     0.037 A 
ATOM     64  C   UNL A   1      41.548  32.056  37.370  1.00  0.00     0.049 A 
ATOM     65  C   UNL A   1      41.117  29.280  32.534  1.00  0.00     0.074 A 
ATOM     66  C   UNL A   1      42.704  31.862  38.105  1.00  0.00     0.029 A 
ATOM     67  N   UNL A   1      41.671  31.296  36.217  1.00  0.00    -0.354 N 
ATOM     68  N   UNL A   1      41.358  29.850  33.689  1.00  0.00    -0.248 NA
ATOM     69  C   UNL A   1      42.233  28.466  32.026  1.00  0.00     0.031 C 
ATOM     70  C   UNL A   1      43.541  31.007  37.381  1.00  0.00     0.029 A 
ATOM     71  C   UNL A   1      42.889  30.639  36.215  1.00  0.00     0.049 A 
ATOM     72  H   UNL A   1      40.993  31.232  35.506  1.00  0.00     0.167 HD
ATOM     73  C   UNL A   1      42.635  29.443  34.059  1.00  0.00     0.074 A 
ATOM     74  C   UNL A   1      43.119  28.575  33.006  1.00  0.00     0.031 C 
ATOM     75  C   UNL A   1      43.344  29.760  35.168  1.00  0.00     0.037 A 
BRANCH  62  76
ATOM     76  C   UNL A   1      40.402  33.632  38.976  1.00  0.00     0.057 A 
ATOM     77  C   UNL A   1      39.698  33.185  40.100  1.00  0.00     0.134 A 
ATOM     78  C   UNL A   1      41.109  34.837  39.088  1.00  0.00     0.134 A 
ATOM     79  F   UNL A   1      38.984  32.051  40.047  1.00  0.00    -0.206 F 
ATOM     80  C   UNL A   1      39.679  33.921  41.285  1.00  0.00     0.040 A 
ATOM     81  C   UNL A   1      41.115  35.570  40.275  1.00  0.00     0.040 A 
ATOM     82  F   UNL A   1      41.802  35.320  38.045  1.00  0.00    -0.206 F 
ATOM     83  C   UNL A   1      40.393  35.115  41.375  1.00  0.00     0.006 A 
ENDBRANCH  62  76
BRANCH  63  84
ATOM     84  C   UNL A   1      39.818  28.604  30.393  1.00  0.00     0.057 A 
ATOM     85  C   UNL A   1      39.189  27.356  30.322  1.00  0.00     0.134 A 
ATOM     86  C   UNL A   1      40.418  29.090  29.225  1.00  0.00     0.134 A 
ATOM     87  F   UNL A   1      38.624  26.822  31.416  1.00  0.00    -0.206 F 
ATOM     88  C   UNL A   1      39.170  26.613  29.140  1.00  0.00     0.040 A 
ATOM     89  C   UNL A   1      40.386  28.369  28.030  1.00  0.00     0.040 A 
ATOM     90  F   UNL A   1      41.047  30.275  29.230  1.00  0.00    -0.206 F 
ATOM     91  C   UNL A   1      39.766  27.123  27.989  1.00  0.00     0.006 A 
ENDBRANCH  63  84
BRANCH  75  92
ATOM     92  C   UNL A   1      44.695  29.132  35.335  1.00  0.00     0.057 A 
ATOM     93  C   UNL A   1      45.862  29.756  34.876  1.00  0.00     0.134 A 
ATOM     94  C   UNL A   1      44.834  27.920  36.024  1.00  0.00     0.134 A 
ATOM     95  F   UNL A   1      45.793  30.913  34.200  1.00  0.00    -0.206 F 
ATOM     96  C   UNL A   1      47.120  29.192  35.092  1.00  0.00     0.040 A 
ATOM     97  C   UNL A   1      46.088  27.357  36.262  1.00  0.00     0.040 A 
ATOM     98  F   UNL A   1      43.754  27.278  36.495  1.00  0.00    -0.206 F 
ATOM     99  C   UNL A   1      47.236  27.992  35.793  1.00  0.00     0.006 A 
ENDBRANCH  75  92
ENDBRANCH  49  50
ENDBRANCH  42  44
ENDBRANCH  41  42
ENDBRANCH  40  41
ENDBRANCH  39  40
ENDBRANCH  38  39
ENDBRANCH  37  38
ENDBRANCH  36  37
ENDBRANCH   1  36
TORSDOF 26
ENDMDL
