MODEL 1
REMARK VINA RESULT:     -11.2      0.000      0.000
REMARK SMILES Cc1nc(N2CCN(c3ccccc3)CC2)nc(OCC(=O)OCCOCCOCCOC(=O)c2ccc(-c3c4nc(c(-c5c(F)cccc5F)c5ccc([nH]5)c(-c5c(F)cccc5F)c5nc(c(-c6c(F)cccc6F)c6ccc3[nH]6)C=C5)C=C4)cc2)c1C
REMARK SMILES IDX 27 1 26 2 25 3 24 4 23 5 21 6 22 7 20 8 19 9 18 10 1 11 2 12
REMARK SMILES IDX 3 13 89 14 4 15 90 16 17 17 5 18 6 19 16 20 7 21 15 22 8 23
REMARK SMILES IDX 9 24 10 25 14 26 11 27 13 28 12 29 28 30 29 31 30 32 31 33
REMARK SMILES IDX 32 34 33 35 34 36 35 37 36 38 88 39 37 40 87 41 38 42 39 43
REMARK SMILES IDX 40 44 81 45 41 46 86 47 80 48 82 49 42 50 85 51 79 52 78 53
REMARK SMILES IDX 43 55 69 56 52 57 68 58 53 59 56 60 67 61 83 62 54 63 55 64
REMARK SMILES IDX 66 66 84 67 57 68 44 69 45 70 50 71 46 72 47 73 49 74 51 75
REMARK SMILES IDX 48 76 70 77 71 78 76 79 72 80 73 81 75 82 77 83 74 84 58 85
REMARK SMILES IDX 59 86 64 87 60 88 61 89 63 90 65 91 62 92
REMARK H PARENT 82 54 56 65
REMARK Flexibility Score: inf
ROOT
ATOM      1  C   UNL A   1      43.099  18.253  26.552  1.00  0.00     0.188 C 
ENDROOT
BRANCH   1   2
ATOM      2  O   UNL A   1      42.144  19.208  27.003  1.00  0.00    -0.376 OA
BRANCH   2   3
ATOM      3  C   UNL A   1      41.084  19.543  26.111  1.00  0.00     0.202 C 
BRANCH   3   4
ATOM      4  C   UNL A   1      40.272  20.768  26.535  1.00  0.00     0.261 C 
BRANCH   4   5
ATOM      5  O   UNL A   1      39.032  20.846  25.799  1.00  0.00    -0.461 OA
BRANCH   5   6
ATOM      6  C   UNL A   1      38.391  22.044  25.754  1.00  0.00     0.344 C 
ATOM      7  O   UNL A   1      38.808  23.087  26.242  1.00  0.00    -0.248 OA
BRANCH   6   8
ATOM      8  C   UNL A   1      37.039  21.929  25.052  1.00  0.00     0.353 C 
BRANCH   8   9
ATOM      9  O   UNL A   1      36.262  20.814  25.410  1.00  0.00    -0.465 OA
BRANCH   9  10
ATOM     10  C   UNL A   1      34.987  20.554  25.033  1.00  0.00     0.221 A 
ATOM     11  C   UNL A   1      32.152  18.320  23.898  1.00  0.00     0.067 C 
ATOM     12  C   UNL A   1      33.026  19.440  24.382  1.00  0.00     0.050 A 
ATOM     13  N   UNL A   1      32.321  20.572  24.568  1.00  0.00    -0.218 NA
ATOM     14  C   UNL A   1      34.399  19.356  24.635  1.00  0.00     0.033 A 
ATOM     15  C   UNL A   1      32.969  21.678  24.927  1.00  0.00     0.229 A 
ATOM     16  C   UNL A   1      35.141  18.072  24.457  1.00  0.00     0.052 C 
ATOM     17  N   UNL A   1      34.278  21.695  25.155  1.00  0.00    -0.177 NA
BRANCH  15  18
ATOM     18  N   UNL A   1      32.284  22.886  24.903  1.00  0.00    -0.337 N 
ATOM     19  C   UNL A   1      32.511  23.684  23.685  1.00  0.00     0.141 C 
ATOM     20  C   UNL A   1      32.538  23.616  26.158  1.00  0.00     0.141 C 
ATOM     21  C   UNL A   1      31.716  25.015  23.737  1.00  0.00     0.138 C 
ATOM     22  C   UNL A   1      31.761  24.942  26.207  1.00  0.00     0.138 C 
ATOM     23  N   UNL A   1      32.018  25.731  24.988  1.00  0.00    -0.368 N 
BRANCH  23  24
ATOM     24  C   UNL A   1      31.835  27.098  25.099  1.00  0.00     0.037 A 
ATOM     25  C   UNL A   1      31.220  27.869  24.107  1.00  0.00     0.026 A 
ATOM     26  C   UNL A   1      32.257  27.747  26.269  1.00  0.00     0.026 A 
ATOM     27  C   UNL A   1      31.023  29.243  24.285  1.00  0.00     0.002 A 
ATOM     28  C   UNL A   1      32.078  29.120  26.446  1.00  0.00     0.002 A 
ATOM     29  C   UNL A   1      31.454  29.869  25.454  1.00  0.00     0.000 A 
ENDBRANCH  23  24
ENDBRANCH  15  18
ENDBRANCH   9  10
ENDBRANCH   8   9
ENDBRANCH   6   8
ENDBRANCH   5   6
ENDBRANCH   4   5
ENDBRANCH   3   4
ENDBRANCH   2   3
ENDBRANCH   1   2
BRANCH   1  30
ATOM     30  C   UNL A   1      43.879  18.602  25.273  1.00  0.00     0.188 C 
BRANCH  30  31
ATOM     31  O   UNL A   1      44.804  19.680  25.353  1.00  0.00    -0.376 OA
BRANCH  31  32
ATOM     32  C   UNL A   1      44.385  20.928  24.815  1.00  0.00     0.202 C 
BRANCH  32  33
ATOM     33  C   UNL A   1      43.870  21.907  25.866  1.00  0.00     0.261 C 
BRANCH  33  34
ATOM     34  O   UNL A   1      43.047  22.906  25.238  1.00  0.00    -0.460 OA
BRANCH  34  35
ATOM     35  C   UNL A   1      43.645  24.112  25.119  1.00  0.00     0.338 C 
ATOM     36  O   UNL A   1      44.625  24.371  24.444  1.00  0.00    -0.246 OA
BRANCH  35  37
ATOM     37  C   UNL A   1      42.927  25.120  25.934  1.00  0.00     0.060 A 
ATOM     38  C   UNL A   1      42.955  26.481  25.618  1.00  0.00     0.016 A 
ATOM     39  C   UNL A   1      42.317  24.699  27.118  1.00  0.00     0.016 A 
ATOM     40  C   UNL A   1      42.458  27.421  26.525  1.00  0.00     0.010 A 
ATOM     41  C   UNL A   1      41.784  25.640  28.004  1.00  0.00     0.010 A 
ATOM     42  C   UNL A   1      41.900  27.014  27.744  1.00  0.00    -0.014 A 
BRANCH  42  43
ATOM     43  C   UNL A   1      41.555  28.002  28.803  1.00  0.00     0.031 A 
ATOM     44  C   UNL A   1      42.435  28.114  30.023  1.00  0.00     0.074 A 
ATOM     45  C   UNL A   1      40.496  28.826  28.688  1.00  0.00     0.049 A 
ATOM     46  N   UNL A   1      42.197  28.704  31.166  1.00  0.00    -0.248 NA
ATOM     47  C   UNL A   1      43.763  27.483  29.939  1.00  0.00     0.031 C 
ATOM     48  C   UNL A   1      39.619  28.929  27.524  1.00  0.00     0.029 A 
ATOM     49  N   UNL A   1      39.979  29.737  29.578  1.00  0.00    -0.354 N 
ATOM     50  C   UNL A   1      43.318  28.471  31.953  1.00  0.00     0.074 A 
ATOM     51  C   UNL A   1      44.245  27.699  31.156  1.00  0.00     0.031 C 
ATOM     52  C   UNL A   1      38.680  29.858  27.764  1.00  0.00     0.029 A 
ATOM     53  C   UNL A   1      38.829  30.343  29.134  1.00  0.00     0.049 A 
ATOM     54  H   UNL A   1      40.392  29.936  30.450  1.00  0.00     0.167 HD
ATOM     55  C   UNL A   1      43.547  28.860  33.230  1.00  0.00     0.037 A 
ATOM     56  C   UNL A   1      37.953  31.143  29.773  1.00  0.00     0.037 A 
ATOM     57  C   UNL A   1      42.645  29.664  34.011  1.00  0.00     0.049 A 
ATOM     58  C   UNL A   1      38.165  31.469  31.225  1.00  0.00     0.074 A 
ATOM     59  C   UNL A   1      42.784  30.088  35.321  1.00  0.00     0.029 A 
ATOM     60  N   UNL A   1      41.447  30.179  33.547  1.00  0.00    -0.354 N 
ATOM     61  N   UNL A   1      39.167  31.144  32.006  1.00  0.00    -0.248 NA
ATOM     62  C   UNL A   1      37.106  32.238  31.897  1.00  0.00     0.031 C 
ATOM     63  C   UNL A   1      41.652  30.835  35.661  1.00  0.00     0.029 A 
ATOM     64  C   UNL A   1      40.827  30.904  34.550  1.00  0.00     0.049 A 
ATOM     65  H   UNL A   1      41.090  30.051  32.639  1.00  0.00     0.167 HD
ATOM     66  C   UNL A   1      38.858  31.661  33.258  1.00  0.00     0.074 A 
ATOM     67  C   UNL A   1      37.588  32.345  33.128  1.00  0.00     0.031 C 
ATOM     68  C   UNL A   1      39.559  31.570  34.413  1.00  0.00     0.037 A 
BRANCH  55  69
ATOM     69  C   UNL A   1      44.808  28.392  33.890  1.00  0.00     0.057 A 
ATOM     70  C   UNL A   1      45.996  29.127  33.821  1.00  0.00     0.134 A 
ATOM     71  C   UNL A   1      44.803  27.235  34.678  1.00  0.00     0.134 A 
ATOM     72  F   UNL A   1      46.067  30.238  33.072  1.00  0.00    -0.206 F 
ATOM     73  C   UNL A   1      47.138  28.727  34.518  1.00  0.00     0.040 A 
ATOM     74  C   UNL A   1      45.932  26.834  35.392  1.00  0.00     0.040 A 
ATOM     75  F   UNL A   1      43.692  26.491  34.786  1.00  0.00    -0.206 F 
ATOM     76  C   UNL A   1      47.105  27.583  35.315  1.00  0.00     0.006 A 
ENDBRANCH  55  69
BRANCH  56  77
ATOM     77  C   UNL A   1      36.738  31.617  29.064  1.00  0.00     0.057 A 
ATOM     78  C   UNL A   1      35.649  30.767  28.843  1.00  0.00     0.134 A 
ATOM     79  C   UNL A   1      36.636  32.934  28.597  1.00  0.00     0.134 A 
ATOM     80  F   UNL A   1      35.700  29.487  29.239  1.00  0.00    -0.206 F 
ATOM     81  C   UNL A   1      34.499  31.212  28.189  1.00  0.00     0.040 A 
ATOM     82  C   UNL A   1      35.483  33.399  27.966  1.00  0.00     0.040 A 
ATOM     83  F   UNL A   1      37.650  33.794  28.771  1.00  0.00    -0.206 F 
ATOM     84  C   UNL A   1      34.410  32.535  27.758  1.00  0.00     0.006 A 
ENDBRANCH  56  77
BRANCH  68  85
ATOM     85  C   UNL A   1      38.975  32.217  35.631  1.00  0.00     0.057 A 
ATOM     86  C   UNL A   1      38.250  31.477  36.572  1.00  0.00     0.134 A 
ATOM     87  C   UNL A   1      39.191  33.575  35.896  1.00  0.00     0.134 A 
ATOM     88  F   UNL A   1      38.002  30.174  36.368  1.00  0.00    -0.206 F 
ATOM     89  C   UNL A   1      37.750  32.069  37.733  1.00  0.00     0.040 A 
ATOM     90  C   UNL A   1      38.711  34.173  37.062  1.00  0.00     0.040 A 
ATOM     91  F   UNL A   1      39.886  34.334  35.037  1.00  0.00    -0.206 F 
ATOM     92  C   UNL A   1      37.986  33.418  37.983  1.00  0.00     0.006 A 
ENDBRANCH  68  85
ENDBRANCH  42  43
ENDBRANCH  35  37
ENDBRANCH  34  35
ENDBRANCH  33  34
ENDBRANCH  32  33
ENDBRANCH  31  32
ENDBRANCH  30  31
ENDBRANCH   1  30
TORSDOF 21
ENDMDL
MODEL 2
REMARK VINA RESULT:     -10.6      3.218      8.091
REMARK SMILES Cc1nc(N2CCN(c3ccccc3)CC2)nc(OCC(=O)OCCOCCOCCOC(=O)c2ccc(-c3c4nc(c(-c5c(F)cccc5F)c5ccc([nH]5)c(-c5c(F)cccc5F)c5nc(c(-c6c(F)cccc6F)c6ccc3[nH]6)C=C5)C=C4)cc2)c1C
REMARK SMILES IDX 27 1 26 2 25 3 24 4 23 5 21 6 22 7 20 8 19 9 18 10 1 11 2 12
REMARK SMILES IDX 3 13 89 14 4 15 90 16 17 17 5 18 6 19 16 20 7 21 15 22 8 23
REMARK SMILES IDX 9 24 10 25 14 26 11 27 13 28 12 29 28 30 29 31 30 32 31 33
REMARK SMILES IDX 32 34 33 35 34 36 35 37 36 38 88 39 37 40 87 41 38 42 39 43
REMARK SMILES IDX 40 44 81 45 41 46 86 47 80 48 82 49 42 50 85 51 79 52 78 53
REMARK SMILES IDX 43 55 69 56 52 57 68 58 53 59 56 60 67 61 83 62 54 63 55 64
REMARK SMILES IDX 66 66 84 67 57 68 44 69 45 70 50 71 46 72 47 73 49 74 51 75
REMARK SMILES IDX 48 76 70 77 71 78 76 79 72 80 73 81 75 82 77 83 74 84 58 85
REMARK SMILES IDX 59 86 64 87 60 88 61 89 63 90 65 91 62 92
REMARK H PARENT 82 54 56 65
REMARK Flexibility Score: inf
ROOT
ATOM      1  C   UNL A   1      32.724  27.597  26.143  1.00  0.00     0.188 C 
ENDROOT
BRANCH   1   2
ATOM      2  O   UNL A   1      32.607  26.179  26.195  1.00  0.00    -0.376 OA
BRANCH   2   3
ATOM      3  C   UNL A   1      33.813  25.422  26.130  1.00  0.00     0.202 C 
BRANCH   3   4
ATOM      4  C   UNL A   1      34.456  25.386  24.742  1.00  0.00     0.261 C 
BRANCH   4   5
ATOM      5  O   UNL A   1      35.565  24.461  24.710  1.00  0.00    -0.461 OA
BRANCH   5   6
ATOM      6  C   UNL A   1      35.293  23.146  24.501  1.00  0.00     0.344 C 
ATOM      7  O   UNL A   1      35.562  22.238  25.278  1.00  0.00    -0.248 OA
BRANCH   6   8
ATOM      8  C   UNL A   1      34.643  22.918  23.138  1.00  0.00     0.353 C 
BRANCH   8   9
ATOM      9  O   UNL A   1      33.345  22.380  23.166  1.00  0.00    -0.465 OA
BRANCH   9  10
ATOM     10  C   UNL A   1      32.302  22.808  23.916  1.00  0.00     0.221 A 
ATOM     11  C   UNL A   1      29.934  22.669  26.865  1.00  0.00     0.067 C 
ATOM     12  C   UNL A   1      30.722  23.028  25.638  1.00  0.00     0.050 A 
ATOM     13  N   UNL A   1      30.311  24.198  25.113  1.00  0.00    -0.218 NA
ATOM     14  C   UNL A   1      31.765  22.278  25.087  1.00  0.00     0.033 A 
ATOM     15  C   UNL A   1      30.864  24.618  23.978  1.00  0.00     0.229 A 
ATOM     16  C   UNL A   1      32.221  21.004  25.720  1.00  0.00     0.052 C 
ATOM     17  N   UNL A   1      31.838  23.950  23.369  1.00  0.00    -0.177 NA
BRANCH  15  18
ATOM     18  N   UNL A   1      30.293  25.702  23.322  1.00  0.00    -0.337 N 
ATOM     19  C   UNL A   1      31.272  26.650  22.761  1.00  0.00     0.141 C 
ATOM     20  C   UNL A   1      29.283  26.325  24.197  1.00  0.00     0.141 C 
ATOM     21  C   UNL A   1      30.557  27.830  22.050  1.00  0.00     0.138 C 
ATOM     22  C   UNL A   1      28.582  27.503  23.501  1.00  0.00     0.138 C 
ATOM     23  N   UNL A   1      29.580  28.447  22.963  1.00  0.00    -0.368 N 
BRANCH  23  24
ATOM     24  C   UNL A   1      29.150  29.750  22.784  1.00  0.00     0.037 A 
ATOM     25  C   UNL A   1      28.479  30.182  21.636  1.00  0.00     0.026 A 
ATOM     26  C   UNL A   1      29.366  30.683  23.810  1.00  0.00     0.026 A 
ATOM     27  C   UNL A   1      28.030  31.503  21.521  1.00  0.00     0.002 A 
ATOM     28  C   UNL A   1      28.935  32.006  23.695  1.00  0.00     0.002 A 
ATOM     29  C   UNL A   1      28.259  32.415  22.551  1.00  0.00     0.000 A 
ENDBRANCH  23  24
ENDBRANCH  15  18
ENDBRANCH   9  10
ENDBRANCH   8   9
ENDBRANCH   6   8
ENDBRANCH   5   6
ENDBRANCH   4   5
ENDBRANCH   3   4
ENDBRANCH   2   3
ENDBRANCH   1   2
BRANCH   1  30
ATOM     30  C   UNL A   1      31.927  28.397  27.188  1.00  0.00     0.188 C 
BRANCH  30  31
ATOM     31  O   UNL A   1      32.303  29.754  27.388  1.00  0.00    -0.376 OA
BRANCH  31  32
ATOM     32  C   UNL A   1      31.871  30.691  26.410  1.00  0.00     0.202 C 
BRANCH  32  33
ATOM     33  C   UNL A   1      31.777  32.123  26.931  1.00  0.00     0.261 C 
BRANCH  33  34
ATOM     34  O   UNL A   1      33.097  32.645  27.159  1.00  0.00    -0.460 OA
BRANCH  34  35
ATOM     35  C   UNL A   1      33.131  33.706  27.996  1.00  0.00     0.338 C 
ATOM     36  O   UNL A   1      32.346  34.637  28.016  1.00  0.00    -0.246 OA
BRANCH  35  37
ATOM     37  C   UNL A   1      34.278  33.586  28.926  1.00  0.00     0.060 A 
ATOM     38  C   UNL A   1      35.502  34.212  28.672  1.00  0.00     0.016 A 
ATOM     39  C   UNL A   1      34.159  32.721  30.016  1.00  0.00     0.016 A 
ATOM     40  C   UNL A   1      36.622  33.900  29.448  1.00  0.00     0.010 A 
ATOM     41  C   UNL A   1      35.272  32.443  30.815  1.00  0.00     0.010 A 
ATOM     42  C   UNL A   1      36.528  32.986  30.505  1.00  0.00    -0.014 A 
BRANCH  42  43
ATOM     43  C   UNL A   1      37.744  32.490  31.206  1.00  0.00     0.031 A 
ATOM     44  C   UNL A   1      38.526  31.346  30.610  1.00  0.00     0.074 A 
ATOM     45  C   UNL A   1      38.189  33.057  32.344  1.00  0.00     0.049 A 
ATOM     46  N   UNL A   1      39.446  30.594  31.159  1.00  0.00    -0.248 NA
ATOM     47  C   UNL A   1      38.238  31.010  29.205  1.00  0.00     0.031 C 
ATOM     48  C   UNL A   1      37.621  34.241  32.984  1.00  0.00     0.029 A 
ATOM     49  N   UNL A   1      39.230  32.699  33.167  1.00  0.00    -0.354 N 
ATOM     50  C   UNL A   1      39.806  29.667  30.189  1.00  0.00     0.074 A 
ATOM     51  C   UNL A   1      39.019  29.956  29.011  1.00  0.00     0.031 C 
ATOM     52  C   UNL A   1      38.326  34.521  34.091  1.00  0.00     0.029 A 
ATOM     53  C   UNL A   1      39.330  33.480  34.293  1.00  0.00     0.049 A 
ATOM     54  H   UNL A   1      39.845  31.956  32.969  1.00  0.00     0.167 HD
ATOM     55  C   UNL A   1      40.706  28.660  30.279  1.00  0.00     0.037 A 
ATOM     56  C   UNL A   1      40.091  33.338  35.396  1.00  0.00     0.037 A 
ATOM     57  C   UNL A   1      41.521  28.396  31.435  1.00  0.00     0.049 A 
ATOM     58  C   UNL A   1      41.000  32.148  35.525  1.00  0.00     0.074 A 
ATOM     59  C   UNL A   1      42.445  27.383  31.625  1.00  0.00     0.029 A 
ATOM     60  N   UNL A   1      41.521  29.161  32.589  1.00  0.00    -0.354 N 
ATOM     61  N   UNL A   1      41.249  31.201  34.655  1.00  0.00    -0.248 NA
ATOM     62  C   UNL A   1      41.705  31.986  36.807  1.00  0.00     0.031 C 
ATOM     63  C   UNL A   1      42.983  27.517  32.908  1.00  0.00     0.029 A 
ATOM     64  C   UNL A   1      42.418  28.634  33.502  1.00  0.00     0.049 A 
ATOM     65  H   UNL A   1      40.968  29.961  32.737  1.00  0.00     0.167 HD
ATOM     66  C   UNL A   1      42.130  30.329  35.281  1.00  0.00     0.074 A 
ATOM     67  C   UNL A   1      42.395  30.872  36.597  1.00  0.00     0.031 C 
ATOM     68  C   UNL A   1      42.664  29.176  34.812  1.00  0.00     0.037 A 
BRANCH  55  69
ATOM     69  C   UNL A   1      40.840  27.732  29.110  1.00  0.00     0.057 A 
ATOM     70  C   UNL A   1      41.855  27.881  28.159  1.00  0.00     0.134 A 
ATOM     71  C   UNL A   1      39.993  26.623  28.990  1.00  0.00     0.134 A 
ATOM     72  F   UNL A   1      42.689  28.929  28.214  1.00  0.00    -0.206 F 
ATOM     73  C   UNL A   1      42.024  26.956  27.127  1.00  0.00     0.040 A 
ATOM     74  C   UNL A   1      40.162  25.683  27.974  1.00  0.00     0.040 A 
ATOM     75  F   UNL A   1      39.004  26.425  29.875  1.00  0.00    -0.206 F 
ATOM     76  C   UNL A   1      41.182  25.847  27.039  1.00  0.00     0.006 A 
ENDBRANCH  55  69
BRANCH  56  77
ATOM     77  C   UNL A   1      39.954  34.308  36.512  1.00  0.00     0.057 A 
ATOM     78  C   UNL A   1      40.671  35.508  36.521  1.00  0.00     0.134 A 
ATOM     79  C   UNL A   1      39.096  34.059  37.591  1.00  0.00     0.134 A 
ATOM     80  F   UNL A   1      41.532  35.790  35.532  1.00  0.00    -0.206 F 
ATOM     81  C   UNL A   1      40.536  36.430  37.561  1.00  0.00     0.040 A 
ATOM     82  C   UNL A   1      38.931  34.982  38.623  1.00  0.00     0.040 A 
ATOM     83  F   UNL A   1      38.387  32.921  37.644  1.00  0.00    -0.206 F 
ATOM     84  C   UNL A   1      39.654  36.173  38.610  1.00  0.00     0.006 A 
ENDBRANCH  56  77
BRANCH  68  85
ATOM     85  C   UNL A   1      43.583  28.418  35.720  1.00  0.00     0.057 A 
ATOM     86  C   UNL A   1      44.954  28.696  35.765  1.00  0.00     0.134 A 
ATOM     87  C   UNL A   1      43.087  27.447  36.597  1.00  0.00     0.134 A 
ATOM     88  F   UNL A   1      45.490  29.609  34.941  1.00  0.00    -0.206 F 
ATOM     89  C   UNL A   1      45.803  28.027  36.647  1.00  0.00     0.040 A 
ATOM     90  C   UNL A   1      43.923  26.784  37.497  1.00  0.00     0.040 A 
ATOM     91  F   UNL A   1      41.781  27.142  36.608  1.00  0.00    -0.206 F 
ATOM     92  C   UNL A   1      45.286  27.073  37.521  1.00  0.00     0.006 A 
ENDBRANCH  68  85
ENDBRANCH  42  43
ENDBRANCH  35  37
ENDBRANCH  34  35
ENDBRANCH  33  34
ENDBRANCH  32  33
ENDBRANCH  31  32
ENDBRANCH  30  31
ENDBRANCH   1  30
TORSDOF 21
ENDMDL
MODEL 3
REMARK VINA RESULT:     -10.5      2.849      7.759
REMARK SMILES Cc1nc(N2CCN(c3ccccc3)CC2)nc(OCC(=O)OCCOCCOCCOC(=O)c2ccc(-c3c4nc(c(-c5c(F)cccc5F)c5ccc([nH]5)c(-c5c(F)cccc5F)c5nc(c(-c6c(F)cccc6F)c6ccc3[nH]6)C=C5)C=C4)cc2)c1C
REMARK SMILES IDX 27 1 26 2 25 3 24 4 23 5 21 6 22 7 20 8 19 9 18 10 1 11 2 12
REMARK SMILES IDX 3 13 89 14 4 15 90 16 17 17 5 18 6 19 16 20 7 21 15 22 8 23
REMARK SMILES IDX 9 24 10 25 14 26 11 27 13 28 12 29 28 30 29 31 30 32 31 33
REMARK SMILES IDX 32 34 33 35 34 36 35 37 36 38 88 39 37 40 87 41 38 42 39 43
REMARK SMILES IDX 40 44 81 45 41 46 86 47 80 48 82 49 42 50 85 51 79 52 78 53
REMARK SMILES IDX 43 55 69 56 52 57 68 58 53 59 56 60 67 61 83 62 54 63 55 64
REMARK SMILES IDX 66 66 84 67 57 68 44 69 45 70 50 71 46 72 47 73 49 74 51 75
REMARK SMILES IDX 48 76 70 77 71 78 76 79 72 80 73 81 75 82 77 83 74 84 58 85
REMARK SMILES IDX 59 86 64 87 60 88 61 89 63 90 65 91 62 92
REMARK H PARENT 82 54 56 65
REMARK Flexibility Score: inf
ROOT
ATOM      1  C   UNL A   1      33.043  26.394  26.353  1.00  0.00     0.188 C 
ENDROOT
BRANCH   1   2
ATOM      2  O   UNL A   1      33.123  24.975  26.428  1.00  0.00    -0.376 OA
BRANCH   2   3
ATOM      3  C   UNL A   1      34.424  24.395  26.458  1.00  0.00     0.202 C 
BRANCH   3   4
ATOM      4  C   UNL A   1      35.224  24.584  25.168  1.00  0.00     0.261 C 
BRANCH   4   5
ATOM      5  O   UNL A   1      36.077  23.447  24.917  1.00  0.00    -0.461 OA
BRANCH   5   6
ATOM      6  C   UNL A   1      35.559  22.403  24.215  1.00  0.00     0.344 C 
ATOM      7  O   UNL A   1      35.753  21.220  24.464  1.00  0.00    -0.248 OA
BRANCH   6   8
ATOM      8  C   UNL A   1      34.729  22.886  23.026  1.00  0.00     0.353 C 
BRANCH   8   9
ATOM      9  O   UNL A   1      33.407  22.412  22.977  1.00  0.00    -0.465 OA
BRANCH   9  10
ATOM     10  C   UNL A   1      32.362  22.833  23.729  1.00  0.00     0.221 A 
ATOM     11  C   UNL A   1      29.971  22.651  26.655  1.00  0.00     0.067 C 
ATOM     12  C   UNL A   1      30.771  23.030  25.443  1.00  0.00     0.050 A 
ATOM     13  N   UNL A   1      30.376  24.215  24.942  1.00  0.00    -0.218 NA
ATOM     14  C   UNL A   1      31.811  22.282  24.883  1.00  0.00     0.033 A 
ATOM     15  C   UNL A   1      30.941  24.655  23.820  1.00  0.00     0.229 A 
ATOM     16  C   UNL A   1      32.250  20.990  25.491  1.00  0.00     0.052 C 
ATOM     17  N   UNL A   1      31.914  23.991  23.203  1.00  0.00    -0.177 NA
BRANCH  15  18
ATOM     18  N   UNL A   1      30.385  25.759  23.185  1.00  0.00    -0.337 N 
ATOM     19  C   UNL A   1      31.377  26.696  22.628  1.00  0.00     0.141 C 
ATOM     20  C   UNL A   1      29.396  26.389  24.077  1.00  0.00     0.141 C 
ATOM     21  C   UNL A   1      30.680  27.899  21.940  1.00  0.00     0.138 C 
ATOM     22  C   UNL A   1      28.712  27.590  23.404  1.00  0.00     0.138 C 
ATOM     23  N   UNL A   1      29.723  28.522  22.870  1.00  0.00    -0.368 N 
BRANCH  23  24
ATOM     24  C   UNL A   1      29.316  29.835  22.713  1.00  0.00     0.037 A 
ATOM     25  C   UNL A   1      28.882  30.360  21.492  1.00  0.00     0.026 A 
ATOM     26  C   UNL A   1      29.309  30.682  23.832  1.00  0.00     0.026 A 
ATOM     27  C   UNL A   1      28.443  31.686  21.396  1.00  0.00     0.002 A 
ATOM     28  C   UNL A   1      28.889  32.010  23.740  1.00  0.00     0.002 A 
ATOM     29  C   UNL A   1      28.448  32.511  22.520  1.00  0.00     0.000 A 
ENDBRANCH  23  24
ENDBRANCH  15  18
ENDBRANCH   9  10
ENDBRANCH   8   9
ENDBRANCH   6   8
ENDBRANCH   5   6
ENDBRANCH   4   5
ENDBRANCH   3   4
ENDBRANCH   2   3
ENDBRANCH   1   2
BRANCH   1  30
ATOM     30  C   UNL A   1      31.748  27.046  26.868  1.00  0.00     0.188 C 
BRANCH  30  31
ATOM     31  O   UNL A   1      31.827  28.405  27.280  1.00  0.00    -0.376 OA
BRANCH  31  32
ATOM     32  C   UNL A   1      31.802  29.390  26.255  1.00  0.00     0.202 C 
BRANCH  32  33
ATOM     33  C   UNL A   1      31.717  30.820  26.780  1.00  0.00     0.261 C 
BRANCH  33  34
ATOM     34  O   UNL A   1      32.918  31.535  26.443  1.00  0.00    -0.460 OA
BRANCH  34  35
ATOM     35  C   UNL A   1      33.426  32.265  27.460  1.00  0.00     0.338 C 
ATOM     36  O   UNL A   1      32.895  33.216  28.004  1.00  0.00    -0.246 OA
BRANCH  35  37
ATOM     37  C   UNL A   1      34.756  31.741  27.850  1.00  0.00     0.060 A 
ATOM     38  C   UNL A   1      34.951  30.397  28.179  1.00  0.00     0.016 A 
ATOM     39  C   UNL A   1      35.803  32.651  28.012  1.00  0.00     0.016 A 
ATOM     40  C   UNL A   1      36.157  29.985  28.752  1.00  0.00     0.010 A 
ATOM     41  C   UNL A   1      37.023  32.226  28.548  1.00  0.00     0.010 A 
ATOM     42  C   UNL A   1      37.193  30.901  28.977  1.00  0.00    -0.014 A 
BRANCH  42  43
ATOM     43  C   UNL A   1      38.397  30.526  29.769  1.00  0.00     0.031 A 
ATOM     44  C   UNL A   1      39.435  29.622  29.152  1.00  0.00     0.074 A 
ATOM     45  C   UNL A   1      38.606  31.001  31.011  1.00  0.00     0.049 A 
ATOM     46  N   UNL A   1      40.413  28.969  29.725  1.00  0.00    -0.248 NA
ATOM     47  C   UNL A   1      39.365  29.436  27.692  1.00  0.00     0.031 C 
ATOM     48  C   UNL A   1      37.765  31.974  31.704  1.00  0.00     0.029 A 
ATOM     49  N   UNL A   1      39.600  30.715  31.916  1.00  0.00    -0.354 N 
ATOM     50  C   UNL A   1      41.039  28.256  28.711  1.00  0.00     0.074 A 
ATOM     51  C   UNL A   1      40.343  28.566  27.481  1.00  0.00     0.031 C 
ATOM     52  C   UNL A   1      38.283  32.216  32.918  1.00  0.00     0.029 A 
ATOM     53  C   UNL A   1      39.434  31.341  33.128  1.00  0.00     0.049 A 
ATOM     54  H   UNL A   1      40.359  30.120  31.716  1.00  0.00     0.167 HD
ATOM     55  C   UNL A   1      42.094  27.412  28.800  1.00  0.00     0.037 A 
ATOM     56  C   UNL A   1      40.086  31.182  34.297  1.00  0.00     0.037 A 
ATOM     57  C   UNL A   1      42.814  27.135  30.014  1.00  0.00     0.049 A 
ATOM     58  C   UNL A   1      41.179  30.156  34.405  1.00  0.00     0.074 A 
ATOM     59  C   UNL A   1      43.884  26.276  30.205  1.00  0.00     0.029 A 
ATOM     60  N   UNL A   1      42.551  27.725  31.238  1.00  0.00    -0.354 N 
ATOM     61  N   UNL A   1      41.689  29.391  33.471  1.00  0.00    -0.248 NA
ATOM     62  C   UNL A   1      41.760  29.942  35.740  1.00  0.00     0.031 C 
ATOM     63  C   UNL A   1      44.247  26.323  31.554  1.00  0.00     0.029 A 
ATOM     64  C   UNL A   1      43.426  27.238  32.194  1.00  0.00     0.049 A 
ATOM     65  H   UNL A   1      41.847  28.393  31.404  1.00  0.00     0.167 HD
ATOM     66  C   UNL A   1      42.643  28.603  34.103  1.00  0.00     0.074 A 
ATOM     67  C   UNL A   1      42.661  28.999  35.495  1.00  0.00     0.031 C 
ATOM     68  C   UNL A   1      43.426  27.631  33.577  1.00  0.00     0.037 A 
BRANCH  55  69
ATOM     69  C   UNL A   1      42.520  26.687  27.560  1.00  0.00     0.057 A 
ATOM     70  C   UNL A   1      41.998  25.436  27.217  1.00  0.00     0.134 A 
ATOM     71  C   UNL A   1      43.400  27.296  26.657  1.00  0.00     0.134 A 
ATOM     72  F   UNL A   1      41.161  24.798  28.047  1.00  0.00    -0.206 F 
ATOM     73  C   UNL A   1      42.335  24.815  26.013  1.00  0.00     0.040 A 
ATOM     74  C   UNL A   1      43.731  26.693  25.443  1.00  0.00     0.040 A 
ATOM     75  F   UNL A   1      43.931  28.498  26.929  1.00  0.00    -0.206 F 
ATOM     76  C   UNL A   1      43.196  25.449  25.117  1.00  0.00     0.006 A 
ENDBRANCH  55  69
BRANCH  56  77
ATOM     77  C   UNL A   1      39.654  31.954  35.489  1.00  0.00     0.057 A 
ATOM     78  C   UNL A   1      40.274  33.159  35.835  1.00  0.00     0.134 A 
ATOM     79  C   UNL A   1      38.607  31.508  36.305  1.00  0.00     0.134 A 
ATOM     80  F   UNL A   1      41.303  33.622  35.111  1.00  0.00    -0.206 F 
ATOM     81  C   UNL A   1      39.863  33.895  36.948  1.00  0.00     0.040 A 
ATOM     82  C   UNL A   1      38.168  32.247  37.403  1.00  0.00     0.040 A 
ATOM     83  F   UNL A   1      37.978  30.355  36.029  1.00  0.00    -0.206 F 
ATOM     84  C   UNL A   1      38.799  33.445  37.728  1.00  0.00     0.006 A 
ENDBRANCH  56  77
BRANCH  68  85
ATOM     85  C   UNL A   1      44.367  26.923  34.504  1.00  0.00     0.057 A 
ATOM     86  C   UNL A   1      44.016  25.714  35.115  1.00  0.00     0.134 A 
ATOM     87  C   UNL A   1      45.654  27.422  34.739  1.00  0.00     0.134 A 
ATOM     88  F   UNL A   1      42.793  25.191  34.935  1.00  0.00    -0.206 F 
ATOM     89  C   UNL A   1      44.911  25.028  35.936  1.00  0.00     0.040 A 
ATOM     90  C   UNL A   1      46.564  26.735  35.545  1.00  0.00     0.040 A 
ATOM     91  F   UNL A   1      46.053  28.571  34.175  1.00  0.00    -0.206 F 
ATOM     92  C   UNL A   1      46.191  25.535  36.147  1.00  0.00     0.006 A 
ENDBRANCH  68  85
ENDBRANCH  42  43
ENDBRANCH  35  37
ENDBRANCH  34  35
ENDBRANCH  33  34
ENDBRANCH  32  33
ENDBRANCH  31  32
ENDBRANCH  30  31
ENDBRANCH   1  30
TORSDOF 21
ENDMDL
