MODEL 1
REMARK VINA RESULT:     -10.4      0.000      0.000
REMARK SMILES CCCCCCOC(=O)Nc1cccc(-c2ccc([C@@H](C)C(=O)OCCOCCOCCOC(=O)c3ccc(-c4c5nc(c(-c6c(F)cccc6F)c6ccc([nH]6)c(-c6c(F)cccc6F)c6nc(c(-c7c(F)cccc7F)c7ccc4[nH]7)C=C6)C=C5)cc3)cc2F)c1
REMARK SMILES IDX 25 1 24 2 22 3 23 4 20 5 21 6 19 7 16 8 17 9 91 10 18 11
REMARK SMILES IDX 90 12 92 13 15 14 11 15 12 16 93 17 13 18 14 19 10 20 8 21
REMARK SMILES IDX 9 22 7 24 6 25 5 26 4 27 3 28 2 29 1 30 26 31 27 32 28 33
REMARK SMILES IDX 29 34 30 35 31 36 32 37 33 38 34 39 35 40 36 41 37 42 89 43
REMARK SMILES IDX 38 44 88 45 39 46 40 47 41 48 82 49 42 50 87 51 81 52 83 53
REMARK SMILES IDX 43 54 86 55 80 56 79 57 44 59 70 60 53 61 69 62 54 63 57 64
REMARK SMILES IDX 68 65 84 66 55 67 56 68 67 70 85 71 58 72 45 73 46 74 51 75
REMARK SMILES IDX 47 76 48 77 50 78 52 79 49 80 71 81 72 82 77 83 73 84 74 85
REMARK SMILES IDX 76 86 78 87 75 88 59 89 60 90 65 91 61 92 62 93 64 94 66 95
REMARK SMILES IDX 63 96
REMARK H PARENT 10 23 83 58 57 69
REMARK Flexibility Score: inf
ROOT
ATOM      1  C   UNL A   1      34.125  36.100  28.728  1.00  0.00     0.261 C 
ENDROOT
BRANCH   1   2
ATOM      2  O   UNL A   1      34.527  34.939  27.970  1.00  0.00    -0.463 OA
BRANCH   2   3
ATOM      3  C   UNL A   1      33.647  33.907  27.936  1.00  0.00     0.313 C 
ATOM      4  O   UNL A   1      32.460  34.041  27.645  1.00  0.00    -0.252 OA
BRANCH   3   5
ATOM      5  C   UNL A   1      34.214  32.526  28.271  1.00  0.00     0.126 C 
ATOM      6  C   UNL A   1      35.722  32.543  28.023  1.00  0.00     0.025 C 
BRANCH   5   7
ATOM      7  C   UNL A   1      33.602  31.253  27.691  1.00  0.00    -0.031 A 
ATOM      8  C   UNL A   1      32.589  28.833  26.531  1.00  0.00     0.018 A 
ATOM      9  C   UNL A   1      31.778  29.969  26.685  1.00  0.00     0.012 A 
ATOM     10  C   UNL A   1      33.914  28.937  26.972  1.00  0.00     0.131 A 
ATOM     11  C   UNL A   1      32.274  31.162  27.248  1.00  0.00     0.005 A 
ATOM     12  C   UNL A   1      34.416  30.117  27.533  1.00  0.00     0.044 A 
ATOM     13  F   UNL A   1      34.756  27.900  26.843  1.00  0.00    -0.206 F 
BRANCH   8  14
ATOM     14  C   UNL A   1      32.093  27.605  25.879  1.00  0.00    -0.013 A 
ATOM     15  C   UNL A   1      31.818  26.210  23.887  1.00  0.00     0.045 A 
ATOM     16  C   UNL A   1      30.906  25.403  24.568  1.00  0.00     0.026 A 
ATOM     17  C   UNL A   1      32.414  27.297  24.543  1.00  0.00     0.035 A 
ATOM     18  C   UNL A   1      30.628  25.650  25.911  1.00  0.00     0.003 A 
ATOM     19  C   UNL A   1      31.212  26.744  26.556  1.00  0.00     0.009 A 
BRANCH  15  20
ATOM     20  N   UNL A   1      32.010  25.965  22.520  1.00  0.00    -0.291 N 
ATOM     21  C   UNL A   1      33.178  25.662  21.879  1.00  0.00     0.411 C 
ATOM     22  O   UNL A   1      33.316  25.884  20.681  1.00  0.00    -0.224 OA
ATOM     23  H   UNL A   1      31.207  26.017  21.954  1.00  0.00     0.173 HD
BRANCH  21  24
ATOM     24  O   UNL A   1      34.052  24.982  22.660  1.00  0.00    -0.449 OA
BRANCH  24  25
ATOM     25  C   UNL A   1      33.868  23.564  22.799  1.00  0.00     0.235 C 
BRANCH  25  26
ATOM     26  C   UNL A   1      34.237  23.052  24.193  1.00  0.00     0.042 C 
BRANCH  26  27
ATOM     27  C   UNL A   1      35.227  21.884  24.238  1.00  0.00     0.003 C 
BRANCH  27  28
ATOM     28  C   UNL A   1      34.853  20.744  25.195  1.00  0.00    -0.000 C 
BRANCH  28  29
ATOM     29  C   UNL A   1      33.668  21.029  26.118  1.00  0.00    -0.003 C 
ATOM     30  C   UNL A   1      34.019  21.974  27.256  1.00  0.00     0.004 C 
ENDBRANCH  28  29
ENDBRANCH  27  28
ENDBRANCH  26  27
ENDBRANCH  25  26
ENDBRANCH  24  25
ENDBRANCH  21  24
ENDBRANCH  15  20
ENDBRANCH   8  14
ENDBRANCH   5   7
ENDBRANCH   3   5
ENDBRANCH   2   3
ENDBRANCH   1   2
BRANCH   1  31
ATOM     31  C   UNL A   1      32.993  35.854  29.732  1.00  0.00     0.202 C 
BRANCH  31  32
ATOM     32  O   UNL A   1      33.318  35.931  31.113  1.00  0.00    -0.376 OA
BRANCH  32  33
ATOM     33  C   UNL A   1      34.162  34.943  31.692  1.00  0.00     0.188 C 
BRANCH  33  34
ATOM     34  C   UNL A   1      35.433  35.366  32.442  1.00  0.00     0.188 C 
BRANCH  34  35
ATOM     35  O   UNL A   1      35.282  35.449  33.845  1.00  0.00    -0.376 OA
BRANCH  35  36
ATOM     36  C   UNL A   1      35.530  34.253  34.562  1.00  0.00     0.202 C 
BRANCH  36  37
ATOM     37  C   UNL A   1      36.851  33.605  34.133  1.00  0.00     0.261 C 
BRANCH  37  38
ATOM     38  O   UNL A   1      36.816  32.169  34.019  1.00  0.00    -0.460 OA
BRANCH  38  39
ATOM     39  C   UNL A   1      36.268  31.664  32.892  1.00  0.00     0.338 C 
ATOM     40  O   UNL A   1      35.127  31.819  32.498  1.00  0.00    -0.246 OA
BRANCH  39  41
ATOM     41  C   UNL A   1      37.336  31.062  32.070  1.00  0.00     0.060 A 
ATOM     42  C   UNL A   1      38.445  30.503  32.720  1.00  0.00     0.016 A 
ATOM     43  C   UNL A   1      37.252  31.060  30.677  1.00  0.00     0.016 A 
ATOM     44  C   UNL A   1      39.491  29.964  31.972  1.00  0.00     0.010 A 
ATOM     45  C   UNL A   1      38.308  30.537  29.930  1.00  0.00     0.010 A 
ATOM     46  C   UNL A   1      39.444  30.013  30.572  1.00  0.00    -0.014 A 
BRANCH  46  47
ATOM     47  C   UNL A   1      40.652  29.689  29.778  1.00  0.00     0.031 A 
ATOM     48  C   UNL A   1      40.782  28.303  29.209  1.00  0.00     0.074 A 
ATOM     49  C   UNL A   1      41.616  30.600  29.564  1.00  0.00     0.049 A 
ATOM     50  N   UNL A   1      41.776  27.764  28.550  1.00  0.00    -0.248 NA
ATOM     51  C   UNL A   1      39.634  27.403  29.413  1.00  0.00     0.031 C 
ATOM     52  C   UNL A   1      41.592  31.985  30.026  1.00  0.00     0.029 A 
ATOM     53  N   UNL A   1      42.816  30.484  28.907  1.00  0.00    -0.354 N 
ATOM     54  C   UNL A   1      41.377  26.464  28.268  1.00  0.00     0.074 A 
ATOM     55  C   UNL A   1      40.065  26.284  28.852  1.00  0.00     0.031 C 
ATOM     56  C   UNL A   1      42.733  32.590  29.650  1.00  0.00     0.029 A 
ATOM     57  C   UNL A   1      43.580  31.623  28.950  1.00  0.00     0.049 A 
ATOM     58  H   UNL A   1      43.101  29.661  28.447  1.00  0.00     0.167 HD
ATOM     59  C   UNL A   1      42.040  25.507  27.577  1.00  0.00     0.037 A 
ATOM     60  C   UNL A   1      44.829  31.850  28.499  1.00  0.00     0.037 A 
ATOM     61  C   UNL A   1      43.346  25.681  26.999  1.00  0.00     0.049 A 
ATOM     62  C   UNL A   1      45.581  30.742  27.805  1.00  0.00     0.074 A 
ATOM     63  C   UNL A   1      44.097  24.773  26.273  1.00  0.00     0.029 A 
ATOM     64  N   UNL A   1      44.099  26.842  27.090  1.00  0.00    -0.354 N 
ATOM     65  N   UNL A   1      45.190  29.522  27.525  1.00  0.00    -0.248 NA
ATOM     66  C   UNL A   1      46.950  31.046  27.363  1.00  0.00     0.031 C 
ATOM     67  C   UNL A   1      45.324  25.368  25.965  1.00  0.00     0.029 A 
ATOM     68  C   UNL A   1      45.316  26.666  26.451  1.00  0.00     0.049 A 
ATOM     69  H   UNL A   1      43.812  27.669  27.540  1.00  0.00     0.167 HD
ATOM     70  C   UNL A   1      46.247  28.927  26.847  1.00  0.00     0.074 A 
ATOM     71  C   UNL A   1      47.293  29.923  26.748  1.00  0.00     0.031 C 
ATOM     72  C   UNL A   1      46.344  27.670  26.348  1.00  0.00     0.037 A 
BRANCH  59  73
ATOM     73  C   UNL A   1      41.368  24.174  27.429  1.00  0.00     0.057 A 
ATOM     74  C   UNL A   1      41.766  23.058  28.178  1.00  0.00     0.134 A 
ATOM     75  C   UNL A   1      40.293  24.011  26.546  1.00  0.00     0.134 A 
ATOM     76  F   UNL A   1      42.799  23.144  29.030  1.00  0.00    -0.206 F 
ATOM     77  C   UNL A   1      41.132  21.823  28.036  1.00  0.00     0.040 A 
ATOM     78  C   UNL A   1      39.635  22.787  26.417  1.00  0.00     0.040 A 
ATOM     79  F   UNL A   1      39.861  25.040  25.802  1.00  0.00    -0.206 F 
ATOM     80  C   UNL A   1      40.058  21.687  27.159  1.00  0.00     0.006 A 
ENDBRANCH  59  73
BRANCH  60  81
ATOM     81  C   UNL A   1      45.469  33.175  28.699  1.00  0.00     0.057 A 
ATOM     82  C   UNL A   1      45.365  34.183  27.733  1.00  0.00     0.134 A 
ATOM     83  C   UNL A   1      46.237  33.451  29.837  1.00  0.00     0.134 A 
ATOM     84  F   UNL A   1      44.667  33.970  26.608  1.00  0.00    -0.206 F 
ATOM     85  C   UNL A   1      46.016  35.409  27.881  1.00  0.00     0.040 A 
ATOM     86  C   UNL A   1      46.872  34.682  30.011  1.00  0.00     0.040 A 
ATOM     87  F   UNL A   1      46.381  32.526  30.798  1.00  0.00    -0.206 F 
ATOM     88  C   UNL A   1      46.769  35.662  29.026  1.00  0.00     0.006 A 
ENDBRANCH  60  81
BRANCH  72  89
ATOM     89  C   UNL A   1      47.600  27.312  25.608  1.00  0.00     0.057 A 
ATOM     90  C   UNL A   1      47.739  27.522  24.231  1.00  0.00     0.134 A 
ATOM     91  C   UNL A   1      48.704  26.787  26.296  1.00  0.00     0.134 A 
ATOM     92  F   UNL A   1      46.717  28.010  23.512  1.00  0.00    -0.206 F 
ATOM     93  C   UNL A   1      48.920  27.199  23.559  1.00  0.00     0.040 A 
ATOM     94  C   UNL A   1      49.899  26.488  25.640  1.00  0.00     0.040 A 
ATOM     95  F   UNL A   1      48.644  26.571  27.618  1.00  0.00    -0.206 F 
ATOM     96  C   UNL A   1      50.007  26.688  24.266  1.00  0.00     0.006 A 
ENDBRANCH  72  89
ENDBRANCH  46  47
ENDBRANCH  39  41
ENDBRANCH  38  39
ENDBRANCH  37  38
ENDBRANCH  36  37
ENDBRANCH  35  36
ENDBRANCH  34  35
ENDBRANCH  33  34
ENDBRANCH  32  33
ENDBRANCH  31  32
ENDBRANCH   1  31
TORSDOF 26
ENDMDL
MODEL 2
REMARK VINA RESULT:      -9.4      1.613      2.298
REMARK SMILES CCCCCCOC(=O)Nc1cccc(-c2ccc([C@@H](C)C(=O)OCCOCCOCCOC(=O)c3ccc(-c4c5nc(c(-c6c(F)cccc6F)c6ccc([nH]6)c(-c6c(F)cccc6F)c6nc(c(-c7c(F)cccc7F)c7ccc4[nH]7)C=C6)C=C5)cc3)cc2F)c1
REMARK SMILES IDX 25 1 24 2 22 3 23 4 20 5 21 6 19 7 16 8 17 9 91 10 18 11
REMARK SMILES IDX 90 12 92 13 15 14 11 15 12 16 93 17 13 18 14 19 10 20 8 21
REMARK SMILES IDX 9 22 7 24 6 25 5 26 4 27 3 28 2 29 1 30 26 31 27 32 28 33
REMARK SMILES IDX 29 34 30 35 31 36 32 37 33 38 34 39 35 40 36 41 37 42 89 43
REMARK SMILES IDX 38 44 88 45 39 46 40 47 41 48 82 49 42 50 87 51 81 52 83 53
REMARK SMILES IDX 43 54 86 55 80 56 79 57 44 59 70 60 53 61 69 62 54 63 57 64
REMARK SMILES IDX 68 65 84 66 55 67 56 68 67 70 85 71 58 72 45 73 46 74 51 75
REMARK SMILES IDX 47 76 48 77 50 78 52 79 49 80 71 81 72 82 77 83 73 84 74 85
REMARK SMILES IDX 76 86 78 87 75 88 59 89 60 90 65 91 61 92 62 93 64 94 66 95
REMARK SMILES IDX 63 96
REMARK H PARENT 10 23 83 58 57 69
REMARK Flexibility Score: inf
ROOT
ATOM      1  C   UNL A   1      34.342  34.869  28.101  1.00  0.00     0.261 C 
ENDROOT
BRANCH   1   2
ATOM      2  O   UNL A   1      34.366  33.652  27.324  1.00  0.00    -0.463 OA
BRANCH   2   3
ATOM      3  C   UNL A   1      33.315  32.811  27.489  1.00  0.00     0.313 C 
ATOM      4  O   UNL A   1      32.151  33.128  27.251  1.00  0.00    -0.252 OA
BRANCH   3   5
ATOM      5  C   UNL A   1      33.650  31.402  27.984  1.00  0.00     0.126 C 
ATOM      6  C   UNL A   1      35.145  31.337  28.298  1.00  0.00     0.025 C 
BRANCH   5   7
ATOM      7  C   UNL A   1      33.224  30.162  27.203  1.00  0.00    -0.031 A 
ATOM      8  C   UNL A   1      32.476  27.901  25.603  1.00  0.00     0.018 A 
ATOM      9  C   UNL A   1      31.699  28.316  26.697  1.00  0.00     0.012 A 
ATOM     10  C   UNL A   1      33.633  28.642  25.332  1.00  0.00     0.131 A 
ATOM     11  C   UNL A   1      32.060  29.431  27.481  1.00  0.00     0.005 A 
ATOM     12  C   UNL A   1      34.000  29.750  26.104  1.00  0.00     0.044 A 
ATOM     13  F   UNL A   1      34.418  28.318  24.292  1.00  0.00    -0.206 F 
BRANCH   8  14
ATOM     14  C   UNL A   1      32.065  26.777  24.739  1.00  0.00    -0.013 A 
ATOM     15  C   UNL A   1      32.623  24.914  23.254  1.00  0.00     0.045 A 
ATOM     16  C   UNL A   1      31.286  24.812  22.867  1.00  0.00     0.026 A 
ATOM     17  C   UNL A   1      33.006  25.884  24.191  1.00  0.00     0.035 A 
ATOM     18  C   UNL A   1      30.329  25.640  23.449  1.00  0.00     0.003 A 
ATOM     19  C   UNL A   1      30.718  26.616  24.371  1.00  0.00     0.009 A 
BRANCH  15  20
ATOM     20  N   UNL A   1      33.557  24.108  22.588  1.00  0.00    -0.291 N 
ATOM     21  C   UNL A   1      34.595  23.405  23.131  1.00  0.00     0.411 C 
ATOM     22  O   UNL A   1      35.570  23.097  22.455  1.00  0.00    -0.224 OA
ATOM     23  H   UNL A   1      33.452  24.039  21.612  1.00  0.00     0.173 HD
BRANCH  21  24
ATOM     24  O   UNL A   1      34.349  22.985  24.396  1.00  0.00    -0.449 OA
BRANCH  24  25
ATOM     25  C   UNL A   1      35.474  22.666  25.229  1.00  0.00     0.235 C 
BRANCH  25  26
ATOM     26  C   UNL A   1      35.414  21.241  25.786  1.00  0.00     0.042 C 
BRANCH  26  27
ATOM     27  C   UNL A   1      34.753  20.196  24.882  1.00  0.00     0.003 C 
BRANCH  27  28
ATOM     28  C   UNL A   1      33.287  19.879  25.210  1.00  0.00    -0.000 C 
BRANCH  28  29
ATOM     29  C   UNL A   1      32.432  19.439  24.022  1.00  0.00    -0.003 C 
ATOM     30  C   UNL A   1      32.255  20.534  22.983  1.00  0.00     0.004 C 
ENDBRANCH  28  29
ENDBRANCH  27  28
ENDBRANCH  26  27
ENDBRANCH  25  26
ENDBRANCH  24  25
ENDBRANCH  21  24
ENDBRANCH  15  20
ENDBRANCH   8  14
ENDBRANCH   5   7
ENDBRANCH   3   5
ENDBRANCH   2   3
ENDBRANCH   1   2
BRANCH   1  31
ATOM     31  C   UNL A   1      33.434  34.826  29.336  1.00  0.00     0.202 C 
BRANCH  31  32
ATOM     32  O   UNL A   1      34.063  34.832  30.610  1.00  0.00    -0.376 OA
BRANCH  32  33
ATOM     33  C   UNL A   1      34.945  33.772  30.961  1.00  0.00     0.188 C 
BRANCH  33  34
ATOM     34  C   UNL A   1      36.290  34.086  31.634  1.00  0.00     0.188 C 
BRANCH  34  35
ATOM     35  O   UNL A   1      36.240  34.126  33.046  1.00  0.00    -0.376 OA
BRANCH  35  36
ATOM     36  C   UNL A   1      36.138  32.870  33.693  1.00  0.00     0.202 C 
BRANCH  36  37
ATOM     37  C   UNL A   1      37.387  32.014  33.457  1.00  0.00     0.261 C 
BRANCH  37  38
ATOM     38  O   UNL A   1      37.134  30.610  33.253  1.00  0.00    -0.460 OA
BRANCH  38  39
ATOM     39  C   UNL A   1      36.793  30.232  32.001  1.00  0.00     0.338 C 
ATOM     40  O   UNL A   1      35.737  30.443  31.433  1.00  0.00    -0.246 OA
BRANCH  39  41
ATOM     41  C   UNL A   1      37.990  29.704  31.319  1.00  0.00     0.060 A 
ATOM     42  C   UNL A   1      38.923  28.977  32.072  1.00  0.00     0.016 A 
ATOM     43  C   UNL A   1      38.198  29.934  29.958  1.00  0.00     0.016 A 
ATOM     44  C   UNL A   1      40.085  28.500  31.468  1.00  0.00     0.010 A 
ATOM     45  C   UNL A   1      39.372  29.472  29.359  1.00  0.00     0.010 A 
ATOM     46  C   UNL A   1      40.333  28.779  30.117  1.00  0.00    -0.014 A 
BRANCH  46  47
ATOM     47  C   UNL A   1      41.669  28.511  29.537  1.00  0.00     0.031 A 
ATOM     48  C   UNL A   1      41.932  27.154  28.943  1.00  0.00     0.074 A 
ATOM     49  C   UNL A   1      42.634  29.446  29.536  1.00  0.00     0.049 A 
ATOM     50  N   UNL A   1      43.039  26.662  28.450  1.00  0.00    -0.248 NA
ATOM     51  C   UNL A   1      40.788  26.228  28.902  1.00  0.00     0.031 C 
ATOM     52  C   UNL A   1      42.495  30.809  30.043  1.00  0.00     0.029 A 
ATOM     53  N   UNL A   1      43.933  29.380  29.098  1.00  0.00    -0.354 N 
ATOM     54  C   UNL A   1      42.728  25.369  28.047  1.00  0.00     0.074 A 
ATOM     55  C   UNL A   1      41.338  25.142  28.381  1.00  0.00     0.031 C 
ATOM     56  C   UNL A   1      43.670  31.448  29.901  1.00  0.00     0.029 A 
ATOM     57  C   UNL A   1      44.650  30.529  29.324  1.00  0.00     0.049 A 
ATOM     58  H   UNL A   1      44.315  28.584  28.662  1.00  0.00     0.167 HD
ATOM     59  C   UNL A   1      43.526  24.456  27.446  1.00  0.00     0.037 A 
ATOM     60  C   UNL A   1      45.954  30.796  29.112  1.00  0.00     0.037 A 
ATOM     61  C   UNL A   1      44.909  24.678  27.118  1.00  0.00     0.049 A 
ATOM     62  C   UNL A   1      46.843  29.733  28.517  1.00  0.00     0.074 A 
ATOM     63  C   UNL A   1      45.798  23.816  26.499  1.00  0.00     0.029 A 
ATOM     64  N   UNL A   1      45.605  25.846  27.388  1.00  0.00    -0.354 N 
ATOM     65  N   UNL A   1      46.537  28.521  28.122  1.00  0.00    -0.248 NA
ATOM     66  C   UNL A   1      48.261  30.079  28.338  1.00  0.00     0.031 C 
ATOM     67  C   UNL A   1      47.045  24.444  26.439  1.00  0.00     0.029 A 
ATOM     68  C   UNL A   1      46.920  25.718  26.970  1.00  0.00     0.049 A 
ATOM     69  H   UNL A   1      45.223  26.647  27.814  1.00  0.00     0.167 HD
ATOM     70  C   UNL A   1      47.712  27.974  27.618  1.00  0.00     0.074 A 
ATOM     71  C   UNL A   1      48.734  28.991  27.748  1.00  0.00     0.031 C 
ATOM     72  C   UNL A   1      47.925  26.743  27.092  1.00  0.00     0.037 A 
BRANCH  59  73
ATOM     73  C   UNL A   1      42.923  23.120  27.126  1.00  0.00     0.057 A 
ATOM     74  C   UNL A   1      42.563  22.765  25.819  1.00  0.00     0.134 A 
ATOM     75  C   UNL A   1      42.724  22.168  28.134  1.00  0.00     0.134 A 
ATOM     76  F   UNL A   1      42.714  23.638  24.811  1.00  0.00    -0.206 F 
ATOM     77  C   UNL A   1      42.006  21.518  25.531  1.00  0.00     0.040 A 
ATOM     78  C   UNL A   1      42.192  20.908  27.852  1.00  0.00     0.040 A 
ATOM     79  F   UNL A   1      43.049  22.444  29.406  1.00  0.00    -0.206 F 
ATOM     80  C   UNL A   1      41.827  20.583  26.548  1.00  0.00     0.006 A 
ENDBRANCH  59  73
BRANCH  60  81
ATOM     81  C   UNL A   1      46.516  32.121  29.477  1.00  0.00     0.057 A 
ATOM     82  C   UNL A   1      46.578  33.164  28.545  1.00  0.00     0.134 A 
ATOM     83  C   UNL A   1      47.045  32.364  30.751  1.00  0.00     0.134 A 
ATOM     84  F   UNL A   1      46.114  32.984  27.299  1.00  0.00    -0.206 F 
ATOM     85  C   UNL A   1      47.164  34.391  28.858  1.00  0.00     0.040 A 
ATOM     86  C   UNL A   1      47.608  33.596  31.087  1.00  0.00     0.040 A 
ATOM     87  F   UNL A   1      47.020  31.405  31.689  1.00  0.00    -0.206 F 
ATOM     88  C   UNL A   1      47.678  34.611  30.135  1.00  0.00     0.006 A 
ENDBRANCH  60  81
BRANCH  72  89
ATOM     89  C   UNL A   1      49.301  26.440  26.574  1.00  0.00     0.057 A 
ATOM     90  C   UNL A   1      50.274  25.815  27.365  1.00  0.00     0.134 A 
ATOM     91  C   UNL A   1      49.643  26.741  25.248  1.00  0.00     0.134 A 
ATOM     92  F   UNL A   1      50.015  25.510  28.645  1.00  0.00    -0.206 F 
ATOM     93  C   UNL A   1      51.544  25.523  26.863  1.00  0.00     0.040 A 
ATOM     94  C   UNL A   1      50.900  26.429  24.728  1.00  0.00     0.040 A 
ATOM     95  F   UNL A   1      48.756  27.330  24.432  1.00  0.00    -0.206 F 
ATOM     96  C   UNL A   1      51.857  25.823  25.539  1.00  0.00     0.006 A 
ENDBRANCH  72  89
ENDBRANCH  46  47
ENDBRANCH  39  41
ENDBRANCH  38  39
ENDBRANCH  37  38
ENDBRANCH  36  37
ENDBRANCH  35  36
ENDBRANCH  34  35
ENDBRANCH  33  34
ENDBRANCH  32  33
ENDBRANCH  31  32
ENDBRANCH   1  31
TORSDOF 26
ENDMDL
MODEL 3
REMARK VINA RESULT:      -8.8      4.931      8.686
REMARK SMILES CCCCCCOC(=O)Nc1cccc(-c2ccc([C@@H](C)C(=O)OCCOCCOCCOC(=O)c3ccc(-c4c5nc(c(-c6c(F)cccc6F)c6ccc([nH]6)c(-c6c(F)cccc6F)c6nc(c(-c7c(F)cccc7F)c7ccc4[nH]7)C=C6)C=C5)cc3)cc2F)c1
REMARK SMILES IDX 25 1 24 2 22 3 23 4 20 5 21 6 19 7 16 8 17 9 91 10 18 11
REMARK SMILES IDX 90 12 92 13 15 14 11 15 12 16 93 17 13 18 14 19 10 20 8 21
REMARK SMILES IDX 9 22 7 24 6 25 5 26 4 27 3 28 2 29 1 30 26 31 27 32 28 33
REMARK SMILES IDX 29 34 30 35 31 36 32 37 33 38 34 39 35 40 36 41 37 42 89 43
REMARK SMILES IDX 38 44 88 45 39 46 40 47 41 48 82 49 42 50 87 51 81 52 83 53
REMARK SMILES IDX 43 54 86 55 80 56 79 57 44 59 70 60 53 61 69 62 54 63 57 64
REMARK SMILES IDX 68 65 84 66 55 67 56 68 67 70 85 71 58 72 45 73 46 74 51 75
REMARK SMILES IDX 47 76 48 77 50 78 52 79 49 80 71 81 72 82 77 83 73 84 74 85
REMARK SMILES IDX 76 86 78 87 75 88 59 89 60 90 65 91 61 92 62 93 64 94 66 95
REMARK SMILES IDX 63 96
REMARK H PARENT 10 23 83 58 57 69
REMARK Flexibility Score: inf
ROOT
ATOM      1  C   UNL A   1      42.138  28.038  32.702  1.00  0.00     0.261 C 
ENDROOT
BRANCH   1   2
ATOM      2  O   UNL A   1      42.785  28.528  31.507  1.00  0.00    -0.463 OA
BRANCH   2   3
ATOM      3  C   UNL A   1      41.982  28.757  30.438  1.00  0.00     0.313 C 
ATOM      4  O   UNL A   1      40.971  29.455  30.490  1.00  0.00    -0.252 OA
BRANCH   3   5
ATOM      5  C   UNL A   1      42.409  28.104  29.122  1.00  0.00     0.126 C 
ATOM      6  C   UNL A   1      42.297  29.140  28.003  1.00  0.00     0.025 C 
BRANCH   5   7
ATOM      7  C   UNL A   1      41.816  26.773  28.665  1.00  0.00    -0.031 A 
ATOM      8  C   UNL A   1      40.848  24.228  27.766  1.00  0.00     0.018 A 
ATOM      9  C   UNL A   1      40.098  25.402  27.590  1.00  0.00     0.012 A 
ATOM     10  C   UNL A   1      42.088  24.358  28.402  1.00  0.00     0.131 A 
ATOM     11  C   UNL A   1      40.574  26.655  28.024  1.00  0.00     0.005 A 
ATOM     12  C   UNL A   1      42.569  25.598  28.837  1.00  0.00     0.044 A 
ATOM     13  F   UNL A   1      42.870  23.283  28.590  1.00  0.00    -0.206 F 
BRANCH   8  14
ATOM     14  C   UNL A   1      40.383  22.924  27.251  1.00  0.00    -0.013 A 
ATOM     15  C   UNL A   1      40.754  20.541  26.835  1.00  0.00     0.045 A 
ATOM     16  C   UNL A   1      39.623  20.500  26.019  1.00  0.00     0.026 A 
ATOM     17  C   UNL A   1      41.124  21.744  27.454  1.00  0.00     0.035 A 
ATOM     18  C   UNL A   1      38.838  21.640  25.861  1.00  0.00     0.003 A 
ATOM     19  C   UNL A   1      39.219  22.840  26.467  1.00  0.00     0.009 A 
BRANCH  15  20
ATOM     20  N   UNL A   1      41.549  19.389  26.904  1.00  0.00    -0.291 N 
ATOM     21  C   UNL A   1      42.350  18.863  25.930  1.00  0.00     0.411 C 
ATOM     22  O   UNL A   1      42.651  17.675  25.935  1.00  0.00    -0.224 OA
ATOM     23  H   UNL A   1      41.529  18.900  27.758  1.00  0.00     0.173 HD
BRANCH  21  24
ATOM     24  O   UNL A   1      42.862  19.803  25.098  1.00  0.00    -0.449 OA
BRANCH  24  25
ATOM     25  C   UNL A   1      44.226  20.204  25.296  1.00  0.00     0.235 C 
BRANCH  25  26
ATOM     26  C   UNL A   1      44.356  21.659  25.749  1.00  0.00     0.042 C 
BRANCH  26  27
ATOM     27  C   UNL A   1      44.172  22.720  24.659  1.00  0.00     0.003 C 
BRANCH  27  28
ATOM     28  C   UNL A   1      43.102  23.781  24.951  1.00  0.00    -0.000 C 
BRANCH  28  29
ATOM     29  C   UNL A   1      43.625  25.208  25.116  1.00  0.00    -0.003 C 
ATOM     30  C   UNL A   1      44.930  25.273  25.893  1.00  0.00     0.004 C 
ENDBRANCH  28  29
ENDBRANCH  27  28
ENDBRANCH  26  27
ENDBRANCH  25  26
ENDBRANCH  24  25
ENDBRANCH  21  24
ENDBRANCH  15  20
ENDBRANCH   8  14
ENDBRANCH   5   7
ENDBRANCH   3   5
ENDBRANCH   2   3
ENDBRANCH   1   2
BRANCH   1  31
ATOM     31  C   UNL A   1      42.203  28.988  33.904  1.00  0.00     0.202 C 
BRANCH  31  32
ATOM     32  O   UNL A   1      41.941  30.364  33.664  1.00  0.00    -0.376 OA
BRANCH  32  33
ATOM     33  C   UNL A   1      40.598  30.833  33.664  1.00  0.00     0.188 C 
BRANCH  33  34
ATOM     34  C   UNL A   1      39.789  30.838  34.970  1.00  0.00     0.188 C 
BRANCH  34  35
ATOM     35  O   UNL A   1      38.395  30.992  34.790  1.00  0.00    -0.376 OA
BRANCH  35  36
ATOM     36  C   UNL A   1      37.865  32.257  35.146  1.00  0.00     0.202 C 
BRANCH  36  37
ATOM     37  C   UNL A   1      37.427  33.050  33.910  1.00  0.00     0.261 C 
BRANCH  37  38
ATOM     38  O   UNL A   1      38.453  33.872  33.319  1.00  0.00    -0.460 OA
BRANCH  38  39
ATOM     39  C   UNL A   1      38.221  34.320  32.065  1.00  0.00     0.338 C 
ATOM     40  O   UNL A   1      37.187  34.798  31.636  1.00  0.00    -0.246 OA
BRANCH  39  41
ATOM     41  C   UNL A   1      39.498  34.353  31.326  1.00  0.00     0.060 A 
ATOM     42  C   UNL A   1      40.693  34.224  32.049  1.00  0.00     0.016 A 
ATOM     43  C   UNL A   1      39.519  34.524  29.941  1.00  0.00     0.016 A 
ATOM     44  C   UNL A   1      41.917  34.294  31.387  1.00  0.00     0.010 A 
ATOM     45  C   UNL A   1      40.747  34.612  29.283  1.00  0.00     0.010 A 
ATOM     46  C   UNL A   1      41.951  34.527  30.005  1.00  0.00    -0.014 A 
BRANCH  46  47
ATOM     47  C   UNL A   1      43.231  34.863  29.340  1.00  0.00     0.031 A 
ATOM     48  C   UNL A   1      44.182  33.745  29.012  1.00  0.00     0.074 A 
ATOM     49  C   UNL A   1      43.548  36.132  29.032  1.00  0.00     0.049 A 
ATOM     50  N   UNL A   1      45.386  33.799  28.504  1.00  0.00    -0.248 NA
ATOM     51  C   UNL A   1      43.708  32.381  29.298  1.00  0.00     0.031 C 
ATOM     52  C   UNL A   1      42.699  37.299  29.260  1.00  0.00     0.029 A 
ATOM     53  N   UNL A   1      44.688  36.648  28.467  1.00  0.00    -0.354 N 
ATOM     54  C   UNL A   1      45.816  32.481  28.417  1.00  0.00     0.074 A 
ATOM     55  C   UNL A   1      44.757  31.652  28.952  1.00  0.00     0.031 C 
ATOM     56  C   UNL A   1      43.354  38.400  28.851  1.00  0.00     0.029 A 
ATOM     57  C   UNL A   1      44.680  38.018  28.365  1.00  0.00     0.049 A 
ATOM     58  H   UNL A   1      45.440  36.090  28.163  1.00  0.00     0.167 HD
ATOM     59  C   UNL A   1      46.984  32.003  27.927  1.00  0.00     0.037 A 
ATOM     60  C   UNL A   1      45.643  38.864  27.950  1.00  0.00     0.037 A 
ATOM     61  C   UNL A   1      48.039  32.826  27.399  1.00  0.00     0.049 A 
ATOM     62  C   UNL A   1      46.968  38.312  27.487  1.00  0.00     0.074 A 
ATOM     63  C   UNL A   1      49.257  32.434  26.872  1.00  0.00     0.029 A 
ATOM     64  N   UNL A   1      48.004  34.211  27.339  1.00  0.00    -0.354 N 
ATOM     65  N   UNL A   1      47.359  37.065  27.389  1.00  0.00    -0.248 NA
ATOM     66  C   UNL A   1      47.985  39.291  27.075  1.00  0.00     0.031 C 
ATOM     67  C   UNL A   1      49.979  33.583  26.537  1.00  0.00     0.029 A 
ATOM     68  C   UNL A   1      49.189  34.690  26.804  1.00  0.00     0.049 A 
ATOM     69  H   UNL A   1      47.249  34.771  27.632  1.00  0.00     0.167 HD
ATOM     70  C   UNL A   1      48.650  37.107  26.874  1.00  0.00     0.074 A 
ATOM     71  C   UNL A   1      48.972  38.503  26.670  1.00  0.00     0.031 C 
ATOM     72  C   UNL A   1      49.492  36.083  26.593  1.00  0.00     0.037 A 
BRANCH  59  73
ATOM     73  C   UNL A   1      47.189  30.518  27.964  1.00  0.00     0.057 A 
ATOM     74  C   UNL A   1      47.804  29.883  29.050  1.00  0.00     0.134 A 
ATOM     75  C   UNL A   1      46.741  29.711  26.910  1.00  0.00     0.134 A 
ATOM     76  F   UNL A   1      48.269  30.601  30.083  1.00  0.00    -0.206 F 
ATOM     77  C   UNL A   1      47.988  28.499  29.076  1.00  0.00     0.040 A 
ATOM     78  C   UNL A   1      46.895  28.323  26.938  1.00  0.00     0.040 A 
ATOM     79  F   UNL A   1      46.141  30.255  25.841  1.00  0.00    -0.206 F 
ATOM     80  C   UNL A   1      47.525  27.715  28.022  1.00  0.00     0.006 A 
ENDBRANCH  59  73
BRANCH  60  81
ATOM     81  C   UNL A   1      45.409  40.331  27.965  1.00  0.00     0.057 A 
ATOM     82  C   UNL A   1      45.725  41.104  29.088  1.00  0.00     0.134 A 
ATOM     83  C   UNL A   1      44.822  40.987  26.875  1.00  0.00     0.134 A 
ATOM     84  F   UNL A   1      46.262  40.528  30.174  1.00  0.00    -0.206 F 
ATOM     85  C   UNL A   1      45.448  42.471  29.137  1.00  0.00     0.040 A 
ATOM     86  C   UNL A   1      44.565  42.358  26.899  1.00  0.00     0.040 A 
ATOM     87  F   UNL A   1      44.492  40.302  25.770  1.00  0.00    -0.206 F 
ATOM     88  C   UNL A   1      44.870  43.103  28.037  1.00  0.00     0.006 A 
ENDBRANCH  60  81
BRANCH  72  89
ATOM     89  C   UNL A   1      50.823  36.425  25.990  1.00  0.00     0.057 A 
ATOM     90  C   UNL A   1      51.005  36.546  24.607  1.00  0.00     0.134 A 
ATOM     91  C   UNL A   1      51.931  36.678  26.811  1.00  0.00     0.134 A 
ATOM     92  F   UNL A   1      49.989  36.306  23.764  1.00  0.00    -0.206 F 
ATOM     93  C   UNL A   1      52.246  36.882  24.061  1.00  0.00     0.040 A 
ATOM     94  C   UNL A   1      53.169  37.043  26.278  1.00  0.00     0.040 A 
ATOM     95  F   UNL A   1      51.825  36.591  28.145  1.00  0.00    -0.206 F 
ATOM     96  C   UNL A   1      53.330  37.139  24.898  1.00  0.00     0.006 A 
ENDBRANCH  72  89
ENDBRANCH  46  47
ENDBRANCH  39  41
ENDBRANCH  38  39
ENDBRANCH  37  38
ENDBRANCH  36  37
ENDBRANCH  35  36
ENDBRANCH  34  35
ENDBRANCH  33  34
ENDBRANCH  32  33
ENDBRANCH  31  32
ENDBRANCH   1  31
TORSDOF 26
ENDMDL
