MODEL 1
REMARK VINA RESULT:     -10.4      0.000      0.000
REMARK SMILES CC1(C)CCC[C@@](C)(CCC(=O)OCCOCCOCCOC(=O)c2ccc(-c3c4nc(c(-c5c(F)cccc5F)c5ccc([nH]5)c(-c5c(F)cccc5F)c5nc(c(-c6c(F)cccc6F)c6ccc3[nH]6)C=C5)C=C4)cc2)C1=O
REMARK SMILES IDX 17 1 16 2 15 3 14 4 13 5 11 6 12 7 10 8 9 9 7 10 1 11 2 12
REMARK SMILES IDX 3 13 4 14 79 15 5 16 80 17 6 18 8 19 18 20 19 21 20 22 21 23
REMARK SMILES IDX 22 24 23 25 24 26 25 27 26 28 78 29 27 30 77 31 28 32 29 33
REMARK SMILES IDX 30 34 71 35 31 36 76 37 70 38 72 39 32 40 75 41 69 42 68 43
REMARK SMILES IDX 33 45 59 46 42 47 58 48 43 49 46 50 57 51 73 52 44 53 45 54
REMARK SMILES IDX 56 56 74 57 47 58 34 59 35 60 40 61 36 62 37 63 39 64 41 65
REMARK SMILES IDX 38 66 60 67 61 68 66 69 62 70 63 71 65 72 67 73 64 74 48 75
REMARK SMILES IDX 49 76 54 77 50 78 51 79 53 80 55 81 52 82
REMARK H PARENT 72 44 46 55
REMARK Flexibility Score: inf
ROOT
ATOM      1  C   UNL A   1      40.393  20.164  26.427  1.00  0.00     0.188 C 
ENDROOT
BRANCH   1   2
ATOM      2  O   UNL A   1      40.325  21.555  26.122  1.00  0.00    -0.376 OA
BRANCH   2   3
ATOM      3  C   UNL A   1      39.025  22.146  26.131  1.00  0.00     0.202 C 
BRANCH   3   4
ATOM      4  C   UNL A   1      37.969  21.397  25.316  1.00  0.00     0.261 C 
BRANCH   4   5
ATOM      5  O   UNL A   1      36.635  21.776  25.694  1.00  0.00    -0.463 OA
BRANCH   5   6
ATOM      6  C   UNL A   1      35.676  21.628  24.750  1.00  0.00     0.305 C 
ATOM      7  O   UNL A   1      34.937  20.655  24.644  1.00  0.00    -0.252 OA
BRANCH   6   8
ATOM      8  C   UNL A   1      35.531  22.831  23.845  1.00  0.00     0.124 C 
BRANCH   8   9
ATOM      9  C   UNL A   1      35.025  24.171  24.410  1.00  0.00     0.026 C 
BRANCH   9  10
ATOM     10  C   UNL A   1      33.572  24.603  24.062  1.00  0.00     0.027 C 
ATOM     11  C   UNL A   1      33.194  23.090  27.071  1.00  0.00     0.019 C 
ATOM     12  C   UNL A   1      32.149  23.768  26.161  1.00  0.00     0.024 C 
ATOM     13  C   UNL A   1      30.796  23.059  26.392  1.00  0.00     0.019 C 
ATOM     14  C   UNL A   1      31.963  25.253  26.524  1.00  0.00     0.014 C 
ATOM     15  C   UNL A   1      32.534  23.631  24.672  1.00  0.00     0.144 C 
ATOM     16  C   UNL A   1      33.117  26.139  26.080  1.00  0.00     0.002 C 
ATOM     17  O   UNL A   1      32.094  22.694  23.997  1.00  0.00    -0.298 OA
ATOM     18  C   UNL A   1      33.309  26.041  24.571  1.00  0.00     0.014 C 
ATOM     19  C   UNL A   1      33.390  24.644  22.529  1.00  0.00     0.020 C 
ENDBRANCH   9  10
ENDBRANCH   8   9
ENDBRANCH   6   8
ENDBRANCH   5   6
ENDBRANCH   4   5
ENDBRANCH   3   4
ENDBRANCH   2   3
ENDBRANCH   1   2
BRANCH   1  20
ATOM     20  C   UNL A   1      41.807  19.603  26.530  1.00  0.00     0.188 C 
BRANCH  20  21
ATOM     21  O   UNL A   1      42.487  19.495  25.293  1.00  0.00    -0.376 OA
BRANCH  21  22
ATOM     22  C   UNL A   1      43.790  20.068  25.180  1.00  0.00     0.202 C 
BRANCH  22  23
ATOM     23  C   UNL A   1      44.144  21.458  25.762  1.00  0.00     0.261 C 
BRANCH  23  24
ATOM     24  O   UNL A   1      43.387  22.590  25.304  1.00  0.00    -0.460 OA
BRANCH  24  25
ATOM     25  C   UNL A   1      44.019  23.782  25.182  1.00  0.00     0.338 C 
ATOM     26  O   UNL A   1      44.815  24.093  24.326  1.00  0.00    -0.246 OA
BRANCH  25  27
ATOM     27  C   UNL A   1      43.345  24.736  26.120  1.00  0.00     0.060 A 
ATOM     28  C   UNL A   1      43.781  26.070  26.129  1.00  0.00     0.016 A 
ATOM     29  C   UNL A   1      42.236  24.368  26.890  1.00  0.00     0.016 A 
ATOM     30  C   UNL A   1      43.136  27.023  26.925  1.00  0.00     0.010 A 
ATOM     31  C   UNL A   1      41.602  25.318  27.702  1.00  0.00     0.010 A 
ATOM     32  C   UNL A   1      42.069  26.644  27.751  1.00  0.00    -0.014 A 
BRANCH  32  33
ATOM     33  C   UNL A   1      41.610  27.546  28.840  1.00  0.00     0.031 A 
ATOM     34  C   UNL A   1      42.346  27.476  30.153  1.00  0.00     0.074 A 
ATOM     35  C   UNL A   1      40.594  28.415  28.690  1.00  0.00     0.049 A 
ATOM     36  N   UNL A   1      42.091  28.075  31.288  1.00  0.00    -0.248 NA
ATOM     37  C   UNL A   1      43.535  26.607  30.185  1.00  0.00     0.031 C 
ATOM     38  C   UNL A   1      39.835  28.639  27.463  1.00  0.00     0.029 A 
ATOM     39  N   UNL A   1      40.018  29.271  29.601  1.00  0.00    -0.354 N 
ATOM     40  C   UNL A   1      43.083  27.652  32.165  1.00  0.00     0.074 A 
ATOM     41  C   UNL A   1      43.922  26.721  31.445  1.00  0.00     0.031 C 
ATOM     42  C   UNL A   1      38.884  29.561  27.700  1.00  0.00     0.029 A 
ATOM     43  C   UNL A   1      38.938  29.964  29.106  1.00  0.00     0.049 A 
ATOM     44  H   UNL A   1      40.349  29.377  30.523  1.00  0.00     0.167 HD
ATOM     45  C   UNL A   1      43.286  28.012  33.453  1.00  0.00     0.037 A 
ATOM     46  C   UNL A   1      38.080  30.799  29.726  1.00  0.00     0.037 A 
ATOM     47  C   UNL A   1      42.452  28.930  34.179  1.00  0.00     0.049 A 
ATOM     48  C   UNL A   1      38.259  31.095  31.197  1.00  0.00     0.074 A 
ATOM     49  C   UNL A   1      42.568  29.343  35.495  1.00  0.00     0.029 A 
ATOM     50  N   UNL A   1      41.344  29.574  33.653  1.00  0.00    -0.354 N 
ATOM     51  N   UNL A   1      39.197  30.691  32.020  1.00  0.00    -0.248 NA
ATOM     52  C   UNL A   1      37.252  31.964  31.829  1.00  0.00     0.031 C 
ATOM     53  C   UNL A   1      41.502  30.201  35.778  1.00  0.00     0.029 A 
ATOM     54  C   UNL A   1      40.757  30.368  34.623  1.00  0.00     0.049 A 
ATOM     55  H   UNL A   1      41.023  29.482  32.727  1.00  0.00     0.167 HD
ATOM     56  C   UNL A   1      38.919  31.290  33.245  1.00  0.00     0.074 A 
ATOM     57  C   UNL A   1      37.729  32.091  33.059  1.00  0.00     0.031 C 
ATOM     58  C   UNL A   1      39.590  31.187  34.419  1.00  0.00     0.037 A 
BRANCH  45  59
ATOM     59  C   UNL A   1      44.448  27.390  34.169  1.00  0.00     0.057 A 
ATOM     60  C   UNL A   1      44.311  26.211  34.915  1.00  0.00     0.134 A 
ATOM     61  C   UNL A   1      45.726  27.956  34.082  1.00  0.00     0.134 A 
ATOM     62  F   UNL A   1      43.111  25.630  35.054  1.00  0.00    -0.206 F 
ATOM     63  C   UNL A   1      45.401  25.628  35.562  1.00  0.00     0.040 A 
ATOM     64  C   UNL A   1      46.828  27.366  34.701  1.00  0.00     0.040 A 
ATOM     65  F   UNL A   1      45.925  29.084  33.383  1.00  0.00    -0.206 F 
ATOM     66  C   UNL A   1      46.666  26.201  35.447  1.00  0.00     0.006 A 
ENDBRANCH  45  59
BRANCH  46  67
ATOM     67  C   UNL A   1      36.939  31.406  28.987  1.00  0.00     0.057 A 
ATOM     68  C   UNL A   1      36.954  32.754  28.603  1.00  0.00     0.134 A 
ATOM     69  C   UNL A   1      35.774  30.678  28.717  1.00  0.00     0.134 A 
ATOM     70  F   UNL A   1      38.027  33.517  28.863  1.00  0.00    -0.206 F 
ATOM     71  C   UNL A   1      35.847  33.362  28.009  1.00  0.00     0.040 A 
ATOM     72  C   UNL A   1      34.670  31.265  28.095  1.00  0.00     0.040 A 
ATOM     73  F   UNL A   1      35.686  29.386  29.064  1.00  0.00    -0.206 F 
ATOM     74  C   UNL A   1      34.699  32.614  27.750  1.00  0.00     0.006 A 
ENDBRANCH  46  67
BRANCH  58  75
ATOM     75  C   UNL A   1      39.102  32.007  35.580  1.00  0.00     0.057 A 
ATOM     76  C   UNL A   1      38.289  31.470  36.584  1.00  0.00     0.134 A 
ATOM     77  C   UNL A   1      39.506  33.342  35.721  1.00  0.00     0.134 A 
ATOM     78  F   UNL A   1      37.859  30.201  36.507  1.00  0.00    -0.206 F 
ATOM     79  C   UNL A   1      37.877  32.235  37.676  1.00  0.00     0.040 A 
ATOM     80  C   UNL A   1      39.125  34.109  36.824  1.00  0.00     0.040 A 
ATOM     81  F   UNL A   1      40.297  33.917  34.803  1.00  0.00    -0.206 F 
ATOM     82  C   UNL A   1      38.302  33.556  37.803  1.00  0.00     0.006 A 
ENDBRANCH  58  75
ENDBRANCH  32  33
ENDBRANCH  25  27
ENDBRANCH  24  25
ENDBRANCH  23  24
ENDBRANCH  22  23
ENDBRANCH  21  22
ENDBRANCH  20  21
ENDBRANCH   1  20
TORSDOF 19
ENDMDL
MODEL 2
REMARK VINA RESULT:     -10.2      1.205      2.125
REMARK SMILES CC1(C)CCC[C@@](C)(CCC(=O)OCCOCCOCCOC(=O)c2ccc(-c3c4nc(c(-c5c(F)cccc5F)c5ccc([nH]5)c(-c5c(F)cccc5F)c5nc(c(-c6c(F)cccc6F)c6ccc3[nH]6)C=C5)C=C4)cc2)C1=O
REMARK SMILES IDX 17 1 16 2 15 3 14 4 13 5 11 6 12 7 10 8 9 9 7 10 1 11 2 12
REMARK SMILES IDX 3 13 4 14 79 15 5 16 80 17 6 18 8 19 18 20 19 21 20 22 21 23
REMARK SMILES IDX 22 24 23 25 24 26 25 27 26 28 78 29 27 30 77 31 28 32 29 33
REMARK SMILES IDX 30 34 71 35 31 36 76 37 70 38 72 39 32 40 75 41 69 42 68 43
REMARK SMILES IDX 33 45 59 46 42 47 58 48 43 49 46 50 57 51 73 52 44 53 45 54
REMARK SMILES IDX 56 56 74 57 47 58 34 59 35 60 40 61 36 62 37 63 39 64 41 65
REMARK SMILES IDX 38 66 60 67 61 68 66 69 62 70 63 71 65 72 67 73 64 74 48 75
REMARK SMILES IDX 49 76 54 77 50 78 51 79 53 80 55 81 52 82
REMARK H PARENT 72 44 46 55
REMARK Flexibility Score: inf
ROOT
ATOM      1  C   UNL A   1      39.839  21.155  25.924  1.00  0.00     0.188 C 
ENDROOT
BRANCH   1   2
ATOM      2  O   UNL A   1      38.455  21.487  25.980  1.00  0.00    -0.376 OA
BRANCH   2   3
ATOM      3  C   UNL A   1      38.113  22.843  25.695  1.00  0.00     0.202 C 
BRANCH   3   4
ATOM      4  C   UNL A   1      37.076  23.029  24.585  1.00  0.00     0.261 C 
BRANCH   4   5
ATOM      5  O   UNL A   1      36.132  24.065  24.904  1.00  0.00    -0.463 OA
BRANCH   5   6
ATOM      6  C   UNL A   1      34.844  23.834  24.560  1.00  0.00     0.305 C 
ATOM      7  O   UNL A   1      34.444  22.848  23.948  1.00  0.00    -0.252 OA
BRANCH   6   8
ATOM      8  C   UNL A   1      33.886  24.889  25.067  1.00  0.00     0.124 C 
BRANCH   8   9
ATOM      9  C   UNL A   1      33.121  25.785  24.076  1.00  0.00     0.026 C 
BRANCH   9  10
ATOM     10  C   UNL A   1      31.683  26.233  24.463  1.00  0.00     0.027 C 
ATOM     11  C   UNL A   1      33.626  28.228  26.394  1.00  0.00     0.019 C 
ATOM     12  C   UNL A   1      32.091  28.160  26.266  1.00  0.00     0.024 C 
ATOM     13  C   UNL A   1      31.488  28.572  27.628  1.00  0.00     0.019 C 
ATOM     14  C   UNL A   1      31.568  29.150  25.208  1.00  0.00     0.014 C 
ATOM     15  C   UNL A   1      31.622  26.727  25.928  1.00  0.00     0.144 C 
ATOM     16  C   UNL A   1      31.838  28.712  23.776  1.00  0.00     0.002 C 
ATOM     17  O   UNL A   1      31.296  25.948  26.830  1.00  0.00    -0.298 OA
ATOM     18  C   UNL A   1      31.201  27.353  23.510  1.00  0.00     0.014 C 
ATOM     19  C   UNL A   1      30.701  25.056  24.283  1.00  0.00     0.020 C 
ENDBRANCH   9  10
ENDBRANCH   8   9
ENDBRANCH   6   8
ENDBRANCH   5   6
ENDBRANCH   4   5
ENDBRANCH   3   4
ENDBRANCH   2   3
ENDBRANCH   1   2
BRANCH   1  20
ATOM     20  C   UNL A   1      40.583  21.299  27.247  1.00  0.00     0.188 C 
BRANCH  20  21
ATOM     21  O   UNL A   1      41.810  20.597  27.311  1.00  0.00    -0.376 OA
BRANCH  21  22
ATOM     22  C   UNL A   1      42.587  20.474  26.119  1.00  0.00     0.202 C 
BRANCH  22  23
ATOM     23  C   UNL A   1      43.538  21.589  25.623  1.00  0.00     0.261 C 
BRANCH  23  24
ATOM     24  O   UNL A   1      42.949  22.812  25.153  1.00  0.00    -0.460 OA
BRANCH  24  25
ATOM     25  C   UNL A   1      43.699  23.941  25.178  1.00  0.00     0.338 C 
ATOM     26  O   UNL A   1      44.591  24.231  24.415  1.00  0.00    -0.246 OA
BRANCH  25  27
ATOM     27  C   UNL A   1      43.039  24.886  26.134  1.00  0.00     0.060 A 
ATOM     28  C   UNL A   1      43.469  26.223  26.141  1.00  0.00     0.016 A 
ATOM     29  C   UNL A   1      41.947  24.510  26.924  1.00  0.00     0.016 A 
ATOM     30  C   UNL A   1      42.836  27.169  26.954  1.00  0.00     0.010 A 
ATOM     31  C   UNL A   1      41.325  25.453  27.753  1.00  0.00     0.010 A 
ATOM     32  C   UNL A   1      41.786  26.781  27.798  1.00  0.00    -0.014 A 
BRANCH  32  33
ATOM     33  C   UNL A   1      41.345  27.675  28.901  1.00  0.00     0.031 A 
ATOM     34  C   UNL A   1      42.103  27.599  30.201  1.00  0.00     0.074 A 
ATOM     35  C   UNL A   1      40.325  28.544  28.774  1.00  0.00     0.049 A 
ATOM     36  N   UNL A   1      41.866  28.190  31.344  1.00  0.00    -0.248 NA
ATOM     37  C   UNL A   1      43.293  26.731  30.207  1.00  0.00     0.031 C 
ATOM     38  C   UNL A   1      39.546  28.775  27.561  1.00  0.00     0.029 A 
ATOM     39  N   UNL A   1      39.764  29.394  29.699  1.00  0.00    -0.354 N 
ATOM     40  C   UNL A   1      42.873  27.763  32.202  1.00  0.00     0.074 A 
ATOM     41  C   UNL A   1      43.701  26.838  31.461  1.00  0.00     0.031 C 
ATOM     42  C   UNL A   1      38.597  29.694  27.820  1.00  0.00     0.029 A 
ATOM     43  C   UNL A   1      38.675  30.088  29.228  1.00  0.00     0.049 A 
ATOM     44  H   UNL A   1      40.110  29.495  30.616  1.00  0.00     0.167 HD
ATOM     45  C   UNL A   1      43.098  28.115  33.488  1.00  0.00     0.037 A 
ATOM     46  C   UNL A   1      37.826  30.918  29.867  1.00  0.00     0.037 A 
ATOM     47  C   UNL A   1      42.275  29.027  34.234  1.00  0.00     0.049 A 
ATOM     48  C   UNL A   1      38.029  31.206  31.337  1.00  0.00     0.074 A 
ATOM     49  C   UNL A   1      42.412  29.432  35.550  1.00  0.00     0.029 A 
ATOM     50  N   UNL A   1      41.158  29.673  33.730  1.00  0.00    -0.354 N 
ATOM     51  N   UNL A   1      38.982  30.797  32.141  1.00  0.00    -0.248 NA
ATOM     52  C   UNL A   1      37.032  32.069  31.991  1.00  0.00     0.031 C 
ATOM     53  C   UNL A   1      41.351  30.287  35.857  1.00  0.00     0.029 A 
ATOM     54  C   UNL A   1      40.586  30.461  34.715  1.00  0.00     0.049 A 
ATOM     55  H   UNL A   1      40.821  29.587  32.809  1.00  0.00     0.167 HD
ATOM     56  C   UNL A   1      38.724  31.389  33.374  1.00  0.00     0.074 A 
ATOM     57  C   UNL A   1      37.530  32.189  33.214  1.00  0.00     0.031 C 
ATOM     58  C   UNL A   1      39.415  31.279  34.536  1.00  0.00     0.037 A 
BRANCH  45  59
ATOM     59  C   UNL A   1      44.273  27.490  34.180  1.00  0.00     0.057 A 
ATOM     60  C   UNL A   1      45.522  28.123  34.230  1.00  0.00     0.134 A 
ATOM     61  C   UNL A   1      44.145  26.259  34.833  1.00  0.00     0.134 A 
ATOM     62  F   UNL A   1      45.717  29.295  33.607  1.00  0.00    -0.206 F 
ATOM     63  C   UNL A   1      46.606  27.544  34.891  1.00  0.00     0.040 A 
ATOM     64  C   UNL A   1      45.213  25.684  35.523  1.00  0.00     0.040 A 
ATOM     65  F   UNL A   1      42.975  25.600  34.824  1.00  0.00    -0.206 F 
ATOM     66  C   UNL A   1      46.450  26.325  35.549  1.00  0.00     0.006 A 
ENDBRANCH  45  59
BRANCH  46  67
ATOM     67  C   UNL A   1      36.672  31.528  29.151  1.00  0.00     0.057 A 
ATOM     68  C   UNL A   1      35.563  30.761  28.770  1.00  0.00     0.134 A 
ATOM     69  C   UNL A   1      36.685  32.872  28.758  1.00  0.00     0.134 A 
ATOM     70  F   UNL A   1      35.504  29.458  29.084  1.00  0.00    -0.206 F 
ATOM     71  C   UNL A   1      34.527  31.296  28.001  1.00  0.00     0.040 A 
ATOM     72  C   UNL A   1      35.641  33.429  28.016  1.00  0.00     0.040 A 
ATOM     73  F   UNL A   1      37.719  33.663  29.080  1.00  0.00    -0.206 F 
ATOM     74  C   UNL A   1      34.563  32.638  27.625  1.00  0.00     0.006 A 
ENDBRANCH  46  67
BRANCH  58  75
ATOM     75  C   UNL A   1      38.946  32.091  35.710  1.00  0.00     0.057 A 
ATOM     76  C   UNL A   1      38.175  31.539  36.740  1.00  0.00     0.134 A 
ATOM     77  C   UNL A   1      39.325  33.434  35.837  1.00  0.00     0.134 A 
ATOM     78  F   UNL A   1      37.771  30.261  36.678  1.00  0.00    -0.206 F 
ATOM     79  C   UNL A   1      37.781  32.298  37.843  1.00  0.00     0.040 A 
ATOM     80  C   UNL A   1      38.962  34.195  36.949  1.00  0.00     0.040 A 
ATOM     81  F   UNL A   1      40.074  34.024  34.893  1.00  0.00    -0.206 F 
ATOM     82  C   UNL A   1      38.182  33.628  37.954  1.00  0.00     0.006 A 
ENDBRANCH  58  75
ENDBRANCH  32  33
ENDBRANCH  25  27
ENDBRANCH  24  25
ENDBRANCH  23  24
ENDBRANCH  22  23
ENDBRANCH  21  22
ENDBRANCH  20  21
ENDBRANCH   1  20
TORSDOF 19
ENDMDL
MODEL 3
REMARK VINA RESULT:      -9.8      5.069     10.213
REMARK SMILES CC1(C)CCC[C@@](C)(CCC(=O)OCCOCCOCCOC(=O)c2ccc(-c3c4nc(c(-c5c(F)cccc5F)c5ccc([nH]5)c(-c5c(F)cccc5F)c5nc(c(-c6c(F)cccc6F)c6ccc3[nH]6)C=C5)C=C4)cc2)C1=O
REMARK SMILES IDX 17 1 16 2 15 3 14 4 13 5 11 6 12 7 10 8 9 9 7 10 1 11 2 12
REMARK SMILES IDX 3 13 4 14 79 15 5 16 80 17 6 18 8 19 18 20 19 21 20 22 21 23
REMARK SMILES IDX 22 24 23 25 24 26 25 27 26 28 78 29 27 30 77 31 28 32 29 33
REMARK SMILES IDX 30 34 71 35 31 36 76 37 70 38 72 39 32 40 75 41 69 42 68 43
REMARK SMILES IDX 33 45 59 46 42 47 58 48 43 49 46 50 57 51 73 52 44 53 45 54
REMARK SMILES IDX 56 56 74 57 47 58 34 59 35 60 40 61 36 62 37 63 39 64 41 65
REMARK SMILES IDX 38 66 60 67 61 68 66 69 62 70 63 71 65 72 67 73 64 74 48 75
REMARK SMILES IDX 49 76 54 77 50 78 51 79 53 80 55 81 52 82
REMARK H PARENT 72 44 46 55
REMARK Flexibility Score: inf
ROOT
ATOM      1  C   UNL A   1      34.830  33.664  28.270  1.00  0.00     0.188 C 
ENDROOT
BRANCH   1   2
ATOM      2  O   UNL A   1      34.073  32.457  28.286  1.00  0.00    -0.376 OA
BRANCH   2   3
ATOM      3  C   UNL A   1      34.798  31.247  28.066  1.00  0.00     0.202 C 
BRANCH   3   4
ATOM      4  C   UNL A   1      34.129  30.257  27.111  1.00  0.00     0.261 C 
BRANCH   4   5
ATOM      5  O   UNL A   1      32.720  30.137  27.366  1.00  0.00    -0.463 OA
BRANCH   5   6
ATOM      6  C   UNL A   1      31.891  30.549  26.379  1.00  0.00     0.305 C 
ATOM      7  O   UNL A   1      31.385  31.664  26.303  1.00  0.00    -0.252 OA
BRANCH   6   8
ATOM      8  C   UNL A   1      31.683  29.514  25.296  1.00  0.00     0.124 C 
BRANCH   8   9
ATOM      9  C   UNL A   1      31.365  28.055  25.667  1.00  0.00     0.026 C 
BRANCH   9  10
ATOM     10  C   UNL A   1      30.930  27.093  24.525  1.00  0.00     0.027 C 
ATOM     11  C   UNL A   1      33.964  25.869  25.409  1.00  0.00     0.019 C 
ATOM     12  C   UNL A   1      32.965  25.374  24.343  1.00  0.00     0.024 C 
ATOM     13  C   UNL A   1      33.779  24.710  23.209  1.00  0.00     0.019 C 
ATOM     14  C   UNL A   1      32.011  24.308  24.915  1.00  0.00     0.014 C 
ATOM     15  C   UNL A   1      32.154  26.547  23.751  1.00  0.00     0.144 C 
ATOM     16  C   UNL A   1      30.945  24.877  25.840  1.00  0.00     0.002 C 
ATOM     17  O   UNL A   1      32.535  27.112  22.721  1.00  0.00    -0.298 OA
ATOM     18  C   UNL A   1      30.108  25.917  25.105  1.00  0.00     0.014 C 
ATOM     19  C   UNL A   1      29.998  27.834  23.543  1.00  0.00     0.020 C 
ENDBRANCH   9  10
ENDBRANCH   8   9
ENDBRANCH   6   8
ENDBRANCH   5   6
ENDBRANCH   4   5
ENDBRANCH   3   4
ENDBRANCH   2   3
ENDBRANCH   1   2
BRANCH   1  20
ATOM     20  C   UNL A   1      34.107  34.877  28.844  1.00  0.00     0.188 C 
BRANCH  20  21
ATOM     21  O   UNL A   1      33.300  34.600  29.974  1.00  0.00    -0.376 OA
BRANCH  21  22
ATOM     22  C   UNL A   1      33.915  34.026  31.127  1.00  0.00     0.202 C 
BRANCH  22  23
ATOM     23  C   UNL A   1      34.950  34.789  31.988  1.00  0.00     0.261 C 
BRANCH  23  24
ATOM     24  O   UNL A   1      36.244  34.191  32.168  1.00  0.00    -0.460 OA
BRANCH  24  25
ATOM     25  C   UNL A   1      36.315  32.970  32.751  1.00  0.00     0.338 C 
ATOM     26  O   UNL A   1      35.550  32.515  33.570  1.00  0.00    -0.246 OA
BRANCH  25  27
ATOM     27  C   UNL A   1      37.337  32.179  31.993  1.00  0.00     0.060 A 
ATOM     28  C   UNL A   1      38.183  31.326  32.720  1.00  0.00     0.016 A 
ATOM     29  C   UNL A   1      37.394  32.178  30.595  1.00  0.00     0.016 A 
ATOM     30  C   UNL A   1      39.102  30.504  32.059  1.00  0.00     0.010 A 
ATOM     31  C   UNL A   1      38.327  31.368  29.933  1.00  0.00     0.010 A 
ATOM     32  C   UNL A   1      39.210  30.551  30.662  1.00  0.00    -0.014 A 
BRANCH  32  33
ATOM     33  C   UNL A   1      40.393  29.958  29.985  1.00  0.00     0.031 A 
ATOM     34  C   UNL A   1      41.575  30.860  29.740  1.00  0.00     0.074 A 
ATOM     35  C   UNL A   1      40.449  28.668  29.607  1.00  0.00     0.049 A 
ATOM     36  N   UNL A   1      42.684  30.627  29.087  1.00  0.00    -0.248 NA
ATOM     37  C   UNL A   1      41.488  32.213  30.315  1.00  0.00     0.031 C 
ATOM     38  C   UNL A   1      39.413  27.665  29.836  1.00  0.00     0.029 A 
ATOM     39  N   UNL A   1      41.434  27.984  28.932  1.00  0.00    -0.354 N 
ATOM     40  C   UNL A   1      43.421  31.803  29.169  1.00  0.00     0.074 A 
ATOM     41  C   UNL A   1      42.622  32.757  29.904  1.00  0.00     0.031 C 
ATOM     42  C   UNL A   1      39.810  26.497  29.297  1.00  0.00     0.029 A 
ATOM     43  C   UNL A   1      41.110  26.678  28.650  1.00  0.00     0.049 A 
ATOM     44  H   UNL A   1      42.293  28.393  28.674  1.00  0.00     0.167 HD
ATOM     45  C   UNL A   1      44.658  32.065  28.687  1.00  0.00     0.037 A 
ATOM     46  C   UNL A   1      41.773  25.751  27.928  1.00  0.00     0.037 A 
ATOM     47  C   UNL A   1      45.456  31.124  27.948  1.00  0.00     0.049 A 
ATOM     48  C   UNL A   1      43.101  26.105  27.300  1.00  0.00     0.074 A 
ATOM     49  C   UNL A   1      46.715  31.305  27.403  1.00  0.00     0.029 A 
ATOM     50  N   UNL A   1      45.070  29.828  27.648  1.00  0.00    -0.354 N 
ATOM     51  N   UNL A   1      43.790  27.218  27.381  1.00  0.00    -0.248 NA
ATOM     52  C   UNL A   1      43.743  25.070  26.472  1.00  0.00     0.031 C 
ATOM     53  C   UNL A   1      47.071  30.133  26.731  1.00  0.00     0.029 A 
ATOM     54  C   UNL A   1      46.060  29.203  26.910  1.00  0.00     0.049 A 
ATOM     55  H   UNL A   1      44.220  29.413  27.921  1.00  0.00     0.167 HD
ATOM     56  C   UNL A   1      44.959  27.000  26.658  1.00  0.00     0.074 A 
ATOM     57  C   UNL A   1      44.892  25.648  26.149  1.00  0.00     0.031 C 
ATOM     58  C   UNL A   1      45.996  27.845  26.435  1.00  0.00     0.037 A 
BRANCH  45  59
ATOM     59  C   UNL A   1      45.215  33.437  28.925  1.00  0.00     0.057 A 
ATOM     60  C   UNL A   1      46.046  33.717  30.018  1.00  0.00     0.134 A 
ATOM     61  C   UNL A   1      44.946  34.482  28.032  1.00  0.00     0.134 A 
ATOM     62  F   UNL A   1      46.326  32.766  30.921  1.00  0.00    -0.206 F 
ATOM     63  C   UNL A   1      46.577  34.992  30.222  1.00  0.00     0.040 A 
ATOM     64  C   UNL A   1      45.494  35.752  28.210  1.00  0.00     0.040 A 
ATOM     65  F   UNL A   1      44.158  34.280  26.965  1.00  0.00    -0.206 F 
ATOM     66  C   UNL A   1      46.308  36.011  29.311  1.00  0.00     0.006 A 
ENDBRANCH  45  59
BRANCH  46  67
ATOM     67  C   UNL A   1      41.196  24.395  27.716  1.00  0.00     0.057 A 
ATOM     68  C   UNL A   1      41.709  23.273  28.380  1.00  0.00     0.134 A 
ATOM     69  C   UNL A   1      40.175  24.174  26.784  1.00  0.00     0.134 A 
ATOM     70  F   UNL A   1      42.712  23.411  29.261  1.00  0.00    -0.206 F 
ATOM     71  C   UNL A   1      41.251  21.983  28.107  1.00  0.00     0.040 A 
ATOM     72  C   UNL A   1      39.684  22.893  26.522  1.00  0.00     0.040 A 
ATOM     73  F   UNL A   1      39.643  25.201  26.104  1.00  0.00    -0.206 F 
ATOM     74  C   UNL A   1      40.231  21.790  27.175  1.00  0.00     0.006 A 
ENDBRANCH  46  67
BRANCH  58  75
ATOM     75  C   UNL A   1      47.176  27.319  25.667  1.00  0.00     0.057 A 
ATOM     76  C   UNL A   1      48.200  26.587  26.280  1.00  0.00     0.134 A 
ATOM     77  C   UNL A   1      47.254  27.501  24.279  1.00  0.00     0.134 A 
ATOM     78  F   UNL A   1      48.191  26.383  27.606  1.00  0.00    -0.206 F 
ATOM     79  C   UNL A   1      49.270  26.073  25.545  1.00  0.00     0.040 A 
ATOM     80  C   UNL A   1      48.304  26.967  23.530  1.00  0.00     0.040 A 
ATOM     81  F   UNL A   1      46.301  28.181  23.625  1.00  0.00    -0.206 F 
ATOM     82  C   UNL A   1      49.319  26.255  24.164  1.00  0.00     0.006 A 
ENDBRANCH  58  75
ENDBRANCH  32  33
ENDBRANCH  25  27
ENDBRANCH  24  25
ENDBRANCH  23  24
ENDBRANCH  22  23
ENDBRANCH  21  22
ENDBRANCH  20  21
ENDBRANCH   1  20
TORSDOF 19
ENDMDL
