MODEL 1
REMARK VINA RESULT:     -11.0      0.000      0.000
REMARK SMILES Cc1c(Cl)cc2c(c1C)O[C@H](C(F)(F)F)C(C(=O)OCCOCCOCCOC(=O)c1ccc(-c3c4nc(c(-c5c(F)cccc5F)c5ccc([nH]5)c(-c5c(F)cccc5F)c5nc(c(-c6c(F)cccc6F)c6ccc3[nH]6)C=C5)C=C4)cc1)=C2
REMARK SMILES IDX 24 1 23 2 22 3 21 4 20 5 19 6 17 7 18 8 16 9 1 10 2 11 3 12
REMARK SMILES IDX 8 13 4 14 5 15 7 16 9 17 6 18 10 19 85 20 11 21 12 22 13 23
REMARK SMILES IDX 14 24 15 25 25 26 26 27 27 28 28 29 29 30 30 31 31 32 32 33
REMARK SMILES IDX 84 34 33 35 83 36 34 37 35 38 36 39 77 40 37 41 82 42 76 43
REMARK SMILES IDX 78 44 38 45 81 46 75 47 74 48 39 50 65 51 48 52 64 53 49 54
REMARK SMILES IDX 52 55 63 56 79 57 50 58 51 59 62 61 80 62 53 63 40 64 41 65
REMARK SMILES IDX 46 66 42 67 43 68 45 69 47 70 44 71 66 72 67 73 72 74 68 75
REMARK SMILES IDX 69 76 71 77 73 78 70 79 54 80 55 81 60 82 56 83 57 84 59 85
REMARK SMILES IDX 61 86 58 87
REMARK H PARENT 78 49 52 60
REMARK Flexibility Score: inf
ROOT
ATOM      1  C   UNL A   1      34.039  33.202  28.537  1.00  0.00     0.188 C 
ENDROOT
BRANCH   1   2
ATOM      2  C   UNL A   1      34.957  32.105  27.959  1.00  0.00     0.188 C 
BRANCH   2   3
ATOM      3  O   UNL A   1      34.408  31.021  27.239  1.00  0.00    -0.376 OA
BRANCH   3   4
ATOM      4  C   UNL A   1      33.019  30.743  27.286  1.00  0.00     0.202 C 
BRANCH   4   5
ATOM      5  C   UNL A   1      32.423  29.352  27.022  1.00  0.00     0.261 C 
BRANCH   5   6
ATOM      6  O   UNL A   1      33.364  28.276  26.907  1.00  0.00    -0.460 OA
BRANCH   6   7
ATOM      7  C   UNL A   1      33.511  27.769  25.660  1.00  0.00     0.338 C 
ATOM      8  O   UNL A   1      33.800  28.386  24.649  1.00  0.00    -0.246 OA
BRANCH   7   9
ATOM      9  C   UNL A   1      33.428  26.295  25.714  1.00  0.00     0.087 C 
ATOM     10  C   UNL A   1      34.302  19.926  24.657  1.00  0.00     0.046 C 
ATOM     11  C   UNL A   1      34.338  21.388  25.028  1.00  0.00    -0.026 A 
ATOM     12  C   UNL A   1      35.575  22.068  24.974  1.00  0.00     0.045 A 
ATOM     13  C   UNL A   1      33.176  22.131  25.355  1.00  0.00    -0.004 A 
ATOM     14  Cl  UNL A   1      37.052  21.251  24.582  1.00  0.00    -0.084 Cl
ATOM     15  C   UNL A   1      35.661  23.443  25.195  1.00  0.00     0.032 A 
ATOM     16  C   UNL A   1      33.286  23.523  25.592  1.00  0.00     0.131 A 
ATOM     17  C   UNL A   1      31.795  21.523  25.451  1.00  0.00     0.049 C 
ATOM     18  C   UNL A   1      34.511  24.178  25.468  1.00  0.00     0.019 A 
ATOM     19  O   UNL A   1      32.133  24.179  25.939  1.00  0.00    -0.475 OA
ATOM     20  C   UNL A   1      34.574  25.627  25.531  1.00  0.00     0.027 C 
ATOM     21  C   UNL A   1      32.104  25.631  25.963  1.00  0.00     0.316 C 
BRANCH  21  22
ATOM     22  C   UNL A   1      31.018  26.105  24.987  1.00  0.00     0.430 C 
ATOM     23  F   UNL A   1      30.526  27.314  25.349  1.00  0.00    -0.167 F 
ATOM     24  F   UNL A   1      31.499  26.243  23.729  1.00  0.00    -0.167 F 
ATOM     25  F   UNL A   1      29.978  25.242  24.932  1.00  0.00    -0.167 F 
ENDBRANCH  21  22
ENDBRANCH   7   9
ENDBRANCH   6   7
ENDBRANCH   5   6
ENDBRANCH   4   5
ENDBRANCH   3   4
ENDBRANCH   2   3
ENDBRANCH   1   2
BRANCH   1  26
ATOM     26  O   UNL A   1      34.616  34.259  29.264  1.00  0.00    -0.376 OA
BRANCH  26  27
ATOM     27  C   UNL A   1      34.060  34.654  30.507  1.00  0.00     0.202 C 
BRANCH  27  28
ATOM     28  C   UNL A   1      34.349  33.997  31.874  1.00  0.00     0.261 C 
BRANCH  28  29
ATOM     29  O   UNL A   1      34.822  32.646  31.887  1.00  0.00    -0.460 OA
BRANCH  29  30
ATOM     30  C   UNL A   1      35.851  32.394  32.738  1.00  0.00     0.338 C 
ATOM     31  O   UNL A   1      35.887  32.591  33.936  1.00  0.00    -0.246 OA
BRANCH  30  32
ATOM     32  C   UNL A   1      36.888  31.635  32.009  1.00  0.00     0.060 A 
ATOM     33  C   UNL A   1      37.851  30.929  32.745  1.00  0.00     0.016 A 
ATOM     34  C   UNL A   1      36.922  31.638  30.615  1.00  0.00     0.016 A 
ATOM     35  C   UNL A   1      38.857  30.224  32.084  1.00  0.00     0.010 A 
ATOM     36  C   UNL A   1      37.950  30.958  29.955  1.00  0.00     0.010 A 
ATOM     37  C   UNL A   1      38.935  30.268  30.687  1.00  0.00    -0.014 A 
BRANCH  37  38
ATOM     38  C   UNL A   1      40.150  29.763  30.005  1.00  0.00     0.031 A 
ATOM     39  C   UNL A   1      41.310  30.705  29.829  1.00  0.00     0.074 A 
ATOM     40  C   UNL A   1      40.243  28.491  29.579  1.00  0.00     0.049 A 
ATOM     41  N   UNL A   1      42.451  30.512  29.219  1.00  0.00    -0.248 NA
ATOM     42  C   UNL A   1      41.163  32.045  30.422  1.00  0.00     0.031 C 
ATOM     43  C   UNL A   1      39.215  27.465  29.743  1.00  0.00     0.029 A 
ATOM     44  N   UNL A   1      41.257  27.847  28.913  1.00  0.00    -0.354 N 
ATOM     45  C   UNL A   1      43.158  31.699  29.362  1.00  0.00     0.074 A 
ATOM     46  C   UNL A   1      42.306  32.620  30.081  1.00  0.00     0.031 C 
ATOM     47  C   UNL A   1      39.650  26.321  29.186  1.00  0.00     0.029 A 
ATOM     48  C   UNL A   1      40.970  26.541  28.596  1.00  0.00     0.049 A 
ATOM     49  H   UNL A   1      42.111  28.281  28.684  1.00  0.00     0.167 HD
ATOM     50  C   UNL A   1      44.411  31.990  28.944  1.00  0.00     0.037 A 
ATOM     51  C   UNL A   1      41.683  25.640  27.892  1.00  0.00     0.037 A 
ATOM     52  C   UNL A   1      45.258  31.077  28.226  1.00  0.00     0.049 A 
ATOM     53  C   UNL A   1      43.033  26.028  27.340  1.00  0.00     0.074 A 
ATOM     54  C   UNL A   1      46.541  31.287  27.753  1.00  0.00     0.029 A 
ATOM     55  N   UNL A   1      44.907  29.783  27.875  1.00  0.00    -0.354 N 
ATOM     56  N   UNL A   1      43.695  27.151  27.484  1.00  0.00    -0.248 NA
ATOM     57  C   UNL A   1      43.734  25.024  26.524  1.00  0.00     0.031 C 
ATOM     58  C   UNL A   1      46.949  30.138  27.072  1.00  0.00     0.029 A 
ATOM     59  C   UNL A   1      45.942  29.191  27.171  1.00  0.00     0.049 A 
ATOM     60  H   UNL A   1      44.051  29.349  28.095  1.00  0.00     0.167 HD
ATOM     61  C   UNL A   1      44.898  26.975  26.808  1.00  0.00     0.074 A 
ATOM     62  C   UNL A   1      44.881  25.635  26.265  1.00  0.00     0.031 C 
ATOM     63  C   UNL A   1      45.923  27.848  26.651  1.00  0.00     0.037 A 
BRANCH  50  64
ATOM     64  C   UNL A   1      44.951  33.356  29.246  1.00  0.00     0.057 A 
ATOM     65  C   UNL A   1      45.723  33.602  30.389  1.00  0.00     0.134 A 
ATOM     66  C   UNL A   1      44.773  34.412  28.344  1.00  0.00     0.134 A 
ATOM     67  F   UNL A   1      45.917  32.637  31.299  1.00  0.00    -0.206 F 
ATOM     68  C   UNL A   1      46.298  34.852  30.623  1.00  0.00     0.040 A 
ATOM     69  C   UNL A   1      45.365  35.658  28.555  1.00  0.00     0.040 A 
ATOM     70  F   UNL A   1      44.046  34.241  27.230  1.00  0.00    -0.206 F 
ATOM     71  C   UNL A   1      46.130  35.880  29.698  1.00  0.00     0.006 A 
ENDBRANCH  50  64
BRANCH  51  72
ATOM     72  C   UNL A   1      41.142  24.275  27.653  1.00  0.00     0.057 A 
ATOM     73  C   UNL A   1      41.647  23.165  28.342  1.00  0.00     0.134 A 
ATOM     74  C   UNL A   1      40.135  24.040  26.709  1.00  0.00     0.134 A 
ATOM     75  F   UNL A   1      42.634  23.320  29.238  1.00  0.00    -0.206 F 
ATOM     76  C   UNL A   1      41.186  21.873  28.089  1.00  0.00     0.040 A 
ATOM     77  C   UNL A   1      39.644  22.754  26.466  1.00  0.00     0.040 A 
ATOM     78  F   UNL A   1      39.610  25.056  26.009  1.00  0.00    -0.206 F 
ATOM     79  C   UNL A   1      40.176  21.666  27.153  1.00  0.00     0.006 A 
ENDBRANCH  51  72
BRANCH  63  80
ATOM     80  C   UNL A   1      47.134  27.386  25.891  1.00  0.00     0.057 A 
ATOM     81  C   UNL A   1      48.188  26.711  26.520  1.00  0.00     0.134 A 
ATOM     82  C   UNL A   1      47.204  27.538  24.499  1.00  0.00     0.134 A 
ATOM     83  F   UNL A   1      48.187  26.538  27.851  1.00  0.00    -0.206 F 
ATOM     84  C   UNL A   1      49.272  26.215  25.794  1.00  0.00     0.040 A 
ATOM     85  C   UNL A   1      48.267  27.020  23.760  1.00  0.00     0.040 A 
ATOM     86  F   UNL A   1      46.221  28.161  23.831  1.00  0.00    -0.206 F 
ATOM     87  C   UNL A   1      49.309  26.359  24.409  1.00  0.00     0.006 A 
ENDBRANCH  63  80
ENDBRANCH  37  38
ENDBRANCH  30  32
ENDBRANCH  29  30
ENDBRANCH  28  29
ENDBRANCH  27  28
ENDBRANCH  26  27
ENDBRANCH   1  26
TORSDOF 18
ENDMDL
MODEL 2
REMARK VINA RESULT:     -10.9      4.500      9.626
REMARK SMILES Cc1c(Cl)cc2c(c1C)O[C@H](C(F)(F)F)C(C(=O)OCCOCCOCCOC(=O)c1ccc(-c3c4nc(c(-c5c(F)cccc5F)c5ccc([nH]5)c(-c5c(F)cccc5F)c5nc(c(-c6c(F)cccc6F)c6ccc3[nH]6)C=C5)C=C4)cc1)=C2
REMARK SMILES IDX 24 1 23 2 22 3 21 4 20 5 19 6 17 7 18 8 16 9 1 10 2 11 3 12
REMARK SMILES IDX 8 13 4 14 5 15 7 16 9 17 6 18 10 19 85 20 11 21 12 22 13 23
REMARK SMILES IDX 14 24 15 25 25 26 26 27 27 28 28 29 29 30 30 31 31 32 32 33
REMARK SMILES IDX 84 34 33 35 83 36 34 37 35 38 36 39 77 40 37 41 82 42 76 43
REMARK SMILES IDX 78 44 38 45 81 46 75 47 74 48 39 50 65 51 48 52 64 53 49 54
REMARK SMILES IDX 52 55 63 56 79 57 50 58 51 59 62 61 80 62 53 63 40 64 41 65
REMARK SMILES IDX 46 66 42 67 43 68 45 69 47 70 44 71 66 72 67 73 72 74 68 75
REMARK SMILES IDX 69 76 71 77 73 78 70 79 54 80 55 81 60 82 56 83 57 84 59 85
REMARK SMILES IDX 61 86 58 87
REMARK H PARENT 78 49 52 60
REMARK Flexibility Score: inf
ROOT
ATOM      1  C   UNL A   1      41.233  20.722  27.120  1.00  0.00     0.188 C 
ENDROOT
BRANCH   1   2
ATOM      2  C   UNL A   1      40.042  20.934  26.162  1.00  0.00     0.188 C 
BRANCH   2   3
ATOM      3  O   UNL A   1      39.023  21.857  26.485  1.00  0.00    -0.376 OA
BRANCH   3   4
ATOM      4  C   UNL A   1      38.004  22.174  25.552  1.00  0.00     0.202 C 
BRANCH   4   5
ATOM      5  C   UNL A   1      36.752  21.310  25.338  1.00  0.00     0.261 C 
BRANCH   5   6
ATOM      6  O   UNL A   1      35.898  21.696  24.254  1.00  0.00    -0.460 OA
BRANCH   6   7
ATOM      7  C   UNL A   1      34.576  21.487  24.457  1.00  0.00     0.338 C 
ATOM      8  O   UNL A   1      34.015  20.411  24.579  1.00  0.00    -0.246 OA
BRANCH   7   9
ATOM      9  C   UNL A   1      33.899  22.782  24.675  1.00  0.00     0.087 C 
ATOM     10  C   UNL A   1      32.487  29.132  25.046  1.00  0.00     0.046 C 
ATOM     11  C   UNL A   1      32.784  27.695  24.694  1.00  0.00    -0.026 A 
ATOM     12  C   UNL A   1      33.530  27.426  23.525  1.00  0.00     0.045 A 
ATOM     13  C   UNL A   1      32.413  26.604  25.521  1.00  0.00    -0.004 A 
ATOM     14  Cl  UNL A   1      34.032  28.688  22.449  1.00  0.00    -0.084 Cl
ATOM     15  C   UNL A   1      33.935  26.130  23.200  1.00  0.00     0.032 A 
ATOM     16  C   UNL A   1      32.820  25.295  25.166  1.00  0.00     0.131 A 
ATOM     17  C   UNL A   1      31.612  26.756  26.793  1.00  0.00     0.049 C 
ATOM     18  C   UNL A   1      33.612  25.069  24.040  1.00  0.00     0.019 A 
ATOM     19  O   UNL A   1      32.402  24.279  25.986  1.00  0.00    -0.475 OA
ATOM     20  C   UNL A   1      34.173  23.752  23.794  1.00  0.00     0.027 C 
ATOM     21  C   UNL A   1      32.965  22.949  25.839  1.00  0.00     0.316 C 
BRANCH  21  22
ATOM     22  C   UNL A   1      33.614  22.553  27.173  1.00  0.00     0.430 C 
ATOM     23  F   UNL A   1      34.863  23.064  27.282  1.00  0.00    -0.167 F 
ATOM     24  F   UNL A   1      32.910  23.018  28.231  1.00  0.00    -0.167 F 
ATOM     25  F   UNL A   1      33.710  21.211  27.308  1.00  0.00    -0.167 F 
ENDBRANCH  21  22
ENDBRANCH   7   9
ENDBRANCH   6   7
ENDBRANCH   5   6
ENDBRANCH   4   5
ENDBRANCH   3   4
ENDBRANCH   2   3
ENDBRANCH   1   2
BRANCH   1  26
ATOM     26  O   UNL A   1      42.220  19.779  26.781  1.00  0.00    -0.376 OA
BRANCH  26  27
ATOM     27  C   UNL A   1      43.108  20.033  25.705  1.00  0.00     0.202 C 
BRANCH  27  28
ATOM     28  C   UNL A   1      43.819  21.374  25.419  1.00  0.00     0.261 C 
BRANCH  28  29
ATOM     29  O   UNL A   1      43.010  22.511  25.101  1.00  0.00    -0.460 OA
BRANCH  29  30
ATOM     30  C   UNL A   1      43.674  23.692  25.001  1.00  0.00     0.338 C 
ATOM     31  O   UNL A   1      44.530  23.995  24.192  1.00  0.00    -0.246 OA
BRANCH  30  32
ATOM     32  C   UNL A   1      43.049  24.663  25.922  1.00  0.00     0.060 A 
ATOM     33  C   UNL A   1      43.575  25.961  25.995  1.00  0.00     0.016 A 
ATOM     34  C   UNL A   1      41.967  24.290  26.719  1.00  0.00     0.016 A 
ATOM     35  C   UNL A   1      43.021  26.891  26.873  1.00  0.00     0.010 A 
ATOM     36  C   UNL A   1      41.435  25.214  27.623  1.00  0.00     0.010 A 
ATOM     37  C   UNL A   1      41.974  26.510  27.721  1.00  0.00    -0.014 A 
BRANCH  37  38
ATOM     38  C   UNL A   1      41.577  27.398  28.839  1.00  0.00     0.031 A 
ATOM     39  C   UNL A   1      42.379  27.343  30.110  1.00  0.00     0.074 A 
ATOM     40  C   UNL A   1      40.550  28.259  28.727  1.00  0.00     0.049 A 
ATOM     41  N   UNL A   1      42.193  27.978  31.239  1.00  0.00    -0.248 NA
ATOM     42  C   UNL A   1      43.552  26.451  30.108  1.00  0.00     0.031 C 
ATOM     43  C   UNL A   1      39.733  28.452  27.530  1.00  0.00     0.029 A 
ATOM     44  N   UNL A   1      40.017  29.134  29.642  1.00  0.00    -0.354 N 
ATOM     45  C   UNL A   1      43.226  27.570  32.073  1.00  0.00     0.074 A 
ATOM     46  C   UNL A   1      44.013  26.604  31.339  1.00  0.00     0.031 C 
ATOM     47  C   UNL A   1      38.797  29.383  27.788  1.00  0.00     0.029 A 
ATOM     48  C   UNL A   1      38.926  29.827  29.176  1.00  0.00     0.049 A 
ATOM     49  H   UNL A   1      40.383  29.254  30.548  1.00  0.00     0.167 HD
ATOM     50  C   UNL A   1      43.501  27.975  33.335  1.00  0.00     0.037 A 
ATOM     51  C   UNL A   1      38.115  30.699  29.807  1.00  0.00     0.037 A 
ATOM     52  C   UNL A   1      42.717  28.932  34.067  1.00  0.00     0.049 A 
ATOM     53  C   UNL A   1      38.380  31.049  31.251  1.00  0.00     0.074 A 
ATOM     54  C   UNL A   1      42.915  29.398  35.354  1.00  0.00     0.029 A 
ATOM     55  N   UNL A   1      41.587  29.568  33.579  1.00  0.00    -0.354 N 
ATOM     56  N   UNL A   1      39.361  30.662  32.030  1.00  0.00    -0.248 NA
ATOM     57  C   UNL A   1      37.422  31.955  31.904  1.00  0.00     0.031 C 
ATOM     58  C   UNL A   1      41.876  30.278  35.665  1.00  0.00     0.029 A 
ATOM     59  C   UNL A   1      41.063  30.404  34.549  1.00  0.00     0.049 A 
ATOM     60  H   UNL A   1      41.213  29.443  32.677  1.00  0.00     0.167 HD
ATOM     61  C   UNL A   1      39.156  31.301  33.249  1.00  0.00     0.074 A 
ATOM     62  C   UNL A   1      37.967  32.111  33.102  1.00  0.00     0.031 C 
ATOM     63  C   UNL A   1      39.889  31.222  34.387  1.00  0.00     0.037 A 
BRANCH  50  64
ATOM     64  C   UNL A   1      44.700  27.385  34.014  1.00  0.00     0.057 A 
ATOM     65  C   UNL A   1      44.624  26.177  34.718  1.00  0.00     0.134 A 
ATOM     66  C   UNL A   1      45.961  27.982  33.888  1.00  0.00     0.134 A 
ATOM     67  F   UNL A   1      43.443  25.562  34.888  1.00  0.00    -0.206 F 
ATOM     68  C   UNL A   1      45.759  25.584  35.274  1.00  0.00     0.040 A 
ATOM     69  C   UNL A   1      47.107  27.387  34.417  1.00  0.00     0.040 A 
ATOM     70  F   UNL A   1      46.103  29.140  33.223  1.00  0.00    -0.206 F 
ATOM     71  C   UNL A   1      47.006  26.183  35.112  1.00  0.00     0.006 A 
ENDBRANCH  50  64
BRANCH  51  72
ATOM     72  C   UNL A   1      36.963  31.308  29.089  1.00  0.00     0.057 A 
ATOM     73  C   UNL A   1      35.804  30.568  28.822  1.00  0.00     0.134 A 
ATOM     74  C   UNL A   1      37.003  32.627  28.622  1.00  0.00     0.134 A 
ATOM     75  F   UNL A   1      35.715  29.289  29.217  1.00  0.00    -0.206 F 
ATOM     76  C   UNL A   1      34.738  31.110  28.103  1.00  0.00     0.040 A 
ATOM     77  C   UNL A   1      35.931  33.191  27.926  1.00  0.00     0.040 A 
ATOM     78  F   UNL A   1      38.085  33.391  28.838  1.00  0.00    -0.206 F 
ATOM     79  C   UNL A   1      34.797  32.428  27.659  1.00  0.00     0.006 A 
ENDBRANCH  51  72
BRANCH  63  80
ATOM     80  C   UNL A   1      39.457  32.051  35.563  1.00  0.00     0.057 A 
ATOM     81  C   UNL A   1      39.904  33.366  35.744  1.00  0.00     0.134 A 
ATOM     82  C   UNL A   1      38.514  31.558  36.476  1.00  0.00     0.134 A 
ATOM     83  F   UNL A   1      40.813  33.896  34.910  1.00  0.00    -0.206 F 
ATOM     84  C   UNL A   1      39.438  34.157  36.796  1.00  0.00     0.040 A 
ATOM     85  C   UNL A   1      38.018  32.349  37.512  1.00  0.00     0.040 A 
ATOM     86  F   UNL A   1      38.032  30.312  36.353  1.00  0.00    -0.206 F 
ATOM     87  C   UNL A   1      38.483  33.652  37.677  1.00  0.00     0.006 A 
ENDBRANCH  63  80
ENDBRANCH  37  38
ENDBRANCH  30  32
ENDBRANCH  29  30
ENDBRANCH  28  29
ENDBRANCH  27  28
ENDBRANCH  26  27
ENDBRANCH   1  26
TORSDOF 18
ENDMDL
MODEL 3
REMARK VINA RESULT:     -10.9      4.544      9.722
REMARK SMILES Cc1c(Cl)cc2c(c1C)O[C@H](C(F)(F)F)C(C(=O)OCCOCCOCCOC(=O)c1ccc(-c3c4nc(c(-c5c(F)cccc5F)c5ccc([nH]5)c(-c5c(F)cccc5F)c5nc(c(-c6c(F)cccc6F)c6ccc3[nH]6)C=C5)C=C4)cc1)=C2
REMARK SMILES IDX 24 1 23 2 22 3 21 4 20 5 19 6 17 7 18 8 16 9 1 10 2 11 3 12
REMARK SMILES IDX 8 13 4 14 5 15 7 16 9 17 6 18 10 19 85 20 11 21 12 22 13 23
REMARK SMILES IDX 14 24 15 25 25 26 26 27 27 28 28 29 29 30 30 31 31 32 32 33
REMARK SMILES IDX 84 34 33 35 83 36 34 37 35 38 36 39 77 40 37 41 82 42 76 43
REMARK SMILES IDX 78 44 38 45 81 46 75 47 74 48 39 50 65 51 48 52 64 53 49 54
REMARK SMILES IDX 52 55 63 56 79 57 50 58 51 59 62 61 80 62 53 63 40 64 41 65
REMARK SMILES IDX 46 66 42 67 43 68 45 69 47 70 44 71 66 72 67 73 72 74 68 75
REMARK SMILES IDX 69 76 71 77 73 78 70 79 54 80 55 81 60 82 56 83 57 84 59 85
REMARK SMILES IDX 61 86 58 87
REMARK H PARENT 78 49 52 60
REMARK Flexibility Score: inf
ROOT
ATOM      1  C   UNL A   1      40.568  21.783  26.702  1.00  0.00     0.188 C 
ENDROOT
BRANCH   1   2
ATOM      2  C   UNL A   1      39.159  21.971  26.102  1.00  0.00     0.188 C 
BRANCH   2   3
ATOM      3  O   UNL A   1      38.576  23.255  26.039  1.00  0.00    -0.376 OA
BRANCH   3   4
ATOM      4  C   UNL A   1      37.181  23.433  26.216  1.00  0.00     0.202 C 
BRANCH   4   5
ATOM      5  C   UNL A   1      36.217  23.763  25.066  1.00  0.00     0.261 C 
BRANCH   5   6
ATOM      6  O   UNL A   1      34.960  23.074  25.080  1.00  0.00    -0.460 OA
BRANCH   6   7
ATOM      7  C   UNL A   1      34.021  23.603  25.900  1.00  0.00     0.338 C 
ATOM      8  O   UNL A   1      33.815  23.306  27.065  1.00  0.00    -0.246 OA
BRANCH   7   9
ATOM      9  C   UNL A   1      33.358  24.736  25.224  1.00  0.00     0.087 C 
ATOM     10  C   UNL A   1      30.029  30.187  23.935  1.00  0.00     0.046 C 
ATOM     11  C   UNL A   1      30.997  29.093  24.313  1.00  0.00    -0.026 A 
ATOM     12  C   UNL A   1      31.805  29.271  25.458  1.00  0.00     0.045 A 
ATOM     13  C   UNL A   1      31.079  27.860  23.617  1.00  0.00    -0.004 A 
ATOM     14  Cl  UNL A   1      31.777  30.739  26.379  1.00  0.00    -0.084 Cl
ATOM     15  C   UNL A   1      32.638  28.254  25.927  1.00  0.00     0.032 A 
ATOM     16  C   UNL A   1      31.943  26.847  24.099  1.00  0.00     0.131 A 
ATOM     17  C   UNL A   1      30.273  27.546  22.378  1.00  0.00     0.049 C 
ATOM     18  C   UNL A   1      32.680  27.028  25.270  1.00  0.00     0.019 A 
ATOM     19  O   UNL A   1      32.005  25.692  23.364  1.00  0.00    -0.475 OA
ATOM     20  C   UNL A   1      33.414  25.919  25.850  1.00  0.00     0.027 C 
ATOM     21  C   UNL A   1      32.669  24.520  23.907  1.00  0.00     0.316 C 
BRANCH  21  22
ATOM     22  C   UNL A   1      31.651  23.372  23.958  1.00  0.00     0.430 C 
ATOM     23  F   UNL A   1      32.223  22.194  23.612  1.00  0.00    -0.167 F 
ATOM     24  F   UNL A   1      31.144  23.207  25.202  1.00  0.00    -0.167 F 
ATOM     25  F   UNL A   1      30.611  23.583  23.120  1.00  0.00    -0.167 F 
ENDBRANCH  21  22
ENDBRANCH   7   9
ENDBRANCH   6   7
ENDBRANCH   5   6
ENDBRANCH   4   5
ENDBRANCH   3   4
ENDBRANCH   2   3
ENDBRANCH   1   2
BRANCH   1  26
ATOM     26  O   UNL A   1      41.499  20.982  26.016  1.00  0.00    -0.376 OA
BRANCH  26  27
ATOM     27  C   UNL A   1      42.876  21.322  26.029  1.00  0.00     0.202 C 
BRANCH  27  28
ATOM     28  C   UNL A   1      43.586  22.248  25.018  1.00  0.00     0.261 C 
BRANCH  28  29
ATOM     29  O   UNL A   1      43.067  23.569  24.834  1.00  0.00    -0.460 OA
BRANCH  29  30
ATOM     30  C   UNL A   1      43.911  24.581  25.166  1.00  0.00     0.338 C 
ATOM     31  O   UNL A   1      44.957  24.882  24.625  1.00  0.00    -0.246 OA
BRANCH  30  32
ATOM     32  C   UNL A   1      43.258  25.421  26.191  1.00  0.00     0.060 A 
ATOM     33  C   UNL A   1      43.797  26.684  26.473  1.00  0.00     0.016 A 
ATOM     34  C   UNL A   1      42.138  24.957  26.881  1.00  0.00     0.016 A 
ATOM     35  C   UNL A   1      43.217  27.488  27.454  1.00  0.00     0.010 A 
ATOM     36  C   UNL A   1      41.579  25.750  27.887  1.00  0.00     0.010 A 
ATOM     37  C   UNL A   1      42.129  27.009  28.193  1.00  0.00    -0.014 A 
BRANCH  37  38
ATOM     38  C   UNL A   1      41.695  27.734  29.411  1.00  0.00     0.031 A 
ATOM     39  C   UNL A   1      40.511  28.656  29.306  1.00  0.00     0.074 A 
ATOM     40  C   UNL A   1      42.310  27.558  30.594  1.00  0.00     0.049 A 
ATOM     41  N   UNL A   1      39.982  29.435  30.213  1.00  0.00    -0.248 NA
ATOM     42  C   UNL A   1      39.831  28.704  28.000  1.00  0.00     0.031 C 
ATOM     43  C   UNL A   1      43.428  26.649  30.841  1.00  0.00     0.029 A 
ATOM     44  N   UNL A   1      42.078  28.146  31.814  1.00  0.00    -0.354 N 
ATOM     45  C   UNL A   1      38.907  30.058  29.592  1.00  0.00     0.074 A 
ATOM     46  C   UNL A   1      38.880  29.598  28.221  1.00  0.00     0.031 C 
ATOM     47  C   UNL A   1      43.788  26.746  32.133  1.00  0.00     0.029 A 
ATOM     48  C   UNL A   1      42.953  27.747  32.796  1.00  0.00     0.049 A 
ATOM     49  H   UNL A   1      41.354  28.794  31.970  1.00  0.00     0.167 HD
ATOM     50  C   UNL A   1      38.013  30.925  30.121  1.00  0.00     0.037 A 
ATOM     51  C   UNL A   1      43.074  28.160  34.073  1.00  0.00     0.037 A 
ATOM     52  C   UNL A   1      38.041  31.386  31.483  1.00  0.00     0.049 A 
ATOM     53  C   UNL A   1      42.132  29.212  34.606  1.00  0.00     0.074 A 
ATOM     54  C   UNL A   1      37.181  32.272  32.106  1.00  0.00     0.029 A 
ATOM     55  N   UNL A   1      38.977  31.001  32.429  1.00  0.00    -0.354 N 
ATOM     56  N   UNL A   1      41.117  29.791  34.013  1.00  0.00    -0.248 NA
ATOM     57  C   UNL A   1      42.357  29.670  35.986  1.00  0.00     0.031 C 
ATOM     58  C   UNL A   1      37.625  32.462  33.416  1.00  0.00     0.029 A 
ATOM     59  C   UNL A   1      38.728  31.650  33.626  1.00  0.00     0.049 A 
ATOM     60  H   UNL A   1      39.708  30.360  32.274  1.00  0.00     0.167 HD
ATOM     61  C   UNL A   1      40.564  30.653  34.955  1.00  0.00     0.074 A 
ATOM     62  C   UNL A   1      41.348  30.512  36.162  1.00  0.00     0.031 C 
ATOM     63  C   UNL A   1      39.503  31.488  34.828  1.00  0.00     0.037 A 
BRANCH  50  64
ATOM     64  C   UNL A   1      36.925  31.441  29.229  1.00  0.00     0.057 A 
ATOM     65  C   UNL A   1      35.798  30.667  28.924  1.00  0.00     0.134 A 
ATOM     66  C   UNL A   1      36.959  32.754  28.742  1.00  0.00     0.134 A 
ATOM     67  F   UNL A   1      35.711  29.396  29.346  1.00  0.00    -0.206 F 
ATOM     68  C   UNL A   1      34.745  31.180  28.166  1.00  0.00     0.040 A 
ATOM     69  C   UNL A   1      35.901  33.287  28.005  1.00  0.00     0.040 A 
ATOM     70  F   UNL A   1      38.009  33.548  29.000  1.00  0.00    -0.206 F 
ATOM     71  C   UNL A   1      34.789  32.498  27.716  1.00  0.00     0.006 A 
ENDBRANCH  50  64
BRANCH  51  72
ATOM     72  C   UNL A   1      44.132  27.590  34.949  1.00  0.00     0.057 A 
ATOM     73  C   UNL A   1      45.413  28.157  34.999  1.00  0.00     0.134 A 
ATOM     74  C   UNL A   1      43.905  26.450  35.729  1.00  0.00     0.134 A 
ATOM     75  F   UNL A   1      45.703  29.233  34.253  1.00  0.00    -0.206 F 
ATOM     76  C   UNL A   1      46.430  27.601  35.776  1.00  0.00     0.040 A 
ATOM     77  C   UNL A   1      44.906  25.900  36.533  1.00  0.00     0.040 A 
ATOM     78  F   UNL A   1      42.704  25.853  35.723  1.00  0.00    -0.206 F 
ATOM     79  C   UNL A   1      46.176  26.472  36.552  1.00  0.00     0.006 A 
ENDBRANCH  51  72
BRANCH  63  80
ATOM     80  C   UNL A   1      39.094  32.296  36.028  1.00  0.00     0.057 A 
ATOM     81  C   UNL A   1      39.496  33.626  36.194  1.00  0.00     0.134 A 
ATOM     82  C   UNL A   1      38.215  31.763  36.980  1.00  0.00     0.134 A 
ATOM     83  F   UNL A   1      40.344  34.195  35.322  1.00  0.00    -0.206 F 
ATOM     84  C   UNL A   1      39.049  34.395  37.270  1.00  0.00     0.040 A 
ATOM     85  C   UNL A   1      37.737  32.530  38.043  1.00  0.00     0.040 A 
ATOM     86  F   UNL A   1      37.778  30.499  36.873  1.00  0.00    -0.206 F 
ATOM     87  C   UNL A   1      38.157  33.850  38.192  1.00  0.00     0.006 A 
ENDBRANCH  63  80
ENDBRANCH  37  38
ENDBRANCH  30  32
ENDBRANCH  29  30
ENDBRANCH  28  29
ENDBRANCH  27  28
ENDBRANCH  26  27
ENDBRANCH   1  26
TORSDOF 18
ENDMDL
