MODEL 1
REMARK VINA RESULT:     -10.6      0.000      0.000
REMARK SMILES O=C(OCCOCCOCCOC(=O)[C@H]1CC[C@@H]2CCCC[C@@H]2N1C(=O)NC1CC1)c1ccc(-c2c3nc(c(-c4c(F)cccc4F)c4ccc([nH]4)c(-c4c(F)cccc4F)c4nc(c(-c5c(F)cccc5F)c5ccc2[nH]5)C=C4)C=C3)cc1
REMARK SMILES IDX 7 1 6 2 5 3 4 4 3 5 2 6 1 7 31 8 32 9 84 10 33 11 83 12
REMARK SMILES IDX 34 13 35 14 36 15 77 16 37 17 82 18 76 19 78 20 38 21 81 22
REMARK SMILES IDX 75 23 74 24 39 26 65 27 48 28 64 29 49 30 52 31 63 32 79 33
REMARK SMILES IDX 50 34 51 35 62 37 80 38 53 39 40 40 41 41 46 42 42 43 43 44
REMARK SMILES IDX 45 45 47 46 44 47 66 48 67 49 72 50 68 51 69 52 71 53 73 54
REMARK SMILES IDX 70 55 54 56 55 57 60 58 56 59 57 60 59 61 61 62 58 63 8 64
REMARK SMILES IDX 9 65 10 66 11 67 12 68 13 69 14 70 15 71 16 72 24 73 17 74
REMARK SMILES IDX 23 75 18 76 22 77 19 78 21 79 20 80 25 81 26 82 27 83 28 85
REMARK SMILES IDX 29 86 30 87
REMARK H PARENT 78 25 52 36 27 84
REMARK Flexibility Score: inf
ROOT
ATOM      1  C   UNL A   1      30.711  30.342  24.685  1.00  0.00     0.188 C 
ENDROOT
BRANCH   1   2
ATOM      2  O   UNL A   1      31.696  30.640  25.687  1.00  0.00    -0.376 OA
BRANCH   2   3
ATOM      3  C   UNL A   1      31.363  31.766  26.510  1.00  0.00     0.202 C 
BRANCH   3   4
ATOM      4  C   UNL A   1      32.538  32.425  27.249  1.00  0.00     0.261 C 
BRANCH   4   5
ATOM      5  O   UNL A   1      32.316  33.802  27.583  1.00  0.00    -0.460 OA
BRANCH   5   6
ATOM      6  C   UNL A   1      32.996  34.591  28.448  1.00  0.00     0.338 C 
ATOM      7  O   UNL A   1      32.548  35.715  28.670  1.00  0.00    -0.246 OA
BRANCH   6   8
ATOM      8  C   UNL A   1      34.253  34.192  29.162  1.00  0.00     0.060 A 
ATOM      9  C   UNL A   1      35.556  34.255  28.660  1.00  0.00     0.016 A 
ATOM     10  C   UNL A   1      34.088  33.717  30.476  1.00  0.00     0.016 A 
ATOM     11  C   UNL A   1      36.647  33.767  29.376  1.00  0.00     0.010 A 
ATOM     12  C   UNL A   1      35.177  33.248  31.214  1.00  0.00     0.010 A 
ATOM     13  C   UNL A   1      36.456  33.222  30.638  1.00  0.00    -0.014 A 
BRANCH  13  14
ATOM     14  C   UNL A   1      37.517  32.401  31.249  1.00  0.00     0.031 A 
ATOM     15  C   UNL A   1      38.184  32.956  32.466  1.00  0.00     0.074 A 
ATOM     16  C   UNL A   1      37.836  31.173  30.809  1.00  0.00     0.049 A 
ATOM     17  N   UNL A   1      39.221  32.508  33.113  1.00  0.00    -0.248 NA
ATOM     18  C   UNL A   1      37.555  34.145  33.069  1.00  0.00     0.031 C 
ATOM     19  C   UNL A   1      37.088  30.404  29.827  1.00  0.00     0.029 A 
ATOM     20  N   UNL A   1      38.912  30.373  31.097  1.00  0.00    -0.354 N 
ATOM     21  C   UNL A   1      39.342  33.328  34.222  1.00  0.00     0.074 A 
ATOM     22  C   UNL A   1      38.325  34.350  34.123  1.00  0.00     0.031 C 
ATOM     23  C   UNL A   1      37.805  29.329  29.462  1.00  0.00     0.029 A 
ATOM     24  C   UNL A   1      39.057  29.348  30.189  1.00  0.00     0.049 A 
ATOM     25  H   UNL A   1      39.512  30.517  31.864  1.00  0.00     0.167 HD
ATOM     26  C   UNL A   1      40.209  33.203  35.249  1.00  0.00     0.037 A 
ATOM     27  C   UNL A   1      40.117  28.562  29.937  1.00  0.00     0.037 A 
ATOM     28  C   UNL A   1      41.229  32.191  35.288  1.00  0.00     0.049 A 
ATOM     29  C   UNL A   1      41.256  28.625  30.896  1.00  0.00     0.074 A 
ATOM     30  C   UNL A   1      42.187  31.962  36.255  1.00  0.00     0.029 A 
ATOM     31  N   UNL A   1      41.434  31.251  34.283  1.00  0.00    -0.354 N 
ATOM     32  N   UNL A   1      41.400  29.414  31.933  1.00  0.00    -0.248 NA
ATOM     33  C   UNL A   1      42.327  27.643  30.715  1.00  0.00     0.031 C 
ATOM     34  C   UNL A   1      43.017  30.931  35.800  1.00  0.00     0.029 A 
ATOM     35  C   UNL A   1      42.539  30.473  34.581  1.00  0.00     0.049 A 
ATOM     36  H   UNL A   1      40.876  31.154  33.478  1.00  0.00     0.167 HD
ATOM     37  C   UNL A   1      42.537  28.975  32.582  1.00  0.00     0.074 A 
ATOM     38  C   UNL A   1      43.070  27.880  31.789  1.00  0.00     0.031 C 
ATOM     39  C   UNL A   1      43.058  29.406  33.758  1.00  0.00     0.037 A 
BRANCH  26  40
ATOM     40  C   UNL A   1      40.104  34.224  36.339  1.00  0.00     0.057 A 
ATOM     41  C   UNL A   1      39.295  34.031  37.470  1.00  0.00     0.134 A 
ATOM     42  C   UNL A   1      40.753  35.456  36.214  1.00  0.00     0.134 A 
ATOM     43  F   UNL A   1      38.614  32.886  37.633  1.00  0.00    -0.206 F 
ATOM     44  C   UNL A   1      39.106  35.042  38.414  1.00  0.00     0.040 A 
ATOM     45  C   UNL A   1      40.594  36.465  37.165  1.00  0.00     0.040 A 
ATOM     46  F   UNL A   1      41.529  35.712  35.150  1.00  0.00    -0.206 F 
ATOM     47  C   UNL A   1      39.758  36.265  38.263  1.00  0.00     0.006 A 
ENDBRANCH  26  40
BRANCH  27  48
ATOM     48  C   UNL A   1      40.146  27.707  28.729  1.00  0.00     0.057 A 
ATOM     49  C   UNL A   1      40.771  28.107  27.547  1.00  0.00     0.134 A 
ATOM     50  C   UNL A   1      39.566  26.432  28.755  1.00  0.00     0.134 A 
ATOM     51  F   UNL A   1      41.325  29.325  27.457  1.00  0.00    -0.206 F 
ATOM     52  C   UNL A   1      40.832  27.264  26.433  1.00  0.00     0.040 A 
ATOM     53  C   UNL A   1      39.629  25.574  27.655  1.00  0.00     0.040 A 
ATOM     54  F   UNL A   1      38.937  25.999  29.859  1.00  0.00    -0.206 F 
ATOM     55  C   UNL A   1      40.267  25.990  26.490  1.00  0.00     0.006 A 
ENDBRANCH  27  48
BRANCH  39  56
ATOM     56  C   UNL A   1      44.239  28.651  34.274  1.00  0.00     0.057 A 
ATOM     57  C   UNL A   1      44.099  27.493  35.043  1.00  0.00     0.134 A 
ATOM     58  C   UNL A   1      45.536  29.082  33.963  1.00  0.00     0.134 A 
ATOM     59  F   UNL A   1      42.882  27.049  35.392  1.00  0.00    -0.206 F 
ATOM     60  C   UNL A   1      45.214  26.791  35.501  1.00  0.00     0.040 A 
ATOM     61  C   UNL A   1      46.655  28.373  34.387  1.00  0.00     0.040 A 
ATOM     62  F   UNL A   1      45.729  30.189  33.229  1.00  0.00    -0.206 F 
ATOM     63  C   UNL A   1      46.496  27.226  35.163  1.00  0.00     0.006 A 
ENDBRANCH  39  56
ENDBRANCH  13  14
ENDBRANCH   6   8
ENDBRANCH   5   6
ENDBRANCH   4   5
ENDBRANCH   3   4
ENDBRANCH   2   3
ENDBRANCH   1   2
BRANCH   1  64
ATOM     64  C   UNL A   1      30.791  28.922  24.120  1.00  0.00     0.188 C 
BRANCH  64  65
ATOM     65  O   UNL A   1      30.980  27.868  25.053  1.00  0.00    -0.376 OA
BRANCH  65  66
ATOM     66  C   UNL A   1      30.079  26.784  24.964  1.00  0.00     0.202 C 
BRANCH  66  67
ATOM     67  C   UNL A   1      30.183  25.653  25.989  1.00  0.00     0.261 C 
BRANCH  67  68
ATOM     68  O   UNL A   1      30.673  24.352  25.604  1.00  0.00    -0.462 OA
BRANCH  68  69
ATOM     69  C   UNL A   1      31.694  23.839  26.363  1.00  0.00     0.329 C 
ATOM     70  O   UNL A   1      31.609  23.628  27.565  1.00  0.00    -0.250 OA
BRANCH  69  71
ATOM     71  C   UNL A   1      32.984  23.576  25.555  1.00  0.00     0.197 C 
ATOM     72  C   UNL A   1      32.894  22.451  24.512  1.00  0.00     0.038 C 
ATOM     73  N   UNL A   1      33.925  24.660  25.096  1.00  0.00    -0.308 N 
ATOM     74  C   UNL A   1      34.300  21.927  24.161  1.00  0.00     0.008 C 
ATOM     75  C   UNL A   1      35.309  24.154  24.812  1.00  0.00     0.091 C 
ATOM     76  C   UNL A   1      35.220  23.076  23.730  1.00  0.00     0.012 C 
ATOM     77  C   UNL A   1      36.117  23.715  26.040  1.00  0.00     0.025 C 
ATOM     78  C   UNL A   1      36.618  22.623  23.318  1.00  0.00     0.006 C 
ATOM     79  C   UNL A   1      37.400  22.924  25.728  1.00  0.00     0.002 C 
ATOM     80  C   UNL A   1      37.402  22.042  24.479  1.00  0.00     0.000 C 
BRANCH  73  81
ATOM     81  C   UNL A   1      33.669  25.877  24.509  1.00  0.00     0.318 C 
ATOM     82  O   UNL A   1      34.098  26.936  24.992  1.00  0.00    -0.249 OA
ATOM     83  N   UNL A   1      32.941  26.103  23.406  1.00  0.00    -0.335 N 
ATOM     84  H   UNL A   1      32.855  27.069  23.238  1.00  0.00     0.165 HD
BRANCH  83  85
ATOM     85  C   UNL A   1      32.265  25.362  22.420  1.00  0.00     0.084 C 
ATOM     86  C   UNL A   1      32.089  25.919  21.026  1.00  0.00     0.027 C 
ATOM     87  C   UNL A   1      33.063  24.814  21.262  1.00  0.00     0.027 C 
ENDBRANCH  83  85
ENDBRANCH  73  81
ENDBRANCH  69  71
ENDBRANCH  68  69
ENDBRANCH  67  68
ENDBRANCH  66  67
ENDBRANCH  65  66
ENDBRANCH  64  65
ENDBRANCH   1  64
TORSDOF 19
ENDMDL
MODEL 2
REMARK VINA RESULT:     -10.5      4.967     10.133
REMARK SMILES O=C(OCCOCCOCCOC(=O)[C@H]1CC[C@@H]2CCCC[C@@H]2N1C(=O)NC1CC1)c1ccc(-c2c3nc(c(-c4c(F)cccc4F)c4ccc([nH]4)c(-c4c(F)cccc4F)c4nc(c(-c5c(F)cccc5F)c5ccc2[nH]5)C=C4)C=C3)cc1
REMARK SMILES IDX 7 1 6 2 5 3 4 4 3 5 2 6 1 7 31 8 32 9 84 10 33 11 83 12
REMARK SMILES IDX 34 13 35 14 36 15 77 16 37 17 82 18 76 19 78 20 38 21 81 22
REMARK SMILES IDX 75 23 74 24 39 26 65 27 48 28 64 29 49 30 52 31 63 32 79 33
REMARK SMILES IDX 50 34 51 35 62 37 80 38 53 39 40 40 41 41 46 42 42 43 43 44
REMARK SMILES IDX 45 45 47 46 44 47 66 48 67 49 72 50 68 51 69 52 71 53 73 54
REMARK SMILES IDX 70 55 54 56 55 57 60 58 56 59 57 60 59 61 61 62 58 63 8 64
REMARK SMILES IDX 9 65 10 66 11 67 12 68 13 69 14 70 15 71 16 72 24 73 17 74
REMARK SMILES IDX 23 75 18 76 22 77 19 78 21 79 20 80 25 81 26 82 27 83 28 85
REMARK SMILES IDX 29 86 30 87
REMARK H PARENT 78 25 52 36 27 84
REMARK Flexibility Score: inf
ROOT
ATOM      1  C   UNL A   1      35.864  20.788  25.321  1.00  0.00     0.188 C 
ENDROOT
BRANCH   1   2
ATOM      2  O   UNL A   1      37.140  21.044  24.714  1.00  0.00    -0.376 OA
BRANCH   2   3
ATOM      3  C   UNL A   1      38.048  19.936  24.784  1.00  0.00     0.202 C 
BRANCH   3   4
ATOM      4  C   UNL A   1      39.153  20.043  25.845  1.00  0.00     0.261 C 
BRANCH   4   5
ATOM      5  O   UNL A   1      40.235  19.122  25.651  1.00  0.00    -0.460 OA
BRANCH   5   6
ATOM      6  C   UNL A   1      41.536  19.246  26.007  1.00  0.00     0.338 C 
ATOM      7  O   UNL A   1      42.242  18.240  25.952  1.00  0.00    -0.246 OA
BRANCH   6   8
ATOM      8  C   UNL A   1      42.183  20.524  26.454  1.00  0.00     0.060 A 
ATOM      9  C   UNL A   1      42.090  21.109  27.719  1.00  0.00     0.016 A 
ATOM     10  C   UNL A   1      42.968  21.184  25.492  1.00  0.00     0.016 A 
ATOM     11  C   UNL A   1      42.654  22.351  28.001  1.00  0.00     0.010 A 
ATOM     12  C   UNL A   1      43.560  22.418  25.769  1.00  0.00     0.010 A 
ATOM     13  C   UNL A   1      43.353  23.031  27.014  1.00  0.00    -0.014 A 
BRANCH  13  14
ATOM     14  C   UNL A   1      43.648  24.466  27.181  1.00  0.00     0.031 A 
ATOM     15  C   UNL A   1      45.089  24.858  27.230  1.00  0.00     0.074 A 
ATOM     16  C   UNL A   1      42.694  25.409  27.208  1.00  0.00     0.049 A 
ATOM     17  N   UNL A   1      45.618  26.017  27.497  1.00  0.00    -0.248 NA
ATOM     18  C   UNL A   1      46.063  23.812  26.867  1.00  0.00     0.031 C 
ATOM     19  C   UNL A   1      41.289  25.203  26.892  1.00  0.00     0.029 A 
ATOM     20  N   UNL A   1      42.754  26.730  27.570  1.00  0.00    -0.354 N 
ATOM     21  C   UNL A   1      46.978  25.855  27.289  1.00  0.00     0.074 A 
ATOM     22  C   UNL A   1      47.206  24.469  26.952  1.00  0.00     0.031 C 
ATOM     23  C   UNL A   1      40.589  26.296  27.235  1.00  0.00     0.029 A 
ATOM     24  C   UNL A   1      41.506  27.268  27.793  1.00  0.00     0.049 A 
ATOM     25  H   UNL A   1      43.594  27.236  27.660  1.00  0.00     0.167 HD
ATOM     26  C   UNL A   1      47.938  26.802  27.341  1.00  0.00     0.037 A 
ATOM     27  C   UNL A   1      41.154  28.390  28.440  1.00  0.00     0.037 A 
ATOM     28  C   UNL A   1      47.670  28.163  27.718  1.00  0.00     0.049 A 
ATOM     29  C   UNL A   1      42.244  29.340  28.803  1.00  0.00     0.074 A 
ATOM     30  C   UNL A   1      48.550  29.220  27.832  1.00  0.00     0.029 A 
ATOM     31  N   UNL A   1      46.412  28.641  28.071  1.00  0.00    -0.354 N 
ATOM     32  N   UNL A   1      43.536  29.190  28.641  1.00  0.00    -0.248 NA
ATOM     33  C   UNL A   1      41.837  30.636  29.349  1.00  0.00     0.031 C 
ATOM     34  C   UNL A   1      47.837  30.320  28.325  1.00  0.00     0.029 A 
ATOM     35  C   UNL A   1      46.501  29.967  28.456  1.00  0.00     0.049 A 
ATOM     36  H   UNL A   1      45.582  28.114  28.050  1.00  0.00     0.167 HD
ATOM     37  C   UNL A   1      44.100  30.403  28.986  1.00  0.00     0.074 A 
ATOM     38  C   UNL A   1      43.006  31.260  29.415  1.00  0.00     0.031 C 
ATOM     39  C   UNL A   1      45.398  30.785  28.901  1.00  0.00     0.037 A 
BRANCH  26  40
ATOM     40  C   UNL A   1      49.336  26.352  27.047  1.00  0.00     0.057 A 
ATOM     41  C   UNL A   1      50.254  26.049  28.065  1.00  0.00     0.134 A 
ATOM     42  C   UNL A   1      49.797  26.304  25.728  1.00  0.00     0.134 A 
ATOM     43  F   UNL A   1      49.887  26.113  29.355  1.00  0.00    -0.206 F 
ATOM     44  C   UNL A   1      51.589  25.755  27.781  1.00  0.00     0.040 A 
ATOM     45  C   UNL A   1      51.122  25.984  25.429  1.00  0.00     0.040 A 
ATOM     46  F   UNL A   1      48.975  26.597  24.709  1.00  0.00    -0.206 F 
ATOM     47  C   UNL A   1      52.026  25.722  26.457  1.00  0.00     0.006 A 
ENDBRANCH  26  40
BRANCH  27  48
ATOM     48  C   UNL A   1      39.739  28.635  28.802  1.00  0.00     0.057 A 
ATOM     49  C   UNL A   1      39.232  28.345  30.070  1.00  0.00     0.134 A 
ATOM     50  C   UNL A   1      38.864  29.211  27.871  1.00  0.00     0.134 A 
ATOM     51  F   UNL A   1      40.018  27.774  30.994  1.00  0.00    -0.206 F 
ATOM     52  C   UNL A   1      37.906  28.631  30.407  1.00  0.00     0.040 A 
ATOM     53  C   UNL A   1      37.540  29.513  28.198  1.00  0.00     0.040 A 
ATOM     54  F   UNL A   1      39.290  29.496  26.632  1.00  0.00    -0.206 F 
ATOM     55  C   UNL A   1      37.059  29.225  29.472  1.00  0.00     0.006 A 
ENDBRANCH  27  48
BRANCH  39  56
ATOM     56  C   UNL A   1      45.690  32.212  29.235  1.00  0.00     0.057 A 
ATOM     57  C   UNL A   1      45.596  33.230  28.281  1.00  0.00     0.134 A 
ATOM     58  C   UNL A   1      46.038  32.568  30.545  1.00  0.00     0.134 A 
ATOM     59  F   UNL A   1      45.291  32.943  27.006  1.00  0.00    -0.206 F 
ATOM     60  C   UNL A   1      45.855  34.558  28.616  1.00  0.00     0.040 A 
ATOM     61  C   UNL A   1      46.267  33.894  30.898  1.00  0.00     0.040 A 
ATOM     62  F   UNL A   1      46.144  31.632  31.500  1.00  0.00    -0.206 F 
ATOM     63  C   UNL A   1      46.181  34.893  29.931  1.00  0.00     0.006 A 
ENDBRANCH  39  56
ENDBRANCH  13  14
ENDBRANCH   6   8
ENDBRANCH   5   6
ENDBRANCH   4   5
ENDBRANCH   3   4
ENDBRANCH   2   3
ENDBRANCH   1   2
BRANCH   1  64
ATOM     64  C   UNL A   1      34.860  21.936  25.197  1.00  0.00     0.188 C 
BRANCH  64  65
ATOM     65  O   UNL A   1      34.051  21.960  24.030  1.00  0.00    -0.376 OA
BRANCH  65  66
ATOM     66  C   UNL A   1      34.139  23.120  23.229  1.00  0.00     0.202 C 
BRANCH  66  67
ATOM     67  C   UNL A   1      33.038  23.392  22.202  1.00  0.00     0.261 C 
BRANCH  67  68
ATOM     68  O   UNL A   1      32.192  24.554  22.319  1.00  0.00    -0.462 OA
BRANCH  68  69
ATOM     69  C   UNL A   1      32.779  25.763  22.041  1.00  0.00     0.329 C 
ATOM     70  O   UNL A   1      33.427  25.987  21.028  1.00  0.00    -0.250 OA
BRANCH  69  71
ATOM     71  C   UNL A   1      32.564  26.815  23.150  1.00  0.00     0.197 C 
ATOM     72  C   UNL A   1      32.422  28.268  22.668  1.00  0.00     0.038 C 
ATOM     73  N   UNL A   1      31.738  26.578  24.388  1.00  0.00    -0.308 N 
ATOM     74  C   UNL A   1      32.741  29.251  23.811  1.00  0.00     0.008 C 
ATOM     75  C   UNL A   1      32.094  27.499  25.518  1.00  0.00     0.091 C 
ATOM     76  C   UNL A   1      31.893  28.941  25.050  1.00  0.00     0.012 C 
ATOM     77  C   UNL A   1      33.465  27.256  26.162  1.00  0.00     0.025 C 
ATOM     78  C   UNL A   1      32.120  29.910  26.208  1.00  0.00     0.006 C 
ATOM     79  C   UNL A   1      33.951  28.374  27.102  1.00  0.00     0.002 C 
ATOM     80  C   UNL A   1      33.520  29.805  26.781  1.00  0.00     0.000 C 
BRANCH  73  81
ATOM     81  C   UNL A   1      30.499  26.000  24.538  1.00  0.00     0.318 C 
ATOM     82  O   UNL A   1      29.457  26.607  24.242  1.00  0.00    -0.249 OA
ATOM     83  N   UNL A   1      30.232  24.778  25.020  1.00  0.00    -0.335 N 
ATOM     84  H   UNL A   1      29.260  24.634  25.087  1.00  0.00     0.165 HD
BRANCH  83  85
ATOM     85  C   UNL A   1      30.936  23.641  25.457  1.00  0.00     0.084 C 
ATOM     86  C   UNL A   1      31.788  23.697  26.704  1.00  0.00     0.027 C 
ATOM     87  C   UNL A   1      30.487  22.967  26.731  1.00  0.00     0.027 C 
ENDBRANCH  83  85
ENDBRANCH  73  81
ENDBRANCH  69  71
ENDBRANCH  68  69
ENDBRANCH  67  68
ENDBRANCH  66  67
ENDBRANCH  65  66
ENDBRANCH  64  65
ENDBRANCH   1  64
TORSDOF 19
ENDMDL
MODEL 3
REMARK VINA RESULT:     -10.5      4.975      9.995
REMARK SMILES O=C(OCCOCCOCCOC(=O)[C@H]1CC[C@@H]2CCCC[C@@H]2N1C(=O)NC1CC1)c1ccc(-c2c3nc(c(-c4c(F)cccc4F)c4ccc([nH]4)c(-c4c(F)cccc4F)c4nc(c(-c5c(F)cccc5F)c5ccc2[nH]5)C=C4)C=C3)cc1
REMARK SMILES IDX 7 1 6 2 5 3 4 4 3 5 2 6 1 7 31 8 32 9 84 10 33 11 83 12
REMARK SMILES IDX 34 13 35 14 36 15 77 16 37 17 82 18 76 19 78 20 38 21 81 22
REMARK SMILES IDX 75 23 74 24 39 26 65 27 48 28 64 29 49 30 52 31 63 32 79 33
REMARK SMILES IDX 50 34 51 35 62 37 80 38 53 39 40 40 41 41 46 42 42 43 43 44
REMARK SMILES IDX 45 45 47 46 44 47 66 48 67 49 72 50 68 51 69 52 71 53 73 54
REMARK SMILES IDX 70 55 54 56 55 57 60 58 56 59 57 60 59 61 61 62 58 63 8 64
REMARK SMILES IDX 9 65 10 66 11 67 12 68 13 69 14 70 15 71 16 72 24 73 17 74
REMARK SMILES IDX 23 75 18 76 22 77 19 78 21 79 20 80 25 81 26 82 27 83 28 85
REMARK SMILES IDX 29 86 30 87
REMARK H PARENT 78 25 52 36 27 84
REMARK Flexibility Score: inf
ROOT
ATOM      1  C   UNL A   1      35.389  20.253  25.079  1.00  0.00     0.188 C 
ENDROOT
BRANCH   1   2
ATOM      2  O   UNL A   1      36.693  20.815  24.869  1.00  0.00    -0.376 OA
BRANCH   2   3
ATOM      3  C   UNL A   1      37.750  19.845  24.875  1.00  0.00     0.202 C 
BRANCH   3   4
ATOM      4  C   UNL A   1      39.010  20.233  25.663  1.00  0.00     0.261 C 
BRANCH   4   5
ATOM      5  O   UNL A   1      40.010  19.207  25.702  1.00  0.00    -0.460 OA
BRANCH   5   6
ATOM      6  C   UNL A   1      41.327  19.309  26.003  1.00  0.00     0.338 C 
ATOM      7  O   UNL A   1      42.011  18.289  25.926  1.00  0.00    -0.246 OA
BRANCH   6   8
ATOM      8  C   UNL A   1      42.014  20.576  26.415  1.00  0.00     0.060 A 
ATOM      9  C   UNL A   1      42.068  21.117  27.702  1.00  0.00     0.016 A 
ATOM     10  C   UNL A   1      42.677  21.276  25.391  1.00  0.00     0.016 A 
ATOM     11  C   UNL A   1      42.655  22.354  27.959  1.00  0.00     0.010 A 
ATOM     12  C   UNL A   1      43.291  22.506  25.640  1.00  0.00     0.010 A 
ATOM     13  C   UNL A   1      43.230  23.074  26.921  1.00  0.00    -0.014 A 
BRANCH  13  14
ATOM     14  C   UNL A   1      43.535  24.505  27.102  1.00  0.00     0.031 A 
ATOM     15  C   UNL A   1      44.978  24.890  27.124  1.00  0.00     0.074 A 
ATOM     16  C   UNL A   1      42.585  25.452  27.164  1.00  0.00     0.049 A 
ATOM     17  N   UNL A   1      45.518  26.044  27.396  1.00  0.00    -0.248 NA
ATOM     18  C   UNL A   1      45.938  23.846  26.723  1.00  0.00     0.031 C 
ATOM     19  C   UNL A   1      41.173  25.256  26.878  1.00  0.00     0.029 A 
ATOM     20  N   UNL A   1      42.659  26.767  27.544  1.00  0.00    -0.354 N 
ATOM     21  C   UNL A   1      46.871  25.879  27.155  1.00  0.00     0.074 A 
ATOM     22  C   UNL A   1      47.086  24.497  26.792  1.00  0.00     0.031 C 
ATOM     23  C   UNL A   1      40.485  26.347  27.252  1.00  0.00     0.029 A 
ATOM     24  C   UNL A   1      41.419  27.306  27.803  1.00  0.00     0.049 A 
ATOM     25  H   UNL A   1      43.503  27.268  27.622  1.00  0.00     0.167 HD
ATOM     26  C   UNL A   1      47.837  26.822  27.199  1.00  0.00     0.037 A 
ATOM     27  C   UNL A   1      41.086  28.421  28.474  1.00  0.00     0.037 A 
ATOM     28  C   UNL A   1      47.584  28.178  27.601  1.00  0.00     0.049 A 
ATOM     29  C   UNL A   1      42.189  29.360  28.827  1.00  0.00     0.074 A 
ATOM     30  C   UNL A   1      48.470  29.230  27.711  1.00  0.00     0.029 A 
ATOM     31  N   UNL A   1      46.336  28.656  27.989  1.00  0.00    -0.354 N 
ATOM     32  N   UNL A   1      43.475  29.208  28.633  1.00  0.00    -0.248 NA
ATOM     33  C   UNL A   1      41.799  30.650  29.400  1.00  0.00     0.031 C 
ATOM     34  C   UNL A   1      47.773  30.325  28.236  1.00  0.00     0.029 A 
ATOM     35  C   UNL A   1      46.439  29.976  28.392  1.00  0.00     0.049 A 
ATOM     36  H   UNL A   1      45.503  28.132  27.980  1.00  0.00     0.167 HD
ATOM     37  C   UNL A   1      44.052  30.413  28.983  1.00  0.00     0.074 A 
ATOM     38  C   UNL A   1      42.973  31.268  29.448  1.00  0.00     0.031 C 
ATOM     39  C   UNL A   1      45.350  30.792  28.874  1.00  0.00     0.037 A 
BRANCH  26  40
ATOM     40  C   UNL A   1      49.226  26.370  26.867  1.00  0.00     0.057 A 
ATOM     41  C   UNL A   1      50.091  25.840  27.836  1.00  0.00     0.134 A 
ATOM     42  C   UNL A   1      49.734  26.549  25.576  1.00  0.00     0.134 A 
ATOM     43  F   UNL A   1      49.678  25.677  29.103  1.00  0.00    -0.206 F 
ATOM     44  C   UNL A   1      51.424  25.543  27.540  1.00  0.00     0.040 A 
ATOM     45  C   UNL A   1      51.056  26.230  25.262  1.00  0.00     0.040 A 
ATOM     46  F   UNL A   1      48.964  27.066  24.607  1.00  0.00    -0.206 F 
ATOM     47  C   UNL A   1      51.909  25.738  26.248  1.00  0.00     0.006 A 
ENDBRANCH  26  40
BRANCH  27  48
ATOM     48  C   UNL A   1      39.681  28.665  28.871  1.00  0.00     0.057 A 
ATOM     49  C   UNL A   1      39.197  28.342  30.141  1.00  0.00     0.134 A 
ATOM     50  C   UNL A   1      38.793  29.275  27.976  1.00  0.00     0.134 A 
ATOM     51  F   UNL A   1      39.996  27.738  31.032  1.00  0.00    -0.206 F 
ATOM     52  C   UNL A   1      37.880  28.628  30.513  1.00  0.00     0.040 A 
ATOM     53  C   UNL A   1      37.478  29.578  28.338  1.00  0.00     0.040 A 
ATOM     54  F   UNL A   1      39.196  29.594  26.737  1.00  0.00    -0.206 F 
ATOM     55  C   UNL A   1      37.020  29.256  29.613  1.00  0.00     0.006 A 
ENDBRANCH  27  48
BRANCH  39  56
ATOM     56  C   UNL A   1      45.655  32.212  29.221  1.00  0.00     0.057 A 
ATOM     57  C   UNL A   1      46.179  32.574  30.465  1.00  0.00     0.134 A 
ATOM     58  C   UNL A   1      45.448  33.225  28.275  1.00  0.00     0.134 A 
ATOM     59  F   UNL A   1      46.374  31.649  31.418  1.00  0.00    -0.206 F 
ATOM     60  C   UNL A   1      46.475  33.903  30.765  1.00  0.00     0.040 A 
ATOM     61  C   UNL A   1      45.769  34.550  28.551  1.00  0.00     0.040 A 
ATOM     62  F   UNL A   1      44.946  32.935  27.065  1.00  0.00    -0.206 F 
ATOM     63  C   UNL A   1      46.279  34.893  29.802  1.00  0.00     0.006 A 
ENDBRANCH  39  56
ENDBRANCH  13  14
ENDBRANCH   6   8
ENDBRANCH   5   6
ENDBRANCH   4   5
ENDBRANCH   3   4
ENDBRANCH   2   3
ENDBRANCH   1   2
BRANCH   1  64
ATOM     64  C   UNL A   1      34.239  21.086  24.508  1.00  0.00     0.188 C 
BRANCH  64  65
ATOM     65  O   UNL A   1      33.021  20.406  24.244  1.00  0.00    -0.376 OA
BRANCH  65  66
ATOM     66  C   UNL A   1      32.272  20.867  23.138  1.00  0.00     0.202 C 
BRANCH  66  67
ATOM     67  C   UNL A   1      32.365  22.343  22.749  1.00  0.00     0.261 C 
BRANCH  67  68
ATOM     68  O   UNL A   1      31.327  23.271  23.126  1.00  0.00    -0.462 OA
BRANCH  68  69
ATOM     69  C   UNL A   1      31.264  23.602  24.457  1.00  0.00     0.329 C 
ATOM     70  O   UNL A   1      30.677  22.936  25.297  1.00  0.00    -0.250 OA
BRANCH  69  71
ATOM     71  C   UNL A   1      31.990  24.924  24.791  1.00  0.00     0.197 C 
ATOM     72  C   UNL A   1      33.516  24.822  24.945  1.00  0.00     0.038 C 
ATOM     73  N   UNL A   1      31.595  26.266  24.231  1.00  0.00    -0.308 N 
ATOM     74  C   UNL A   1      34.056  26.007  25.768  1.00  0.00     0.008 C 
ATOM     75  C   UNL A   1      32.074  27.416  25.068  1.00  0.00     0.091 C 
ATOM     76  C   UNL A   1      33.599  27.343  25.168  1.00  0.00     0.012 C 
ATOM     77  C   UNL A   1      31.384  27.574  26.429  1.00  0.00     0.025 C 
ATOM     78  C   UNL A   1      34.140  28.565  25.904  1.00  0.00     0.006 C 
ATOM     79  C   UNL A   1      32.073  28.551  27.399  1.00  0.00     0.002 C 
ATOM     80  C   UNL A   1      33.594  28.678  27.315  1.00  0.00     0.000 C 
BRANCH  73  81
ATOM     81  C   UNL A   1      31.268  26.638  22.948  1.00  0.00     0.318 C 
ATOM     82  O   UNL A   1      31.856  26.164  21.963  1.00  0.00    -0.249 OA
ATOM     83  N   UNL A   1      30.339  27.531  22.579  1.00  0.00    -0.335 N 
ATOM     84  H   UNL A   1      30.352  27.665  21.603  1.00  0.00     0.165 HD
BRANCH  83  85
ATOM     85  C   UNL A   1      29.352  28.333  23.179  1.00  0.00     0.084 C 
ATOM     86  C   UNL A   1      29.590  29.810  23.399  1.00  0.00     0.027 C 
ATOM     87  C   UNL A   1      28.652  29.365  22.328  1.00  0.00     0.027 C 
ENDBRANCH  83  85
ENDBRANCH  73  81
ENDBRANCH  69  71
ENDBRANCH  68  69
ENDBRANCH  67  68
ENDBRANCH  66  67
ENDBRANCH  65  66
ENDBRANCH  64  65
ENDBRANCH   1  64
TORSDOF 19
ENDMDL
