MODEL 1
REMARK VINA RESULT:     -10.8      0.000      0.000
REMARK SMILES O=C(OCCOCCOCCOC(=O)c1ccc(C[NH2+][C@@H]2CCCc3sccc32)nc1)c1ccc(-c2c3nc(c(-c4c(F)cccc4F)c4ccc([nH]4)c(-c4c(F)cccc4F)c4nc(c(-c5c(F)cccc5F)c5ccc2[nH]5)C=C4)C=C3)cc1
REMARK SMILES IDX 8 1 7 2 6 3 5 4 4 5 3 6 2 7 1 8 32 9 33 10 85 11 34 12 84 13
REMARK SMILES IDX 35 14 36 15 37 16 78 17 38 18 83 19 77 20 79 21 39 22 82 23
REMARK SMILES IDX 76 24 75 25 40 27 66 28 49 29 65 30 50 31 53 32 64 33 80 34
REMARK SMILES IDX 51 35 52 36 63 38 81 39 54 40 41 41 42 42 47 43 43 44 44 45
REMARK SMILES IDX 46 46 48 47 45 48 67 49 68 50 73 51 69 52 70 53 72 54 74 55
REMARK SMILES IDX 71 56 55 57 56 58 61 59 57 60 58 61 60 62 62 63 59 64 9 65
REMARK SMILES IDX 10 66 11 67 12 68 13 69 14 70 15 71 16 72 31 73 17 74 30 75
REMARK SMILES IDX 18 76 19 77 20 78 21 81 22 82 29 83 23 84 25 85 28 86 24 87
REMARK SMILES IDX 26 88 27 89
REMARK H PARENT 79 26 53 37 20 79 20 80
REMARK Flexibility Score: inf
ROOT
ATOM      1  C   UNL A   1      42.131  19.379  26.215  1.00  0.00     0.188 C 
ENDROOT
BRANCH   1   2
ATOM      2  C   UNL A   1      43.429  19.010  25.488  1.00  0.00     0.188 C 
BRANCH   2   3
ATOM      3  O   UNL A   1      43.997  20.140  24.808  1.00  0.00    -0.376 OA
BRANCH   3   4
ATOM      4  C   UNL A   1      45.331  20.448  25.234  1.00  0.00     0.202 C 
BRANCH   4   5
ATOM      5  C   UNL A   1      45.627  21.947  25.366  1.00  0.00     0.261 C 
BRANCH   5   6
ATOM      6  O   UNL A   1      44.648  22.623  26.167  1.00  0.00    -0.460 OA
BRANCH   6   7
ATOM      7  C   UNL A   1      43.699  23.504  25.766  1.00  0.00     0.338 C 
ATOM      8  O   UNL A   1      43.209  23.355  24.647  1.00  0.00    -0.246 OA
BRANCH   7   9
ATOM      9  C   UNL A   1      43.176  24.628  26.612  1.00  0.00     0.060 A 
ATOM     10  C   UNL A   1      43.660  25.938  26.627  1.00  0.00     0.016 A 
ATOM     11  C   UNL A   1      42.075  24.333  27.436  1.00  0.00     0.016 A 
ATOM     12  C   UNL A   1      43.164  26.888  27.517  1.00  0.00     0.010 A 
ATOM     13  C   UNL A   1      41.533  25.296  28.295  1.00  0.00     0.010 A 
ATOM     14  C   UNL A   1      42.113  26.566  28.371  1.00  0.00    -0.014 A 
BRANCH  14  15
ATOM     15  C   UNL A   1      41.728  27.513  29.435  1.00  0.00     0.031 A 
ATOM     16  C   UNL A   1      42.493  27.487  30.721  1.00  0.00     0.074 A 
ATOM     17  C   UNL A   1      40.770  28.431  29.228  1.00  0.00     0.049 A 
ATOM     18  N   UNL A   1      42.285  28.158  31.822  1.00  0.00    -0.248 NA
ATOM     19  C   UNL A   1      43.670  26.604  30.761  1.00  0.00     0.031 C 
ATOM     20  C   UNL A   1      40.065  28.637  27.968  1.00  0.00     0.029 A 
ATOM     21  N   UNL A   1      40.221  29.357  30.076  1.00  0.00    -0.354 N 
ATOM     22  C   UNL A   1      43.299  27.775  32.686  1.00  0.00     0.074 A 
ATOM     23  C   UNL A   1      44.108  26.796  31.995  1.00  0.00     0.031 C 
ATOM     24  C   UNL A   1      39.139  29.594  28.136  1.00  0.00     0.029 A 
ATOM     25  C   UNL A   1      39.156  30.025  29.526  1.00  0.00     0.049 A 
ATOM     26  H   UNL A   1      40.555  29.525  30.987  1.00  0.00     0.167 HD
ATOM     27  C   UNL A   1      43.534  28.209  33.946  1.00  0.00     0.037 A 
ATOM     28  C   UNL A   1      38.260  30.849  30.098  1.00  0.00     0.037 A 
ATOM     29  C   UNL A   1      42.705  29.169  34.622  1.00  0.00     0.049 A 
ATOM     30  C   UNL A   1      38.439  31.208  31.541  1.00  0.00     0.074 A 
ATOM     31  C   UNL A   1      42.822  29.664  35.907  1.00  0.00     0.029 A 
ATOM     32  N   UNL A   1      41.588  29.771  34.057  1.00  0.00    -0.354 N 
ATOM     33  N   UNL A   1      39.373  30.814  32.371  1.00  0.00    -0.248 NA
ATOM     34  C   UNL A   1      37.455  32.126  32.124  1.00  0.00     0.031 C 
ATOM     35  C   UNL A   1      41.748  30.533  36.134  1.00  0.00     0.029 A 
ATOM     36  C   UNL A   1      40.987  30.612  34.977  1.00  0.00     0.049 A 
ATOM     37  H   UNL A   1      41.270  29.622  33.137  1.00  0.00     0.167 HD
ATOM     38  C   UNL A   1      39.110  31.455  33.572  1.00  0.00     0.074 A 
ATOM     39  C   UNL A   1      37.920  32.259  33.361  1.00  0.00     0.031 C 
ATOM     40  C   UNL A   1      39.800  31.395  34.736  1.00  0.00     0.037 A 
BRANCH  27  41
ATOM     41  C   UNL A   1      44.691  27.585  34.663  1.00  0.00     0.057 A 
ATOM     42  C   UNL A   1      45.983  28.126  34.605  1.00  0.00     0.134 A 
ATOM     43  C   UNL A   1      44.524  26.384  35.363  1.00  0.00     0.134 A 
ATOM     44  F   UNL A   1      46.215  29.258  33.924  1.00  0.00    -0.206 F 
ATOM     45  C   UNL A   1      47.073  27.474  35.185  1.00  0.00     0.040 A 
ATOM     46  C   UNL A   1      45.602  25.734  35.967  1.00  0.00     0.040 A 
ATOM     47  F   UNL A   1      43.315  25.810  35.450  1.00  0.00    -0.206 F 
ATOM     48  C   UNL A   1      46.883  26.274  35.868  1.00  0.00     0.006 A 
ENDBRANCH  27  41
BRANCH  28  49
ATOM     49  C   UNL A   1      37.094  31.315  29.309  1.00  0.00     0.057 A 
ATOM     50  C   UNL A   1      37.050  32.590  28.743  1.00  0.00     0.134 A 
ATOM     51  C   UNL A   1      36.015  30.455  29.060  1.00  0.00     0.134 A 
ATOM     52  F   UNL A   1      38.047  33.460  28.958  1.00  0.00    -0.206 F 
ATOM     53  C   UNL A   1      35.973  32.997  27.950  1.00  0.00     0.040 A 
ATOM     54  C   UNL A   1      34.941  30.843  28.258  1.00  0.00     0.040 A 
ATOM     55  F   UNL A   1      36.003  29.217  29.572  1.00  0.00    -0.206 F 
ATOM     56  C   UNL A   1      34.920  32.118  27.699  1.00  0.00     0.006 A 
ENDBRANCH  28  49
BRANCH  40  57
ATOM     57  C   UNL A   1      39.299  32.242  35.863  1.00  0.00     0.057 A 
ATOM     58  C   UNL A   1      39.717  33.566  36.029  1.00  0.00     0.134 A 
ATOM     59  C   UNL A   1      38.339  31.742  36.751  1.00  0.00     0.134 A 
ATOM     60  F   UNL A   1      40.648  34.092  35.218  1.00  0.00    -0.206 F 
ATOM     61  C   UNL A   1      39.199  34.367  37.047  1.00  0.00     0.040 A 
ATOM     62  C   UNL A   1      37.799  32.538  37.759  1.00  0.00     0.040 A 
ATOM     63  F   UNL A   1      37.898  30.480  36.638  1.00  0.00    -0.206 F 
ATOM     64  C   UNL A   1      38.230  33.855  37.909  1.00  0.00     0.006 A 
ENDBRANCH  40  57
ENDBRANCH  14  15
ENDBRANCH   7   9
ENDBRANCH   6   7
ENDBRANCH   5   6
ENDBRANCH   4   5
ENDBRANCH   3   4
ENDBRANCH   2   3
ENDBRANCH   1   2
BRANCH   1  65
ATOM     65  O   UNL A   1      41.655  20.708  25.992  1.00  0.00    -0.376 OA
BRANCH  65  66
ATOM     66  C   UNL A   1      40.461  21.087  26.671  1.00  0.00     0.202 C 
BRANCH  66  67
ATOM     67  C   UNL A   1      39.476  21.963  25.890  1.00  0.00     0.261 C 
BRANCH  67  68
ATOM     68  O   UNL A   1      38.087  21.664  26.132  1.00  0.00    -0.460 OA
BRANCH  68  69
ATOM     69  C   UNL A   1      37.482  20.958  25.148  1.00  0.00     0.339 C 
ATOM     70  O   UNL A   1      37.872  19.904  24.656  1.00  0.00    -0.246 OA
BRANCH  69  71
ATOM     71  C   UNL A   1      36.314  21.660  24.601  1.00  0.00     0.078 A 
ATOM     72  C   UNL A   1      36.528  22.649  23.641  1.00  0.00     0.019 A 
ATOM     73  C   UNL A   1      35.006  21.344  24.929  1.00  0.00     0.127 A 
ATOM     74  C   UNL A   1      35.439  23.277  23.044  1.00  0.00     0.031 A 
ATOM     75  N   UNL A   1      33.926  21.948  24.367  1.00  0.00    -0.254 NA
ATOM     76  C   UNL A   1      34.150  22.910  23.431  1.00  0.00     0.094 A 
BRANCH  76  77
ATOM     77  C   UNL A   1      32.951  23.639  22.840  1.00  0.00     0.318 C 
BRANCH  77  78
ATOM     78  N   UNL A   1      32.208  24.430  23.827  1.00  0.00    -0.335 N 
ATOM     79  H   UNL A   1      32.147  23.897  24.696  1.00  0.00     0.347 HD
ATOM     80  H   UNL A   1      31.282  24.621  23.444  1.00  0.00     0.347 HD
BRANCH  78  81
ATOM     81  C   UNL A   1      32.855  25.718  24.107  1.00  0.00     0.215 C 
ATOM     82  C   UNL A   1      33.309  25.838  25.585  1.00  0.00     0.071 C 
ATOM     83  C   UNL A   1      31.905  26.843  23.741  1.00  0.00     0.023 A 
ATOM     84  C   UNL A   1      33.705  27.277  25.944  1.00  0.00     0.012 C 
ATOM     85  C   UNL A   1      31.793  27.985  24.518  1.00  0.00     0.014 A 
ATOM     86  C   UNL A   1      31.078  26.951  22.573  1.00  0.00     0.022 A 
ATOM     87  C   UNL A   1      32.516  28.237  25.805  1.00  0.00     0.047 C 
ATOM     88  S   UNL A   1      30.693  29.122  23.886  1.00  0.00    -0.148 S 
ATOM     89  C   UNL A   1      30.362  28.126  22.538  1.00  0.00     0.065 A 
ENDBRANCH  78  81
ENDBRANCH  77  78
ENDBRANCH  76  77
ENDBRANCH  69  71
ENDBRANCH  68  69
ENDBRANCH  67  68
ENDBRANCH  66  67
ENDBRANCH  65  66
ENDBRANCH   1  65
TORSDOF 20
ENDMDL
MODEL 2
REMARK VINA RESULT:     -10.4      3.578      9.183
REMARK SMILES O=C(OCCOCCOCCOC(=O)c1ccc(C[NH2+][C@@H]2CCCc3sccc32)nc1)c1ccc(-c2c3nc(c(-c4c(F)cccc4F)c4ccc([nH]4)c(-c4c(F)cccc4F)c4nc(c(-c5c(F)cccc5F)c5ccc2[nH]5)C=C4)C=C3)cc1
REMARK SMILES IDX 8 1 7 2 6 3 5 4 4 5 3 6 2 7 1 8 32 9 33 10 85 11 34 12 84 13
REMARK SMILES IDX 35 14 36 15 37 16 78 17 38 18 83 19 77 20 79 21 39 22 82 23
REMARK SMILES IDX 76 24 75 25 40 27 66 28 49 29 65 30 50 31 53 32 64 33 80 34
REMARK SMILES IDX 51 35 52 36 63 38 81 39 54 40 41 41 42 42 47 43 43 44 44 45
REMARK SMILES IDX 46 46 48 47 45 48 67 49 68 50 73 51 69 52 70 53 72 54 74 55
REMARK SMILES IDX 71 56 55 57 56 58 61 59 57 60 58 61 60 62 62 63 59 64 9 65
REMARK SMILES IDX 10 66 11 67 12 68 13 69 14 70 15 71 16 72 31 73 17 74 30 75
REMARK SMILES IDX 18 76 19 77 20 78 21 81 22 82 29 83 23 84 25 85 28 86 24 87
REMARK SMILES IDX 26 88 27 89
REMARK H PARENT 79 26 53 37 20 79 20 80
REMARK Flexibility Score: inf
ROOT
ATOM      1  C   UNL A   1      31.974  28.005  25.411  1.00  0.00     0.188 C 
ENDROOT
BRANCH   1   2
ATOM      2  C   UNL A   1      32.339  28.515  26.810  1.00  0.00     0.188 C 
BRANCH   2   3
ATOM      3  O   UNL A   1      31.726  29.782  27.090  1.00  0.00    -0.376 OA
BRANCH   3   4
ATOM      4  C   UNL A   1      32.164  30.832  26.216  1.00  0.00     0.202 C 
BRANCH   4   5
ATOM      5  C   UNL A   1      31.453  32.174  26.426  1.00  0.00     0.261 C 
BRANCH   5   6
ATOM      6  O   UNL A   1      31.914  32.852  27.603  1.00  0.00    -0.460 OA
BRANCH   6   7
ATOM      7  C   UNL A   1      33.107  33.463  27.807  1.00  0.00     0.338 C 
ATOM      8  O   UNL A   1      33.182  34.671  27.587  1.00  0.00    -0.246 OA
BRANCH   7   9
ATOM      9  C   UNL A   1      34.334  32.770  28.322  1.00  0.00     0.060 A 
ATOM     10  C   UNL A   1      34.420  31.431  28.711  1.00  0.00     0.016 A 
ATOM     11  C   UNL A   1      35.510  33.539  28.381  1.00  0.00     0.016 A 
ATOM     12  C   UNL A   1      35.586  30.904  29.261  1.00  0.00     0.010 A 
ATOM     13  C   UNL A   1      36.702  33.005  28.882  1.00  0.00     0.010 A 
ATOM     14  C   UNL A   1      36.726  31.695  29.371  1.00  0.00    -0.014 A 
BRANCH  14  15
ATOM     15  C   UNL A   1      37.888  31.188  30.128  1.00  0.00     0.031 A 
ATOM     16  C   UNL A   1      38.810  30.222  29.453  1.00  0.00     0.074 A 
ATOM     17  C   UNL A   1      38.159  31.644  31.362  1.00  0.00     0.049 A 
ATOM     18  N   UNL A   1      39.838  29.580  29.940  1.00  0.00    -0.248 NA
ATOM     19  C   UNL A   1      38.554  29.965  28.026  1.00  0.00     0.031 C 
ATOM     20  C   UNL A   1      37.411  32.688  32.052  1.00  0.00     0.029 A 
ATOM     21  N   UNL A   1      39.133  31.281  32.255  1.00  0.00    -0.354 N 
ATOM     22  C   UNL A   1      40.347  28.840  28.884  1.00  0.00     0.074 A 
ATOM     23  C   UNL A   1      39.504  29.092  27.736  1.00  0.00     0.031 C 
ATOM     24  C   UNL A   1      37.921  32.850  33.283  1.00  0.00     0.029 A 
ATOM     25  C   UNL A   1      38.993  31.885  33.479  1.00  0.00     0.049 A 
ATOM     26  H   UNL A   1      39.858  30.651  32.040  1.00  0.00     0.167 HD
ATOM     27  C   UNL A   1      41.428  28.027  28.876  1.00  0.00     0.037 A 
ATOM     28  C   UNL A   1      39.622  31.643  34.643  1.00  0.00     0.037 A 
ATOM     29  C   UNL A   1      42.241  27.776  30.034  1.00  0.00     0.049 A 
ATOM     30  C   UNL A   1      40.722  30.626  34.662  1.00  0.00     0.074 A 
ATOM     31  C   UNL A   1      43.342  26.950  30.159  1.00  0.00     0.029 A 
ATOM     32  N   UNL A   1      42.023  28.351  31.280  1.00  0.00    -0.354 N 
ATOM     33  N   UNL A   1      41.177  29.896  33.674  1.00  0.00    -0.248 NA
ATOM     34  C   UNL A   1      41.400  30.406  35.944  1.00  0.00     0.031 C 
ATOM     35  C   UNL A   1      43.763  26.991  31.493  1.00  0.00     0.029 A 
ATOM     36  C   UNL A   1      42.951  27.875  32.189  1.00  0.00     0.049 A 
ATOM     37  H   UNL A   1      41.313  29.001  31.486  1.00  0.00     0.167 HD
ATOM     38  C   UNL A   1      42.215  29.145  34.203  1.00  0.00     0.074 A 
ATOM     39  C   UNL A   1      42.315  29.505  35.605  1.00  0.00     0.031 C 
ATOM     40  C   UNL A   1      43.020  28.251  33.580  1.00  0.00     0.037 A 
BRANCH  27  41
ATOM     41  C   UNL A   1      41.722  27.320  27.589  1.00  0.00     0.057 A 
ATOM     42  C   UNL A   1      42.677  27.795  26.679  1.00  0.00     0.134 A 
ATOM     43  C   UNL A   1      40.989  26.185  27.222  1.00  0.00     0.134 A 
ATOM     44  F   UNL A   1      43.391  28.896  26.958  1.00  0.00    -0.206 F 
ATOM     45  C   UNL A   1      42.862  27.190  25.434  1.00  0.00     0.040 A 
ATOM     46  C   UNL A   1      41.181  25.557  25.991  1.00  0.00     0.040 A 
ATOM     47  F   UNL A   1      40.055  25.684  28.045  1.00  0.00    -0.206 F 
ATOM     48  C   UNL A   1      42.112  26.068  25.088  1.00  0.00     0.006 A 
ENDBRANCH  27  41
BRANCH  28  49
ATOM     49  C   UNL A   1      39.164  32.331  35.873  1.00  0.00     0.057 A 
ATOM     50  C   UNL A   1      39.570  33.630  36.185  1.00  0.00     0.134 A 
ATOM     51  C   UNL A   1      38.254  31.709  36.739  1.00  0.00     0.134 A 
ATOM     52  F   UNL A   1      40.448  34.270  35.401  1.00  0.00    -0.206 F 
ATOM     53  C   UNL A   1      39.083  34.292  37.316  1.00  0.00     0.040 A 
ATOM     54  C   UNL A   1      37.748  32.364  37.863  1.00  0.00     0.040 A 
ATOM     55  F   UNL A   1      37.824  30.464  36.490  1.00  0.00    -0.206 F 
ATOM     56  C   UNL A   1      38.163  33.661  38.153  1.00  0.00     0.006 A 
ENDBRANCH  28  49
BRANCH  40  57
ATOM     57  C   UNL A   1      44.097  27.621  34.407  1.00  0.00     0.057 A 
ATOM     58  C   UNL A   1      43.878  26.438  35.121  1.00  0.00     0.134 A 
ATOM     59  C   UNL A   1      45.382  28.174  34.432  1.00  0.00     0.134 A 
ATOM     60  F   UNL A   1      42.661  25.874  35.146  1.00  0.00    -0.206 F 
ATOM     61  C   UNL A   1      44.905  25.826  35.840  1.00  0.00     0.040 A 
ATOM     62  C   UNL A   1      46.421  27.561  35.130  1.00  0.00     0.040 A 
ATOM     63  F   UNL A   1      45.651  29.305  33.763  1.00  0.00    -0.206 F 
ATOM     64  C   UNL A   1      46.184  26.384  35.837  1.00  0.00     0.006 A 
ENDBRANCH  40  57
ENDBRANCH  14  15
ENDBRANCH   7   9
ENDBRANCH   6   7
ENDBRANCH   5   6
ENDBRANCH   4   5
ENDBRANCH   3   4
ENDBRANCH   2   3
ENDBRANCH   1   2
BRANCH   1  65
ATOM     65  O   UNL A   1      31.579  26.633  25.337  1.00  0.00    -0.376 OA
BRANCH  65  66
ATOM     66  C   UNL A   1      32.538  25.663  25.745  1.00  0.00     0.202 C 
BRANCH  66  67
ATOM     67  C   UNL A   1      32.652  24.404  24.880  1.00  0.00     0.261 C 
BRANCH  67  68
ATOM     68  O   UNL A   1      33.793  23.575  25.177  1.00  0.00    -0.460 OA
BRANCH  68  69
ATOM     69  C   UNL A   1      34.850  23.752  24.349  1.00  0.00     0.339 C 
ATOM     70  O   UNL A   1      34.826  24.244  23.225  1.00  0.00    -0.246 OA
BRANCH  69  71
ATOM     71  C   UNL A   1      36.082  23.165  24.890  1.00  0.00     0.078 A 
ATOM     72  C   UNL A   1      36.411  21.862  24.516  1.00  0.00     0.019 A 
ATOM     73  C   UNL A   1      36.974  23.856  25.691  1.00  0.00     0.127 A 
ATOM     74  C   UNL A   1      37.611  21.304  24.946  1.00  0.00     0.031 A 
ATOM     75  N   UNL A   1      38.148  23.331  26.132  1.00  0.00    -0.254 NA
ATOM     76  C   UNL A   1      38.457  22.060  25.757  1.00  0.00     0.094 A 
BRANCH  76  77
ATOM     77  C   UNL A   1      39.739  21.438  26.295  1.00  0.00     0.318 C 
BRANCH  77  78
ATOM     78  N   UNL A   1      40.955  22.069  25.772  1.00  0.00    -0.335 N 
ATOM     79  H   UNL A   1      40.753  23.048  25.562  1.00  0.00     0.347 HD
ATOM     80  H   UNL A   1      41.237  21.561  24.934  1.00  0.00     0.347 HD
BRANCH  78  81
ATOM     81  C   UNL A   1      42.066  22.012  26.730  1.00  0.00     0.215 C 
ATOM     82  C   UNL A   1      41.680  22.596  28.114  1.00  0.00     0.071 C 
ATOM     83  C   UNL A   1      43.263  22.743  26.151  1.00  0.00     0.023 A 
ATOM     84  C   UNL A   1      42.911  22.809  29.006  1.00  0.00     0.012 C 
ATOM     85  C   UNL A   1      44.081  23.539  26.936  1.00  0.00     0.014 A 
ATOM     86  C   UNL A   1      43.766  22.681  24.808  1.00  0.00     0.022 A 
ATOM     87  C   UNL A   1      43.878  23.828  28.391  1.00  0.00     0.047 C 
ATOM     88  S   UNL A   1      45.379  24.225  26.072  1.00  0.00    -0.148 S 
ATOM     89  C   UNL A   1      44.896  23.448  24.630  1.00  0.00     0.065 A 
ENDBRANCH  78  81
ENDBRANCH  77  78
ENDBRANCH  76  77
ENDBRANCH  69  71
ENDBRANCH  68  69
ENDBRANCH  67  68
ENDBRANCH  66  67
ENDBRANCH  65  66
ENDBRANCH   1  65
TORSDOF 20
ENDMDL
MODEL 3
REMARK VINA RESULT:     -10.3      1.161      2.041
REMARK SMILES O=C(OCCOCCOCCOC(=O)c1ccc(C[NH2+][C@@H]2CCCc3sccc32)nc1)c1ccc(-c2c3nc(c(-c4c(F)cccc4F)c4ccc([nH]4)c(-c4c(F)cccc4F)c4nc(c(-c5c(F)cccc5F)c5ccc2[nH]5)C=C4)C=C3)cc1
REMARK SMILES IDX 8 1 7 2 6 3 5 4 4 5 3 6 2 7 1 8 32 9 33 10 85 11 34 12 84 13
REMARK SMILES IDX 35 14 36 15 37 16 78 17 38 18 83 19 77 20 79 21 39 22 82 23
REMARK SMILES IDX 76 24 75 25 40 27 66 28 49 29 65 30 50 31 53 32 64 33 80 34
REMARK SMILES IDX 51 35 52 36 63 38 81 39 54 40 41 41 42 42 47 43 43 44 44 45
REMARK SMILES IDX 46 46 48 47 45 48 67 49 68 50 73 51 69 52 70 53 72 54 74 55
REMARK SMILES IDX 71 56 55 57 56 58 61 59 57 60 58 61 60 62 62 63 59 64 9 65
REMARK SMILES IDX 10 66 11 67 12 68 13 69 14 70 15 71 16 72 31 73 17 74 30 75
REMARK SMILES IDX 18 76 19 77 20 78 21 81 22 82 29 83 23 84 25 85 28 86 24 87
REMARK SMILES IDX 26 88 27 89
REMARK H PARENT 79 26 53 37 20 79 20 80
REMARK Flexibility Score: inf
ROOT
ATOM      1  C   UNL A   1      41.053  19.945  26.648  1.00  0.00     0.188 C 
ENDROOT
BRANCH   1   2
ATOM      2  C   UNL A   1      42.396  19.302  26.284  1.00  0.00     0.188 C 
BRANCH   2   3
ATOM      3  O   UNL A   1      43.098  20.064  25.291  1.00  0.00    -0.376 OA
BRANCH   3   4
ATOM      4  C   UNL A   1      44.474  20.299  25.621  1.00  0.00     0.202 C 
BRANCH   4   5
ATOM      5  C   UNL A   1      45.041  21.620  25.088  1.00  0.00     0.261 C 
BRANCH   5   6
ATOM      6  O   UNL A   1      44.550  22.753  25.818  1.00  0.00    -0.460 OA
BRANCH   6   7
ATOM      7  C   UNL A   1      43.430  23.481  25.586  1.00  0.00     0.338 C 
ATOM      8  O   UNL A   1      42.724  23.164  24.629  1.00  0.00    -0.246 OA
BRANCH   7   9
ATOM      9  C   UNL A   1      42.972  24.625  26.441  1.00  0.00     0.060 A 
ATOM     10  C   UNL A   1      43.653  25.831  26.634  1.00  0.00     0.016 A 
ATOM     11  C   UNL A   1      41.726  24.475  27.076  1.00  0.00     0.016 A 
ATOM     12  C   UNL A   1      43.187  26.797  27.522  1.00  0.00     0.010 A 
ATOM     13  C   UNL A   1      41.222  25.464  27.928  1.00  0.00     0.010 A 
ATOM     14  C   UNL A   1      41.980  26.610  28.190  1.00  0.00    -0.014 A 
BRANCH  14  15
ATOM     15  C   UNL A   1      41.596  27.544  29.266  1.00  0.00     0.031 A 
ATOM     16  C   UNL A   1      42.345  27.487  30.560  1.00  0.00     0.074 A 
ATOM     17  C   UNL A   1      40.652  28.478  29.063  1.00  0.00     0.049 A 
ATOM     18  N   UNL A   1      42.133  28.142  31.669  1.00  0.00    -0.248 NA
ATOM     19  C   UNL A   1      43.510  26.587  30.598  1.00  0.00     0.031 C 
ATOM     20  C   UNL A   1      39.965  28.714  27.799  1.00  0.00     0.029 A 
ATOM     21  N   UNL A   1      40.105  29.397  29.920  1.00  0.00    -0.354 N 
ATOM     22  C   UNL A   1      43.132  27.732  32.538  1.00  0.00     0.074 A 
ATOM     23  C   UNL A   1      43.936  26.754  31.839  1.00  0.00     0.031 C 
ATOM     24  C   UNL A   1      39.049  29.680  27.972  1.00  0.00     0.029 A 
ATOM     25  C   UNL A   1      39.055  30.088  29.370  1.00  0.00     0.049 A 
ATOM     26  H   UNL A   1      40.431  29.546  30.837  1.00  0.00     0.167 HD
ATOM     27  C   UNL A   1      43.358  28.142  33.808  1.00  0.00     0.037 A 
ATOM     28  C   UNL A   1      38.164  30.915  29.945  1.00  0.00     0.037 A 
ATOM     29  C   UNL A   1      42.534  29.101  34.490  1.00  0.00     0.049 A 
ATOM     30  C   UNL A   1      38.330  31.247  31.396  1.00  0.00     0.074 A 
ATOM     31  C   UNL A   1      42.643  29.574  35.785  1.00  0.00     0.029 A 
ATOM     32  N   UNL A   1      41.432  29.728  33.922  1.00  0.00    -0.354 N 
ATOM     33  N   UNL A   1      39.250  30.828  32.230  1.00  0.00    -0.248 NA
ATOM     34  C   UNL A   1      37.352  32.169  31.983  1.00  0.00     0.031 C 
ATOM     35  C   UNL A   1      41.578  30.452  36.014  1.00  0.00     0.029 A 
ATOM     36  C   UNL A   1      40.832  30.561  34.850  1.00  0.00     0.049 A 
ATOM     37  H   UNL A   1      41.123  29.597  32.997  1.00  0.00     0.167 HD
ATOM     38  C   UNL A   1      38.982  31.452  33.438  1.00  0.00     0.074 A 
ATOM     39  C   UNL A   1      37.805  32.275  33.227  1.00  0.00     0.031 C 
ATOM     40  C   UNL A   1      39.658  31.363  34.609  1.00  0.00     0.037 A 
BRANCH  27  41
ATOM     41  C   UNL A   1      44.499  27.491  34.527  1.00  0.00     0.057 A 
ATOM     42  C   UNL A   1      45.823  27.925  34.372  1.00  0.00     0.134 A 
ATOM     43  C   UNL A   1      44.278  26.366  35.332  1.00  0.00     0.134 A 
ATOM     44  F   UNL A   1      46.105  28.978  33.590  1.00  0.00    -0.206 F 
ATOM     45  C   UNL A   1      46.888  27.240  34.960  1.00  0.00     0.040 A 
ATOM     46  C   UNL A   1      45.332  25.687  35.943  1.00  0.00     0.040 A 
ATOM     47  F   UNL A   1      43.035  25.895  35.515  1.00  0.00    -0.206 F 
ATOM     48  C   UNL A   1      46.643  26.117  35.748  1.00  0.00     0.006 A 
ENDBRANCH  27  41
BRANCH  28  49
ATOM     49  C   UNL A   1      37.013  31.408  29.151  1.00  0.00     0.057 A 
ATOM     50  C   UNL A   1      35.905  30.603  28.882  1.00  0.00     0.134 A 
ATOM     51  C   UNL A   1      36.983  32.732  28.691  1.00  0.00     0.134 A 
ATOM     52  F   UNL A   1      35.883  29.326  29.285  1.00  0.00    -0.206 F 
ATOM     53  C   UNL A   1      34.799  31.099  28.185  1.00  0.00     0.040 A 
ATOM     54  C   UNL A   1      35.879  33.244  28.008  1.00  0.00     0.040 A 
ATOM     55  F   UNL A   1      38.015  33.554  28.923  1.00  0.00    -0.206 F 
ATOM     56  C   UNL A   1      34.781  32.425  27.754  1.00  0.00     0.006 A 
ENDBRANCH  28  49
BRANCH  40  57
ATOM     57  C   UNL A   1      39.155  32.199  35.744  1.00  0.00     0.057 A 
ATOM     58  C   UNL A   1      38.267  31.687  36.696  1.00  0.00     0.134 A 
ATOM     59  C   UNL A   1      39.618  33.508  35.916  1.00  0.00     0.134 A 
ATOM     60  F   UNL A   1      37.778  30.444  36.571  1.00  0.00    -0.206 F 
ATOM     61  C   UNL A   1      37.851  32.455  37.784  1.00  0.00     0.040 A 
ATOM     62  C   UNL A   1      39.225  34.278  37.010  1.00  0.00     0.040 A 
ATOM     63  F   UNL A   1      40.473  34.050  35.036  1.00  0.00    -0.206 F 
ATOM     64  C   UNL A   1      38.338  33.751  37.947  1.00  0.00     0.006 A 
ENDBRANCH  40  57
ENDBRANCH  14  15
ENDBRANCH   7   9
ENDBRANCH   6   7
ENDBRANCH   5   6
ENDBRANCH   4   5
ENDBRANCH   3   4
ENDBRANCH   2   3
ENDBRANCH   1   2
BRANCH   1  65
ATOM     65  O   UNL A   1      40.647  21.038  25.820  1.00  0.00    -0.376 OA
BRANCH  65  66
ATOM     66  C   UNL A   1      39.436  21.698  26.174  1.00  0.00     0.202 C 
BRANCH  66  67
ATOM     67  C   UNL A   1      38.211  21.400  25.303  1.00  0.00     0.261 C 
BRANCH  67  68
ATOM     68  O   UNL A   1      36.956  21.823  25.871  1.00  0.00    -0.460 OA
BRANCH  68  69
ATOM     69  C   UNL A   1      35.891  21.068  25.512  1.00  0.00     0.339 C 
ATOM     70  O   UNL A   1      35.923  19.953  25.001  1.00  0.00    -0.246 OA
BRANCH  69  71
ATOM     71  C   UNL A   1      34.621  21.784  25.683  1.00  0.00     0.078 A 
ATOM     72  C   UNL A   1      33.448  21.158  25.260  1.00  0.00     0.019 A 
ATOM     73  C   UNL A   1      34.512  23.013  26.311  1.00  0.00     0.127 A 
ATOM     74  C   UNL A   1      32.220  21.774  25.481  1.00  0.00     0.031 A 
ATOM     75  N   UNL A   1      33.325  23.639  26.531  1.00  0.00    -0.254 NA
ATOM     76  C   UNL A   1      32.190  23.017  26.114  1.00  0.00     0.094 A 
BRANCH  76  77
ATOM     77  C   UNL A   1      30.860  23.736  26.297  1.00  0.00     0.318 C 
BRANCH  77  78
ATOM     78  N   UNL A   1      30.280  24.214  25.037  1.00  0.00    -0.335 N 
ATOM     79  H   UNL A   1      29.271  24.306  25.154  1.00  0.00     0.347 HD
ATOM     80  H   UNL A   1      30.509  23.537  24.309  1.00  0.00     0.347 HD
BRANCH  78  81
ATOM     81  C   UNL A   1      30.830  25.514  24.632  1.00  0.00     0.215 C 
ATOM     82  C   UNL A   1      29.739  26.612  24.546  1.00  0.00     0.071 C 
ATOM     83  C   UNL A   1      31.546  25.360  23.302  1.00  0.00     0.023 A 
ATOM     84  C   UNL A   1      30.255  27.875  23.842  1.00  0.00     0.012 C 
ATOM     85  C   UNL A   1      31.466  26.329  22.315  1.00  0.00     0.014 A 
ATOM     86  C   UNL A   1      32.428  24.304  22.896  1.00  0.00     0.022 A 
ATOM     87  C   UNL A   1      30.651  27.583  22.389  1.00  0.00     0.047 C 
ATOM     88  S   UNL A   1      32.383  25.952  20.929  1.00  0.00    -0.148 S 
ATOM     89  C   UNL A   1      32.935  24.495  21.629  1.00  0.00     0.065 A 
ENDBRANCH  78  81
ENDBRANCH  77  78
ENDBRANCH  76  77
ENDBRANCH  69  71
ENDBRANCH  68  69
ENDBRANCH  67  68
ENDBRANCH  66  67
ENDBRANCH  65  66
ENDBRANCH   1  65
TORSDOF 20
ENDMDL
