MODEL 1
REMARK VINA RESULT:     -10.6      0.000      0.000
REMARK SMILES CC(=O)N[C@@H](CSCc1ccnc2ccccc12)C(=O)OCCOCCOCCOC(=O)c1ccc(-c2c3nc(c(-c4c(F)cccc4F)c4ccc([nH]4)c(-c4c(F)cccc4F)c4nc(c(-c5c(F)cccc5F)c5ccc2[nH]5)C=C4)C=C3)cc1
REMARK SMILES IDX 25 1 24 2 23 3 22 4 21 5 19 6 20 7 5 8 4 9 1 10 2 11 3 12
REMARK SMILES IDX 6 14 7 15 8 16 9 17 10 18 18 19 11 20 13 21 17 22 12 23
REMARK SMILES IDX 14 24 16 25 15 26 26 27 27 28 28 29 29 30 30 31 31 32 32 33
REMARK SMILES IDX 33 34 34 35 86 36 35 37 85 38 36 39 37 40 38 41 79 42 39 43
REMARK SMILES IDX 84 44 78 45 80 46 40 47 83 48 77 49 76 50 41 52 67 53 50 54
REMARK SMILES IDX 66 55 51 56 54 57 65 58 81 59 52 60 53 61 64 63 82 64 55 65
REMARK SMILES IDX 42 66 43 67 48 68 44 69 45 70 47 71 49 72 46 73 68 74 69 75
REMARK SMILES IDX 74 76 70 77 71 78 73 79 75 80 72 81 56 82 57 83 62 84 58 85
REMARK SMILES IDX 59 86 61 87 63 88 60 89
REMARK H PARENT 4 13 80 51 54 62
REMARK Flexibility Score: inf
ROOT
ATOM      1  C   UNL A   1      44.524  18.937  24.530  1.00  0.00     0.188 C 
ENDROOT
BRANCH   1   2
ATOM      2  O   UNL A   1      43.385  18.311  25.111  1.00  0.00    -0.376 OA
BRANCH   2   3
ATOM      3  C   UNL A   1      42.756  18.899  26.239  1.00  0.00     0.202 C 
BRANCH   3   4
ATOM      4  C   UNL A   1      41.318  19.397  26.063  1.00  0.00     0.261 C 
BRANCH   4   5
ATOM      5  O   UNL A   1      41.175  20.830  26.018  1.00  0.00    -0.462 OA
BRANCH   5   6
ATOM      6  C   UNL A   1      40.546  21.401  27.080  1.00  0.00     0.329 C 
ATOM      7  O   UNL A   1      40.757  21.118  28.254  1.00  0.00    -0.250 OA
BRANCH   6   8
ATOM      8  C   UNL A   1      39.449  22.401  26.670  1.00  0.00     0.202 C 
BRANCH   8   9
ATOM      9  N   UNL A   1      39.893  23.658  26.068  1.00  0.00    -0.342 N 
ATOM     10  C   UNL A   1      39.161  25.210  27.845  1.00  0.00     0.114 C 
ATOM     11  C   UNL A   1      39.830  24.936  26.531  1.00  0.00     0.217 C 
ATOM     12  O   UNL A   1      40.353  25.833  25.873  1.00  0.00    -0.275 OA
ATOM     13  H   UNL A   1      40.307  23.564  25.179  1.00  0.00     0.164 HD
ENDBRANCH   8   9
BRANCH   8  14
ATOM     14  C   UNL A   1      38.433  21.654  25.793  1.00  0.00     0.106 C 
BRANCH  14  15
ATOM     15  S   UNL A   1      37.335  22.580  24.637  1.00  0.00    -0.154 SA
BRANCH  15  16
ATOM     16  C   UNL A   1      36.366  23.772  25.630  1.00  0.00     0.105 C 
BRANCH  16  17
ATOM     17  C   UNL A   1      35.008  23.367  26.164  1.00  0.00    -0.027 A 
ATOM     18  C   UNL A   1      34.810  22.126  26.773  1.00  0.00     0.025 A 
ATOM     19  C   UNL A   1      33.900  24.269  26.150  1.00  0.00     0.004 A 
ATOM     20  C   UNL A   1      33.552  21.761  27.207  1.00  0.00     0.112 A 
ATOM     21  C   UNL A   1      32.648  23.779  26.606  1.00  0.00     0.070 A 
ATOM     22  C   UNL A   1      33.960  25.626  25.736  1.00  0.00     0.010 A 
ATOM     23  N   UNL A   1      32.472  22.548  27.101  1.00  0.00    -0.256 NA
ATOM     24  C   UNL A   1      31.533  24.602  26.565  1.00  0.00     0.029 A 
ATOM     25  C   UNL A   1      32.827  26.442  25.732  1.00  0.00     0.001 A 
ATOM     26  C   UNL A   1      31.607  25.923  26.130  1.00  0.00     0.002 A 
ENDBRANCH  16  17
ENDBRANCH  15  16
ENDBRANCH  14  15
ENDBRANCH   8  14
ENDBRANCH   6   8
ENDBRANCH   5   6
ENDBRANCH   4   5
ENDBRANCH   3   4
ENDBRANCH   2   3
ENDBRANCH   1   2
BRANCH   1  27
ATOM     27  C   UNL A   1      45.857  19.015  25.298  1.00  0.00     0.188 C 
BRANCH  27  28
ATOM     28  O   UNL A   1      46.432  20.304  25.371  1.00  0.00    -0.376 OA
BRANCH  28  29
ATOM     29  C   UNL A   1      45.672  21.342  24.781  1.00  0.00     0.202 C 
BRANCH  29  30
ATOM     30  C   UNL A   1      46.004  22.726  25.354  1.00  0.00     0.261 C 
BRANCH  30  31
ATOM     31  O   UNL A   1      44.943  23.695  25.237  1.00  0.00    -0.460 OA
BRANCH  31  32
ATOM     32  C   UNL A   1      45.290  24.991  25.363  1.00  0.00     0.338 C 
ATOM     33  O   UNL A   1      46.163  25.579  24.728  1.00  0.00    -0.246 OA
BRANCH  32  34
ATOM     34  C   UNL A   1      44.323  25.665  26.257  1.00  0.00     0.060 A 
ATOM     35  C   UNL A   1      44.111  27.043  26.108  1.00  0.00     0.016 A 
ATOM     36  C   UNL A   1      43.652  24.956  27.257  1.00  0.00     0.016 A 
ATOM     37  C   UNL A   1      43.272  27.723  26.995  1.00  0.00     0.010 A 
ATOM     38  C   UNL A   1      42.827  25.643  28.157  1.00  0.00     0.010 A 
ATOM     39  C   UNL A   1      42.669  27.038  28.059  1.00  0.00    -0.014 A 
BRANCH  39  40
ATOM     40  C   UNL A   1      42.091  27.813  29.191  1.00  0.00     0.031 A 
ATOM     41  C   UNL A   1      42.800  27.765  30.521  1.00  0.00     0.074 A 
ATOM     42  C   UNL A   1      40.997  28.582  29.050  1.00  0.00     0.049 A 
ATOM     43  N   UNL A   1      42.495  28.348  31.652  1.00  0.00    -0.248 NA
ATOM     44  C   UNL A   1      44.019  26.942  30.579  1.00  0.00     0.031 C 
ATOM     45  C   UNL A   1      40.231  28.752  27.819  1.00  0.00     0.029 A 
ATOM     46  N   UNL A   1      40.339  29.366  29.967  1.00  0.00    -0.354 N 
ATOM     47  C   UNL A   1      43.479  27.960  32.554  1.00  0.00     0.074 A 
ATOM     48  C   UNL A   1      44.369  27.065  31.849  1.00  0.00     0.031 C 
ATOM     49  C   UNL A   1      39.201  29.584  28.059  1.00  0.00     0.029 A 
ATOM     50  C   UNL A   1      39.221  29.987  29.465  1.00  0.00     0.049 A 
ATOM     51  H   UNL A   1      40.641  29.473  30.899  1.00  0.00     0.167 HD
ATOM     52  C   UNL A   1      43.639  28.322  33.849  1.00  0.00     0.037 A 
ATOM     53  C   UNL A   1      38.314  30.777  30.074  1.00  0.00     0.037 A 
ATOM     54  C   UNL A   1      42.760  29.212  34.561  1.00  0.00     0.049 A 
ATOM     55  C   UNL A   1      38.479  31.121  31.533  1.00  0.00     0.074 A 
ATOM     56  C   UNL A   1      42.848  29.646  35.872  1.00  0.00     0.029 A 
ATOM     57  N   UNL A   1      41.625  29.797  34.021  1.00  0.00    -0.354 N 
ATOM     58  N   UNL A   1      39.427  30.769  32.368  1.00  0.00    -0.248 NA
ATOM     59  C   UNL A   1      37.447  31.983  32.132  1.00  0.00     0.031 C 
ATOM     60  C   UNL A   1      41.740  30.457  36.140  1.00  0.00     0.029 A 
ATOM     61  C   UNL A   1      40.993  30.575  34.980  1.00  0.00     0.049 A 
ATOM     62  H   UNL A   1      41.315  29.680  33.094  1.00  0.00     0.167 HD
ATOM     63  C   UNL A   1      39.125  31.391  33.575  1.00  0.00     0.074 A 
ATOM     64  C   UNL A   1      37.913  32.153  33.361  1.00  0.00     0.031 C 
ATOM     65  C   UNL A   1      39.792  31.338  34.756  1.00  0.00     0.037 A 
BRANCH  52  66
ATOM     66  C   UNL A   1      44.802  27.727  34.588  1.00  0.00     0.057 A 
ATOM     67  C   UNL A   1      46.048  28.364  34.648  1.00  0.00     0.134 A 
ATOM     68  C   UNL A   1      44.669  26.503  35.257  1.00  0.00     0.134 A 
ATOM     69  F   UNL A   1      46.248  29.528  34.014  1.00  0.00    -0.206 F 
ATOM     70  C   UNL A   1      47.129  27.791  35.323  1.00  0.00     0.040 A 
ATOM     71  C   UNL A   1      45.732  25.935  35.959  1.00  0.00     0.040 A 
ATOM     72  F   UNL A   1      43.502  25.842  35.242  1.00  0.00    -0.206 F 
ATOM     73  C   UNL A   1      46.970  26.575  35.986  1.00  0.00     0.006 A 
ENDBRANCH  52  66
BRANCH  53  74
ATOM     74  C   UNL A   1      37.151  31.303  29.312  1.00  0.00     0.057 A 
ATOM     75  C   UNL A   1      36.024  30.510  29.062  1.00  0.00     0.134 A 
ATOM     76  C   UNL A   1      37.158  32.598  28.779  1.00  0.00     0.134 A 
ATOM     77  F   UNL A   1      35.970  29.252  29.521  1.00  0.00    -0.206 F 
ATOM     78  C   UNL A   1      34.955  30.978  28.295  1.00  0.00     0.040 A 
ATOM     79  C   UNL A   1      36.084  33.087  28.032  1.00  0.00     0.040 A 
ATOM     80  F   UNL A   1      38.209  33.407  28.978  1.00  0.00    -0.206 F 
ATOM     81  C   UNL A   1      34.983  32.272  27.781  1.00  0.00     0.006 A 
ENDBRANCH  53  74
BRANCH  65  82
ATOM     82  C   UNL A   1      39.256  32.163  35.892  1.00  0.00     0.057 A 
ATOM     83  C   UNL A   1      38.322  31.659  36.806  1.00  0.00     0.134 A 
ATOM     84  C   UNL A   1      39.701  33.479  36.085  1.00  0.00     0.134 A 
ATOM     85  F   UNL A   1      37.847  30.411  36.675  1.00  0.00    -0.206 F 
ATOM     86  C   UNL A   1      37.823  32.443  37.848  1.00  0.00     0.040 A 
ATOM     87  C   UNL A   1      39.232  34.262  37.141  1.00  0.00     0.040 A 
ATOM     88  F   UNL A   1      40.604  34.022  35.256  1.00  0.00    -0.206 F 
ATOM     89  C   UNL A   1      38.282  33.748  38.021  1.00  0.00     0.006 A 
ENDBRANCH  65  82
ENDBRANCH  39  40
ENDBRANCH  32  34
ENDBRANCH  31  32
ENDBRANCH  30  31
ENDBRANCH  29  30
ENDBRANCH  28  29
ENDBRANCH  27  28
ENDBRANCH   1  27
TORSDOF 22
ENDMDL
MODEL 2
REMARK VINA RESULT:     -10.4      2.299      3.797
REMARK SMILES CC(=O)N[C@@H](CSCc1ccnc2ccccc12)C(=O)OCCOCCOCCOC(=O)c1ccc(-c2c3nc(c(-c4c(F)cccc4F)c4ccc([nH]4)c(-c4c(F)cccc4F)c4nc(c(-c5c(F)cccc5F)c5ccc2[nH]5)C=C4)C=C3)cc1
REMARK SMILES IDX 25 1 24 2 23 3 22 4 21 5 19 6 20 7 5 8 4 9 1 10 2 11 3 12
REMARK SMILES IDX 6 14 7 15 8 16 9 17 10 18 18 19 11 20 13 21 17 22 12 23
REMARK SMILES IDX 14 24 16 25 15 26 26 27 27 28 28 29 29 30 30 31 31 32 32 33
REMARK SMILES IDX 33 34 34 35 86 36 35 37 85 38 36 39 37 40 38 41 79 42 39 43
REMARK SMILES IDX 84 44 78 45 80 46 40 47 83 48 77 49 76 50 41 52 67 53 50 54
REMARK SMILES IDX 66 55 51 56 54 57 65 58 81 59 52 60 53 61 64 63 82 64 55 65
REMARK SMILES IDX 42 66 43 67 48 68 44 69 45 70 47 71 49 72 46 73 68 74 69 75
REMARK SMILES IDX 74 76 70 77 71 78 73 79 75 80 72 81 56 82 57 83 62 84 58 85
REMARK SMILES IDX 59 86 61 87 63 88 60 89
REMARK H PARENT 4 13 80 51 54 62
REMARK Flexibility Score: inf
ROOT
ATOM      1  C   UNL A   1      39.826  21.397  25.991  1.00  0.00     0.188 C 
ENDROOT
BRANCH   1   2
ATOM      2  O   UNL A   1      39.100  22.602  26.210  1.00  0.00    -0.376 OA
BRANCH   2   3
ATOM      3  C   UNL A   1      37.689  22.612  26.059  1.00  0.00     0.202 C 
BRANCH   3   4
ATOM      4  C   UNL A   1      37.116  22.030  24.763  1.00  0.00     0.261 C 
BRANCH   4   5
ATOM      5  O   UNL A   1      35.754  21.571  24.856  1.00  0.00    -0.462 OA
BRANCH   5   6
ATOM      6  C   UNL A   1      34.810  22.389  24.316  1.00  0.00     0.329 C 
ATOM      7  O   UNL A   1      34.895  23.611  24.255  1.00  0.00    -0.250 OA
BRANCH   6   8
ATOM      8  C   UNL A   1      33.549  21.639  23.852  1.00  0.00     0.202 C 
BRANCH   8   9
ATOM      9  N   UNL A   1      33.002  20.638  24.767  1.00  0.00    -0.342 N 
ATOM     10  C   UNL A   1      32.489  18.863  23.127  1.00  0.00     0.114 C 
ATOM     11  C   UNL A   1      32.539  19.379  24.534  1.00  0.00     0.217 C 
ATOM     12  O   UNL A   1      32.202  18.683  25.489  1.00  0.00    -0.275 OA
ATOM     13  H   UNL A   1      32.962  20.920  25.709  1.00  0.00     0.164 HD
ENDBRANCH   8   9
BRANCH   8  14
ATOM     14  C   UNL A   1      32.505  22.685  23.431  1.00  0.00     0.106 C 
BRANCH  14  15
ATOM     15  S   UNL A   1      31.168  23.193  24.595  1.00  0.00    -0.154 SA
BRANCH  15  16
ATOM     16  C   UNL A   1      31.701  24.742  25.407  1.00  0.00     0.105 C 
BRANCH  16  17
ATOM     17  C   UNL A   1      31.471  26.067  24.709  1.00  0.00    -0.027 A 
ATOM     18  C   UNL A   1      31.071  26.120  23.371  1.00  0.00     0.025 A 
ATOM     19  C   UNL A   1      31.562  27.307  25.411  1.00  0.00     0.004 A 
ATOM     20  C   UNL A   1      30.916  27.341  22.745  1.00  0.00     0.112 A 
ATOM     21  C   UNL A   1      31.400  28.502  24.660  1.00  0.00     0.070 A 
ATOM     22  C   UNL A   1      31.779  27.438  26.808  1.00  0.00     0.010 A 
ATOM     23  N   UNL A   1      31.107  28.518  23.355  1.00  0.00    -0.256 NA
ATOM     24  C   UNL A   1      31.529  29.730  25.289  1.00  0.00     0.029 A 
ATOM     25  C   UNL A   1      31.877  28.688  27.422  1.00  0.00     0.001 A 
ATOM     26  C   UNL A   1      31.769  29.838  26.657  1.00  0.00     0.002 A 
ENDBRANCH  16  17
ENDBRANCH  15  16
ENDBRANCH  14  15
ENDBRANCH   8  14
ENDBRANCH   6   8
ENDBRANCH   5   6
ENDBRANCH   4   5
ENDBRANCH   3   4
ENDBRANCH   2   3
ENDBRANCH   1   2
BRANCH   1  27
ATOM     27  C   UNL A   1      40.730  20.810  27.091  1.00  0.00     0.188 C 
BRANCH  27  28
ATOM     28  O   UNL A   1      42.093  21.171  27.002  1.00  0.00    -0.376 OA
BRANCH  28  29
ATOM     29  C   UNL A   1      42.795  20.627  25.899  1.00  0.00     0.202 C 
BRANCH  29  30
ATOM     30  C   UNL A   1      43.768  21.625  25.259  1.00  0.00     0.261 C 
BRANCH  30  31
ATOM     31  O   UNL A   1      43.162  22.858  24.823  1.00  0.00    -0.460 OA
BRANCH  31  32
ATOM     32  C   UNL A   1      43.901  23.977  24.961  1.00  0.00     0.338 C 
ATOM     33  O   UNL A   1      44.948  24.239  24.374  1.00  0.00    -0.246 OA
BRANCH  32  34
ATOM     34  C   UNL A   1      43.156  24.947  25.794  1.00  0.00     0.060 A 
ATOM     35  C   UNL A   1      43.673  26.241  25.952  1.00  0.00     0.016 A 
ATOM     36  C   UNL A   1      41.974  24.580  26.443  1.00  0.00     0.016 A 
ATOM     37  C   UNL A   1      43.041  27.150  26.804  1.00  0.00     0.010 A 
ATOM     38  C   UNL A   1      41.352  25.487  27.312  1.00  0.00     0.010 A 
ATOM     39  C   UNL A   1      41.908  26.760  27.533  1.00  0.00    -0.014 A 
BRANCH  39  40
ATOM     40  C   UNL A   1      41.467  27.586  28.691  1.00  0.00     0.031 A 
ATOM     41  C   UNL A   1      42.238  27.470  29.981  1.00  0.00     0.074 A 
ATOM     42  C   UNL A   1      40.444  28.454  28.606  1.00  0.00     0.049 A 
ATOM     43  N   UNL A   1      42.051  28.078  31.125  1.00  0.00    -0.248 NA
ATOM     44  C   UNL A   1      43.377  26.536  29.977  1.00  0.00     0.031 C 
ATOM     45  C   UNL A   1      39.632  28.696  27.416  1.00  0.00     0.029 A 
ATOM     46  N   UNL A   1      39.913  29.295  29.553  1.00  0.00    -0.354 N 
ATOM     47  C   UNL A   1      43.041  27.599  31.974  1.00  0.00     0.074 A 
ATOM     48  C   UNL A   1      43.804  26.624  31.226  1.00  0.00     0.031 C 
ATOM     49  C   UNL A   1      38.699  29.621  27.707  1.00  0.00     0.029 A 
ATOM     50  C   UNL A   1      38.833  30.019  29.109  1.00  0.00     0.049 A 
ATOM     51  H   UNL A   1      40.273  29.373  30.467  1.00  0.00     0.167 HD
ATOM     52  C   UNL A   1      43.304  27.943  33.257  1.00  0.00     0.037 A 
ATOM     53  C   UNL A   1      38.038  30.891  29.762  1.00  0.00     0.037 A 
ATOM     54  C   UNL A   1      42.552  28.912  34.011  1.00  0.00     0.049 A 
ATOM     55  C   UNL A   1      38.312  31.216  31.209  1.00  0.00     0.074 A 
ATOM     56  C   UNL A   1      42.750  29.334  35.314  1.00  0.00     0.029 A 
ATOM     57  N   UNL A   1      41.449  29.601  33.531  1.00  0.00    -0.354 N 
ATOM     58  N   UNL A   1      39.267  30.776  31.993  1.00  0.00    -0.248 NA
ATOM     59  C   UNL A   1      37.400  32.171  31.858  1.00  0.00     0.031 C 
ATOM     60  C   UNL A   1      41.739  30.245  35.638  1.00  0.00     0.029 A 
ATOM     61  C   UNL A   1      40.946  30.434  34.519  1.00  0.00     0.049 A 
ATOM     62  H   UNL A   1      41.080  29.514  32.622  1.00  0.00     0.167 HD
ATOM     63  C   UNL A   1      39.089  31.423  33.212  1.00  0.00     0.074 A 
ATOM     64  C   UNL A   1      37.945  32.296  33.059  1.00  0.00     0.031 C 
ATOM     65  C   UNL A   1      39.811  31.306  34.355  1.00  0.00     0.037 A 
BRANCH  52  66
ATOM     66  C   UNL A   1      44.444  27.241  33.935  1.00  0.00     0.057 A 
ATOM     67  C   UNL A   1      45.743  27.764  33.938  1.00  0.00     0.134 A 
ATOM     68  C   UNL A   1      44.235  26.027  34.604  1.00  0.00     0.134 A 
ATOM     69  F   UNL A   1      46.014  28.913  33.302  1.00  0.00    -0.206 F 
ATOM     70  C   UNL A   1      46.799  27.092  34.557  1.00  0.00     0.040 A 
ATOM     71  C   UNL A   1      45.277  25.361  35.250  1.00  0.00     0.040 A 
ATOM     72  F   UNL A   1      43.015  25.472  34.642  1.00  0.00    -0.206 F 
ATOM     73  C   UNL A   1      46.566  25.889  35.220  1.00  0.00     0.006 A 
ENDBRANCH  52  66
BRANCH  53  74
ATOM     74  C   UNL A   1      36.890  31.524  29.062  1.00  0.00     0.057 A 
ATOM     75  C   UNL A   1      36.943  32.857  28.634  1.00  0.00     0.134 A 
ATOM     76  C   UNL A   1      35.697  30.825  28.843  1.00  0.00     0.134 A 
ATOM     77  F   UNL A   1      38.047  33.588  28.840  1.00  0.00    -0.206 F 
ATOM     78  C   UNL A   1      35.846  33.476  28.031  1.00  0.00     0.040 A 
ATOM     79  C   UNL A   1      34.602  31.424  28.218  1.00  0.00     0.040 A 
ATOM     80  F   UNL A   1      35.579  29.547  29.233  1.00  0.00    -0.206 F 
ATOM     81  C   UNL A   1      34.672  32.757  27.818  1.00  0.00     0.006 A 
ENDBRANCH  53  74
BRANCH  65  82
ATOM     82  C   UNL A   1      39.417  32.178  35.515  1.00  0.00     0.057 A 
ATOM     83  C   UNL A   1      38.544  31.737  36.518  1.00  0.00     0.134 A 
ATOM     84  C   UNL A   1      39.938  33.473  35.639  1.00  0.00     0.134 A 
ATOM     85  F   UNL A   1      38.002  30.511  36.457  1.00  0.00    -0.206 F 
ATOM     86  C   UNL A   1      38.176  32.563  37.582  1.00  0.00     0.040 A 
ATOM     87  C   UNL A   1      39.602  34.298  36.714  1.00  0.00     0.040 A 
ATOM     88  F   UNL A   1      40.790  33.957  34.723  1.00  0.00    -0.206 F 
ATOM     89  C   UNL A   1      38.710  33.847  37.685  1.00  0.00     0.006 A 
ENDBRANCH  65  82
ENDBRANCH  39  40
ENDBRANCH  32  34
ENDBRANCH  31  32
ENDBRANCH  30  31
ENDBRANCH  29  30
ENDBRANCH  28  29
ENDBRANCH  27  28
ENDBRANCH   1  27
TORSDOF 22
ENDMDL
MODEL 3
REMARK VINA RESULT:     -10.2      1.861      6.683
REMARK SMILES CC(=O)N[C@@H](CSCc1ccnc2ccccc12)C(=O)OCCOCCOCCOC(=O)c1ccc(-c2c3nc(c(-c4c(F)cccc4F)c4ccc([nH]4)c(-c4c(F)cccc4F)c4nc(c(-c5c(F)cccc5F)c5ccc2[nH]5)C=C4)C=C3)cc1
REMARK SMILES IDX 25 1 24 2 23 3 22 4 21 5 19 6 20 7 5 8 4 9 1 10 2 11 3 12
REMARK SMILES IDX 6 14 7 15 8 16 9 17 10 18 18 19 11 20 13 21 17 22 12 23
REMARK SMILES IDX 14 24 16 25 15 26 26 27 27 28 28 29 29 30 30 31 31 32 32 33
REMARK SMILES IDX 33 34 34 35 86 36 35 37 85 38 36 39 37 40 38 41 79 42 39 43
REMARK SMILES IDX 84 44 78 45 80 46 40 47 83 48 77 49 76 50 41 52 67 53 50 54
REMARK SMILES IDX 66 55 51 56 54 57 65 58 81 59 52 60 53 61 64 63 82 64 55 65
REMARK SMILES IDX 42 66 43 67 48 68 44 69 45 70 47 71 49 72 46 73 68 74 69 75
REMARK SMILES IDX 74 76 70 77 71 78 73 79 75 80 72 81 56 82 57 83 62 84 58 85
REMARK SMILES IDX 59 86 61 87 63 88 60 89
REMARK H PARENT 4 13 80 51 54 62
REMARK Flexibility Score: inf
ROOT
ATOM      1  C   UNL A   1      39.894  21.743  26.373  1.00  0.00     0.188 C 
ENDROOT
BRANCH   1   2
ATOM      2  O   UNL A   1      39.408  22.908  27.032  1.00  0.00    -0.376 OA
BRANCH   2   3
ATOM      3  C   UNL A   1      38.349  23.654  26.452  1.00  0.00     0.202 C 
BRANCH   3   4
ATOM      4  C   UNL A   1      37.517  22.967  25.364  1.00  0.00     0.261 C 
BRANCH   4   5
ATOM      5  O   UNL A   1      36.427  22.163  25.853  1.00  0.00    -0.462 OA
BRANCH   5   6
ATOM      6  C   UNL A   1      36.224  20.980  25.213  1.00  0.00     0.329 C 
ATOM      7  O   UNL A   1      37.089  20.134  25.013  1.00  0.00    -0.250 OA
BRANCH   6   8
ATOM      8  C   UNL A   1      34.793  20.822  24.665  1.00  0.00     0.202 C 
BRANCH   8   9
ATOM      9  N   UNL A   1      33.890  19.953  25.419  1.00  0.00    -0.342 N 
ATOM     10  C   UNL A   1      32.591  19.027  23.531  1.00  0.00     0.114 C 
ATOM     11  C   UNL A   1      32.910  19.108  24.995  1.00  0.00     0.217 C 
ATOM     12  O   UNL A   1      32.332  18.406  25.821  1.00  0.00    -0.275 OA
ATOM     13  H   UNL A   1      34.010  19.983  26.395  1.00  0.00     0.164 HD
ENDBRANCH   8   9
BRANCH   8  14
ATOM     14  C   UNL A   1      34.213  22.228  24.449  1.00  0.00     0.106 C 
BRANCH  14  15
ATOM     15  S   UNL A   1      33.670  22.770  22.772  1.00  0.00    -0.154 SA
BRANCH  15  16
ATOM     16  C   UNL A   1      32.113  23.707  22.972  1.00  0.00     0.105 C 
BRANCH  16  17
ATOM     17  C   UNL A   1      31.749  24.267  24.331  1.00  0.00    -0.027 A 
ATOM     18  C   UNL A   1      30.931  23.554  25.213  1.00  0.00     0.025 A 
ATOM     19  C   UNL A   1      32.298  25.497  24.805  1.00  0.00     0.004 A 
ATOM     20  C   UNL A   1      30.575  24.108  26.425  1.00  0.00     0.112 A 
ATOM     21  C   UNL A   1      31.846  25.979  26.062  1.00  0.00     0.070 A 
ATOM     22  C   UNL A   1      33.280  26.265  24.125  1.00  0.00     0.010 A 
ATOM     23  N   UNL A   1      30.987  25.313  26.842  1.00  0.00    -0.256 NA
ATOM     24  C   UNL A   1      32.313  27.193  26.539  1.00  0.00     0.029 A 
ATOM     25  C   UNL A   1      33.755  27.472  24.642  1.00  0.00     0.001 A 
ATOM     26  C   UNL A   1      33.257  27.946  25.844  1.00  0.00     0.002 A 
ENDBRANCH  16  17
ENDBRANCH  15  16
ENDBRANCH  14  15
ENDBRANCH   8  14
ENDBRANCH   6   8
ENDBRANCH   5   6
ENDBRANCH   4   5
ENDBRANCH   3   4
ENDBRANCH   2   3
ENDBRANCH   1   2
BRANCH   1  27
ATOM     27  C   UNL A   1      40.829  20.759  27.101  1.00  0.00     0.188 C 
BRANCH  27  28
ATOM     28  O   UNL A   1      42.196  21.114  27.096  1.00  0.00    -0.376 OA
BRANCH  28  29
ATOM     29  C   UNL A   1      42.876  20.894  25.873  1.00  0.00     0.202 C 
BRANCH  29  30
ATOM     30  C   UNL A   1      43.830  22.037  25.506  1.00  0.00     0.261 C 
BRANCH  30  31
ATOM     31  O   UNL A   1      43.177  23.261  25.112  1.00  0.00    -0.460 OA
BRANCH  31  32
ATOM     32  C   UNL A   1      43.882  24.400  25.267  1.00  0.00     0.338 C 
ATOM     33  O   UNL A   1      44.873  24.740  24.625  1.00  0.00    -0.246 OA
BRANCH  32  34
ATOM     34  C   UNL A   1      43.164  25.286  26.209  1.00  0.00     0.060 A 
ATOM     35  C   UNL A   1      43.532  26.637  26.281  1.00  0.00     0.016 A 
ATOM     36  C   UNL A   1      42.156  24.788  27.041  1.00  0.00     0.016 A 
ATOM     37  C   UNL A   1      42.934  27.478  27.224  1.00  0.00     0.010 A 
ATOM     38  C   UNL A   1      41.572  25.628  27.998  1.00  0.00     0.010 A 
ATOM     39  C   UNL A   1      41.991  26.965  28.126  1.00  0.00    -0.014 A 
BRANCH  39  40
ATOM     40  C   UNL A   1      41.640  27.753  29.340  1.00  0.00     0.031 A 
ATOM     41  C   UNL A   1      40.435  28.656  29.277  1.00  0.00     0.074 A 
ATOM     42  C   UNL A   1      42.331  27.648  30.489  1.00  0.00     0.049 A 
ATOM     43  N   UNL A   1      39.929  29.441  30.195  1.00  0.00    -0.248 NA
ATOM     44  C   UNL A   1      39.702  28.675  28.000  1.00  0.00     0.031 C 
ATOM     45  C   UNL A   1      43.494  26.792  30.706  1.00  0.00     0.029 A 
ATOM     46  N   UNL A   1      42.146  28.278  31.696  1.00  0.00    -0.354 N 
ATOM     47  C   UNL A   1      38.826  30.048  29.606  1.00  0.00     0.074 A 
ATOM     48  C   UNL A   1      38.757  29.569  28.243  1.00  0.00     0.031 C 
ATOM     49  C   UNL A   1      43.925  26.955  31.970  1.00  0.00     0.029 A 
ATOM     50  C   UNL A   1      43.083  27.945  32.644  1.00  0.00     0.049 A 
ATOM     51  H   UNL A   1      41.411  28.911  31.865  1.00  0.00     0.167 HD
ATOM     52  C   UNL A   1      37.941  30.917  30.149  1.00  0.00     0.037 A 
ATOM     53  C   UNL A   1      43.248  28.396  33.904  1.00  0.00     0.037 A 
ATOM     54  C   UNL A   1      37.999  31.400  31.503  1.00  0.00     0.049 A 
ATOM     55  C   UNL A   1      42.285  29.409  34.470  1.00  0.00     0.074 A 
ATOM     56  C   UNL A   1      37.140  32.274  32.145  1.00  0.00     0.029 A 
ATOM     57  N   UNL A   1      38.980  31.057  32.421  1.00  0.00    -0.354 N 
ATOM     58  N   UNL A   1      41.231  29.956  33.913  1.00  0.00    -0.248 NA
ATOM     59  C   UNL A   1      42.531  29.859  35.849  1.00  0.00     0.031 C 
ATOM     60  C   UNL A   1      37.627  32.497  33.438  1.00  0.00     0.029 A 
ATOM     61  C   UNL A   1      38.757  31.717  33.620  1.00  0.00     0.049 A 
ATOM     62  H   UNL A   1      39.723  30.435  32.248  1.00  0.00     0.167 HD
ATOM     63  C   UNL A   1      40.674  30.785  34.880  1.00  0.00     0.074 A 
ATOM     64  C   UNL A   1      41.497  30.659  36.063  1.00  0.00     0.031 C 
ATOM     65  C   UNL A   1      39.576  31.579  34.796  1.00  0.00     0.037 A 
BRANCH  52  66
ATOM     66  C   UNL A   1      36.843  31.422  29.258  1.00  0.00     0.057 A 
ATOM     67  C   UNL A   1      36.858  32.716  28.722  1.00  0.00     0.134 A 
ATOM     68  C   UNL A   1      35.761  30.597  28.924  1.00  0.00     0.134 A 
ATOM     69  F   UNL A   1      37.855  33.563  29.016  1.00  0.00    -0.206 F 
ATOM     70  C   UNL A   1      35.821  33.181  27.909  1.00  0.00     0.040 A 
ATOM     71  C   UNL A   1      34.735  31.040  28.090  1.00  0.00     0.040 A 
ATOM     72  F   UNL A   1      35.687  29.345  29.400  1.00  0.00    -0.206 F 
ATOM     73  C   UNL A   1      34.758  32.339  27.587  1.00  0.00     0.006 A 
ENDBRANCH  52  66
BRANCH  53  74
ATOM     74  C   UNL A   1      44.380  27.902  34.732  1.00  0.00     0.057 A 
ATOM     75  C   UNL A   1      44.250  26.767  35.542  1.00  0.00     0.134 A 
ATOM     76  C   UNL A   1      45.605  28.580  34.765  1.00  0.00     0.134 A 
ATOM     77  F   UNL A   1      43.093  26.092  35.576  1.00  0.00    -0.206 F 
ATOM     78  C   UNL A   1      45.289  26.335  36.368  1.00  0.00     0.040 A 
ATOM     79  C   UNL A   1      46.661  28.143  35.567  1.00  0.00     0.040 A 
ATOM     80  F   UNL A   1      45.793  29.677  34.017  1.00  0.00    -0.206 F 
ATOM     81  C   UNL A   1      46.501  27.022  36.379  1.00  0.00     0.006 A 
ENDBRANCH  53  74
BRANCH  65  82
ATOM     82  C   UNL A   1      39.172  32.334  36.032  1.00  0.00     0.057 A 
ATOM     83  C   UNL A   1      38.299  31.794  36.985  1.00  0.00     0.134 A 
ATOM     84  C   UNL A   1      39.683  33.616  36.279  1.00  0.00     0.134 A 
ATOM     85  F   UNL A   1      37.766  30.576  36.807  1.00  0.00    -0.206 F 
ATOM     86  C   UNL A   1      37.922  32.515  38.121  1.00  0.00     0.040 A 
ATOM     87  C   UNL A   1      39.337  34.333  37.426  1.00  0.00     0.040 A 
ATOM     88  F   UNL A   1      40.534  34.190  35.415  1.00  0.00    -0.206 F 
ATOM     89  C   UNL A   1      38.446  33.787  38.346  1.00  0.00     0.006 A 
ENDBRANCH  65  82
ENDBRANCH  39  40
ENDBRANCH  32  34
ENDBRANCH  31  32
ENDBRANCH  30  31
ENDBRANCH  29  30
ENDBRANCH  28  29
ENDBRANCH  27  28
ENDBRANCH   1  27
TORSDOF 22
ENDMDL
