MODEL 1
REMARK VINA RESULT:     -10.2      0.000      0.000
REMARK SMILES Cc1cc(C)n2ncc(C(=O)N(C)CCCC(=O)OCCOCCOCCOC(=O)c3ccc(-c4c5nc(c(-c6c(F)cccc6F)c6ccc([nH]6)c(-c6c(F)cccc6F)c6nc(c(-c7c(F)cccc7F)c7ccc4[nH]7)C=C6)C=C5)cc3)c2n1
REMARK SMILES IDX 22 1 21 2 20 3 19 4 17 5 18 6 16 7 15 8 14 9 12 10 13 11
REMARK SMILES IDX 10 12 11 13 9 14 1 15 2 16 3 17 86 18 4 19 85 20 5 21 6 22
REMARK SMILES IDX 7 23 8 24 23 25 24 26 25 27 26 28 27 29 28 30 29 31 30 32
REMARK SMILES IDX 31 33 32 34 84 35 33 36 83 37 34 38 35 39 36 40 77 41 37 42
REMARK SMILES IDX 82 43 76 44 78 45 38 46 81 47 75 48 74 49 39 51 65 52 48 53
REMARK SMILES IDX 64 54 49 55 52 56 63 57 79 58 50 59 51 60 62 62 80 63 53 64
REMARK SMILES IDX 40 65 41 66 46 67 42 68 43 69 45 70 47 71 44 72 66 73 67 74
REMARK SMILES IDX 72 75 68 76 69 77 71 78 73 79 70 80 54 81 55 82 60 83 56 84
REMARK SMILES IDX 57 85 59 86 61 87 58 88
REMARK H PARENT 78 50 52 61
REMARK Flexibility Score: inf
ROOT
ATOM      1  O   UNL A   1      39.704  20.842  26.084  1.00  0.00    -0.376 OA
ENDROOT
BRANCH   1   2
ATOM      2  C   UNL A   1      38.869  21.988  25.991  1.00  0.00     0.202 C 
BRANCH   2   3
ATOM      3  C   UNL A   1      37.652  22.094  25.046  1.00  0.00     0.261 C 
BRANCH   3   4
ATOM      4  O   UNL A   1      37.187  23.421  24.761  1.00  0.00    -0.463 OA
BRANCH   4   5
ATOM      5  C   UNL A   1      35.971  23.757  25.256  1.00  0.00     0.305 C 
ATOM      6  O   UNL A   1      35.712  23.831  26.456  1.00  0.00    -0.252 OA
BRANCH   5   7
ATOM      7  C   UNL A   1      34.955  24.198  24.212  1.00  0.00     0.124 C 
BRANCH   7   8
ATOM      8  C   UNL A   1      34.311  25.591  24.180  1.00  0.00     0.033 C 
BRANCH   8   9
ATOM      9  C   UNL A   1      32.792  25.707  24.062  1.00  0.00     0.120 C 
BRANCH   9  10
ATOM     10  N   UNL A   1      32.287  24.994  22.894  1.00  0.00    -0.342 N 
ATOM     11  C   UNL A   1      32.912  25.367  21.638  1.00  0.00     0.147 C 
BRANCH  10  12
ATOM     12  C   UNL A   1      31.348  23.987  23.139  1.00  0.00     0.259 C 
ATOM     13  O   UNL A   1      30.153  24.282  23.198  1.00  0.00    -0.269 OA
BRANCH  12  14
ATOM     14  C   UNL A   1      31.733  22.590  23.245  1.00  0.00     0.104 A 
ATOM     15  C   UNL A   1      33.073  22.262  27.993  1.00  0.00     0.067 C 
ATOM     16  C   UNL A   1      32.937  21.772  26.572  1.00  0.00     0.042 A 
ATOM     17  C   UNL A   1      33.559  20.446  26.267  1.00  0.00     0.047 A 
ATOM     18  N   UNL A   1      32.290  22.502  25.710  1.00  0.00    -0.233 NA
ATOM     19  C   UNL A   1      33.366  19.970  25.025  1.00  0.00     0.043 A 
ATOM     20  C   UNL A   1      32.188  22.016  24.431  1.00  0.00     0.168 A 
ATOM     21  C   UNL A   1      33.930  18.669  24.551  1.00  0.00     0.067 C 
ATOM     22  N   UNL A   1      32.648  20.739  24.102  1.00  0.00    -0.219 N 
ATOM     23  N   UNL A   1      32.340  20.418  22.823  1.00  0.00    -0.174 NA
ATOM     24  C   UNL A   1      31.834  21.541  22.316  1.00  0.00     0.151 A 
ENDBRANCH  12  14
ENDBRANCH  10  12
ENDBRANCH   9  10
ENDBRANCH   8   9
ENDBRANCH   7   8
ENDBRANCH   5   7
ENDBRANCH   4   5
ENDBRANCH   3   4
ENDBRANCH   2   3
ENDBRANCH   1   2
BRANCH   1  25
ATOM     25  C   UNL A   1      41.094  21.025  26.183  1.00  0.00     0.188 C 
BRANCH  25  26
ATOM     26  C   UNL A   1      41.994  19.783  26.218  1.00  0.00     0.188 C 
BRANCH  26  27
ATOM     27  O   UNL A   1      42.675  19.228  25.105  1.00  0.00    -0.376 OA
BRANCH  27  28
ATOM     28  C   UNL A   1      44.061  18.926  25.041  1.00  0.00     0.202 C 
BRANCH  28  29
ATOM     29  C   UNL A   1      45.041  19.631  24.106  1.00  0.00     0.261 C 
BRANCH  29  30
ATOM     30  O   UNL A   1      44.642  20.926  23.742  1.00  0.00    -0.460 OA
BRANCH  30  31
ATOM     31  C   UNL A   1      45.327  21.891  24.379  1.00  0.00     0.338 C 
ATOM     32  O   UNL A   1      46.512  22.182  24.266  1.00  0.00    -0.246 OA
BRANCH  31  33
ATOM     33  C   UNL A   1      44.387  22.573  25.261  1.00  0.00     0.060 A 
ATOM     34  C   UNL A   1      43.458  23.426  24.663  1.00  0.00     0.016 A 
ATOM     35  C   UNL A   1      44.648  22.568  26.636  1.00  0.00     0.016 A 
ATOM     36  C   UNL A   1      43.026  24.496  25.399  1.00  0.00     0.010 A 
ATOM     37  C   UNL A   1      44.251  23.654  27.356  1.00  0.00     0.010 A 
ATOM     38  C   UNL A   1      43.551  24.651  26.685  1.00  0.00    -0.014 A 
BRANCH  38  39
ATOM     39  C   UNL A   1      43.336  25.899  27.366  1.00  0.00     0.031 A 
ATOM     40  C   UNL A   1      44.390  26.873  27.045  1.00  0.00     0.074 A 
ATOM     41  C   UNL A   1      42.228  26.099  28.102  1.00  0.00     0.049 A 
ATOM     42  N   UNL A   1      45.349  27.260  27.815  1.00  0.00    -0.248 NA
ATOM     43  C   UNL A   1      44.549  27.269  25.635  1.00  0.00     0.031 C 
ATOM     44  C   UNL A   1      41.052  25.229  28.223  1.00  0.00     0.029 A 
ATOM     45  N   UNL A   1      41.873  27.191  28.828  1.00  0.00    -0.354 N 
ATOM     46  C   UNL A   1      46.066  28.169  27.048  1.00  0.00     0.074 A 
ATOM     47  C   UNL A   1      45.715  27.914  25.680  1.00  0.00     0.031 C 
ATOM     48  C   UNL A   1      40.036  25.925  28.785  1.00  0.00     0.029 A 
ATOM     49  C   UNL A   1      40.525  27.235  29.174  1.00  0.00     0.049 A 
ATOM     50  H   UNL A   1      42.514  27.891  29.088  1.00  0.00     0.167 HD
ATOM     51  C   UNL A   1      46.583  29.283  27.630  1.00  0.00     0.037 A 
ATOM     52  C   UNL A   1      39.877  28.327  29.658  1.00  0.00     0.037 A 
ATOM     53  C   UNL A   1      46.692  29.107  29.059  1.00  0.00     0.049 A 
ATOM     54  C   UNL A   1      40.921  29.248  30.185  1.00  0.00     0.074 A 
ATOM     55  C   UNL A   1      47.339  28.201  29.877  1.00  0.00     0.029 A 
ATOM     56  N   UNL A   1      45.737  29.711  29.840  1.00  0.00    -0.354 N 
ATOM     57  N   UNL A   1      41.653  28.988  31.233  1.00  0.00    -0.248 NA
ATOM     58  C   UNL A   1      41.479  30.224  29.260  1.00  0.00     0.031 C 
ATOM     59  C   UNL A   1      46.456  27.990  30.975  1.00  0.00     0.029 A 
ATOM     60  C   UNL A   1      45.351  28.830  30.814  1.00  0.00     0.049 A 
ATOM     61  H   UNL A   1      45.388  30.624  29.720  1.00  0.00     0.167 HD
ATOM     62  C   UNL A   1      42.928  29.415  30.886  1.00  0.00     0.074 A 
ATOM     63  C   UNL A   1      42.743  30.237  29.691  1.00  0.00     0.031 C 
ATOM     64  C   UNL A   1      44.036  28.815  31.415  1.00  0.00     0.037 A 
BRANCH  51  65
ATOM     65  C   UNL A   1      46.549  30.646  26.978  1.00  0.00     0.057 A 
ATOM     66  C   UNL A   1      47.732  31.403  26.954  1.00  0.00     0.134 A 
ATOM     67  C   UNL A   1      45.380  31.362  26.635  1.00  0.00     0.134 A 
ATOM     68  F   UNL A   1      48.909  30.847  27.275  1.00  0.00    -0.206 F 
ATOM     69  C   UNL A   1      47.739  32.777  26.691  1.00  0.00     0.040 A 
ATOM     70  C   UNL A   1      45.384  32.721  26.317  1.00  0.00     0.040 A 
ATOM     71  F   UNL A   1      44.154  30.832  26.681  1.00  0.00    -0.206 F 
ATOM     72  C   UNL A   1      46.561  33.442  26.377  1.00  0.00     0.006 A 
ENDBRANCH  51  65
BRANCH  52  73
ATOM     73  C   UNL A   1      38.496  28.788  29.370  1.00  0.00     0.057 A 
ATOM     74  C   UNL A   1      37.561  28.952  30.405  1.00  0.00     0.134 A 
ATOM     75  C   UNL A   1      38.142  29.353  28.132  1.00  0.00     0.134 A 
ATOM     76  F   UNL A   1      37.820  28.487  31.636  1.00  0.00    -0.206 F 
ATOM     77  C   UNL A   1      36.364  29.662  30.229  1.00  0.00     0.040 A 
ATOM     78  C   UNL A   1      36.948  30.058  27.940  1.00  0.00     0.040 A 
ATOM     79  F   UNL A   1      38.982  29.323  27.088  1.00  0.00    -0.206 F 
ATOM     80  C   UNL A   1      36.060  30.229  28.995  1.00  0.00     0.006 A 
ENDBRANCH  52  73
BRANCH  64  81
ATOM     81  C   UNL A   1      43.851  27.878  32.578  1.00  0.00     0.057 A 
ATOM     82  C   UNL A   1      43.825  26.478  32.471  1.00  0.00     0.134 A 
ATOM     83  C   UNL A   1      43.902  28.412  33.871  1.00  0.00     0.134 A 
ATOM     84  F   UNL A   1      43.861  25.874  31.277  1.00  0.00    -0.206 F 
ATOM     85  C   UNL A   1      43.836  25.653  33.601  1.00  0.00     0.040 A 
ATOM     86  C   UNL A   1      43.948  27.600  35.005  1.00  0.00     0.040 A 
ATOM     87  F   UNL A   1      43.978  29.741  34.048  1.00  0.00    -0.206 F 
ATOM     88  C   UNL A   1      43.912  26.214  34.873  1.00  0.00     0.006 A 
ENDBRANCH  64  81
ENDBRANCH  38  39
ENDBRANCH  31  33
ENDBRANCH  30  31
ENDBRANCH  29  30
ENDBRANCH  28  29
ENDBRANCH  27  28
ENDBRANCH  26  27
ENDBRANCH  25  26
ENDBRANCH   1  25
TORSDOF 22
ENDMDL
MODEL 2
REMARK VINA RESULT:     -10.2      1.898      3.466
REMARK SMILES Cc1cc(C)n2ncc(C(=O)N(C)CCCC(=O)OCCOCCOCCOC(=O)c3ccc(-c4c5nc(c(-c6c(F)cccc6F)c6ccc([nH]6)c(-c6c(F)cccc6F)c6nc(c(-c7c(F)cccc7F)c7ccc4[nH]7)C=C6)C=C5)cc3)c2n1
REMARK SMILES IDX 22 1 21 2 20 3 19 4 17 5 18 6 16 7 15 8 14 9 12 10 13 11
REMARK SMILES IDX 10 12 11 13 9 14 1 15 2 16 3 17 86 18 4 19 85 20 5 21 6 22
REMARK SMILES IDX 7 23 8 24 23 25 24 26 25 27 26 28 27 29 28 30 29 31 30 32
REMARK SMILES IDX 31 33 32 34 84 35 33 36 83 37 34 38 35 39 36 40 77 41 37 42
REMARK SMILES IDX 82 43 76 44 78 45 38 46 81 47 75 48 74 49 39 51 65 52 48 53
REMARK SMILES IDX 64 54 49 55 52 56 63 57 79 58 50 59 51 60 62 62 80 63 53 64
REMARK SMILES IDX 40 65 41 66 46 67 42 68 43 69 45 70 47 71 44 72 66 73 67 74
REMARK SMILES IDX 72 75 68 76 69 77 71 78 73 79 70 80 54 81 55 82 60 83 56 84
REMARK SMILES IDX 57 85 59 86 61 87 58 88
REMARK H PARENT 78 50 52 61
REMARK Flexibility Score: inf
ROOT
ATOM      1  O   UNL A   1      38.708  21.711  25.763  1.00  0.00    -0.376 OA
ENDROOT
BRANCH   1   2
ATOM      2  C   UNL A   1      37.862  22.851  25.693  1.00  0.00     0.202 C 
BRANCH   2   3
ATOM      3  C   UNL A   1      36.360  22.834  26.056  1.00  0.00     0.261 C 
BRANCH   3   4
ATOM      4  O   UNL A   1      35.451  22.597  24.972  1.00  0.00    -0.463 OA
BRANCH   4   5
ATOM      5  C   UNL A   1      34.773  21.424  24.994  1.00  0.00     0.305 C 
ATOM      6  O   UNL A   1      35.309  20.318  24.963  1.00  0.00    -0.252 OA
BRANCH   5   7
ATOM      7  C   UNL A   1      33.274  21.556  25.221  1.00  0.00     0.124 C 
BRANCH   7   8
ATOM      8  C   UNL A   1      32.219  21.300  24.137  1.00  0.00     0.033 C 
BRANCH   8   9
ATOM      9  C   UNL A   1      32.286  22.088  22.829  1.00  0.00     0.120 C 
BRANCH   9  10
ATOM     10  N   UNL A   1      32.341  23.526  23.071  1.00  0.00    -0.342 N 
ATOM     11  C   UNL A   1      33.584  24.161  22.671  1.00  0.00     0.147 C 
BRANCH  10  12
ATOM     12  C   UNL A   1      31.172  24.118  23.557  1.00  0.00     0.259 C 
ATOM     13  O   UNL A   1      30.086  23.785  23.078  1.00  0.00    -0.269 OA
BRANCH  12  14
ATOM     14  C   UNL A   1      31.192  25.054  24.669  1.00  0.00     0.104 A 
ATOM     15  C   UNL A   1      30.558  29.382  22.364  1.00  0.00     0.067 C 
ATOM     16  C   UNL A   1      30.866  28.491  23.542  1.00  0.00     0.042 A 
ATOM     17  C   UNL A   1      31.270  29.181  24.807  1.00  0.00     0.047 A 
ATOM     18  N   UNL A   1      30.754  27.201  23.407  1.00  0.00    -0.233 NA
ATOM     19  C   UNL A   1      31.461  28.395  25.880  1.00  0.00     0.043 A 
ATOM     20  C   UNL A   1      31.041  26.430  24.505  1.00  0.00     0.168 A 
ATOM     21  C   UNL A   1      31.880  28.920  27.215  1.00  0.00     0.067 C 
ATOM     22  N   UNL A   1      31.316  27.009  25.745  1.00  0.00    -0.219 N 
ATOM     23  N   UNL A   1      31.450  26.068  26.710  1.00  0.00    -0.174 NA
ATOM     24  C   UNL A   1      31.415  24.913  26.049  1.00  0.00     0.151 A 
ENDBRANCH  12  14
ENDBRANCH  10  12
ENDBRANCH   9  10
ENDBRANCH   8   9
ENDBRANCH   7   8
ENDBRANCH   5   7
ENDBRANCH   4   5
ENDBRANCH   3   4
ENDBRANCH   2   3
ENDBRANCH   1   2
BRANCH   1  25
ATOM     25  C   UNL A   1      39.785  21.724  26.665  1.00  0.00     0.188 C 
BRANCH  25  26
ATOM     26  C   UNL A   1      41.190  21.413  26.131  1.00  0.00     0.188 C 
BRANCH  26  27
ATOM     27  O   UNL A   1      42.075  20.441  26.659  1.00  0.00    -0.376 OA
BRANCH  27  28
ATOM     28  C   UNL A   1      42.290  19.137  26.137  1.00  0.00     0.202 C 
BRANCH  28  29
ATOM     29  C   UNL A   1      43.609  18.674  25.523  1.00  0.00     0.261 C 
BRANCH  29  30
ATOM     30  O   UNL A   1      44.576  19.687  25.435  1.00  0.00    -0.460 OA
BRANCH  30  31
ATOM     31  C   UNL A   1      44.678  20.217  24.203  1.00  0.00     0.338 C 
ATOM     32  O   UNL A   1      44.509  19.664  23.122  1.00  0.00    -0.246 OA
BRANCH  31  33
ATOM     33  C   UNL A   1      45.029  21.622  24.368  1.00  0.00     0.060 A 
ATOM     34  C   UNL A   1      46.110  21.914  25.202  1.00  0.00     0.016 A 
ATOM     35  C   UNL A   1      44.112  22.588  23.937  1.00  0.00     0.016 A 
ATOM     36  C   UNL A   1      46.085  23.112  25.864  1.00  0.00     0.010 A 
ATOM     37  C   UNL A   1      44.065  23.763  24.624  1.00  0.00     0.010 A 
ATOM     38  C   UNL A   1      44.981  23.943  25.655  1.00  0.00    -0.014 A 
BRANCH  38  39
ATOM     39  C   UNL A   1      44.791  25.062  26.537  1.00  0.00     0.031 A 
ATOM     40  C   UNL A   1      45.909  26.013  26.445  1.00  0.00     0.074 A 
ATOM     41  C   UNL A   1      43.653  25.196  27.244  1.00  0.00     0.049 A 
ATOM     42  N   UNL A   1      46.841  26.202  27.317  1.00  0.00    -0.248 NA
ATOM     43  C   UNL A   1      46.168  26.640  25.137  1.00  0.00     0.031 C 
ATOM     44  C   UNL A   1      42.430  24.390  27.152  1.00  0.00     0.029 A 
ATOM     45  N   UNL A   1      43.313  26.162  28.135  1.00  0.00    -0.354 N 
ATOM     46  C   UNL A   1      47.645  27.187  26.759  1.00  0.00     0.074 A 
ATOM     47  C   UNL A   1      47.360  27.197  25.353  1.00  0.00     0.031 C 
ATOM     48  C   UNL A   1      41.420  25.036  27.780  1.00  0.00     0.029 A 
ATOM     49  C   UNL A   1      41.951  26.226  28.419  1.00  0.00     0.049 A 
ATOM     50  H   UNL A   1      43.973  26.767  28.546  1.00  0.00     0.167 HD
ATOM     51  C   UNL A   1      48.183  28.149  27.554  1.00  0.00     0.037 A 
ATOM     52  C   UNL A   1      41.332  27.253  29.058  1.00  0.00     0.037 A 
ATOM     53  C   UNL A   1      48.201  27.719  28.932  1.00  0.00     0.049 A 
ATOM     54  C   UNL A   1      42.389  28.003  29.790  1.00  0.00     0.074 A 
ATOM     55  C   UNL A   1      48.754  26.647  29.606  1.00  0.00     0.029 A 
ATOM     56  N   UNL A   1      47.234  28.232  29.762  1.00  0.00    -0.354 N 
ATOM     57  N   UNL A   1      43.046  27.521  30.808  1.00  0.00    -0.248 NA
ATOM     58  C   UNL A   1      43.047  29.092  29.082  1.00  0.00     0.031 C 
ATOM     59  C   UNL A   1      47.799  26.300  30.605  1.00  0.00     0.029 A 
ATOM     60  C   UNL A   1      46.749  27.219  30.545  1.00  0.00     0.049 A 
ATOM     61  H   UNL A   1      46.939  29.171  29.790  1.00  0.00     0.167 HD
ATOM     62  C   UNL A   1      44.359  27.925  30.604  1.00  0.00     0.074 A 
ATOM     63  C   UNL A   1      44.284  28.953  29.567  1.00  0.00     0.031 C 
ATOM     64  C   UNL A   1      45.402  27.177  31.069  1.00  0.00     0.037 A 
BRANCH  51  65
ATOM     65  C   UNL A   1      48.254  29.605  27.154  1.00  0.00     0.057 A 
ATOM     66  C   UNL A   1      49.478  30.277  27.303  1.00  0.00     0.134 A 
ATOM     67  C   UNL A   1      47.143  30.442  26.907  1.00  0.00     0.134 A 
ATOM     68  F   UNL A   1      50.607  29.600  27.558  1.00  0.00    -0.206 F 
ATOM     69  C   UNL A   1      49.575  31.673  27.289  1.00  0.00     0.040 A 
ATOM     70  C   UNL A   1      47.239  31.833  26.836  1.00  0.00     0.040 A 
ATOM     71  F   UNL A   1      45.888  29.992  26.818  1.00  0.00    -0.206 F 
ATOM     72  C   UNL A   1      48.451  32.456  27.061  1.00  0.00     0.006 A 
ENDBRANCH  51  65
BRANCH  52  73
ATOM     73  C   UNL A   1      39.995  27.838  28.792  1.00  0.00     0.057 A 
ATOM     74  C   UNL A   1      39.011  27.872  29.793  1.00  0.00     0.134 A 
ATOM     75  C   UNL A   1      39.741  28.633  27.660  1.00  0.00     0.134 A 
ATOM     76  F   UNL A   1      39.174  27.182  30.931  1.00  0.00    -0.206 F 
ATOM     77  C   UNL A   1      37.863  28.671  29.690  1.00  0.00     0.040 A 
ATOM     78  C   UNL A   1      38.597  29.430  27.540  1.00  0.00     0.040 A 
ATOM     79  F   UNL A   1      40.637  28.739  26.669  1.00  0.00    -0.206 F 
ATOM     80  C   UNL A   1      37.659  29.464  28.565  1.00  0.00     0.006 A 
ENDBRANCH  52  73
BRANCH  64  81
ATOM     81  C   UNL A   1      45.105  26.064  32.037  1.00  0.00     0.057 A 
ATOM     82  C   UNL A   1      44.909  26.245  33.416  1.00  0.00     0.134 A 
ATOM     83  C   UNL A   1      44.809  24.798  31.518  1.00  0.00     0.134 A 
ATOM     84  F   UNL A   1      45.083  27.442  33.990  1.00  0.00    -0.206 F 
ATOM     85  C   UNL A   1      44.455  25.207  34.238  1.00  0.00     0.040 A 
ATOM     86  C   UNL A   1      44.322  23.765  32.321  1.00  0.00     0.040 A 
ATOM     87  F   UNL A   1      44.926  24.567  30.201  1.00  0.00    -0.206 F 
ATOM     88  C   UNL A   1      44.146  23.966  33.687  1.00  0.00     0.006 A 
ENDBRANCH  64  81
ENDBRANCH  38  39
ENDBRANCH  31  33
ENDBRANCH  30  31
ENDBRANCH  29  30
ENDBRANCH  28  29
ENDBRANCH  27  28
ENDBRANCH  26  27
ENDBRANCH  25  26
ENDBRANCH   1  25
TORSDOF 22
ENDMDL
MODEL 3
REMARK VINA RESULT:     -10.2      1.507      2.864
REMARK SMILES Cc1cc(C)n2ncc(C(=O)N(C)CCCC(=O)OCCOCCOCCOC(=O)c3ccc(-c4c5nc(c(-c6c(F)cccc6F)c6ccc([nH]6)c(-c6c(F)cccc6F)c6nc(c(-c7c(F)cccc7F)c7ccc4[nH]7)C=C6)C=C5)cc3)c2n1
REMARK SMILES IDX 22 1 21 2 20 3 19 4 17 5 18 6 16 7 15 8 14 9 12 10 13 11
REMARK SMILES IDX 10 12 11 13 9 14 1 15 2 16 3 17 86 18 4 19 85 20 5 21 6 22
REMARK SMILES IDX 7 23 8 24 23 25 24 26 25 27 26 28 27 29 28 30 29 31 30 32
REMARK SMILES IDX 31 33 32 34 84 35 33 36 83 37 34 38 35 39 36 40 77 41 37 42
REMARK SMILES IDX 82 43 76 44 78 45 38 46 81 47 75 48 74 49 39 51 65 52 48 53
REMARK SMILES IDX 64 54 49 55 52 56 63 57 79 58 50 59 51 60 62 62 80 63 53 64
REMARK SMILES IDX 40 65 41 66 46 67 42 68 43 69 45 70 47 71 44 72 66 73 67 74
REMARK SMILES IDX 72 75 68 76 69 77 71 78 73 79 70 80 54 81 55 82 60 83 56 84
REMARK SMILES IDX 57 85 59 86 61 87 58 88
REMARK H PARENT 78 50 52 61
REMARK Flexibility Score: inf
ROOT
ATOM      1  O   UNL A   1      39.655  20.600  26.081  1.00  0.00    -0.376 OA
ENDROOT
BRANCH   1   2
ATOM      2  C   UNL A   1      38.676  21.598  25.826  1.00  0.00     0.202 C 
BRANCH   2   3
ATOM      3  C   UNL A   1      37.693  21.557  24.635  1.00  0.00     0.261 C 
BRANCH   3   4
ATOM      4  O   UNL A   1      36.582  22.462  24.702  1.00  0.00    -0.463 OA
BRANCH   4   5
ATOM      5  C   UNL A   1      35.347  21.916  24.581  1.00  0.00     0.305 C 
ATOM      6  O   UNL A   1      35.018  20.841  25.077  1.00  0.00    -0.252 OA
BRANCH   5   7
ATOM      7  C   UNL A   1      34.316  22.809  23.904  1.00  0.00     0.124 C 
BRANCH   7   8
ATOM      8  C   UNL A   1      33.817  24.136  24.490  1.00  0.00     0.033 C 
BRANCH   8   9
ATOM      9  C   UNL A   1      33.220  24.152  25.897  1.00  0.00     0.120 C 
BRANCH   9  10
ATOM     10  N   UNL A   1      31.857  23.632  25.909  1.00  0.00    -0.342 N 
ATOM     11  C   UNL A   1      31.760  22.187  26.003  1.00  0.00     0.147 C 
BRANCH  10  12
ATOM     12  C   UNL A   1      30.831  24.582  25.928  1.00  0.00     0.259 C 
ATOM     13  O   UNL A   1      30.043  24.595  26.876  1.00  0.00    -0.269 OA
BRANCH  12  14
ATOM     14  C   UNL A   1      30.717  25.607  24.904  1.00  0.00     0.104 A 
ATOM     15  C   UNL A   1      32.463  29.589  27.257  1.00  0.00     0.067 C 
ATOM     16  C   UNL A   1      31.784  28.855  26.127  1.00  0.00     0.042 A 
ATOM     17  C   UNL A   1      31.231  29.703  25.025  1.00  0.00     0.047 A 
ATOM     18  N   UNL A   1      31.727  27.555  26.160  1.00  0.00    -0.233 NA
ATOM     19  C   UNL A   1      30.701  29.048  23.978  1.00  0.00     0.043 A 
ATOM     20  C   UNL A   1      31.103  26.930  25.109  1.00  0.00     0.168 A 
ATOM     21  C   UNL A   1      30.094  29.741  22.801  1.00  0.00     0.067 C 
ATOM     22  N   UNL A   1      30.662  27.648  23.997  1.00  0.00    -0.219 N 
ATOM     23  N   UNL A   1      30.189  26.823  23.033  1.00  0.00    -0.174 NA
ATOM     24  C   UNL A   1      30.190  25.620  23.602  1.00  0.00     0.151 A 
ENDBRANCH  12  14
ENDBRANCH  10  12
ENDBRANCH   9  10
ENDBRANCH   8   9
ENDBRANCH   7   8
ENDBRANCH   5   7
ENDBRANCH   4   5
ENDBRANCH   3   4
ENDBRANCH   2   3
ENDBRANCH   1   2
BRANCH   1  25
ATOM     25  C   UNL A   1      40.989  20.996  26.272  1.00  0.00     0.188 C 
BRANCH  25  26
ATOM     26  C   UNL A   1      42.082  19.919  26.254  1.00  0.00     0.188 C 
BRANCH  26  27
ATOM     27  O   UNL A   1      42.657  19.349  25.091  1.00  0.00    -0.376 OA
BRANCH  27  28
ATOM     28  C   UNL A   1      44.019  18.982  24.928  1.00  0.00     0.202 C 
BRANCH  28  29
ATOM     29  C   UNL A   1      44.989  19.702  23.994  1.00  0.00     0.261 C 
BRANCH  29  30
ATOM     30  O   UNL A   1      44.589  21.005  23.662  1.00  0.00    -0.460 OA
BRANCH  30  31
ATOM     31  C   UNL A   1      45.293  21.955  24.304  1.00  0.00     0.338 C 
ATOM     32  O   UNL A   1      46.475  22.247  24.166  1.00  0.00    -0.246 OA
BRANCH  31  33
ATOM     33  C   UNL A   1      44.378  22.616  25.227  1.00  0.00     0.060 A 
ATOM     34  C   UNL A   1      43.393  23.434  24.671  1.00  0.00     0.016 A 
ATOM     35  C   UNL A   1      44.709  22.633  26.587  1.00  0.00     0.016 A 
ATOM     36  C   UNL A   1      42.966  24.497  25.419  1.00  0.00     0.010 A 
ATOM     37  C   UNL A   1      44.315  23.713  27.317  1.00  0.00     0.010 A 
ATOM     38  C   UNL A   1      43.550  24.681  26.674  1.00  0.00    -0.014 A 
BRANCH  38  39
ATOM     39  C   UNL A   1      43.332  25.928  27.355  1.00  0.00     0.031 A 
ATOM     40  C   UNL A   1      44.385  26.904  27.036  1.00  0.00     0.074 A 
ATOM     41  C   UNL A   1      42.221  26.127  28.089  1.00  0.00     0.049 A 
ATOM     42  N   UNL A   1      45.341  27.294  27.809  1.00  0.00    -0.248 NA
ATOM     43  C   UNL A   1      44.546  27.301  25.627  1.00  0.00     0.031 C 
ATOM     44  C   UNL A   1      41.047  25.254  28.207  1.00  0.00     0.029 A 
ATOM     45  N   UNL A   1      41.863  27.217  28.814  1.00  0.00    -0.354 N 
ATOM     46  C   UNL A   1      46.058  28.204  27.044  1.00  0.00     0.074 A 
ATOM     47  C   UNL A   1      45.710  27.949  25.675  1.00  0.00     0.031 C 
ATOM     48  C   UNL A   1      40.028  25.948  28.767  1.00  0.00     0.029 A 
ATOM     49  C   UNL A   1      40.514  27.259  29.157  1.00  0.00     0.049 A 
ATOM     50  H   UNL A   1      42.502  27.919  29.076  1.00  0.00     0.167 HD
ATOM     51  C   UNL A   1      46.572  29.319  27.627  1.00  0.00     0.037 A 
ATOM     52  C   UNL A   1      39.862  28.349  29.640  1.00  0.00     0.037 A 
ATOM     53  C   UNL A   1      46.678  29.143  29.056  1.00  0.00     0.049 A 
ATOM     54  C   UNL A   1      40.903  29.272  30.170  1.00  0.00     0.074 A 
ATOM     55  C   UNL A   1      47.325  28.238  29.876  1.00  0.00     0.029 A 
ATOM     56  N   UNL A   1      45.720  29.745  29.835  1.00  0.00    -0.354 N 
ATOM     57  N   UNL A   1      41.634  29.014  31.219  1.00  0.00    -0.248 NA
ATOM     58  C   UNL A   1      41.462  30.250  29.246  1.00  0.00     0.031 C 
ATOM     59  C   UNL A   1      46.439  28.025  30.972  1.00  0.00     0.029 A 
ATOM     60  C   UNL A   1      45.333  28.863  30.809  1.00  0.00     0.049 A 
ATOM     61  H   UNL A   1      45.369  30.657  29.714  1.00  0.00     0.167 HD
ATOM     62  C   UNL A   1      42.909  29.444  30.875  1.00  0.00     0.074 A 
ATOM     63  C   UNL A   1      42.725  30.265  29.680  1.00  0.00     0.031 C 
ATOM     64  C   UNL A   1      44.016  28.846  31.406  1.00  0.00     0.037 A 
BRANCH  51  65
ATOM     65  C   UNL A   1      46.536  30.682  26.975  1.00  0.00     0.057 A 
ATOM     66  C   UNL A   1      47.720  31.436  26.942  1.00  0.00     0.134 A 
ATOM     67  C   UNL A   1      45.366  31.401  26.641  1.00  0.00     0.134 A 
ATOM     68  F   UNL A   1      48.899  30.877  27.254  1.00  0.00    -0.206 F 
ATOM     69  C   UNL A   1      47.729  32.810  26.679  1.00  0.00     0.040 A 
ATOM     70  C   UNL A   1      45.372  32.760  26.322  1.00  0.00     0.040 A 
ATOM     71  F   UNL A   1      44.139  30.874  26.695  1.00  0.00    -0.206 F 
ATOM     72  C   UNL A   1      46.551  33.478  26.373  1.00  0.00     0.006 A 
ENDBRANCH  51  65
BRANCH  52  73
ATOM     73  C   UNL A   1      38.482  28.807  29.349  1.00  0.00     0.057 A 
ATOM     74  C   UNL A   1      37.533  28.933  30.377  1.00  0.00     0.134 A 
ATOM     75  C   UNL A   1      38.137  29.407  28.124  1.00  0.00     0.134 A 
ATOM     76  F   UNL A   1      37.781  28.433  31.596  1.00  0.00    -0.206 F 
ATOM     77  C   UNL A   1      36.332  29.638  30.207  1.00  0.00     0.040 A 
ATOM     78  C   UNL A   1      36.940  30.107  27.938  1.00  0.00     0.040 A 
ATOM     79  F   UNL A   1      38.990  29.415  27.090  1.00  0.00    -0.206 F 
ATOM     80  C   UNL A   1      36.038  30.239  28.987  1.00  0.00     0.006 A 
ENDBRANCH  52  73
BRANCH  64  81
ATOM     81  C   UNL A   1      43.831  27.908  32.569  1.00  0.00     0.057 A 
ATOM     82  C   UNL A   1      43.784  26.509  32.458  1.00  0.00     0.134 A 
ATOM     83  C   UNL A   1      43.904  28.437  33.863  1.00  0.00     0.134 A 
ATOM     84  F   UNL A   1      43.797  25.907  31.262  1.00  0.00    -0.206 F 
ATOM     85  C   UNL A   1      43.794  25.680  33.586  1.00  0.00     0.040 A 
ATOM     86  C   UNL A   1      43.951  27.621  34.994  1.00  0.00     0.040 A 
ATOM     87  F   UNL A   1      44.001  29.764  34.043  1.00  0.00    -0.206 F 
ATOM     88  C   UNL A   1      43.893  26.237  34.858  1.00  0.00     0.006 A 
ENDBRANCH  64  81
ENDBRANCH  38  39
ENDBRANCH  31  33
ENDBRANCH  30  31
ENDBRANCH  29  30
ENDBRANCH  28  29
ENDBRANCH  27  28
ENDBRANCH  26  27
ENDBRANCH  25  26
ENDBRANCH   1  25
TORSDOF 22
ENDMDL
