MODEL 1
REMARK VINA RESULT:     -12.3      0.000      0.000
REMARK SMILES O=C(OCCOCCOCCOC(=O)c1ccc(-c2c3nc(c(-c4c(F)cccc4F)c4ccc([nH]4)c(-c4c(F)cccc4F)c4nc(c(-c5c(F)cccc5F)c5ccc2[nH]5)C=C4)C=C3)cc1)C1=Cc2cc(Cl)cc(C#Cc3ccccc3)c2O[C@@H]1C(F)(F)F
REMARK SMILES IDX 7 1 6 2 5 3 4 4 3 5 2 6 1 7 69 8 70 9 87 10 71 11 86 12
REMARK SMILES IDX 72 13 85 14 73 15 76 16 74 17 75 18 88 19 89 20 90 21 91 22
REMARK SMILES IDX 77 23 78 24 79 25 80 26 84 27 81 28 83 29 82 30 8 31 9 32
REMARK SMILES IDX 10 33 11 34 12 35 13 36 14 37 15 38 16 39 68 40 17 41 67 42
REMARK SMILES IDX 18 43 19 44 20 45 61 46 21 47 66 48 60 49 62 50 22 51 65 52
REMARK SMILES IDX 59 53 58 54 23 56 49 57 32 58 48 59 33 60 36 61 47 62 63 63
REMARK SMILES IDX 34 64 35 65 46 67 64 68 37 69 24 70 25 71 30 72 26 73 27 74
REMARK SMILES IDX 29 75 31 76 28 77 50 78 51 79 56 80 52 81 53 82 55 83 57 84
REMARK SMILES IDX 54 85 38 86 39 87 44 88 40 89 41 90 43 91 45 92 42 93
REMARK H PARENT 62 55 36 66
REMARK Flexibility Score: inf
ROOT
ATOM      1  C   UNL A   1      35.377  21.368  26.097  1.00  0.00     0.188 C 
ENDROOT
BRANCH   1   2
ATOM      2  O   UNL A   1      34.582  22.412  26.817  1.00  0.00    -0.376 OA
BRANCH   2   3
ATOM      3  C   UNL A   1      32.886  22.399  27.184  1.00  0.00     0.202 C 
BRANCH   3   4
ATOM      4  C   UNL A   1      31.321  22.511  25.670  1.00  0.00     0.261 C 
BRANCH   4   5
ATOM      5  O   UNL A   1      30.990  23.728  24.815  1.00  0.00    -0.460 OA
BRANCH   5   6
ATOM      6  C   UNL A   1      30.886  24.845  25.549  1.00  0.00     0.338 C 
ATOM      7  O   UNL A   1      30.092  25.093  26.425  1.00  0.00    -0.246 OA
BRANCH   6   8
ATOM      8  C   UNL A   1      31.577  25.722  24.618  1.00  0.00     0.087 C 
ATOM      9  C   UNL A   1      30.807  26.824  24.063  1.00  0.00     0.027 C 
ATOM     10  C   UNL A   1      33.090  25.921  25.780  1.00  0.00     0.316 C 
ATOM     11  C   UNL A   1      30.945  28.525  24.612  1.00  0.00     0.020 A 
ATOM     12  O   UNL A   1      33.152  27.730  26.531  1.00  0.00    -0.474 OA
ATOM     13  C   UNL A   1      30.101  29.452  24.063  1.00  0.00     0.032 A 
ATOM     14  C   UNL A   1      32.036  29.019  25.867  1.00  0.00     0.143 A 
ATOM     15  C   UNL A   1      30.249  30.753  24.557  1.00  0.00     0.043 A 
ATOM     16  C   UNL A   1      32.106  30.327  26.282  1.00  0.00     0.069 A 
ATOM     17  Cl  UNL A   1      29.219  31.970  23.872  1.00  0.00    -0.084 Cl
ATOM     18  C   UNL A   1      31.189  31.165  25.584  1.00  0.00     0.041 A 
BRANCH  10  19
ATOM     19  C   UNL A   1      34.114  25.104  24.694  1.00  0.00     0.430 C 
ATOM     20  F   UNL A   1      33.740  23.966  24.097  1.00  0.00    -0.167 F 
ATOM     21  F   UNL A   1      34.505  25.958  23.716  1.00  0.00    -0.167 F 
ATOM     22  F   UNL A   1      35.281  24.734  25.315  1.00  0.00    -0.167 F 
ENDBRANCH  10  19
BRANCH  16  23
ATOM     23  C   UNL A   1      32.961  30.937  27.237  1.00  0.00    -0.058 C 
ATOM     24  C   UNL A   1      33.776  31.544  27.891  1.00  0.00    -0.062 C 
BRANCH  24  25
ATOM     25  C   UNL A   1      34.784  32.240  28.631  1.00  0.00     0.025 A 
ATOM     26  C   UNL A   1      35.883  32.767  27.952  1.00  0.00     0.017 A 
ATOM     27  C   UNL A   1      34.683  32.410  30.017  1.00  0.00     0.017 A 
ATOM     28  C   UNL A   1      36.889  33.438  28.650  1.00  0.00     0.001 A 
ATOM     29  C   UNL A   1      35.691  33.082  30.716  1.00  0.00     0.001 A 
ATOM     30  C   UNL A   1      36.797  33.590  30.033  1.00  0.00     0.000 A 
ENDBRANCH  24  25
ENDBRANCH  16  23
ENDBRANCH   6   8
ENDBRANCH   5   6
ENDBRANCH   4   5
ENDBRANCH   3   4
ENDBRANCH   2   3
ENDBRANCH   1   2
BRANCH   1  31
ATOM     31  C   UNL A   1      35.760  21.512  24.616  1.00  0.00     0.188 C 
BRANCH  31  32
ATOM     32  O   UNL A   1      37.109  21.679  24.268  1.00  0.00    -0.376 OA
BRANCH  32  33
ATOM     33  C   UNL A   1      38.048  21.424  25.302  1.00  0.00     0.202 C 
BRANCH  33  34
ATOM     34  C   UNL A   1      38.816  20.097  25.272  1.00  0.00     0.261 C 
BRANCH  34  35
ATOM     35  O   UNL A   1      39.673  19.869  26.409  1.00  0.00    -0.460 OA
BRANCH  35  36
ATOM     36  C   UNL A   1      40.997  19.713  26.168  1.00  0.00     0.338 C 
ATOM     37  O   UNL A   1      41.550  18.786  25.603  1.00  0.00    -0.246 OA
BRANCH  36  38
ATOM     38  C   UNL A   1      41.704  20.940  26.587  1.00  0.00     0.060 A 
ATOM     39  C   UNL A   1      41.941  21.190  27.947  1.00  0.00     0.016 A 
ATOM     40  C   UNL A   1      42.103  21.859  25.619  1.00  0.00     0.016 A 
ATOM     41  C   UNL A   1      42.632  22.341  28.335  1.00  0.00     0.010 A 
ATOM     42  C   UNL A   1      42.746  23.033  26.012  1.00  0.00     0.010 A 
ATOM     43  C   UNL A   1      43.016  23.281  27.370  1.00  0.00    -0.014 A 
BRANCH  43  44
ATOM     44  C   UNL A   1      43.537  24.609  27.773  1.00  0.00     0.031 A 
ATOM     45  C   UNL A   1      42.546  25.665  28.170  1.00  0.00     0.074 A 
ATOM     46  C   UNL A   1      44.852  24.888  27.738  1.00  0.00     0.049 A 
ATOM     47  N   UNL A   1      42.743  26.927  28.443  1.00  0.00    -0.248 NA
ATOM     48  C   UNL A   1      41.139  25.238  28.261  1.00  0.00     0.031 C 
ATOM     49  C   UNL A   1      45.906  23.938  27.392  1.00  0.00     0.029 A 
ATOM     50  N   UNL A   1      45.524  26.062  27.980  1.00  0.00    -0.354 N 
ATOM     51  C   UNL A   1      41.487  27.450  28.720  1.00  0.00     0.074 A 
ATOM     52  C   UNL A   1      40.532  26.375  28.571  1.00  0.00     0.031 C 
ATOM     53  C   UNL A   1      47.093  24.569  27.429  1.00  0.00     0.029 A 
ATOM     54  C   UNL A   1      46.878  25.978  27.753  1.00  0.00     0.049 A 
ATOM     55  H   UNL A   1      45.079  26.885  28.286  1.00  0.00     0.167 HD
ATOM     56  C   UNL A   1      41.163  28.718  29.060  1.00  0.00     0.037 A 
ATOM     57  C   UNL A   1      47.824  26.940  27.768  1.00  0.00     0.037 A 
ATOM     58  C   UNL A   1      42.117  29.786  29.190  1.00  0.00     0.049 A 
ATOM     59  C   UNL A   1      47.418  28.363  28.080  1.00  0.00     0.074 A 
ATOM     60  C   UNL A   1      41.889  31.100  29.560  1.00  0.00     0.029 A 
ATOM     61  N   UNL A   1      43.475  29.670  28.936  1.00  0.00    -0.354 N 
ATOM     62  N   UNL A   1      46.235  28.839  28.392  1.00  0.00    -0.248 NA
ATOM     63  C   UNL A   1      48.475  29.384  28.030  1.00  0.00     0.031 C 
ATOM     64  C   UNL A   1      43.095  31.796  29.455  1.00  0.00     0.029 A 
ATOM     65  C   UNL A   1      44.090  30.900  29.097  1.00  0.00     0.049 A 
ATOM     66  H   UNL A   1      43.933  28.837  28.680  1.00  0.00     0.167 HD
ATOM     67  C   UNL A   1      46.414  30.203  28.598  1.00  0.00     0.074 A 
ATOM     68  C   UNL A   1      47.822  30.474  28.406  1.00  0.00     0.031 C 
ATOM     69  C   UNL A   1      45.495  31.151  28.907  1.00  0.00     0.037 A 
BRANCH  56  70
ATOM     70  C   UNL A   1      39.714  29.037  29.278  1.00  0.00     0.057 A 
ATOM     71  C   UNL A   1      38.850  29.340  28.219  1.00  0.00     0.134 A 
ATOM     72  C   UNL A   1      39.162  28.970  30.564  1.00  0.00     0.134 A 
ATOM     73  F   UNL A   1      39.318  29.435  26.965  1.00  0.00    -0.206 F 
ATOM     74  C   UNL A   1      37.490  29.572  28.431  1.00  0.00     0.040 A 
ATOM     75  C   UNL A   1      37.799  29.171  30.785  1.00  0.00     0.040 A 
ATOM     76  F   UNL A   1      39.934  28.685  31.623  1.00  0.00    -0.206 F 
ATOM     77  C   UNL A   1      36.959  29.475  29.717  1.00  0.00     0.006 A 
ENDBRANCH  56  70
BRANCH  57  78
ATOM     78  C   UNL A   1      49.240  26.628  27.426  1.00  0.00     0.057 A 
ATOM     79  C   UNL A   1      49.684  26.606  26.097  1.00  0.00     0.134 A 
ATOM     80  C   UNL A   1      50.166  26.264  28.413  1.00  0.00     0.134 A 
ATOM     81  F   UNL A   1      48.842  26.914  25.099  1.00  0.00    -0.206 F 
ATOM     82  C   UNL A   1      50.978  26.198  25.760  1.00  0.00     0.040 A 
ATOM     83  C   UNL A   1      51.475  25.893  28.092  1.00  0.00     0.040 A 
ATOM     84  F   UNL A   1      49.814  26.255  29.705  1.00  0.00    -0.206 F 
ATOM     85  C   UNL A   1      51.878  25.844  26.760  1.00  0.00     0.006 A 
ENDBRANCH  57  78
BRANCH  69  86
ATOM     86  C   UNL A   1      45.985  32.560  29.089  1.00  0.00     0.057 A 
ATOM     87  C   UNL A   1      45.990  33.486  28.038  1.00  0.00     0.134 A 
ATOM     88  C   UNL A   1      46.410  33.011  30.347  1.00  0.00     0.134 A 
ATOM     89  F   UNL A   1      45.603  33.120  26.807  1.00  0.00    -0.206 F 
ATOM     90  C   UNL A   1      46.430  34.797  28.223  1.00  0.00     0.040 A 
ATOM     91  C   UNL A   1      46.817  34.330  30.551  1.00  0.00     0.040 A 
ATOM     92  F   UNL A   1      46.416  32.183  31.403  1.00  0.00    -0.206 F 
ATOM     93  C   UNL A   1      46.836  35.226  29.485  1.00  0.00     0.006 A 
ENDBRANCH  69  86
ENDBRANCH  43  44
ENDBRANCH  36  38
ENDBRANCH  35  36
ENDBRANCH  34  35
ENDBRANCH  33  34
ENDBRANCH  32  33
ENDBRANCH  31  32
ENDBRANCH   1  31
TORSDOF 20
ENDMDL
MODEL 2
REMARK VINA RESULT:     -11.1      5.381     10.424
REMARK SMILES O=C(OCCOCCOCCOC(=O)c1ccc(-c2c3nc(c(-c4c(F)cccc4F)c4ccc([nH]4)c(-c4c(F)cccc4F)c4nc(c(-c5c(F)cccc5F)c5ccc2[nH]5)C=C4)C=C3)cc1)C1=Cc2cc(Cl)cc(C#Cc3ccccc3)c2O[C@@H]1C(F)(F)F
REMARK SMILES IDX 7 1 6 2 5 3 4 4 3 5 2 6 1 7 69 8 70 9 87 10 71 11 86 12
REMARK SMILES IDX 72 13 85 14 73 15 76 16 74 17 75 18 88 19 89 20 90 21 91 22
REMARK SMILES IDX 77 23 78 24 79 25 80 26 84 27 81 28 83 29 82 30 8 31 9 32
REMARK SMILES IDX 10 33 11 34 12 35 13 36 14 37 15 38 16 39 68 40 17 41 67 42
REMARK SMILES IDX 18 43 19 44 20 45 61 46 21 47 66 48 60 49 62 50 22 51 65 52
REMARK SMILES IDX 59 53 58 54 23 56 49 57 32 58 48 59 33 60 36 61 47 62 63 63
REMARK SMILES IDX 34 64 35 65 46 67 64 68 37 69 24 70 25 71 30 72 26 73 27 74
REMARK SMILES IDX 29 75 31 76 28 77 50 78 51 79 56 80 52 81 53 82 55 83 57 84
REMARK SMILES IDX 54 85 38 86 39 87 44 88 40 89 41 90 43 91 45 92 42 93
REMARK H PARENT 62 55 36 66
REMARK Flexibility Score: inf
ROOT
ATOM      1  C   UNL A   1      40.516  36.093  37.880  1.00  0.00     0.188 C 
ENDROOT
BRANCH   1   2
ATOM      2  O   UNL A   1      40.022  34.932  38.685  1.00  0.00    -0.376 OA
BRANCH   2   3
ATOM      3  C   UNL A   1      39.855  33.279  38.185  1.00  0.00     0.202 C 
BRANCH   3   4
ATOM      4  C   UNL A   1      37.941  32.340  37.730  1.00  0.00     0.261 C 
BRANCH   4   5
ATOM      5  O   UNL A   1      37.479  31.872  36.356  1.00  0.00    -0.460 OA
BRANCH   5   6
ATOM      6  C   UNL A   1      37.682  32.802  35.413  1.00  0.00     0.338 C 
ATOM      7  O   UNL A   1      37.400  33.976  35.448  1.00  0.00    -0.246 OA
BRANCH   6   8
ATOM      8  C   UNL A   1      37.786  31.885  34.291  1.00  0.00     0.087 C 
ATOM      9  C   UNL A   1      36.721  31.938  33.302  1.00  0.00     0.027 C 
ATOM     10  C   UNL A   1      39.616  32.352  33.954  1.00  0.00     0.316 C 
ATOM     11  C   UNL A   1      36.872  32.736  31.703  1.00  0.00     0.020 A 
ATOM     12  O   UNL A   1      39.773  33.383  32.296  1.00  0.00    -0.474 OA
ATOM     13  C   UNL A   1      35.765  32.785  30.900  1.00  0.00     0.032 A 
ATOM     14  C   UNL A   1      38.329  33.518  31.181  1.00  0.00     0.143 A 
ATOM     15  C   UNL A   1      35.950  33.445  29.678  1.00  0.00     0.043 A 
ATOM     16  C   UNL A   1      38.409  34.141  29.957  1.00  0.00     0.069 A 
ATOM     17  Cl  UNL A   1      34.583  33.511  28.612  1.00  0.00    -0.084 Cl
ATOM     18  C   UNL A   1      37.184  34.069  29.234  1.00  0.00     0.041 A 
BRANCH  10  19
ATOM     19  C   UNL A   1      40.160  30.798  34.384  1.00  0.00     0.430 C 
ATOM     20  F   UNL A   1      39.400  29.711  34.200  1.00  0.00    -0.167 F 
ATOM     21  F   UNL A   1      41.352  30.558  33.786  1.00  0.00    -0.167 F 
ATOM     22  F   UNL A   1      40.430  30.735  35.729  1.00  0.00    -0.167 F 
ENDBRANCH  10  19
BRANCH  16  23
ATOM     23  C   UNL A   1      39.510  34.777  29.328  1.00  0.00    -0.058 C 
ATOM     24  C   UNL A   1      40.561  35.181  28.887  1.00  0.00    -0.062 C 
BRANCH  24  25
ATOM     25  C   UNL A   1      41.825  35.662  28.420  1.00  0.00     0.025 A 
ATOM     26  C   UNL A   1      41.984  37.027  28.176  1.00  0.00     0.017 A 
ATOM     27  C   UNL A   1      42.903  34.794  28.213  1.00  0.00     0.017 A 
ATOM     28  C   UNL A   1      43.201  37.523  27.706  1.00  0.00     0.001 A 
ATOM     29  C   UNL A   1      44.123  35.292  27.742  1.00  0.00     0.001 A 
ATOM     30  C   UNL A   1      44.269  36.655  27.482  1.00  0.00     0.000 A 
ENDBRANCH  24  25
ENDBRANCH  16  23
ENDBRANCH   6   8
ENDBRANCH   5   6
ENDBRANCH   4   5
ENDBRANCH   3   4
ENDBRANCH   2   3
ENDBRANCH   1   2
BRANCH   1  31
ATOM     31  C   UNL A   1      41.979  36.558  37.932  1.00  0.00     0.188 C 
BRANCH  31  32
ATOM     32  O   UNL A   1      42.753  36.527  36.762  1.00  0.00    -0.376 OA
BRANCH  32  33
ATOM     33  C   UNL A   1      42.029  36.601  35.542  1.00  0.00     0.202 C 
BRANCH  33  34
ATOM     34  C   UNL A   1      42.687  37.311  34.353  1.00  0.00     0.261 C 
BRANCH  34  35
ATOM     35  O   UNL A   1      43.213  36.430  33.339  1.00  0.00    -0.460 OA
BRANCH  35  36
ATOM     36  C   UNL A   1      44.383  35.801  33.609  1.00  0.00     0.338 C 
ATOM     37  O   UNL A   1      45.240  36.130  34.410  1.00  0.00    -0.246 OA
BRANCH  36  38
ATOM     38  C   UNL A   1      44.423  34.531  32.858  1.00  0.00     0.060 A 
ATOM     39  C   UNL A   1      44.715  34.529  31.486  1.00  0.00     0.016 A 
ATOM     40  C   UNL A   1      44.137  33.340  33.521  1.00  0.00     0.016 A 
ATOM     41  C   UNL A   1      44.776  33.320  30.786  1.00  0.00     0.010 A 
ATOM     42  C   UNL A   1      44.147  32.140  32.811  1.00  0.00     0.010 A 
ATOM     43  C   UNL A   1      44.467  32.121  31.441  1.00  0.00    -0.014 A 
BRANCH  43  44
ATOM     44  C   UNL A   1      44.296  30.864  30.675  1.00  0.00     0.031 A 
ATOM     45  C   UNL A   1      42.907  30.474  30.260  1.00  0.00     0.074 A 
ATOM     46  C   UNL A   1      45.340  30.062  30.399  1.00  0.00     0.049 A 
ATOM     47  N   UNL A   1      42.488  29.373  29.694  1.00  0.00    -0.248 NA
ATOM     48  C   UNL A   1      41.844  31.458  30.530  1.00  0.00     0.031 C 
ATOM     49  C   UNL A   1      46.733  30.348  30.731  1.00  0.00     0.029 A 
ATOM     50  N   UNL A   1      45.385  28.830  29.791  1.00  0.00    -0.354 N 
ATOM     51  C   UNL A   1      41.115  29.523  29.556  1.00  0.00     0.074 A 
ATOM     52  C   UNL A   1      40.767  30.813  30.108  1.00  0.00     0.031 C 
ATOM     53  C   UNL A   1      47.497  29.314  30.337  1.00  0.00     0.029 A 
ATOM     54  C   UNL A   1      46.643  28.273  29.769  1.00  0.00     0.049 A 
ATOM     55  H   UNL A   1      44.593  28.389  29.409  1.00  0.00     0.167 HD
ATOM     56  C   UNL A   1      40.226  28.654  29.024  1.00  0.00     0.037 A 
ATOM     57  C   UNL A   1      47.044  27.048  29.371  1.00  0.00     0.037 A 
ATOM     58  C   UNL A   1      40.578  27.366  28.492  1.00  0.00     0.049 A 
ATOM     59  C   UNL A   1      46.015  26.073  28.849  1.00  0.00     0.074 A 
ATOM     60  C   UNL A   1      39.752  26.425  27.903  1.00  0.00     0.029 A 
ATOM     61  N   UNL A   1      41.856  26.827  28.502  1.00  0.00    -0.354 N 
ATOM     62  N   UNL A   1      44.725  26.241  28.674  1.00  0.00    -0.248 NA
ATOM     63  C   UNL A   1      46.494  24.731  28.479  1.00  0.00     0.031 C 
ATOM     64  C   UNL A   1      40.514  25.289  27.627  1.00  0.00     0.029 A 
ATOM     65  C   UNL A   1      41.831  25.549  27.970  1.00  0.00     0.049 A 
ATOM     66  H   UNL A   1      42.660  27.287  28.836  1.00  0.00     0.167 HD
ATOM     67  C   UNL A   1      44.249  25.042  28.154  1.00  0.00     0.074 A 
ATOM     68  C   UNL A   1      45.391  24.165  28.013  1.00  0.00     0.031 C 
ATOM     69  C   UNL A   1      42.980  24.692  27.832  1.00  0.00     0.037 A 
BRANCH  56  70
ATOM     70  C   UNL A   1      38.778  29.045  29.024  1.00  0.00     0.057 A 
ATOM     71  C   UNL A   1      37.976  28.936  30.166  1.00  0.00     0.134 A 
ATOM     72  C   UNL A   1      38.198  29.604  27.877  1.00  0.00     0.134 A 
ATOM     73  F   UNL A   1      38.466  28.394  31.292  1.00  0.00    -0.206 F 
ATOM     74  C   UNL A   1      36.648  29.364  30.167  1.00  0.00     0.040 A 
ATOM     75  C   UNL A   1      36.880  30.062  27.875  1.00  0.00     0.040 A 
ATOM     76  F   UNL A   1      38.911  29.737  26.748  1.00  0.00    -0.206 F 
ATOM     77  C   UNL A   1      36.101  29.941  29.021  1.00  0.00     0.006 A 
ENDBRANCH  56  70
BRANCH  57  78
ATOM     78  C   UNL A   1      48.470  26.632  29.496  1.00  0.00     0.057 A 
ATOM     79  C   UNL A   1      48.969  26.077  30.682  1.00  0.00     0.134 A 
ATOM     80  C   UNL A   1      49.388  26.851  28.460  1.00  0.00     0.134 A 
ATOM     81  F   UNL A   1      48.152  25.868  31.726  1.00  0.00    -0.206 F 
ATOM     82  C   UNL A   1      50.328  25.795  30.848  1.00  0.00     0.040 A 
ATOM     83  C   UNL A   1      50.742  26.536  28.599  1.00  0.00     0.040 A 
ATOM     84  F   UNL A   1      48.986  27.384  27.298  1.00  0.00    -0.206 F 
ATOM     85  C   UNL A   1      51.218  26.022  29.802  1.00  0.00     0.006 A 
ENDBRANCH  57  78
BRANCH  69  86
ATOM     86  C   UNL A   1      42.761  23.316  27.266  1.00  0.00     0.057 A 
ATOM     87  C   UNL A   1      43.008  23.019  25.920  1.00  0.00     0.134 A 
ATOM     88  C   UNL A   1      42.345  22.263  28.093  1.00  0.00     0.134 A 
ATOM     89  F   UNL A   1      43.401  23.981  25.072  1.00  0.00    -0.206 F 
ATOM     90  C   UNL A   1      42.820  21.733  25.410  1.00  0.00     0.040 A 
ATOM     91  C   UNL A   1      42.188  20.966  27.602  1.00  0.00     0.040 A 
ATOM     92  F   UNL A   1      42.105  22.472  29.397  1.00  0.00    -0.206 F 
ATOM     93  C   UNL A   1      42.418  20.700  26.255  1.00  0.00     0.006 A 
ENDBRANCH  69  86
ENDBRANCH  43  44
ENDBRANCH  36  38
ENDBRANCH  35  36
ENDBRANCH  34  35
ENDBRANCH  33  34
ENDBRANCH  32  33
ENDBRANCH  31  32
ENDBRANCH   1  31
TORSDOF 20
ENDMDL
MODEL 3
REMARK VINA RESULT:     -10.6      5.035     10.811
REMARK SMILES O=C(OCCOCCOCCOC(=O)c1ccc(-c2c3nc(c(-c4c(F)cccc4F)c4ccc([nH]4)c(-c4c(F)cccc4F)c4nc(c(-c5c(F)cccc5F)c5ccc2[nH]5)C=C4)C=C3)cc1)C1=Cc2cc(Cl)cc(C#Cc3ccccc3)c2O[C@@H]1C(F)(F)F
REMARK SMILES IDX 7 1 6 2 5 3 4 4 3 5 2 6 1 7 69 8 70 9 87 10 71 11 86 12
REMARK SMILES IDX 72 13 85 14 73 15 76 16 74 17 75 18 88 19 89 20 90 21 91 22
REMARK SMILES IDX 77 23 78 24 79 25 80 26 84 27 81 28 83 29 82 30 8 31 9 32
REMARK SMILES IDX 10 33 11 34 12 35 13 36 14 37 15 38 16 39 68 40 17 41 67 42
REMARK SMILES IDX 18 43 19 44 20 45 61 46 21 47 66 48 60 49 62 50 22 51 65 52
REMARK SMILES IDX 59 53 58 54 23 56 49 57 32 58 48 59 33 60 36 61 47 62 63 63
REMARK SMILES IDX 34 64 35 65 46 67 64 68 37 69 24 70 25 71 30 72 26 73 27 74
REMARK SMILES IDX 29 75 31 76 28 77 50 78 51 79 56 80 52 81 53 82 55 83 57 84
REMARK SMILES IDX 54 85 38 86 39 87 44 88 40 89 41 90 43 91 45 92 42 93
REMARK H PARENT 62 55 36 66
REMARK Flexibility Score: inf
ROOT
ATOM      1  C   UNL A   1      37.903  32.760  30.447  1.00  0.00     0.188 C 
ENDROOT
BRANCH   1   2
ATOM      2  O   UNL A   1      38.114  32.025  29.160  1.00  0.00    -0.376 OA
BRANCH   2   3
ATOM      3  C   UNL A   1      38.577  30.367  28.941  1.00  0.00     0.202 C 
BRANCH   3   4
ATOM      4  C   UNL A   1      40.577  29.605  29.359  1.00  0.00     0.261 C 
BRANCH   4   5
ATOM      5  O   UNL A   1      40.923  28.494  30.342  1.00  0.00    -0.460 OA
BRANCH   5   6
ATOM      6  C   UNL A   1      41.951  27.747  29.916  1.00  0.00     0.338 C 
ATOM      7  O   UNL A   1      42.990  27.510  30.486  1.00  0.00    -0.246 OA
BRANCH   6   8
ATOM      8  C   UNL A   1      41.645  27.833  28.498  1.00  0.00     0.087 C 
ATOM      9  C   UNL A   1      42.653  28.445  27.647  1.00  0.00     0.027 C 
ATOM     10  C   UNL A   1      41.104  25.995  28.405  1.00  0.00     0.316 C 
ATOM     11  C   UNL A   1      43.771  27.523  26.590  1.00  0.00     0.020 A 
ATOM     12  O   UNL A   1      42.414  24.938  27.402  1.00  0.00    -0.474 OA
ATOM     13  C   UNL A   1      44.730  28.218  25.903  1.00  0.00     0.032 A 
ATOM     14  C   UNL A   1      43.742  25.793  26.478  1.00  0.00     0.143 A 
ATOM     15  C   UNL A   1      45.582  27.432  25.118  1.00  0.00     0.043 A 
ATOM     16  C   UNL A   1      44.625  25.111  25.675  1.00  0.00     0.069 A 
ATOM     17  Cl  UNL A   1      46.797  28.268  24.206  1.00  0.00    -0.084 Cl
ATOM     18  C   UNL A   1      45.528  25.985  25.004  1.00  0.00     0.041 A 
BRANCH  10  19
ATOM     19  C   UNL A   1      39.490  26.419  28.074  1.00  0.00     0.430 C 
ATOM     20  F   UNL A   1      39.182  27.509  27.360  1.00  0.00    -0.167 F 
ATOM     21  F   UNL A   1      38.860  25.369  27.492  1.00  0.00    -0.167 F 
ATOM     22  F   UNL A   1      38.798  26.634  29.240  1.00  0.00    -0.167 F 
ENDBRANCH  10  19
BRANCH  16  23
ATOM     23  C   UNL A   1      44.725  23.722  25.402  1.00  0.00    -0.058 C 
ATOM     24  C   UNL A   1      44.802  22.517  25.370  1.00  0.00    -0.062 C 
BRANCH  24  25
ATOM     25  C   UNL A   1      44.939  21.092  25.370  1.00  0.00     0.025 A 
ATOM     26  C   UNL A   1      46.218  20.533  25.374  1.00  0.00     0.017 A 
ATOM     27  C   UNL A   1      43.819  20.253  25.377  1.00  0.00     0.017 A 
ATOM     28  C   UNL A   1      46.382  19.147  25.358  1.00  0.00     0.001 A 
ATOM     29  C   UNL A   1      43.984  18.863  25.361  1.00  0.00     0.001 A 
ATOM     30  C   UNL A   1      45.266  18.311  25.345  1.00  0.00     0.000 A 
ENDBRANCH  24  25
ENDBRANCH  16  23
ENDBRANCH   6   8
ENDBRANCH   5   6
ENDBRANCH   4   5
ENDBRANCH   3   4
ENDBRANCH   2   3
ENDBRANCH   1   2
BRANCH   1  31
ATOM     31  C   UNL A   1      36.512  33.228  30.900  1.00  0.00     0.188 C 
BRANCH  31  32
ATOM     32  O   UNL A   1      35.838  32.512  31.903  1.00  0.00    -0.376 OA
BRANCH  32  33
ATOM     33  C   UNL A   1      35.021  33.286  32.768  1.00  0.00     0.202 C 
BRANCH  33  34
ATOM     34  C   UNL A   1      35.471  33.461  34.224  1.00  0.00     0.261 C 
BRANCH  34  35
ATOM     35  O   UNL A   1      36.891  33.638  34.399  1.00  0.00    -0.460 OA
BRANCH  35  36
ATOM     36  C   UNL A   1      37.529  32.769  35.222  1.00  0.00     0.338 C 
ATOM     37  O   UNL A   1      37.156  32.356  36.306  1.00  0.00    -0.246 OA
BRANCH  36  38
ATOM     38  C   UNL A   1      38.735  32.264  34.537  1.00  0.00     0.060 A 
ATOM     39  C   UNL A   1      38.634  31.221  33.604  1.00  0.00     0.016 A 
ATOM     40  C   UNL A   1      39.976  32.814  34.851  1.00  0.00     0.016 A 
ATOM     41  C   UNL A   1      39.777  30.765  32.939  1.00  0.00     0.010 A 
ATOM     42  C   UNL A   1      41.122  32.322  34.226  1.00  0.00     0.010 A 
ATOM     43  C   UNL A   1      41.030  31.297  33.267  1.00  0.00    -0.014 A 
BRANCH  43  44
ATOM     44  C   UNL A   1      42.273  30.674  32.754  1.00  0.00     0.031 A 
ATOM     45  C   UNL A   1      42.866  31.222  31.487  1.00  0.00     0.074 A 
ATOM     46  C   UNL A   1      42.835  29.617  33.366  1.00  0.00     0.049 A 
ATOM     47  N   UNL A   1      43.869  30.775  30.780  1.00  0.00    -0.248 NA
ATOM     48  C   UNL A   1      42.230  32.433  30.940  1.00  0.00     0.031 C 
ATOM     49  C   UNL A   1      42.363  29.016  34.611  1.00  0.00     0.029 A 
ATOM     50  N   UNL A   1      43.917  28.847  33.011  1.00  0.00    -0.354 N 
ATOM     51  C   UNL A   1      43.975  31.637  29.697  1.00  0.00     0.074 A 
ATOM     52  C   UNL A   1      42.929  32.625  29.831  1.00  0.00     0.031 C 
ATOM     53  C   UNL A   1      43.142  27.961  34.910  1.00  0.00     0.029 A 
ATOM     54  C   UNL A   1      44.136  27.783  33.854  1.00  0.00     0.049 A 
ATOM     55  H   UNL A   1      44.482  29.040  32.228  1.00  0.00     0.167 HD
ATOM     56  C   UNL A   1      44.864  31.598  28.678  1.00  0.00     0.037 A 
ATOM     57  C   UNL A   1      45.014  26.763  33.756  1.00  0.00     0.037 A 
ATOM     58  C   UNL A   1      45.892  30.602  28.543  1.00  0.00     0.049 A 
ATOM     59  C   UNL A   1      45.945  26.708  32.567  1.00  0.00     0.074 A 
ATOM     60  C   UNL A   1      46.861  30.496  27.561  1.00  0.00     0.029 A 
ATOM     61  N   UNL A   1      46.073  29.530  29.403  1.00  0.00    -0.354 N 
ATOM     62  N   UNL A   1      46.074  27.556  31.574  1.00  0.00    -0.248 NA
ATOM     63  C   UNL A   1      46.845  25.547  32.478  1.00  0.00     0.031 C 
ATOM     64  C   UNL A   1      47.578  29.319  27.783  1.00  0.00     0.029 A 
ATOM     65  C   UNL A   1      47.110  28.732  28.948  1.00  0.00     0.049 A 
ATOM     66  H   UNL A   1      45.544  29.362  30.217  1.00  0.00     0.167 HD
ATOM     67  C   UNL A   1      47.081  27.044  30.761  1.00  0.00     0.074 A 
ATOM     68  C   UNL A   1      47.550  25.830  31.393  1.00  0.00     0.031 C 
ATOM     69  C   UNL A   1      47.568  27.529  29.592  1.00  0.00     0.037 A 
BRANCH  56  70
ATOM     70  C   UNL A   1      44.744  32.637  27.603  1.00  0.00     0.057 A 
ATOM     71  C   UNL A   1      44.005  32.420  26.434  1.00  0.00     0.134 A 
ATOM     72  C   UNL A   1      45.323  33.902  27.777  1.00  0.00     0.134 A 
ATOM     73  F   UNL A   1      43.440  31.225  26.200  1.00  0.00    -0.206 F 
ATOM     74  C   UNL A   1      43.851  33.419  25.473  1.00  0.00     0.040 A 
ATOM     75  C   UNL A   1      45.150  34.919  26.837  1.00  0.00     0.040 A 
ATOM     76  F   UNL A   1      46.044  34.177  28.874  1.00  0.00    -0.206 F 
ATOM     77  C   UNL A   1      44.414  34.678  25.680  1.00  0.00     0.006 A 
ENDBRANCH  56  70
BRANCH  57  78
ATOM     78  C   UNL A   1      45.034  25.670  34.769  1.00  0.00     0.057 A 
ATOM     79  C   UNL A   1      45.898  25.709  35.872  1.00  0.00     0.134 A 
ATOM     80  C   UNL A   1      44.246  24.521  34.619  1.00  0.00     0.134 A 
ATOM     81  F   UNL A   1      46.703  26.766  36.061  1.00  0.00    -0.206 F 
ATOM     82  C   UNL A   1      46.007  24.635  36.759  1.00  0.00     0.040 A 
ATOM     83  C   UNL A   1      44.317  23.457  35.522  1.00  0.00     0.040 A 
ATOM     84  F   UNL A   1      43.399  24.408  33.586  1.00  0.00    -0.206 F 
ATOM     85  C   UNL A   1      45.212  23.506  36.587  1.00  0.00     0.006 A 
ENDBRANCH  57  78
BRANCH  69  86
ATOM     86  C   UNL A   1      48.684  26.765  28.935  1.00  0.00     0.057 A 
ATOM     87  C   UNL A   1      50.031  27.053  29.191  1.00  0.00     0.134 A 
ATOM     88  C   UNL A   1      48.405  25.696  28.073  1.00  0.00     0.134 A 
ATOM     89  F   UNL A   1      50.369  28.067  30.000  1.00  0.00    -0.206 F 
ATOM     90  C   UNL A   1      51.058  26.324  28.590  1.00  0.00     0.040 A 
ATOM     91  C   UNL A   1      49.424  24.938  27.495  1.00  0.00     0.040 A 
ATOM     92  F   UNL A   1      47.137  25.355  27.795  1.00  0.00    -0.206 F 
ATOM     93  C   UNL A   1      50.756  25.257  27.746  1.00  0.00     0.006 A 
ENDBRANCH  69  86
ENDBRANCH  43  44
ENDBRANCH  36  38
ENDBRANCH  35  36
ENDBRANCH  34  35
ENDBRANCH  33  34
ENDBRANCH  32  33
ENDBRANCH  31  32
ENDBRANCH   1  31
TORSDOF 20
ENDMDL
