MODEL 1
REMARK VINA RESULT:     -10.5      0.000      0.000
REMARK SMILES C[C@H]1[C@@H](C(=O)OCCOCCOCCOC(=O)c2ccc(-c3c4nc(c(-c5c(F)cccc5F)c5ccc([nH]5)c(-c5c(F)cccc5F)c5nc(c(-c6c(F)cccc6F)c6ccc3[nH]6)C=C5)C=C4)cc2)CCN1C(=O)c1cc([N+](=O)[O-])ccc1Br
REMARK SMILES IDX 10 1 9 2 8 3 7 4 6 5 4 6 5 7 3 8 1 9 2 10 74 11 72 12 73 13
REMARK SMILES IDX 75 14 76 15 77 16 78 17 85 18 79 19 84 20 86 21 83 22 80 23
REMARK SMILES IDX 81 24 82 25 11 26 12 27 13 28 14 29 15 30 16 31 17 32 18 33
REMARK SMILES IDX 19 34 71 35 20 36 70 37 21 38 22 39 23 40 64 41 24 42 69 43
REMARK SMILES IDX 63 44 65 45 25 46 68 47 62 48 61 49 26 51 52 52 35 53 51 54
REMARK SMILES IDX 36 55 39 56 50 57 66 58 37 59 38 60 49 62 67 63 40 64 27 65
REMARK SMILES IDX 28 66 33 67 29 68 30 69 32 70 34 71 31 72 53 73 54 74 59 75
REMARK SMILES IDX 55 76 56 77 58 78 60 79 57 80 41 81 42 82 47 83 43 84 44 85
REMARK SMILES IDX 46 86 48 87 45 88
REMARK H PARENT 65 50 39 61
REMARK Flexibility Score: inf
ROOT
ATOM      1  C   UNL A   1      31.547  27.645  25.709  1.00  0.00     0.188 C 
ENDROOT
BRANCH   1   2
ATOM      2  O   UNL A   1      31.439  28.526  24.609  1.00  0.00    -0.376 OA
BRANCH   2   3
ATOM      3  C   UNL A   1      32.139  28.224  23.411  1.00  0.00     0.202 C 
BRANCH   3   4
ATOM      4  C   UNL A   1      31.493  27.280  22.393  1.00  0.00     0.261 C 
BRANCH   4   5
ATOM      5  O   UNL A   1      31.799  25.890  22.630  1.00  0.00    -0.463 OA
BRANCH   5   6
ATOM      6  C   UNL A   1      32.876  25.385  21.988  1.00  0.00     0.311 C 
ATOM      7  O   UNL A   1      33.207  25.712  20.852  1.00  0.00    -0.252 OA
BRANCH   6   8
ATOM      8  C   UNL A   1      33.738  24.429  22.802  1.00  0.00     0.123 C 
ATOM      9  C   UNL A   1      31.895  22.547  22.897  1.00  0.00     0.032 C 
ATOM     10  C   UNL A   1      33.292  23.029  23.270  1.00  0.00     0.096 C 
ATOM     11  N   UNL A   1      33.573  22.984  24.719  1.00  0.00    -0.335 N 
ATOM     12  C   UNL A   1      34.311  25.139  24.038  1.00  0.00     0.039 C 
ATOM     13  C   UNL A   1      34.022  24.255  25.233  1.00  0.00     0.121 C 
BRANCH  11  14
ATOM     14  C   UNL A   1      33.549  21.914  25.605  1.00  0.00     0.255 C 
ATOM     15  O   UNL A   1      33.052  21.981  26.727  1.00  0.00    -0.269 OA
BRANCH  14  16
ATOM     16  C   UNL A   1      34.141  20.626  25.209  1.00  0.00     0.061 A 
ATOM     17  C   UNL A   1      33.268  19.540  25.041  1.00  0.00     0.100 A 
ATOM     18  C   UNL A   1      35.525  20.450  25.077  1.00  0.00     0.031 A 
ATOM     19  C   UNL A   1      33.788  18.300  24.653  1.00  0.00     0.270 A 
ATOM     20  C   UNL A   1      36.025  19.225  24.628  1.00  0.00     0.023 A 
ATOM     21  Br  UNL A   1      36.795  21.763  25.606  1.00  0.00    -0.050 Br
ATOM     22  C   UNL A   1      35.160  18.151  24.404  1.00  0.00     0.087 A 
BRANCH  19  23
ATOM     23  N   UNL A   1      32.901  17.136  24.526  1.00  0.00     0.062 N 
ATOM     24  O   UNL A   1      33.324  16.152  23.904  1.00  0.00    -0.258 OA
ATOM     25  O   UNL A   1      31.778  17.212  25.046  1.00  0.00    -0.258 OA
ENDBRANCH  19  23
ENDBRANCH  14  16
ENDBRANCH  11  14
ENDBRANCH   6   8
ENDBRANCH   5   6
ENDBRANCH   4   5
ENDBRANCH   3   4
ENDBRANCH   2   3
ENDBRANCH   1   2
BRANCH   1  26
ATOM     26  C   UNL A   1      32.657  27.849  26.757  1.00  0.00     0.188 C 
BRANCH  26  27
ATOM     27  O   UNL A   1      33.454  29.011  26.791  1.00  0.00    -0.376 OA
BRANCH  27  28
ATOM     28  C   UNL A   1      32.915  30.238  27.246  1.00  0.00     0.202 C 
BRANCH  28  29
ATOM     29  C   UNL A   1      33.808  31.418  27.647  1.00  0.00     0.261 C 
BRANCH  29  30
ATOM     30  O   UNL A   1      35.208  31.138  27.736  1.00  0.00    -0.460 OA
BRANCH  30  31
ATOM     31  C   UNL A   1      35.693  31.010  28.994  1.00  0.00     0.338 C 
ATOM     32  O   UNL A   1      35.154  31.344  30.041  1.00  0.00    -0.246 OA
BRANCH  31  33
ATOM     33  C   UNL A   1      36.943  30.239  28.943  1.00  0.00     0.060 A 
ATOM     34  C   UNL A   1      37.487  29.724  30.130  1.00  0.00     0.016 A 
ATOM     35  C   UNL A   1      37.593  30.057  27.724  1.00  0.00     0.016 A 
ATOM     36  C   UNL A   1      38.689  29.020  30.102  1.00  0.00     0.010 A 
ATOM     37  C   UNL A   1      38.811  29.382  27.701  1.00  0.00     0.010 A 
ATOM     38  C   UNL A   1      39.374  28.879  28.890  1.00  0.00    -0.014 A 
BRANCH  38  39
ATOM     39  C   UNL A   1      40.767  28.381  28.851  1.00  0.00     0.031 A 
ATOM     40  C   UNL A   1      41.873  29.378  29.032  1.00  0.00     0.074 A 
ATOM     41  C   UNL A   1      41.043  27.093  28.593  1.00  0.00     0.049 A 
ATOM     42  N   UNL A   1      43.151  29.254  28.791  1.00  0.00    -0.248 NA
ATOM     43  C   UNL A   1      41.475  30.702  29.538  1.00  0.00     0.031 C 
ATOM     44  C   UNL A   1      40.058  26.021  28.473  1.00  0.00     0.029 A 
ATOM     45  N   UNL A   1      42.246  26.479  28.346  1.00  0.00    -0.354 N 
ATOM     46  C   UNL A   1      43.706  30.493  29.086  1.00  0.00     0.074 A 
ATOM     47  C   UNL A   1      42.627  31.355  29.514  1.00  0.00     0.031 C 
ATOM     48  C   UNL A   1      40.694  24.883  28.140  1.00  0.00     0.029 A 
ATOM     49  C   UNL A   1      42.118  25.165  27.965  1.00  0.00     0.049 A 
ATOM     50  H   UNL A   1      43.114  26.934  28.434  1.00  0.00     0.167 HD
ATOM     51  C   UNL A   1      45.002  30.874  28.998  1.00  0.00     0.037 A 
ATOM     52  C   UNL A   1      43.039  24.310  27.478  1.00  0.00     0.037 A 
ATOM     53  C   UNL A   1      46.065  30.004  28.568  1.00  0.00     0.049 A 
ATOM     54  C   UNL A   1      44.460  24.782  27.295  1.00  0.00     0.074 A 
ATOM     55  C   UNL A   1      47.412  30.288  28.446  1.00  0.00     0.029 A 
ATOM     56  N   UNL A   1      45.893  28.683  28.184  1.00  0.00    -0.354 N 
ATOM     57  N   UNL A   1      44.984  25.956  27.560  1.00  0.00    -0.248 NA
ATOM     58  C   UNL A   1      45.417  23.817  26.734  1.00  0.00     0.031 C 
ATOM     59  C   UNL A   1      48.048  29.155  27.931  1.00  0.00     0.029 A 
ATOM     60  C   UNL A   1      47.108  28.144  27.800  1.00  0.00     0.049 A 
ATOM     61  H   UNL A   1      45.035  28.201  28.183  1.00  0.00     0.167 HD
ATOM     62  C   UNL A   1      46.333  25.854  27.244  1.00  0.00     0.074 A 
ATOM     63  C   UNL A   1      46.548  24.507  26.758  1.00  0.00     0.031 C 
ATOM     64  C   UNL A   1      47.308  26.790  27.351  1.00  0.00     0.037 A 
BRANCH  51  65
ATOM     65  C   UNL A   1      45.330  32.300  29.326  1.00  0.00     0.057 A 
ATOM     66  C   UNL A   1      45.712  32.701  30.613  1.00  0.00     0.134 A 
ATOM     67  C   UNL A   1      45.283  33.285  28.330  1.00  0.00     0.134 A 
ATOM     68  F   UNL A   1      45.761  31.811  31.615  1.00  0.00    -0.206 F 
ATOM     69  C   UNL A   1      46.012  34.034  30.902  1.00  0.00     0.040 A 
ATOM     70  C   UNL A   1      45.611  34.614  28.601  1.00  0.00     0.040 A 
ATOM     71  F   UNL A   1      44.928  32.970  27.075  1.00  0.00    -0.206 F 
ATOM     72  C   UNL A   1      45.969  34.993  29.892  1.00  0.00     0.006 A 
ENDBRANCH  51  65
BRANCH  52  73
ATOM     73  C   UNL A   1      42.647  22.931  27.089  1.00  0.00     0.057 A 
ATOM     74  C   UNL A   1      42.507  22.571  25.743  1.00  0.00     0.134 A 
ATOM     75  C   UNL A   1      42.377  21.946  28.048  1.00  0.00     0.134 A 
ATOM     76  F   UNL A   1      42.726  23.476  24.777  1.00  0.00    -0.206 F 
ATOM     77  C   UNL A   1      42.095  21.292  25.365  1.00  0.00     0.040 A 
ATOM     78  C   UNL A   1      41.994  20.654  27.683  1.00  0.00     0.040 A 
ATOM     79  F   UNL A   1      42.491  22.223  29.355  1.00  0.00    -0.206 F 
ATOM     80  C   UNL A   1      41.844  20.326  26.338  1.00  0.00     0.006 A 
ENDBRANCH  52  73
BRANCH  64  81
ATOM     81  C   UNL A   1      48.714  26.384  27.016  1.00  0.00     0.057 A 
ATOM     82  C   UNL A   1      49.545  25.739  27.939  1.00  0.00     0.134 A 
ATOM     83  C   UNL A   1      49.202  26.554  25.713  1.00  0.00     0.134 A 
ATOM     84  F   UNL A   1      49.143  25.555  29.206  1.00  0.00    -0.206 F 
ATOM     85  C   UNL A   1      50.815  25.281  27.578  1.00  0.00     0.040 A 
ATOM     86  C   UNL A   1      50.457  26.075  25.334  1.00  0.00     0.040 A 
ATOM     87  F   UNL A   1      48.451  27.154  24.778  1.00  0.00    -0.206 F 
ATOM     88  C   UNL A   1      51.268  25.437  26.269  1.00  0.00     0.006 A 
ENDBRANCH  64  81
ENDBRANCH  38  39
ENDBRANCH  31  33
ENDBRANCH  30  31
ENDBRANCH  29  30
ENDBRANCH  28  29
ENDBRANCH  27  28
ENDBRANCH  26  27
ENDBRANCH   1  26
TORSDOF 20
ENDMDL
MODEL 2
REMARK VINA RESULT:     -10.3      3.825      7.611
REMARK SMILES C[C@H]1[C@@H](C(=O)OCCOCCOCCOC(=O)c2ccc(-c3c4nc(c(-c5c(F)cccc5F)c5ccc([nH]5)c(-c5c(F)cccc5F)c5nc(c(-c6c(F)cccc6F)c6ccc3[nH]6)C=C5)C=C4)cc2)CCN1C(=O)c1cc([N+](=O)[O-])ccc1Br
REMARK SMILES IDX 10 1 9 2 8 3 7 4 6 5 4 6 5 7 3 8 1 9 2 10 74 11 72 12 73 13
REMARK SMILES IDX 75 14 76 15 77 16 78 17 85 18 79 19 84 20 86 21 83 22 80 23
REMARK SMILES IDX 81 24 82 25 11 26 12 27 13 28 14 29 15 30 16 31 17 32 18 33
REMARK SMILES IDX 19 34 71 35 20 36 70 37 21 38 22 39 23 40 64 41 24 42 69 43
REMARK SMILES IDX 63 44 65 45 25 46 68 47 62 48 61 49 26 51 52 52 35 53 51 54
REMARK SMILES IDX 36 55 39 56 50 57 66 58 37 59 38 60 49 62 67 63 40 64 27 65
REMARK SMILES IDX 28 66 33 67 29 68 30 69 32 70 34 71 31 72 53 73 54 74 59 75
REMARK SMILES IDX 55 76 56 77 58 78 60 79 57 80 41 81 42 82 47 83 43 84 44 85
REMARK SMILES IDX 46 86 48 87 45 88
REMARK H PARENT 65 50 39 61
REMARK Flexibility Score: inf
ROOT
ATOM      1  C   UNL A   1      32.165  28.857  25.321  1.00  0.00     0.188 C 
ENDROOT
BRANCH   1   2
ATOM      2  O   UNL A   1      31.390  29.094  24.163  1.00  0.00    -0.376 OA
BRANCH   2   3
ATOM      3  C   UNL A   1      31.913  28.723  22.895  1.00  0.00     0.202 C 
BRANCH   3   4
ATOM      4  C   UNL A   1      31.459  27.404  22.265  1.00  0.00     0.261 C 
BRANCH   4   5
ATOM      5  O   UNL A   1      31.993  26.240  22.931  1.00  0.00    -0.463 OA
BRANCH   5   6
ATOM      6  C   UNL A   1      33.086  25.668  22.377  1.00  0.00     0.311 C 
ATOM      7  O   UNL A   1      33.455  25.879  21.225  1.00  0.00    -0.252 OA
BRANCH   6   8
ATOM      8  C   UNL A   1      33.913  24.793  23.309  1.00  0.00     0.123 C 
ATOM      9  C   UNL A   1      32.410  22.658  22.949  1.00  0.00     0.032 C 
ATOM     10  C   UNL A   1      33.613  23.312  23.618  1.00  0.00     0.096 C 
ATOM     11  N   UNL A   1      33.610  23.205  25.091  1.00  0.00    -0.335 N 
ATOM     12  C   UNL A   1      34.113  25.488  24.664  1.00  0.00     0.039 C 
ATOM     13  C   UNL A   1      33.742  24.488  25.738  1.00  0.00     0.121 C 
BRANCH  11  14
ATOM     14  C   UNL A   1      33.584  22.082  25.908  1.00  0.00     0.255 C 
ATOM     15  O   UNL A   1      33.084  22.078  27.031  1.00  0.00    -0.269 OA
BRANCH  14  16
ATOM     16  C   UNL A   1      34.178  20.821  25.434  1.00  0.00     0.061 A 
ATOM     17  C   UNL A   1      33.320  19.720  25.284  1.00  0.00     0.100 A 
ATOM     18  C   UNL A   1      35.554  20.682  25.213  1.00  0.00     0.031 A 
ATOM     19  C   UNL A   1      33.841  18.506  24.824  1.00  0.00     0.270 A 
ATOM     20  C   UNL A   1      36.052  19.484  24.694  1.00  0.00     0.023 A 
ATOM     21  Br  UNL A   1      36.826  22.007  25.707  1.00  0.00    -0.050 Br
ATOM     22  C   UNL A   1      35.198  18.398  24.488  1.00  0.00     0.087 A 
BRANCH  19  23
ATOM     23  N   UNL A   1      32.973  17.326  24.712  1.00  0.00     0.062 N 
ATOM     24  O   UNL A   1      32.103  17.165  25.578  1.00  0.00    -0.258 OA
ATOM     25  O   UNL A   1      33.168  16.560  23.758  1.00  0.00    -0.258 OA
ENDBRANCH  19  23
ENDBRANCH  14  16
ENDBRANCH  11  14
ENDBRANCH   6   8
ENDBRANCH   5   6
ENDBRANCH   4   5
ENDBRANCH   3   4
ENDBRANCH   2   3
ENDBRANCH   1   2
BRANCH   1  26
ATOM     26  C   UNL A   1      31.793  29.536  26.652  1.00  0.00     0.188 C 
BRANCH  26  27
ATOM     27  O   UNL A   1      32.732  30.257  27.416  1.00  0.00    -0.376 OA
BRANCH  27  28
ATOM     28  C   UNL A   1      33.008  31.613  27.122  1.00  0.00     0.202 C 
BRANCH  28  29
ATOM     29  C   UNL A   1      32.125  32.753  27.644  1.00  0.00     0.261 C 
BRANCH  29  30
ATOM     30  O   UNL A   1      32.745  34.041  27.710  1.00  0.00    -0.460 OA
BRANCH  30  31
ATOM     31  C   UNL A   1      33.168  34.417  28.941  1.00  0.00     0.338 C 
ATOM     32  O   UNL A   1      32.561  35.085  29.768  1.00  0.00    -0.246 OA
BRANCH  31  33
ATOM     33  C   UNL A   1      34.447  33.753  29.225  1.00  0.00     0.060 A 
ATOM     34  C   UNL A   1      34.549  32.891  30.328  1.00  0.00     0.016 A 
ATOM     35  C   UNL A   1      35.554  34.012  28.418  1.00  0.00     0.016 A 
ATOM     36  C   UNL A   1      35.765  32.280  30.629  1.00  0.00     0.010 A 
ATOM     37  C   UNL A   1      36.777  33.428  28.740  1.00  0.00     0.010 A 
ATOM     38  C   UNL A   1      36.893  32.577  29.856  1.00  0.00    -0.014 A 
BRANCH  38  39
ATOM     39  C   UNL A   1      38.247  32.171  30.291  1.00  0.00     0.031 A 
ATOM     40  C   UNL A   1      38.835  30.930  29.687  1.00  0.00     0.074 A 
ATOM     41  C   UNL A   1      38.908  32.844  31.247  1.00  0.00     0.049 A 
ATOM     42  N   UNL A   1      39.868  30.227  30.069  1.00  0.00    -0.248 NA
ATOM     43  C   UNL A   1      38.149  30.402  28.495  1.00  0.00     0.031 C 
ATOM     44  C   UNL A   1      38.475  34.100  31.854  1.00  0.00     0.029 A 
ATOM     45  N   UNL A   1      40.075  32.535  31.901  1.00  0.00    -0.354 N 
ATOM     46  C   UNL A   1      39.938  29.157  29.187  1.00  0.00     0.074 A 
ATOM     47  C   UNL A   1      38.840  29.298  28.256  1.00  0.00     0.031 C 
ATOM     48  C   UNL A   1      39.348  34.438  32.820  1.00  0.00     0.029 A 
ATOM     49  C   UNL A   1      40.362  33.392  32.936  1.00  0.00     0.049 A 
ATOM     50  H   UNL A   1      40.649  31.775  31.654  1.00  0.00     0.167 HD
ATOM     51  C   UNL A   1      40.835  28.145  29.164  1.00  0.00     0.037 A 
ATOM     52  C   UNL A   1      41.303  33.306  33.897  1.00  0.00     0.037 A 
ATOM     53  C   UNL A   1      41.922  28.018  30.099  1.00  0.00     0.049 A 
ATOM     54  C   UNL A   1      42.234  32.119  33.913  1.00  0.00     0.074 A 
ATOM     55  C   UNL A   1      42.891  27.033  30.164  1.00  0.00     0.029 A 
ATOM     56  N   UNL A   1      42.174  28.902  31.137  1.00  0.00    -0.354 N 
ATOM     57  N   UNL A   1      42.293  31.100  33.088  1.00  0.00    -0.248 NA
ATOM     58  C   UNL A   1      43.222  32.062  35.001  1.00  0.00     0.031 C 
ATOM     59  C   UNL A   1      43.695  27.291  31.277  1.00  0.00     0.029 A 
ATOM     60  C   UNL A   1      43.271  28.473  31.863  1.00  0.00     0.049 A 
ATOM     61  H   UNL A   1      41.651  29.714  31.329  1.00  0.00     0.167 HD
ATOM     62  C   UNL A   1      43.349  30.311  33.528  1.00  0.00     0.074 A 
ATOM     63  C   UNL A   1      43.899  30.962  34.698  1.00  0.00     0.031 C 
ATOM     64  C   UNL A   1      43.824  29.154  33.006  1.00  0.00     0.037 A 
BRANCH  51  65
ATOM     65  C   UNL A   1      40.651  27.076  28.128  1.00  0.00     0.057 A 
ATOM     66  C   UNL A   1      39.777  25.998  28.316  1.00  0.00     0.134 A 
ATOM     67  C   UNL A   1      41.345  27.142  26.912  1.00  0.00     0.134 A 
ATOM     68  F   UNL A   1      39.095  25.867  29.463  1.00  0.00    -0.206 F 
ATOM     69  C   UNL A   1      39.619  25.010  27.341  1.00  0.00     0.040 A 
ATOM     70  C   UNL A   1      41.172  26.177  25.920  1.00  0.00     0.040 A 
ATOM     71  F   UNL A   1      42.196  28.149  26.666  1.00  0.00    -0.206 F 
ATOM     72  C   UNL A   1      40.312  25.103  26.136  1.00  0.00     0.006 A 
ENDBRANCH  51  65
BRANCH  52  73
ATOM     73  C   UNL A   1      41.392  34.349  34.951  1.00  0.00     0.057 A 
ATOM     74  C   UNL A   1      40.621  34.267  36.117  1.00  0.00     0.134 A 
ATOM     75  C   UNL A   1      42.227  35.465  34.810  1.00  0.00     0.134 A 
ATOM     76  F   UNL A   1      39.782  33.236  36.300  1.00  0.00    -0.206 F 
ATOM     77  C   UNL A   1      40.662  35.263  37.095  1.00  0.00     0.040 A 
ATOM     78  C   UNL A   1      42.301  36.453  35.794  1.00  0.00     0.040 A 
ATOM     79  F   UNL A   1      42.992  35.606  33.718  1.00  0.00    -0.206 F 
ATOM     80  C   UNL A   1      41.510  36.358  36.936  1.00  0.00     0.006 A 
ENDBRANCH  52  73
BRANCH  64  81
ATOM     81  C   UNL A   1      45.045  28.546  33.635  1.00  0.00     0.057 A 
ATOM     82  C   UNL A   1      46.339  28.972  33.318  1.00  0.00     0.134 A 
ATOM     83  C   UNL A   1      44.908  27.589  34.651  1.00  0.00     0.134 A 
ATOM     84  F   UNL A   1      46.540  29.877  32.349  1.00  0.00    -0.206 F 
ATOM     85  C   UNL A   1      47.456  28.464  33.986  1.00  0.00     0.040 A 
ATOM     86  C   UNL A   1      46.013  27.096  35.344  1.00  0.00     0.040 A 
ATOM     87  F   UNL A   1      43.693  27.147  35.011  1.00  0.00    -0.206 F 
ATOM     88  C   UNL A   1      47.293  27.533  35.011  1.00  0.00     0.006 A 
ENDBRANCH  64  81
ENDBRANCH  38  39
ENDBRANCH  31  33
ENDBRANCH  30  31
ENDBRANCH  29  30
ENDBRANCH  28  29
ENDBRANCH  27  28
ENDBRANCH  26  27
ENDBRANCH   1  26
TORSDOF 20
ENDMDL
MODEL 3
REMARK VINA RESULT:     -10.1      3.110      4.596
REMARK SMILES C[C@H]1[C@@H](C(=O)OCCOCCOCCOC(=O)c2ccc(-c3c4nc(c(-c5c(F)cccc5F)c5ccc([nH]5)c(-c5c(F)cccc5F)c5nc(c(-c6c(F)cccc6F)c6ccc3[nH]6)C=C5)C=C4)cc2)CCN1C(=O)c1cc([N+](=O)[O-])ccc1Br
REMARK SMILES IDX 10 1 9 2 8 3 7 4 6 5 4 6 5 7 3 8 1 9 2 10 74 11 72 12 73 13
REMARK SMILES IDX 75 14 76 15 77 16 78 17 85 18 79 19 84 20 86 21 83 22 80 23
REMARK SMILES IDX 81 24 82 25 11 26 12 27 13 28 14 29 15 30 16 31 17 32 18 33
REMARK SMILES IDX 19 34 71 35 20 36 70 37 21 38 22 39 23 40 64 41 24 42 69 43
REMARK SMILES IDX 63 44 65 45 25 46 68 47 62 48 61 49 26 51 52 52 35 53 51 54
REMARK SMILES IDX 36 55 39 56 50 57 66 58 37 59 38 60 49 62 67 63 40 64 27 65
REMARK SMILES IDX 28 66 33 67 29 68 30 69 32 70 34 71 31 72 53 73 54 74 59 75
REMARK SMILES IDX 55 76 56 77 58 78 60 79 57 80 41 81 42 82 47 83 43 84 44 85
REMARK SMILES IDX 46 86 48 87 45 88
REMARK H PARENT 65 50 39 61
REMARK Flexibility Score: inf
ROOT
ATOM      1  C   UNL A   1      32.239  28.843  25.369  1.00  0.00     0.188 C 
ENDROOT
BRANCH   1   2
ATOM      2  O   UNL A   1      31.423  29.114  24.247  1.00  0.00    -0.376 OA
BRANCH   2   3
ATOM      3  C   UNL A   1      31.878  28.739  22.956  1.00  0.00     0.202 C 
BRANCH   3   4
ATOM      4  C   UNL A   1      31.383  27.424  22.348  1.00  0.00     0.261 C 
BRANCH   4   5
ATOM      5  O   UNL A   1      31.948  26.256  22.979  1.00  0.00    -0.463 OA
BRANCH   5   6
ATOM      6  C   UNL A   1      33.105  25.784  22.463  1.00  0.00     0.311 C 
ATOM      7  O   UNL A   1      33.515  26.065  21.341  1.00  0.00    -0.252 OA
BRANCH   6   8
ATOM      8  C   UNL A   1      33.946  24.933  23.405  1.00  0.00     0.123 C 
ATOM      9  C   UNL A   1      32.540  22.743  22.990  1.00  0.00     0.032 C 
ATOM     10  C   UNL A   1      33.700  23.439  23.693  1.00  0.00     0.096 C 
ATOM     11  N   UNL A   1      33.668  23.316  25.165  1.00  0.00    -0.335 N 
ATOM     12  C   UNL A   1      34.087  25.622  24.771  1.00  0.00     0.039 C 
ATOM     13  C   UNL A   1      33.733  24.596  25.827  1.00  0.00     0.121 C 
BRANCH  11  14
ATOM     14  C   UNL A   1      33.669  22.184  25.971  1.00  0.00     0.255 C 
ATOM     15  O   UNL A   1      33.182  22.161  27.099  1.00  0.00    -0.269 OA
BRANCH  14  16
ATOM     16  C   UNL A   1      34.278  20.938  25.477  1.00  0.00     0.061 A 
ATOM     17  C   UNL A   1      33.429  19.835  25.291  1.00  0.00     0.100 A 
ATOM     18  C   UNL A   1      35.658  20.812  25.270  1.00  0.00     0.031 A 
ATOM     19  C   UNL A   1      33.965  18.635  24.811  1.00  0.00     0.270 A 
ATOM     20  C   UNL A   1      36.171  19.630  24.732  1.00  0.00     0.023 A 
ATOM     21  Br  UNL A   1      36.914  22.134  25.811  1.00  0.00    -0.050 Br
ATOM     22  C   UNL A   1      35.327  18.543  24.490  1.00  0.00     0.087 A 
BRANCH  19  23
ATOM     23  N   UNL A   1      33.106  17.452  24.662  1.00  0.00     0.062 N 
ATOM     24  O   UNL A   1      32.503  17.047  25.664  1.00  0.00    -0.258 OA
ATOM     25  O   UNL A   1      33.042  16.929  23.540  1.00  0.00    -0.258 OA
ENDBRANCH  19  23
ENDBRANCH  14  16
ENDBRANCH  11  14
ENDBRANCH   6   8
ENDBRANCH   5   6
ENDBRANCH   4   5
ENDBRANCH   3   4
ENDBRANCH   2   3
ENDBRANCH   1   2
BRANCH   1  26
ATOM     26  C   UNL A   1      31.908  29.470  26.736  1.00  0.00     0.188 C 
BRANCH  26  27
ATOM     27  O   UNL A   1      32.889  30.089  27.536  1.00  0.00    -0.376 OA
BRANCH  27  28
ATOM     28  C   UNL A   1      33.311  31.411  27.261  1.00  0.00     0.202 C 
BRANCH  28  29
ATOM     29  C   UNL A   1      32.440  32.628  27.597  1.00  0.00     0.261 C 
BRANCH  29  30
ATOM     30  O   UNL A   1      33.123  33.885  27.656  1.00  0.00    -0.460 OA
BRANCH  30  31
ATOM     31  C   UNL A   1      33.313  34.382  28.902  1.00  0.00     0.338 C 
ATOM     32  O   UNL A   1      32.518  35.014  29.584  1.00  0.00    -0.246 OA
BRANCH  31  33
ATOM     33  C   UNL A   1      34.606  33.901  29.409  1.00  0.00     0.060 A 
ATOM     34  C   UNL A   1      35.768  34.119  28.654  1.00  0.00     0.016 A 
ATOM     35  C   UNL A   1      34.659  33.205  30.615  1.00  0.00     0.016 A 
ATOM     36  C   UNL A   1      36.996  33.640  29.106  1.00  0.00     0.010 A 
ATOM     37  C   UNL A   1      35.881  32.697  31.050  1.00  0.00     0.010 A 
ATOM     38  C   UNL A   1      37.050  32.894  30.289  1.00  0.00    -0.014 A 
BRANCH  38  39
ATOM     39  C   UNL A   1      38.268  32.144  30.667  1.00  0.00     0.031 A 
ATOM     40  C   UNL A   1      39.257  32.822  31.568  1.00  0.00     0.074 A 
ATOM     41  C   UNL A   1      38.522  30.924  30.169  1.00  0.00     0.049 A 
ATOM     42  N   UNL A   1      40.494  32.499  31.839  1.00  0.00    -0.248 NA
ATOM     43  C   UNL A   1      38.787  34.044  32.244  1.00  0.00     0.031 C 
ATOM     44  C   UNL A   1      37.608  30.135  29.347  1.00  0.00     0.029 A 
ATOM     45  N   UNL A   1      39.654  30.151  30.256  1.00  0.00    -0.354 N 
ATOM     46  C   UNL A   1      40.960  33.493  32.689  1.00  0.00     0.074 A 
ATOM     47  C   UNL A   1      39.879  34.434  32.882  1.00  0.00     0.031 C 
ATOM     48  C   UNL A   1      38.229  29.002  28.973  1.00  0.00     0.029 A 
ATOM     49  C   UNL A   1      39.600  29.018  29.480  1.00  0.00     0.049 A 
ATOM     50  H   UNL A   1      40.427  30.385  30.818  1.00  0.00     0.167 HD
ATOM     51  C   UNL A   1      42.187  33.610  33.249  1.00  0.00     0.037 A 
ATOM     52  C   UNL A   1      40.567  28.131  29.174  1.00  0.00     0.037 A 
ATOM     53  C   UNL A   1      43.253  32.666  33.045  1.00  0.00     0.049 A 
ATOM     54  C   UNL A   1      41.955  28.331  29.730  1.00  0.00     0.074 A 
ATOM     55  C   UNL A   1      44.534  32.688  33.567  1.00  0.00     0.029 A 
ATOM     56  N   UNL A   1      43.162  31.536  32.247  1.00  0.00    -0.354 N 
ATOM     57  N   UNL A   1      42.401  29.277  30.523  1.00  0.00    -0.248 NA
ATOM     58  C   UNL A   1      42.978  27.349  29.340  1.00  0.00     0.031 C 
ATOM     59  C   UNL A   1      45.235  31.601  33.038  1.00  0.00     0.029 A 
ATOM     60  C   UNL A   1      44.371  30.865  32.243  1.00  0.00     0.049 A 
ATOM     61  H   UNL A   1      42.357  31.254  31.755  1.00  0.00     0.167 HD
ATOM     62  C   UNL A   1      43.737  28.978  30.762  1.00  0.00     0.074 A 
ATOM     63  C   UNL A   1      44.034  27.767  30.025  1.00  0.00     0.031 C 
ATOM     64  C   UNL A   1      44.637  29.642  31.529  1.00  0.00     0.037 A 
BRANCH  51  65
ATOM     65  C   UNL A   1      42.452  34.821  34.093  1.00  0.00     0.057 A 
ATOM     66  C   UNL A   1      42.907  36.027  33.546  1.00  0.00     0.134 A 
ATOM     67  C   UNL A   1      42.225  34.783  35.476  1.00  0.00     0.134 A 
ATOM     68  F   UNL A   1      43.159  36.126  32.232  1.00  0.00    -0.206 F 
ATOM     69  C   UNL A   1      43.151  37.145  34.348  1.00  0.00     0.040 A 
ATOM     70  C   UNL A   1      42.436  35.903  36.282  1.00  0.00     0.040 A 
ATOM     71  F   UNL A   1      41.786  33.660  36.065  1.00  0.00    -0.206 F 
ATOM     72  C   UNL A   1      42.907  37.086  35.719  1.00  0.00     0.006 A 
ENDBRANCH  51  65
BRANCH  52  73
ATOM     73  C   UNL A   1      40.275  26.992  28.266  1.00  0.00     0.057 A 
ATOM     74  C   UNL A   1      40.759  26.973  26.951  1.00  0.00     0.134 A 
ATOM     75  C   UNL A   1      39.488  25.909  28.675  1.00  0.00     0.134 A 
ATOM     76  F   UNL A   1      41.498  27.993  26.490  1.00  0.00    -0.206 F 
ATOM     77  C   UNL A   1      40.456  25.931  26.074  1.00  0.00     0.040 A 
ATOM     78  C   UNL A   1      39.201  24.845  27.818  1.00  0.00     0.040 A 
ATOM     79  F   UNL A   1      38.992  25.864  29.921  1.00  0.00    -0.206 F 
ATOM     80  C   UNL A   1      39.679  24.858  26.509  1.00  0.00     0.006 A 
ENDBRANCH  52  73
BRANCH  64  81
ATOM     81  C   UNL A   1      46.006  29.046  31.684  1.00  0.00     0.057 A 
ATOM     82  C   UNL A   1      46.294  28.078  32.652  1.00  0.00     0.134 A 
ATOM     83  C   UNL A   1      47.023  29.378  30.778  1.00  0.00     0.134 A 
ATOM     84  F   UNL A   1      45.369  27.722  33.557  1.00  0.00    -0.206 F 
ATOM     85  C   UNL A   1      47.547  27.464  32.717  1.00  0.00     0.040 A 
ATOM     86  C   UNL A   1      48.269  28.751  30.815  1.00  0.00     0.040 A 
ATOM     87  F   UNL A   1      46.808  30.291  29.818  1.00  0.00    -0.206 F 
ATOM     88  C   UNL A   1      48.534  27.791  31.788  1.00  0.00     0.006 A 
ENDBRANCH  64  81
ENDBRANCH  38  39
ENDBRANCH  31  33
ENDBRANCH  30  31
ENDBRANCH  29  30
ENDBRANCH  28  29
ENDBRANCH  27  28
ENDBRANCH  26  27
ENDBRANCH   1  26
TORSDOF 20
ENDMDL
