MODEL 1
REMARK VINA RESULT:      -9.1      0.000      0.000
REMARK SMILES COCC[C@H](NC(=O)c1ccc(Br)nc1)C(=O)OCCOCCOCCOC(=O)c1ccc(-c2c3nc(c(-c4c(F)cccc4F)c4ccc([nH]4)c(-c4c(F)cccc4F)c4nc(c(-c5c(F)cccc5F)c5ccc2[nH]5)C=C4)C=C3)cc1
REMARK SMILES IDX 22 1 21 2 20 3 19 4 18 5 16 6 17 7 5 8 4 9 3 10 2 11 1 12
REMARK SMILES IDX 6 13 7 14 8 16 9 17 10 18 15 19 11 20 14 21 12 22 13 23
REMARK SMILES IDX 23 24 24 25 25 26 26 27 27 28 28 29 29 30 30 31 31 32 83 33
REMARK SMILES IDX 32 34 82 35 33 36 34 37 35 38 76 39 36 40 81 41 75 42 77 43
REMARK SMILES IDX 37 44 80 45 74 46 73 47 38 49 64 50 47 51 63 52 48 53 51 54
REMARK SMILES IDX 62 55 78 56 49 57 50 58 61 60 79 61 52 62 39 63 40 64 45 65
REMARK SMILES IDX 41 66 42 67 44 68 46 69 43 70 65 71 66 72 71 73 67 74 68 75
REMARK SMILES IDX 70 76 72 77 69 78 53 79 54 80 59 81 55 82 56 83 58 84 60 85
REMARK SMILES IDX 57 86
REMARK H PARENT 6 15 77 48 51 59
REMARK Flexibility Score: inf
ROOT
ATOM      1  C   UNL A   1      31.460  28.392  27.122  1.00  0.00     0.188 C 
ENDROOT
BRANCH   1   2
ATOM      2  O   UNL A   1      32.434  27.371  27.050  1.00  0.00    -0.376 OA
BRANCH   2   3
ATOM      3  C   UNL A   1      33.653  27.705  26.423  1.00  0.00     0.202 C 
BRANCH   3   4
ATOM      4  C   UNL A   1      34.040  26.994  25.115  1.00  0.00     0.261 C 
BRANCH   4   5
ATOM      5  O   UNL A   1      33.049  26.749  24.099  1.00  0.00    -0.462 OA
BRANCH   5   6
ATOM      6  C   UNL A   1      32.982  25.496  23.582  1.00  0.00     0.328 C 
ATOM      7  O   UNL A   1      33.832  25.021  22.840  1.00  0.00    -0.250 OA
BRANCH   6   8
ATOM      8  C   UNL A   1      31.659  24.788  23.928  1.00  0.00     0.194 C 
BRANCH   8   9
ATOM      9  C   UNL A   1      30.421  25.466  23.316  1.00  0.00     0.065 C 
BRANCH   9  10
ATOM     10  C   UNL A   1      29.573  26.363  24.218  1.00  0.00     0.162 C 
BRANCH  10  11
ATOM     11  O   UNL A   1      29.208  27.593  23.606  1.00  0.00    -0.385 OA
ATOM     12  C   UNL A   1      30.088  28.056  22.593  1.00  0.00     0.194 C 
ENDBRANCH  10  11
ENDBRANCH   9  10
ENDBRANCH   8   9
BRANCH   8  13
ATOM     13  N   UNL A   1      31.477  24.680  25.392  1.00  0.00    -0.338 N 
ATOM     14  C   UNL A   1      32.130  23.920  26.330  1.00  0.00     0.253 C 
ATOM     15  H   UNL A   1      30.764  25.253  25.757  1.00  0.00     0.164 HD
ATOM     16  O   UNL A   1      31.761  23.927  27.500  1.00  0.00    -0.269 OA
BRANCH  14  17
ATOM     17  C   UNL A   1      33.265  23.067  25.954  1.00  0.00     0.058 A 
ATOM     18  C   UNL A   1      33.109  21.850  25.296  1.00  0.00     0.018 A 
ATOM     19  C   UNL A   1      34.551  23.518  26.215  1.00  0.00     0.126 A 
ATOM     20  C   UNL A   1      34.241  21.088  25.008  1.00  0.00     0.037 A 
ATOM     21  N   UNL A   1      35.666  22.794  25.950  1.00  0.00    -0.249 NA
ATOM     22  C   UNL A   1      35.487  21.589  25.366  1.00  0.00     0.106 A 
ATOM     23  Br  UNL A   1      37.024  20.527  25.047  1.00  0.00    -0.029 Br
ENDBRANCH  14  17
ENDBRANCH   8  13
ENDBRANCH   6   8
ENDBRANCH   5   6
ENDBRANCH   4   5
ENDBRANCH   3   4
ENDBRANCH   2   3
ENDBRANCH   1   2
BRANCH   1  24
ATOM     24  C   UNL A   1      31.777  29.568  26.185  1.00  0.00     0.188 C 
BRANCH  24  25
ATOM     25  O   UNL A   1      31.318  30.869  26.512  1.00  0.00    -0.376 OA
BRANCH  25  26
ATOM     26  C   UNL A   1      32.275  31.919  26.577  1.00  0.00     0.202 C 
BRANCH  26  27
ATOM     27  C   UNL A   1      31.948  33.211  27.355  1.00  0.00     0.261 C 
BRANCH  27  28
ATOM     28  O   UNL A   1      33.045  34.123  27.568  1.00  0.00    -0.460 OA
BRANCH  28  29
ATOM     29  C   UNL A   1      33.610  34.098  28.798  1.00  0.00     0.338 C 
ATOM     30  O   UNL A   1      33.124  34.541  29.837  1.00  0.00    -0.246 OA
BRANCH  29  31
ATOM     31  C   UNL A   1      34.831  33.256  28.805  1.00  0.00     0.060 A 
ATOM     32  C   UNL A   1      34.694  31.893  29.122  1.00  0.00     0.016 A 
ATOM     33  C   UNL A   1      36.100  33.797  28.596  1.00  0.00     0.016 A 
ATOM     34  C   UNL A   1      35.817  31.084  29.293  1.00  0.00     0.010 A 
ATOM     35  C   UNL A   1      37.232  32.993  28.809  1.00  0.00     0.010 A 
ATOM     36  C   UNL A   1      37.093  31.650  29.216  1.00  0.00    -0.014 A 
BRANCH  36  37
ATOM     37  C   UNL A   1      38.220  30.940  29.880  1.00  0.00     0.031 A 
ATOM     38  C   UNL A   1      38.453  31.222  31.345  1.00  0.00     0.074 A 
ATOM     39  C   UNL A   1      38.969  30.017  29.252  1.00  0.00     0.049 A 
ATOM     40  N   UNL A   1      39.370  30.752  32.152  1.00  0.00    -0.248 NA
ATOM     41  C   UNL A   1      37.521  32.167  31.982  1.00  0.00     0.031 C 
ATOM     42  C   UNL A   1      38.815  29.598  27.861  1.00  0.00     0.029 A 
ATOM     43  N   UNL A   1      40.021  29.265  29.717  1.00  0.00    -0.354 N 
ATOM     44  C   UNL A   1      39.129  31.352  33.384  1.00  0.00     0.074 A 
ATOM     45  C   UNL A   1      38.006  32.244  33.210  1.00  0.00     0.031 C 
ATOM     46  C   UNL A   1      39.752  28.672  27.581  1.00  0.00     0.029 A 
ATOM     47  C   UNL A   1      40.585  28.453  28.764  1.00  0.00     0.049 A 
ATOM     48  H   UNL A   1      40.340  29.305  30.648  1.00  0.00     0.167 HD
ATOM     49  C   UNL A   1      39.774  31.170  34.561  1.00  0.00     0.037 A 
ATOM     50  C   UNL A   1      41.662  27.644  28.837  1.00  0.00     0.037 A 
ATOM     51  C   UNL A   1      40.889  30.281  34.744  1.00  0.00     0.049 A 
ATOM     52  C   UNL A   1      42.414  27.514  30.139  1.00  0.00     0.074 A 
ATOM     53  C   UNL A   1      41.611  30.030  35.898  1.00  0.00     0.029 A 
ATOM     54  N   UNL A   1      41.447  29.501  33.744  1.00  0.00    -0.354 N 
ATOM     55  N   UNL A   1      42.175  28.081  31.298  1.00  0.00    -0.248 NA
ATOM     56  C   UNL A   1      43.581  26.619  30.144  1.00  0.00     0.031 C 
ATOM     57  C   UNL A   1      42.639  29.135  35.584  1.00  0.00     0.029 A 
ATOM     58  C   UNL A   1      42.516  28.780  34.250  1.00  0.00     0.049 A 
ATOM     59  H   UNL A   1      41.132  29.464  32.813  1.00  0.00     0.167 HD
ATOM     60  C   UNL A   1      43.131  27.577  32.175  1.00  0.00     0.074 A 
ATOM     61  C   UNL A   1      43.948  26.654  31.417  1.00  0.00     0.031 C 
ATOM     62  C   UNL A   1      43.311  27.847  33.493  1.00  0.00     0.037 A 
BRANCH  49  63
ATOM     63  C   UNL A   1      39.303  31.978  35.735  1.00  0.00     0.057 A 
ATOM     64  C   UNL A   1      38.379  31.476  36.662  1.00  0.00     0.134 A 
ATOM     65  C   UNL A   1      39.792  33.273  35.949  1.00  0.00     0.134 A 
ATOM     66  F   UNL A   1      37.856  30.250  36.506  1.00  0.00    -0.206 F 
ATOM     67  C   UNL A   1      37.937  32.243  37.742  1.00  0.00     0.040 A 
ATOM     68  C   UNL A   1      39.382  34.038  37.043  1.00  0.00     0.040 A 
ATOM     69  F   UNL A   1      40.680  33.815  35.102  1.00  0.00    -0.206 F 
ATOM     70  C   UNL A   1      38.446  33.526  37.938  1.00  0.00     0.006 A 
ENDBRANCH  49  63
BRANCH  50  71
ATOM     71  C   UNL A   1      42.115  26.889  27.638  1.00  0.00     0.057 A 
ATOM     72  C   UNL A   1      42.945  27.477  26.676  1.00  0.00     0.134 A 
ATOM     73  C   UNL A   1      41.686  25.577  27.400  1.00  0.00     0.134 A 
ATOM     74  F   UNL A   1      43.367  28.741  26.831  1.00  0.00    -0.206 F 
ATOM     75  C   UNL A   1      43.310  26.800  25.510  1.00  0.00     0.040 A 
ATOM     76  C   UNL A   1      42.067  24.878  26.254  1.00  0.00     0.040 A 
ATOM     77  F   UNL A   1      40.887  24.955  28.281  1.00  0.00    -0.206 F 
ATOM     78  C   UNL A   1      42.875  25.494  25.300  1.00  0.00     0.006 A 
ENDBRANCH  50  71
BRANCH  62  79
ATOM     79  C   UNL A   1      44.384  27.085  34.220  1.00  0.00     0.057 A 
ATOM     80  C   UNL A   1      45.687  27.577  34.367  1.00  0.00     0.134 A 
ATOM     81  C   UNL A   1      44.094  25.847  34.811  1.00  0.00     0.134 A 
ATOM     82  F   UNL A   1      46.036  28.752  33.822  1.00  0.00    -0.206 F 
ATOM     83  C   UNL A   1      46.671  26.851  35.042  1.00  0.00     0.040 A 
ATOM     84  C   UNL A   1      45.059  25.126  35.515  1.00  0.00     0.040 A 
ATOM     85  F   UNL A   1      42.862  25.322  34.723  1.00  0.00    -0.206 F 
ATOM     86  C   UNL A   1      46.355  25.624  35.623  1.00  0.00     0.006 A 
ENDBRANCH  62  79
ENDBRANCH  36  37
ENDBRANCH  29  31
ENDBRANCH  28  29
ENDBRANCH  27  28
ENDBRANCH  26  27
ENDBRANCH  25  26
ENDBRANCH  24  25
ENDBRANCH   1  24
TORSDOF 22
ENDMDL
MODEL 2
REMARK VINA RESULT:      -8.9      4.441      9.785
REMARK SMILES COCC[C@H](NC(=O)c1ccc(Br)nc1)C(=O)OCCOCCOCCOC(=O)c1ccc(-c2c3nc(c(-c4c(F)cccc4F)c4ccc([nH]4)c(-c4c(F)cccc4F)c4nc(c(-c5c(F)cccc5F)c5ccc2[nH]5)C=C4)C=C3)cc1
REMARK SMILES IDX 22 1 21 2 20 3 19 4 18 5 16 6 17 7 5 8 4 9 3 10 2 11 1 12
REMARK SMILES IDX 6 13 7 14 8 16 9 17 10 18 15 19 11 20 14 21 12 22 13 23
REMARK SMILES IDX 23 24 24 25 25 26 26 27 27 28 28 29 29 30 30 31 31 32 83 33
REMARK SMILES IDX 32 34 82 35 33 36 34 37 35 38 76 39 36 40 81 41 75 42 77 43
REMARK SMILES IDX 37 44 80 45 74 46 73 47 38 49 64 50 47 51 63 52 48 53 51 54
REMARK SMILES IDX 62 55 78 56 49 57 50 58 61 60 79 61 52 62 39 63 40 64 45 65
REMARK SMILES IDX 41 66 42 67 44 68 46 69 43 70 65 71 66 72 71 73 67 74 68 75
REMARK SMILES IDX 70 76 72 77 69 78 53 79 54 80 59 81 55 82 56 83 58 84 60 85
REMARK SMILES IDX 57 86
REMARK H PARENT 6 15 77 48 51 59
REMARK Flexibility Score: inf
ROOT
ATOM      1  C   UNL A   1      34.942  21.267  25.678  1.00  0.00     0.188 C 
ENDROOT
BRANCH   1   2
ATOM      2  O   UNL A   1      34.117  21.348  24.534  1.00  0.00    -0.376 OA
BRANCH   2   3
ATOM      3  C   UNL A   1      34.147  22.564  23.819  1.00  0.00     0.202 C 
BRANCH   3   4
ATOM      4  C   UNL A   1      34.839  23.784  24.450  1.00  0.00     0.261 C 
BRANCH   4   5
ATOM      5  O   UNL A   1      34.443  25.119  24.079  1.00  0.00    -0.462 OA
BRANCH   5   6
ATOM      6  C   UNL A   1      33.823  25.870  25.023  1.00  0.00     0.328 C 
ATOM      7  O   UNL A   1      34.183  25.926  26.191  1.00  0.00    -0.250 OA
BRANCH   6   8
ATOM      8  C   UNL A   1      32.543  26.542  24.492  1.00  0.00     0.194 C 
BRANCH   8   9
ATOM      9  C   UNL A   1      31.289  26.216  25.321  1.00  0.00     0.065 C 
BRANCH   9  10
ATOM     10  C   UNL A   1      30.810  24.764  25.358  1.00  0.00     0.162 C 
BRANCH  10  11
ATOM     11  O   UNL A   1      30.787  24.212  26.669  1.00  0.00    -0.385 OA
ATOM     12  C   UNL A   1      31.901  23.401  27.010  1.00  0.00     0.194 C 
ENDBRANCH  10  11
ENDBRANCH   9  10
ENDBRANCH   8   9
BRANCH   8  13
ATOM     13  N   UNL A   1      32.297  26.182  23.078  1.00  0.00    -0.338 N 
ATOM     14  C   UNL A   1      31.374  26.645  22.175  1.00  0.00     0.253 C 
ATOM     15  H   UNL A   1      32.901  25.490  22.724  1.00  0.00     0.164 HD
ATOM     16  O   UNL A   1      31.294  26.145  21.058  1.00  0.00    -0.269 OA
BRANCH  14  17
ATOM     17  C   UNL A   1      30.449  27.729  22.530  1.00  0.00     0.058 A 
ATOM     18  C   UNL A   1      29.173  27.497  23.039  1.00  0.00     0.018 A 
ATOM     19  C   UNL A   1      30.883  29.042  22.406  1.00  0.00     0.126 A 
ATOM     20  C   UNL A   1      28.348  28.587  23.315  1.00  0.00     0.037 A 
ATOM     21  N   UNL A   1      30.098  30.117  22.663  1.00  0.00    -0.249 NA
ATOM     22  C   UNL A   1      28.844  29.867  23.099  1.00  0.00     0.106 A 
ATOM     23  Br  UNL A   1      27.704  31.351  23.400  1.00  0.00    -0.029 Br
ENDBRANCH  14  17
ENDBRANCH   8  13
ENDBRANCH   6   8
ENDBRANCH   5   6
ENDBRANCH   4   5
ENDBRANCH   3   4
ENDBRANCH   2   3
ENDBRANCH   1   2
BRANCH   1  24
ATOM     24  C   UNL A   1      36.433  21.175  25.317  1.00  0.00     0.188 C 
BRANCH  24  25
ATOM     25  O   UNL A   1      37.028  19.905  25.107  1.00  0.00    -0.376 OA
BRANCH  25  26
ATOM     26  C   UNL A   1      38.409  19.860  24.774  1.00  0.00     0.202 C 
BRANCH  26  27
ATOM     27  C   UNL A   1      39.448  19.489  25.853  1.00  0.00     0.261 C 
BRANCH  27  28
ATOM     28  O   UNL A   1      40.810  19.335  25.401  1.00  0.00    -0.460 OA
BRANCH  28  29
ATOM     29  C   UNL A   1      41.773  19.706  26.278  1.00  0.00     0.338 C 
ATOM     30  O   UNL A   1      42.811  19.096  26.528  1.00  0.00    -0.246 OA
BRANCH  29  31
ATOM     31  C   UNL A   1      41.541  21.085  26.771  1.00  0.00     0.060 A 
ATOM     32  C   UNL A   1      41.247  22.086  25.827  1.00  0.00     0.016 A 
ATOM     33  C   UNL A   1      41.693  21.423  28.116  1.00  0.00     0.016 A 
ATOM     34  C   UNL A   1      41.168  23.424  26.207  1.00  0.00     0.010 A 
ATOM     35  C   UNL A   1      41.655  22.776  28.493  1.00  0.00     0.010 A 
ATOM     36  C   UNL A   1      41.451  23.784  27.529  1.00  0.00    -0.014 A 
BRANCH  36  37
ATOM     37  C   UNL A   1      41.859  25.188  27.804  1.00  0.00     0.031 A 
ATOM     38  C   UNL A   1      43.222  25.624  27.322  1.00  0.00     0.074 A 
ATOM     39  C   UNL A   1      41.040  26.083  28.384  1.00  0.00     0.049 A 
ATOM     40  N   UNL A   1      43.824  26.779  27.447  1.00  0.00    -0.248 NA
ATOM     41  C   UNL A   1      44.013  24.611  26.604  1.00  0.00     0.031 C 
ATOM     42  C   UNL A   1      39.678  25.821  28.840  1.00  0.00     0.029 A 
ATOM     43  N   UNL A   1      41.251  27.406  28.691  1.00  0.00    -0.354 N 
ATOM     44  C   UNL A   1      45.062  26.626  26.831  1.00  0.00     0.074 A 
ATOM     45  C   UNL A   1      45.141  25.260  26.368  1.00  0.00     0.031 C 
ATOM     46  C   UNL A   1      39.178  26.947  29.383  1.00  0.00     0.029 A 
ATOM     47  C   UNL A   1      40.193  28.000  29.336  1.00  0.00     0.049 A 
ATOM     48  H   UNL A   1      42.082  27.884  28.467  1.00  0.00     0.167 HD
ATOM     49  C   UNL A   1      46.045  27.541  26.654  1.00  0.00     0.037 A 
ATOM     50  C   UNL A   1      40.072  29.243  29.846  1.00  0.00     0.037 A 
ATOM     51  C   UNL A   1      45.974  28.903  27.107  1.00  0.00     0.049 A 
ATOM     52  C   UNL A   1      41.209  30.224  29.704  1.00  0.00     0.074 A 
ATOM     53  C   UNL A   1      46.919  29.906  26.977  1.00  0.00     0.029 A 
ATOM     54  N   UNL A   1      44.897  29.454  27.784  1.00  0.00    -0.354 N 
ATOM     55  N   UNL A   1      42.373  30.071  29.117  1.00  0.00    -0.248 NA
ATOM     56  C   UNL A   1      41.010  31.560  30.289  1.00  0.00     0.031 C 
ATOM     57  C   UNL A   1      46.435  31.050  27.620  1.00  0.00     0.029 A 
ATOM     58  C   UNL A   1      45.161  30.778  28.092  1.00  0.00     0.049 A 
ATOM     59  H   UNL A   1      44.068  28.975  28.011  1.00  0.00     0.167 HD
ATOM     60  C   UNL A   1      43.020  31.299  29.222  1.00  0.00     0.074 A 
ATOM     61  C   UNL A   1      42.118  32.187  29.923  1.00  0.00     0.031 C 
ATOM     62  C   UNL A   1      44.248  31.661  28.772  1.00  0.00     0.037 A 
BRANCH  49  63
ATOM     63  C   UNL A   1      47.297  27.081  25.964  1.00  0.00     0.057 A 
ATOM     64  C   UNL A   1      47.480  27.222  24.582  1.00  0.00     0.134 A 
ATOM     65  C   UNL A   1      48.340  26.501  26.697  1.00  0.00     0.134 A 
ATOM     66  F   UNL A   1      46.512  27.752  23.817  1.00  0.00    -0.206 F 
ATOM     67  C   UNL A   1      48.643  26.777  23.950  1.00  0.00     0.040 A 
ATOM     68  C   UNL A   1      49.520  26.081  26.081  1.00  0.00     0.040 A 
ATOM     69  F   UNL A   1      48.231  26.337  28.024  1.00  0.00    -0.206 F 
ATOM     70  C   UNL A   1      49.671  26.210  24.703  1.00  0.00     0.006 A 
ENDBRANCH  49  63
BRANCH  50  71
ATOM     71  C   UNL A   1      38.827  29.645  30.553  1.00  0.00     0.057 A 
ATOM     72  C   UNL A   1      38.635  29.362  31.910  1.00  0.00     0.134 A 
ATOM     73  C   UNL A   1      37.776  30.275  29.873  1.00  0.00     0.134 A 
ATOM     74  F   UNL A   1      39.591  28.733  32.610  1.00  0.00    -0.206 F 
ATOM     75  C   UNL A   1      37.437  29.666  32.561  1.00  0.00     0.040 A 
ATOM     76  C   UNL A   1      36.585  30.612  30.518  1.00  0.00     0.040 A 
ATOM     77  F   UNL A   1      37.893  30.573  28.571  1.00  0.00    -0.206 F 
ATOM     78  C   UNL A   1      36.410  30.298  31.865  1.00  0.00     0.006 A 
ENDBRANCH  50  71
BRANCH  62  79
ATOM     79  C   UNL A   1      44.662  33.095  28.955  1.00  0.00     0.057 A 
ATOM     80  C   UNL A   1      44.373  34.087  28.008  1.00  0.00     0.134 A 
ATOM     81  C   UNL A   1      45.334  33.493  30.119  1.00  0.00     0.134 A 
ATOM     82  F   UNL A   1      43.738  33.775  26.869  1.00  0.00    -0.206 F 
ATOM     83  C   UNL A   1      44.771  35.412  28.195  1.00  0.00     0.040 A 
ATOM     84  C   UNL A   1      45.709  34.820  30.332  1.00  0.00     0.040 A 
ATOM     85  F   UNL A   1      45.629  32.600  31.075  1.00  0.00    -0.206 F 
ATOM     86  C   UNL A   1      45.436  35.783  29.363  1.00  0.00     0.006 A 
ENDBRANCH  62  79
ENDBRANCH  36  37
ENDBRANCH  29  31
ENDBRANCH  28  29
ENDBRANCH  27  28
ENDBRANCH  26  27
ENDBRANCH  25  26
ENDBRANCH  24  25
ENDBRANCH   1  24
TORSDOF 22
ENDMDL
MODEL 3
REMARK VINA RESULT:      -8.8      0.607      6.168
REMARK SMILES COCC[C@H](NC(=O)c1ccc(Br)nc1)C(=O)OCCOCCOCCOC(=O)c1ccc(-c2c3nc(c(-c4c(F)cccc4F)c4ccc([nH]4)c(-c4c(F)cccc4F)c4nc(c(-c5c(F)cccc5F)c5ccc2[nH]5)C=C4)C=C3)cc1
REMARK SMILES IDX 22 1 21 2 20 3 19 4 18 5 16 6 17 7 5 8 4 9 3 10 2 11 1 12
REMARK SMILES IDX 6 13 7 14 8 16 9 17 10 18 15 19 11 20 14 21 12 22 13 23
REMARK SMILES IDX 23 24 24 25 25 26 26 27 27 28 28 29 29 30 30 31 31 32 83 33
REMARK SMILES IDX 32 34 82 35 33 36 34 37 35 38 76 39 36 40 81 41 75 42 77 43
REMARK SMILES IDX 37 44 80 45 74 46 73 47 38 49 64 50 47 51 63 52 48 53 51 54
REMARK SMILES IDX 62 55 78 56 49 57 50 58 61 60 79 61 52 62 39 63 40 64 45 65
REMARK SMILES IDX 41 66 42 67 44 68 46 69 43 70 65 71 66 72 71 73 67 74 68 75
REMARK SMILES IDX 70 76 72 77 69 78 53 79 54 80 59 81 55 82 56 83 58 84 60 85
REMARK SMILES IDX 57 86
REMARK H PARENT 6 15 77 48 51 59
REMARK Flexibility Score: inf
ROOT
ATOM      1  C   UNL A   1      31.464  28.409  27.139  1.00  0.00     0.188 C 
ENDROOT
BRANCH   1   2
ATOM      2  O   UNL A   1      32.451  27.399  27.087  1.00  0.00    -0.376 OA
BRANCH   2   3
ATOM      3  C   UNL A   1      33.641  27.713  26.396  1.00  0.00     0.202 C 
BRANCH   3   4
ATOM      4  C   UNL A   1      33.919  27.037  25.043  1.00  0.00     0.261 C 
BRANCH   4   5
ATOM      5  O   UNL A   1      32.854  26.835  24.096  1.00  0.00    -0.462 OA
BRANCH   5   6
ATOM      6  C   UNL A   1      32.801  25.637  23.462  1.00  0.00     0.328 C 
ATOM      7  O   UNL A   1      33.613  25.280  22.618  1.00  0.00    -0.250 OA
BRANCH   6   8
ATOM      8  C   UNL A   1      31.540  24.832  23.827  1.00  0.00     0.194 C 
BRANCH   8   9
ATOM      9  C   UNL A   1      30.254  25.381  23.186  1.00  0.00     0.065 C 
BRANCH   9  10
ATOM     10  C   UNL A   1      29.290  26.171  24.072  1.00  0.00     0.162 C 
BRANCH  10  11
ATOM     11  O   UNL A   1      28.823  27.370  23.466  1.00  0.00    -0.385 OA
ATOM     12  C   UNL A   1      29.796  28.388  23.295  1.00  0.00     0.194 C 
ENDBRANCH  10  11
ENDBRANCH   9  10
ENDBRANCH   8   9
BRANCH   8  13
ATOM     13  N   UNL A   1      31.358  24.760  25.294  1.00  0.00    -0.338 N 
ATOM     14  C   UNL A   1      31.998  24.011  26.248  1.00  0.00     0.253 C 
ATOM     15  H   UNL A   1      30.655  25.354  25.646  1.00  0.00     0.164 HD
ATOM     16  O   UNL A   1      31.630  24.051  27.418  1.00  0.00    -0.269 OA
BRANCH  14  17
ATOM     17  C   UNL A   1      33.118  23.130  25.891  1.00  0.00     0.058 A 
ATOM     18  C   UNL A   1      32.936  21.864  25.340  1.00  0.00     0.018 A 
ATOM     19  C   UNL A   1      34.413  23.600  26.058  1.00  0.00     0.126 A 
ATOM     20  C   UNL A   1      34.057  21.081  25.064  1.00  0.00     0.037 A 
ATOM     21  N   UNL A   1      35.517  22.856  25.802  1.00  0.00    -0.249 NA
ATOM     22  C   UNL A   1      35.316  21.608  25.324  1.00  0.00     0.106 A 
ATOM     23  Br  UNL A   1      36.841  20.523  25.023  1.00  0.00    -0.029 Br
ENDBRANCH  14  17
ENDBRANCH   8  13
ENDBRANCH   6   8
ENDBRANCH   5   6
ENDBRANCH   4   5
ENDBRANCH   3   4
ENDBRANCH   2   3
ENDBRANCH   1   2
BRANCH   1  24
ATOM     24  C   UNL A   1      31.781  29.582  26.197  1.00  0.00     0.188 C 
BRANCH  24  25
ATOM     25  O   UNL A   1      31.258  30.869  26.478  1.00  0.00    -0.376 OA
BRANCH  25  26
ATOM     26  C   UNL A   1      32.170  31.957  26.571  1.00  0.00     0.202 C 
BRANCH  26  27
ATOM     27  C   UNL A   1      31.754  33.249  27.304  1.00  0.00     0.261 C 
BRANCH  27  28
ATOM     28  O   UNL A   1      32.790  34.233  27.500  1.00  0.00    -0.460 OA
BRANCH  28  29
ATOM     29  C   UNL A   1      33.276  34.344  28.759  1.00  0.00     0.338 C 
ATOM     30  O   UNL A   1      32.713  34.868  29.719  1.00  0.00    -0.246 OA
BRANCH  29  31
ATOM     31  C   UNL A   1      34.516  33.548  28.922  1.00  0.00     0.060 A 
ATOM     32  C   UNL A   1      34.396  32.212  29.345  1.00  0.00     0.016 A 
ATOM     33  C   UNL A   1      35.782  34.112  28.755  1.00  0.00     0.016 A 
ATOM     34  C   UNL A   1      35.526  31.459  29.661  1.00  0.00     0.010 A 
ATOM     35  C   UNL A   1      36.917  33.368  29.113  1.00  0.00     0.010 A 
ATOM     36  C   UNL A   1      36.788  32.059  29.623  1.00  0.00    -0.014 A 
BRANCH  36  37
ATOM     37  C   UNL A   1      37.883  31.446  30.422  1.00  0.00     0.031 A 
ATOM     38  C   UNL A   1      38.761  30.428  29.734  1.00  0.00     0.074 A 
ATOM     39  C   UNL A   1      38.159  31.819  31.684  1.00  0.00     0.049 A 
ATOM     40  N   UNL A   1      39.767  29.737  30.204  1.00  0.00    -0.248 NA
ATOM     41  C   UNL A   1      38.454  30.154  28.320  1.00  0.00     0.031 C 
ATOM     42  C   UNL A   1      37.439  32.833  32.450  1.00  0.00     0.029 A 
ATOM     43  N   UNL A   1      39.133  31.373  32.545  1.00  0.00    -0.354 N 
ATOM     44  C   UNL A   1      40.204  28.943  29.148  1.00  0.00     0.074 A 
ATOM     45  C   UNL A   1      39.333  29.211  28.026  1.00  0.00     0.031 C 
ATOM     46  C   UNL A   1      37.988  32.921  33.676  1.00  0.00     0.029 A 
ATOM     47  C   UNL A   1      39.080  31.953  33.789  1.00  0.00     0.049 A 
ATOM     48  H   UNL A   1      39.807  30.701  32.293  1.00  0.00     0.167 HD
ATOM     49  C   UNL A   1      41.244  28.077  29.106  1.00  0.00     0.037 A 
ATOM     50  C   UNL A   1      39.816  31.713  34.894  1.00  0.00     0.037 A 
ATOM     51  C   UNL A   1      42.118  27.808  30.214  1.00  0.00     0.049 A 
ATOM     52  C   UNL A   1      40.922  30.687  34.848  1.00  0.00     0.074 A 
ATOM     53  C   UNL A   1      43.199  26.945  30.271  1.00  0.00     0.029 A 
ATOM     54  N   UNL A   1      42.009  28.395  31.465  1.00  0.00    -0.354 N 
ATOM     55  N   UNL A   1      41.329  29.947  33.844  1.00  0.00    -0.248 NA
ATOM     56  C   UNL A   1      41.680  30.473  36.090  1.00  0.00     0.031 C 
ATOM     57  C   UNL A   1      43.713  26.972  31.572  1.00  0.00     0.029 A 
ATOM     58  C   UNL A   1      42.993  27.900  32.305  1.00  0.00     0.049 A 
ATOM     59  H   UNL A   1      41.333  29.064  31.718  1.00  0.00     0.167 HD
ATOM     60  C   UNL A   1      42.415  29.218  34.321  1.00  0.00     0.074 A 
ATOM     61  C   UNL A   1      42.606  29.609  35.701  1.00  0.00     0.031 C 
ATOM     62  C   UNL A   1      43.188  28.311  33.672  1.00  0.00     0.037 A 
BRANCH  49  63
ATOM     63  C   UNL A   1      41.469  27.334  27.820  1.00  0.00     0.057 A 
ATOM     64  C   UNL A   1      40.903  26.075  27.579  1.00  0.00     0.134 A 
ATOM     65  C   UNL A   1      42.253  27.894  26.804  1.00  0.00     0.134 A 
ATOM     66  F   UNL A   1      40.157  25.473  28.519  1.00  0.00    -0.206 F 
ATOM     67  C   UNL A   1      41.132  25.388  26.386  1.00  0.00     0.040 A 
ATOM     68  C   UNL A   1      42.463  27.231  25.593  1.00  0.00     0.040 A 
ATOM     69  F   UNL A   1      42.825  29.097  26.967  1.00  0.00    -0.206 F 
ATOM     70  C   UNL A   1      41.909  25.970  25.385  1.00  0.00     0.006 A 
ENDBRANCH  49  63
BRANCH  50  71
ATOM     71  C   UNL A   1      39.535  32.447  36.156  1.00  0.00     0.057 A 
ATOM     72  C   UNL A   1      38.538  32.021  37.042  1.00  0.00     0.134 A 
ATOM     73  C   UNL A   1      40.222  33.624  36.481  1.00  0.00     0.134 A 
ATOM     74  F   UNL A   1      37.824  30.918  36.773  1.00  0.00    -0.206 F 
ATOM     75  C   UNL A   1      38.216  32.749  38.190  1.00  0.00     0.040 A 
ATOM     76  C   UNL A   1      39.931  34.346  37.640  1.00  0.00     0.040 A 
ATOM     77  F   UNL A   1      41.188  34.089  35.675  1.00  0.00    -0.206 F 
ATOM     78  C   UNL A   1      38.918  33.913  38.494  1.00  0.00     0.006 A 
ENDBRANCH  50  71
BRANCH  62  79
ATOM     79  C   UNL A   1      44.359  27.733  34.420  1.00  0.00     0.057 A 
ATOM     80  C   UNL A   1      44.274  26.533  35.137  1.00  0.00     0.134 A 
ATOM     81  C   UNL A   1      45.603  28.379  34.391  1.00  0.00     0.134 A 
ATOM     82  F   UNL A   1      43.112  25.866  35.211  1.00  0.00    -0.206 F 
ATOM     83  C   UNL A   1      45.371  26.016  35.828  1.00  0.00     0.040 A 
ATOM     84  C   UNL A   1      46.716  27.856  35.051  1.00  0.00     0.040 A 
ATOM     85  F   UNL A   1      45.761  29.524  33.711  1.00  0.00    -0.206 F 
ATOM     86  C   UNL A   1      46.598  26.676  35.781  1.00  0.00     0.006 A 
ENDBRANCH  62  79
ENDBRANCH  36  37
ENDBRANCH  29  31
ENDBRANCH  28  29
ENDBRANCH  27  28
ENDBRANCH  26  27
ENDBRANCH  25  26
ENDBRANCH  24  25
ENDBRANCH   1  24
TORSDOF 22
ENDMDL
