MODEL 1
REMARK VINA RESULT:     -10.9      0.000      0.000
REMARK SMILES Cc1nc2sc3c(c2c2nc(CCC(=O)OCCOCCOCCOC(=O)c4ccc(-c5c6nc(c(-c7c(F)cccc7F)c7ccc([nH]7)c(-c7c(F)cccc7F)c7nc(c(-c8c(F)cccc8F)c8ccc5[nH]8)C=C7)C=C6)cc4)nn12)[C@@H](C)CCC3
REMARK SMILES IDX 20 1 19 2 18 3 17 4 16 5 14 6 15 7 13 8 12 9 11 10 1 11 2 12
REMARK SMILES IDX 3 13 83 14 4 15 9 16 82 17 5 18 8 19 10 20 6 21 7 22 88 23
REMARK SMILES IDX 84 24 87 25 85 26 86 27 21 28 22 29 23 30 24 31 25 32 26 33
REMARK SMILES IDX 27 34 28 35 29 36 81 37 30 38 80 39 31 40 32 41 33 42 74 43
REMARK SMILES IDX 34 44 79 45 73 46 75 47 35 48 78 49 72 50 71 51 36 53 62 54
REMARK SMILES IDX 45 55 61 56 46 57 49 58 60 59 76 60 47 61 48 62 59 64 77 65
REMARK SMILES IDX 50 66 37 67 38 68 43 69 39 70 40 71 42 72 44 73 41 74 63 75
REMARK SMILES IDX 64 76 69 77 65 78 66 79 68 80 70 81 67 82 51 83 52 84 57 85
REMARK SMILES IDX 53 86 54 87 56 88 58 89 55 90
REMARK H PARENT 75 52 49 63
REMARK Flexibility Score: inf
ROOT
ATOM      1  C   UNL A   1      33.210  35.333  29.038  1.00  0.00     0.188 C 
ENDROOT
BRANCH   1   2
ATOM      2  O   UNL A   1      34.449  34.665  29.233  1.00  0.00    -0.376 OA
BRANCH   2   3
ATOM      3  C   UNL A   1      34.752  33.690  28.233  1.00  0.00     0.202 C 
BRANCH   3   4
ATOM      4  C   UNL A   1      34.059  32.307  28.343  1.00  0.00     0.261 C 
BRANCH   4   5
ATOM      5  O   UNL A   1      34.976  31.173  28.400  1.00  0.00    -0.463 OA
BRANCH   5   6
ATOM      6  C   UNL A   1      34.679  30.111  27.605  1.00  0.00     0.306 C 
ATOM      7  O   UNL A   1      35.527  29.331  27.180  1.00  0.00    -0.252 OA
BRANCH   6   8
ATOM      8  C   UNL A   1      33.206  29.939  27.251  1.00  0.00     0.131 C 
BRANCH   8   9
ATOM      9  C   UNL A   1      32.538  28.563  27.219  1.00  0.00     0.091 C 
BRANCH   9  10
ATOM     10  C   UNL A   1      32.738  27.763  25.979  1.00  0.00     0.152 A 
ATOM     11  C   UNL A   1      33.996  28.467  22.047  1.00  0.00     0.090 C 
ATOM     12  C   UNL A   1      33.653  27.156  22.686  1.00  0.00     0.131 A 
ATOM     13  N   UNL A   1      33.697  26.034  22.009  1.00  0.00    -0.222 NA
ATOM     14  N   UNL A   1      33.271  27.207  24.035  1.00  0.00    -0.199 N 
ATOM     15  C   UNL A   1      33.339  24.898  22.694  1.00  0.00     0.129 A 
ATOM     16  C   UNL A   1      32.946  26.083  24.740  1.00  0.00     0.168 A 
ATOM     17  N   UNL A   1      33.121  28.309  24.810  1.00  0.00    -0.150 NA
ATOM     18  S   UNL A   1      33.277  23.365  21.934  1.00  0.00    -0.120 S 
ATOM     19  C   UNL A   1      32.961  24.788  24.023  1.00  0.00     0.060 A 
ATOM     20  N   UNL A   1      32.635  26.398  25.972  1.00  0.00    -0.211 NA
ATOM     21  C   UNL A   1      32.748  22.598  23.364  1.00  0.00     0.011 A 
ATOM     22  C   UNL A   1      32.610  23.469  24.430  1.00  0.00    -0.018 A 
ATOM     23  C   UNL A   1      32.418  21.134  23.406  1.00  0.00     0.047 C 
ATOM     24  C   UNL A   1      32.136  22.989  25.777  1.00  0.00     0.018 C 
ATOM     25  C   UNL A   1      32.424  20.627  24.855  1.00  0.00     0.006 C 
ATOM     26  C   UNL A   1      31.046  23.877  26.349  1.00  0.00     0.013 C 
ATOM     27  C   UNL A   1      31.598  21.545  25.751  1.00  0.00     0.008 C 
ENDBRANCH   9  10
ENDBRANCH   8   9
ENDBRANCH   6   8
ENDBRANCH   5   6
ENDBRANCH   4   5
ENDBRANCH   3   4
ENDBRANCH   2   3
ENDBRANCH   1   2
BRANCH   1  28
ATOM     28  C   UNL A   1      33.274  36.825  29.249  1.00  0.00     0.188 C 
BRANCH  28  29
ATOM     29  O   UNL A   1      32.900  37.199  30.588  1.00  0.00    -0.376 OA
BRANCH  29  30
ATOM     30  C   UNL A   1      32.426  36.162  31.448  1.00  0.00     0.202 C 
BRANCH  30  31
ATOM     31  C   UNL A   1      33.357  35.764  32.589  1.00  0.00     0.261 C 
BRANCH  31  32
ATOM     32  O   UNL A   1      33.548  34.368  32.599  1.00  0.00    -0.460 OA
BRANCH  32  33
ATOM     33  C   UNL A   1      34.670  33.990  33.261  1.00  0.00     0.338 C 
ATOM     34  O   UNL A   1      34.936  34.110  34.436  1.00  0.00    -0.246 OA
BRANCH  33  35
ATOM     35  C   UNL A   1      35.567  33.407  32.263  1.00  0.00     0.060 A 
ATOM     36  C   UNL A   1      35.352  32.073  31.918  1.00  0.00     0.016 A 
ATOM     37  C   UNL A   1      36.744  34.098  31.958  1.00  0.00     0.016 A 
ATOM     38  C   UNL A   1      36.453  31.333  31.585  1.00  0.00     0.010 A 
ATOM     39  C   UNL A   1      37.848  33.355  31.691  1.00  0.00     0.010 A 
ATOM     40  C   UNL A   1      37.693  31.973  31.622  1.00  0.00    -0.014 A 
BRANCH  40  41
ATOM     41  C   UNL A   1      38.890  31.196  31.456  1.00  0.00     0.031 A 
ATOM     42  C   UNL A   1      39.530  30.995  32.770  1.00  0.00     0.074 A 
ATOM     43  C   UNL A   1      39.192  30.674  30.251  1.00  0.00     0.049 A 
ATOM     44  N   UNL A   1      40.600  31.571  33.202  1.00  0.00    -0.248 NA
ATOM     45  C   UNL A   1      38.750  30.325  33.833  1.00  0.00     0.031 C 
ATOM     46  C   UNL A   1      38.379  30.721  29.027  1.00  0.00     0.029 A 
ATOM     47  N   UNL A   1      40.240  29.881  29.887  1.00  0.00    -0.354 N 
ATOM     48  C   UNL A   1      40.779  31.052  34.478  1.00  0.00     0.074 A 
ATOM     49  C   UNL A   1      39.499  30.573  34.908  1.00  0.00     0.031 C 
ATOM     50  C   UNL A   1      38.836  29.805  28.143  1.00  0.00     0.029 A 
ATOM     51  C   UNL A   1      40.038  29.200  28.679  1.00  0.00     0.049 A 
ATOM     52  H   UNL A   1      41.061  29.795  30.423  1.00  0.00     0.167 HD
ATOM     53  C   UNL A   1      42.021  30.649  34.856  1.00  0.00     0.037 A 
ATOM     54  C   UNL A   1      40.791  28.157  28.241  1.00  0.00     0.037 A 
ATOM     55  C   UNL A   1      43.014  31.234  33.990  1.00  0.00     0.049 A 
ATOM     56  C   UNL A   1      42.070  28.232  28.992  1.00  0.00     0.074 A 
ATOM     57  C   UNL A   1      43.467  32.508  33.727  1.00  0.00     0.029 A 
ATOM     58  N   UNL A   1      43.332  30.450  32.910  1.00  0.00    -0.354 N 
ATOM     59  N   UNL A   1      42.940  29.192  28.842  1.00  0.00    -0.248 NA
ATOM     60  C   UNL A   1      42.185  27.466  30.225  1.00  0.00     0.031 C 
ATOM     61  C   UNL A   1      43.871  32.501  32.360  1.00  0.00     0.029 A 
ATOM     62  C   UNL A   1      43.732  31.210  31.850  1.00  0.00     0.049 A 
ATOM     63  H   UNL A   1      43.276  29.468  32.901  1.00  0.00     0.167 HD
ATOM     64  C   UNL A   1      43.410  29.432  30.122  1.00  0.00     0.074 A 
ATOM     65  C   UNL A   1      43.029  28.254  30.898  1.00  0.00     0.031 C 
ATOM     66  C   UNL A   1      43.766  30.695  30.497  1.00  0.00     0.037 A 
BRANCH  53  67
ATOM     67  C   UNL A   1      42.290  29.348  35.587  1.00  0.00     0.057 A 
ATOM     68  C   UNL A   1      43.235  29.352  36.625  1.00  0.00     0.134 A 
ATOM     69  C   UNL A   1      41.904  28.063  35.142  1.00  0.00     0.134 A 
ATOM     70  F   UNL A   1      43.719  30.506  37.108  1.00  0.00    -0.206 F 
ATOM     71  C   UNL A   1      43.781  28.173  37.150  1.00  0.00     0.040 A 
ATOM     72  C   UNL A   1      42.402  26.882  35.694  1.00  0.00     0.040 A 
ATOM     73  F   UNL A   1      41.114  27.861  34.083  1.00  0.00    -0.206 F 
ATOM     74  C   UNL A   1      43.364  26.933  36.685  1.00  0.00     0.006 A 
ENDBRANCH  53  67
BRANCH  54  75
ATOM     75  C   UNL A   1      40.392  26.928  27.507  1.00  0.00     0.057 A 
ATOM     76  C   UNL A   1      41.024  26.578  26.301  1.00  0.00     0.134 A 
ATOM     77  C   UNL A   1      39.624  25.918  28.106  1.00  0.00     0.134 A 
ATOM     78  F   UNL A   1      41.804  27.461  25.658  1.00  0.00    -0.206 F 
ATOM     79  C   UNL A   1      40.947  25.288  25.758  1.00  0.00     0.040 A 
ATOM     80  C   UNL A   1      39.533  24.626  27.571  1.00  0.00     0.040 A 
ATOM     81  F   UNL A   1      39.011  26.116  29.282  1.00  0.00    -0.206 F 
ATOM     82  C   UNL A   1      40.213  24.300  26.404  1.00  0.00     0.006 A 
ENDBRANCH  54  75
BRANCH  66  83
ATOM     83  C   UNL A   1      44.067  31.699  29.423  1.00  0.00     0.057 A 
ATOM     84  C   UNL A   1      43.206  32.731  29.027  1.00  0.00     0.134 A 
ATOM     85  C   UNL A   1      45.376  31.730  28.928  1.00  0.00     0.134 A 
ATOM     86  F   UNL A   1      41.956  32.812  29.501  1.00  0.00    -0.206 F 
ATOM     87  C   UNL A   1      43.642  33.757  28.181  1.00  0.00     0.040 A 
ATOM     88  C   UNL A   1      45.833  32.767  28.117  1.00  0.00     0.040 A 
ATOM     89  F   UNL A   1      46.259  30.790  29.301  1.00  0.00    -0.206 F 
ATOM     90  C   UNL A   1      44.964  33.787  27.741  1.00  0.00     0.006 A 
ENDBRANCH  66  83
ENDBRANCH  40  41
ENDBRANCH  33  35
ENDBRANCH  32  33
ENDBRANCH  31  32
ENDBRANCH  30  31
ENDBRANCH  29  30
ENDBRANCH  28  29
ENDBRANCH   1  28
TORSDOF 19
ENDMDL
MODEL 2
REMARK VINA RESULT:     -10.9      2.166      3.096
REMARK SMILES Cc1nc2sc3c(c2c2nc(CCC(=O)OCCOCCOCCOC(=O)c4ccc(-c5c6nc(c(-c7c(F)cccc7F)c7ccc([nH]7)c(-c7c(F)cccc7F)c7nc(c(-c8c(F)cccc8F)c8ccc5[nH]8)C=C7)C=C6)cc4)nn12)[C@@H](C)CCC3
REMARK SMILES IDX 20 1 19 2 18 3 17 4 16 5 14 6 15 7 13 8 12 9 11 10 1 11 2 12
REMARK SMILES IDX 3 13 83 14 4 15 9 16 82 17 5 18 8 19 10 20 6 21 7 22 88 23
REMARK SMILES IDX 84 24 87 25 85 26 86 27 21 28 22 29 23 30 24 31 25 32 26 33
REMARK SMILES IDX 27 34 28 35 29 36 81 37 30 38 80 39 31 40 32 41 33 42 74 43
REMARK SMILES IDX 34 44 79 45 73 46 75 47 35 48 78 49 72 50 71 51 36 53 62 54
REMARK SMILES IDX 45 55 61 56 46 57 49 58 60 59 76 60 47 61 48 62 59 64 77 65
REMARK SMILES IDX 50 66 37 67 38 68 43 69 39 70 40 71 42 72 44 73 41 74 63 75
REMARK SMILES IDX 64 76 69 77 65 78 66 79 68 80 70 81 67 82 51 83 52 84 57 85
REMARK SMILES IDX 53 86 54 87 56 88 58 89 55 90
REMARK H PARENT 75 52 49 63
REMARK Flexibility Score: inf
ROOT
ATOM      1  C   UNL A   1      34.136  33.212  28.055  1.00  0.00     0.188 C 
ENDROOT
BRANCH   1   2
ATOM      2  O   UNL A   1      34.746  31.961  27.765  1.00  0.00    -0.376 OA
BRANCH   2   3
ATOM      3  C   UNL A   1      33.825  30.937  27.381  1.00  0.00     0.202 C 
BRANCH   3   4
ATOM      4  C   UNL A   1      34.206  29.469  27.705  1.00  0.00     0.261 C 
BRANCH   4   5
ATOM      5  O   UNL A   1      34.262  28.587  26.543  1.00  0.00    -0.463 OA
BRANCH   5   6
ATOM      6  C   UNL A   1      33.169  28.577  25.736  1.00  0.00     0.306 C 
ATOM      7  O   UNL A   1      32.036  28.329  26.141  1.00  0.00    -0.252 OA
BRANCH   6   8
ATOM      8  C   UNL A   1      33.426  28.888  24.266  1.00  0.00     0.131 C 
BRANCH   8   9
ATOM      9  C   UNL A   1      34.035  27.857  23.316  1.00  0.00     0.091 C 
BRANCH   9  10
ATOM     10  C   UNL A   1      33.615  26.442  23.523  1.00  0.00     0.152 A 
ATOM     11  C   UNL A   1      30.068  24.231  23.278  1.00  0.00     0.090 C 
ATOM     12  C   UNL A   1      31.450  23.729  23.561  1.00  0.00     0.131 A 
ATOM     13  N   UNL A   1      31.681  22.461  23.801  1.00  0.00    -0.222 NA
ATOM     14  N   UNL A   1      32.469  24.695  23.571  1.00  0.00    -0.199 N 
ATOM     15  C   UNL A   1      32.985  22.122  24.071  1.00  0.00     0.129 A 
ATOM     16  C   UNL A   1      33.775  24.369  23.803  1.00  0.00     0.168 A 
ATOM     17  N   UNL A   1      32.338  26.034  23.410  1.00  0.00    -0.150 NA
ATOM     18  S   UNL A   1      33.440  20.521  24.472  1.00  0.00    -0.120 S 
ATOM     19  C   UNL A   1      34.094  22.954  24.097  1.00  0.00     0.060 A 
ATOM     20  N   UNL A   1      34.523  25.442  23.751  1.00  0.00    -0.211 NA
ATOM     21  C   UNL A   1      35.076  20.960  24.678  1.00  0.00     0.011 A 
ATOM     22  C   UNL A   1      35.311  22.305  24.450  1.00  0.00    -0.018 A 
ATOM     23  C   UNL A   1      36.116  19.972  25.120  1.00  0.00     0.047 C 
ATOM     24  C   UNL A   1      36.690  22.894  24.598  1.00  0.00     0.018 C 
ATOM     25  C   UNL A   1      37.521  20.488  24.782  1.00  0.00     0.006 C 
ATOM     26  C   UNL A   1      36.680  24.175  25.413  1.00  0.00     0.013 C 
ATOM     27  C   UNL A   1      37.695  21.928  25.256  1.00  0.00     0.008 C 
ENDBRANCH   9  10
ENDBRANCH   8   9
ENDBRANCH   6   8
ENDBRANCH   5   6
ENDBRANCH   4   5
ENDBRANCH   3   4
ENDBRANCH   2   3
ENDBRANCH   1   2
BRANCH   1  28
ATOM     28  C   UNL A   1      35.068  34.392  27.943  1.00  0.00     0.188 C 
BRANCH  28  29
ATOM     29  O   UNL A   1      34.448  35.616  28.381  1.00  0.00    -0.376 OA
BRANCH  29  30
ATOM     30  C   UNL A   1      33.060  35.563  28.711  1.00  0.00     0.202 C 
BRANCH  30  31
ATOM     31  C   UNL A   1      32.704  35.900  30.156  1.00  0.00     0.261 C 
BRANCH  31  32
ATOM     32  O   UNL A   1      33.056  34.835  31.008  1.00  0.00    -0.460 OA
BRANCH  32  33
ATOM     33  C   UNL A   1      33.011  35.168  32.322  1.00  0.00     0.338 C 
ATOM     34  O   UNL A   1      32.187  35.833  32.909  1.00  0.00    -0.246 OA
BRANCH  33  35
ATOM     35  C   UNL A   1      34.200  34.584  32.943  1.00  0.00     0.060 A 
ATOM     36  C   UNL A   1      35.277  35.437  33.176  1.00  0.00     0.016 A 
ATOM     37  C   UNL A   1      34.304  33.189  32.973  1.00  0.00     0.016 A 
ATOM     38  C   UNL A   1      36.530  34.893  33.088  1.00  0.00     0.010 A 
ATOM     39  C   UNL A   1      35.544  32.658  32.821  1.00  0.00     0.010 A 
ATOM     40  C   UNL A   1      36.621  33.538  32.770  1.00  0.00    -0.014 A 
BRANCH  40  41
ATOM     41  C   UNL A   1      37.910  32.967  32.491  1.00  0.00     0.031 A 
ATOM     42  C   UNL A   1      38.744  33.023  33.706  1.00  0.00     0.074 A 
ATOM     43  C   UNL A   1      38.143  32.378  31.301  1.00  0.00     0.049 A 
ATOM     44  N   UNL A   1      39.735  33.819  33.924  1.00  0.00    -0.248 NA
ATOM     45  C   UNL A   1      38.250  32.347  34.926  1.00  0.00     0.031 C 
ATOM     46  C   UNL A   1      37.180  32.151  30.212  1.00  0.00     0.029 A 
ATOM     47  N   UNL A   1      39.262  31.745  30.851  1.00  0.00    -0.354 N 
ATOM     48  C   UNL A   1      40.175  33.480  35.198  1.00  0.00     0.074 A 
ATOM     49  C   UNL A   1      39.075  32.836  35.852  1.00  0.00     0.031 C 
ATOM     50  C   UNL A   1      37.680  31.238  29.349  1.00  0.00     0.029 A 
ATOM     51  C   UNL A   1      39.034  30.913  29.746  1.00  0.00     0.049 A 
ATOM     52  H   UNL A   1      40.149  31.861  31.264  1.00  0.00     0.167 HD
ATOM     53  C   UNL A   1      41.509  33.343  35.417  1.00  0.00     0.037 A 
ATOM     54  C   UNL A   1      39.905  29.975  29.288  1.00  0.00     0.037 A 
ATOM     55  C   UNL A   1      42.252  33.995  34.367  1.00  0.00     0.049 A 
ATOM     56  C   UNL A   1      41.235  30.351  29.831  1.00  0.00     0.074 A 
ATOM     57  C   UNL A   1      42.419  35.292  33.935  1.00  0.00     0.029 A 
ATOM     58  N   UNL A   1      42.565  33.165  33.320  1.00  0.00    -0.354 N 
ATOM     59  N   UNL A   1      41.882  31.427  29.474  1.00  0.00    -0.248 NA
ATOM     60  C   UNL A   1      41.653  29.755  31.092  1.00  0.00     0.031 C 
ATOM     61  C   UNL A   1      42.633  35.207  32.529  1.00  0.00     0.029 A 
ATOM     62  C   UNL A   1      42.673  33.864  32.153  1.00  0.00     0.049 A 
ATOM     63  H   UNL A   1      42.693  32.193  33.400  1.00  0.00     0.167 HD
ATOM     64  C   UNL A   1      42.464  31.881  30.646  1.00  0.00     0.074 A 
ATOM     65  C   UNL A   1      42.415  30.746  31.564  1.00  0.00     0.031 C 
ATOM     66  C   UNL A   1      42.623  33.220  30.858  1.00  0.00     0.037 A 
BRANCH  53  67
ATOM     67  C   UNL A   1      42.111  32.195  36.205  1.00  0.00     0.057 A 
ATOM     68  C   UNL A   1      43.067  32.493  37.189  1.00  0.00     0.134 A 
ATOM     69  C   UNL A   1      42.029  30.828  35.853  1.00  0.00     0.134 A 
ATOM     70  F   UNL A   1      43.277  33.759  37.580  1.00  0.00    -0.206 F 
ATOM     71  C   UNL A   1      43.900  31.516  37.748  1.00  0.00     0.040 A 
ATOM     72  C   UNL A   1      42.818  29.839  36.442  1.00  0.00     0.040 A 
ATOM     73  F   UNL A   1      41.270  30.374  34.850  1.00  0.00    -0.206 F 
ATOM     74  C   UNL A   1      43.776  30.184  37.377  1.00  0.00     0.006 A 
ENDBRANCH  53  67
BRANCH  54  75
ATOM     75  C   UNL A   1      39.649  28.624  28.726  1.00  0.00     0.057 A 
ATOM     76  C   UNL A   1      40.195  28.250  27.485  1.00  0.00     0.134 A 
ATOM     77  C   UNL A   1      39.142  27.574  29.508  1.00  0.00     0.134 A 
ATOM     78  F   UNL A   1      40.731  29.173  26.670  1.00  0.00    -0.206 F 
ATOM     79  C   UNL A   1      40.287  26.913  27.076  1.00  0.00     0.040 A 
ATOM     80  C   UNL A   1      39.221  26.234  29.108  1.00  0.00     0.040 A 
ATOM     81  F   UNL A   1      38.639  27.798  30.729  1.00  0.00    -0.206 F 
ATOM     82  C   UNL A   1      39.815  25.896  27.897  1.00  0.00     0.006 A 
ENDBRANCH  54  75
BRANCH  66  83
ATOM     83  C   UNL A   1      42.586  34.138  29.672  1.00  0.00     0.057 A 
ATOM     84  C   UNL A   1      41.447  34.819  29.221  1.00  0.00     0.134 A 
ATOM     85  C   UNL A   1      43.815  34.498  29.105  1.00  0.00     0.134 A 
ATOM     86  F   UNL A   1      40.241  34.583  29.753  1.00  0.00    -0.206 F 
ATOM     87  C   UNL A   1      41.538  35.826  28.253  1.00  0.00     0.040 A 
ATOM     88  C   UNL A   1      43.922  35.524  28.168  1.00  0.00     0.040 A 
ATOM     89  F   UNL A   1      44.946  33.908  29.522  1.00  0.00    -0.206 F 
ATOM     90  C   UNL A   1      42.780  36.193  27.739  1.00  0.00     0.006 A 
ENDBRANCH  66  83
ENDBRANCH  40  41
ENDBRANCH  33  35
ENDBRANCH  32  33
ENDBRANCH  31  32
ENDBRANCH  30  31
ENDBRANCH  29  30
ENDBRANCH  28  29
ENDBRANCH   1  28
TORSDOF 19
ENDMDL
MODEL 3
REMARK VINA RESULT:     -10.6      2.394      3.468
REMARK SMILES Cc1nc2sc3c(c2c2nc(CCC(=O)OCCOCCOCCOC(=O)c4ccc(-c5c6nc(c(-c7c(F)cccc7F)c7ccc([nH]7)c(-c7c(F)cccc7F)c7nc(c(-c8c(F)cccc8F)c8ccc5[nH]8)C=C7)C=C6)cc4)nn12)[C@@H](C)CCC3
REMARK SMILES IDX 20 1 19 2 18 3 17 4 16 5 14 6 15 7 13 8 12 9 11 10 1 11 2 12
REMARK SMILES IDX 3 13 83 14 4 15 9 16 82 17 5 18 8 19 10 20 6 21 7 22 88 23
REMARK SMILES IDX 84 24 87 25 85 26 86 27 21 28 22 29 23 30 24 31 25 32 26 33
REMARK SMILES IDX 27 34 28 35 29 36 81 37 30 38 80 39 31 40 32 41 33 42 74 43
REMARK SMILES IDX 34 44 79 45 73 46 75 47 35 48 78 49 72 50 71 51 36 53 62 54
REMARK SMILES IDX 45 55 61 56 46 57 49 58 60 59 76 60 47 61 48 62 59 64 77 65
REMARK SMILES IDX 50 66 37 67 38 68 43 69 39 70 40 71 42 72 44 73 41 74 63 75
REMARK SMILES IDX 64 76 69 77 65 78 66 79 68 80 70 81 67 82 51 83 52 84 57 85
REMARK SMILES IDX 53 86 54 87 56 88 58 89 55 90
REMARK H PARENT 75 52 49 63
REMARK Flexibility Score: inf
ROOT
ATOM      1  C   UNL A   1      31.543  31.749  26.862  1.00  0.00     0.188 C 
ENDROOT
BRANCH   1   2
ATOM      2  O   UNL A   1      32.550  30.805  27.204  1.00  0.00    -0.376 OA
BRANCH   2   3
ATOM      3  C   UNL A   1      33.062  30.067  26.093  1.00  0.00     0.202 C 
BRANCH   3   4
ATOM      4  C   UNL A   1      33.908  28.803  26.396  1.00  0.00     0.261 C 
BRANCH   4   5
ATOM      5  O   UNL A   1      33.205  27.771  27.151  1.00  0.00    -0.463 OA
BRANCH   5   6
ATOM      6  C   UNL A   1      32.293  27.032  26.465  1.00  0.00     0.306 C 
ATOM      7  O   UNL A   1      31.213  26.688  26.938  1.00  0.00    -0.252 OA
BRANCH   6   8
ATOM      8  C   UNL A   1      32.692  26.634  25.049  1.00  0.00     0.131 C 
BRANCH   8   9
ATOM      9  C   UNL A   1      32.361  25.257  24.472  1.00  0.00     0.091 C 
BRANCH   9  10
ATOM     10  C   UNL A   1      33.406  24.207  24.633  1.00  0.00     0.152 A 
ATOM     11  C   UNL A   1      37.409  24.030  25.849  1.00  0.00     0.090 C 
ATOM     12  C   UNL A   1      36.504  22.893  25.483  1.00  0.00     0.131 A 
ATOM     13  N   UNL A   1      36.929  21.653  25.487  1.00  0.00    -0.222 NA
ATOM     14  N   UNL A   1      35.193  23.239  25.122  1.00  0.00    -0.199 N 
ATOM     15  C   UNL A   1      36.016  20.697  25.110  1.00  0.00     0.129 A 
ATOM     16  C   UNL A   1      34.263  22.298  24.779  1.00  0.00     0.168 A 
ATOM     17  N   UNL A   1      34.668  24.483  25.012  1.00  0.00    -0.150 NA
ATOM     18  S   UNL A   1      36.434  19.041  24.998  1.00  0.00    -0.120 S 
ATOM     19  C   UNL A   1      34.690  20.881  24.749  1.00  0.00     0.060 A 
ATOM     20  N   UNL A   1      33.123  22.875  24.494  1.00  0.00    -0.211 NA
ATOM     21  C   UNL A   1      34.869  18.608  24.470  1.00  0.00     0.011 A 
ATOM     22  C   UNL A   1      34.011  19.688  24.370  1.00  0.00    -0.018 A 
ATOM     23  C   UNL A   1      34.515  17.197  24.103  1.00  0.00     0.047 C 
ATOM     24  C   UNL A   1      32.588  19.518  23.904  1.00  0.00     0.018 C 
ATOM     25  C   UNL A   1      32.993  17.007  24.118  1.00  0.00     0.006 C 
ATOM     26  C   UNL A   1      32.207  20.536  22.846  1.00  0.00     0.013 C 
ATOM     27  C   UNL A   1      32.303  18.116  23.329  1.00  0.00     0.008 C 
ENDBRANCH   9  10
ENDBRANCH   8   9
ENDBRANCH   6   8
ENDBRANCH   5   6
ENDBRANCH   4   5
ENDBRANCH   3   4
ENDBRANCH   2   3
ENDBRANCH   1   2
BRANCH   1  28
ATOM     28  C   UNL A   1      31.976  33.188  26.999  1.00  0.00     0.188 C 
BRANCH  28  29
ATOM     29  O   UNL A   1      33.044  33.343  27.953  1.00  0.00    -0.376 OA
BRANCH  29  30
ATOM     30  C   UNL A   1      33.123  34.588  28.647  1.00  0.00     0.202 C 
BRANCH  30  31
ATOM     31  C   UNL A   1      33.899  34.572  29.960  1.00  0.00     0.261 C 
BRANCH  31  32
ATOM     32  O   UNL A   1      33.398  35.553  30.837  1.00  0.00    -0.460 OA
BRANCH  32  33
ATOM     33  C   UNL A   1      33.005  35.048  32.033  1.00  0.00     0.338 C 
ATOM     34  O   UNL A   1      31.897  35.029  32.521  1.00  0.00    -0.246 OA
BRANCH  33  35
ATOM     35  C   UNL A   1      34.207  34.527  32.683  1.00  0.00     0.060 A 
ATOM     36  C   UNL A   1      35.272  35.410  32.849  1.00  0.00     0.016 A 
ATOM     37  C   UNL A   1      34.333  33.139  32.810  1.00  0.00     0.016 A 
ATOM     38  C   UNL A   1      36.533  34.881  32.789  1.00  0.00     0.010 A 
ATOM     39  C   UNL A   1      35.579  32.617  32.685  1.00  0.00     0.010 A 
ATOM     40  C   UNL A   1      36.642  33.507  32.564  1.00  0.00    -0.014 A 
BRANCH  40  41
ATOM     41  C   UNL A   1      37.938  32.938  32.316  1.00  0.00     0.031 A 
ATOM     42  C   UNL A   1      38.748  33.007  33.547  1.00  0.00     0.074 A 
ATOM     43  C   UNL A   1      38.196  32.340  31.136  1.00  0.00     0.049 A 
ATOM     44  N   UNL A   1      39.732  33.808  33.777  1.00  0.00    -0.248 NA
ATOM     45  C   UNL A   1      38.233  32.340  34.762  1.00  0.00     0.031 C 
ATOM     46  C   UNL A   1      37.256  32.100  30.031  1.00  0.00     0.029 A 
ATOM     47  N   UNL A   1      39.326  31.706  30.714  1.00  0.00    -0.354 N 
ATOM     48  C   UNL A   1      40.148  33.482  35.062  1.00  0.00     0.074 A 
ATOM     49  C   UNL A   1      39.038  32.840  35.700  1.00  0.00     0.031 C 
ATOM     50  C   UNL A   1      37.775  31.181  29.185  1.00  0.00     0.029 A 
ATOM     51  C   UNL A   1      39.122  30.864  29.612  1.00  0.00     0.049 A 
ATOM     52  H   UNL A   1      40.204  31.828  31.142  1.00  0.00     0.167 HD
ATOM     53  C   UNL A   1      41.479  33.350  35.309  1.00  0.00     0.037 A 
ATOM     54  C   UNL A   1      40.004  29.925  29.179  1.00  0.00     0.037 A 
ATOM     55  C   UNL A   1      42.240  33.995  34.268  1.00  0.00     0.049 A 
ATOM     56  C   UNL A   1      41.322  30.309  29.744  1.00  0.00     0.074 A 
ATOM     57  C   UNL A   1      42.412  35.289  33.828  1.00  0.00     0.029 A 
ATOM     58  N   UNL A   1      42.575  33.157  33.235  1.00  0.00    -0.354 N 
ATOM     59  N   UNL A   1      41.973  31.384  29.391  1.00  0.00    -0.248 NA
ATOM     60  C   UNL A   1      41.717  29.725  31.019  1.00  0.00     0.031 C 
ATOM     61  C   UNL A   1      42.653  35.193  32.427  1.00  0.00     0.029 A 
ATOM     62  C   UNL A   1      42.704  33.846  32.064  1.00  0.00     0.049 A 
ATOM     63  H   UNL A   1      42.705  32.187  33.326  1.00  0.00     0.167 HD
ATOM     64  C   UNL A   1      42.530  31.850  30.570  1.00  0.00     0.074 A 
ATOM     65  C   UNL A   1      42.467  30.722  31.497  1.00  0.00     0.031 C 
ATOM     66  C   UNL A   1      42.681  33.191  30.773  1.00  0.00     0.037 A 
BRANCH  53  67
ATOM     67  C   UNL A   1      42.068  32.211  36.118  1.00  0.00     0.057 A 
ATOM     68  C   UNL A   1      43.054  32.513  37.071  1.00  0.00     0.134 A 
ATOM     69  C   UNL A   1      41.942  30.837  35.811  1.00  0.00     0.134 A 
ATOM     70  F   UNL A   1      43.306  33.784  37.418  1.00  0.00    -0.206 F 
ATOM     71  C   UNL A   1      43.874  31.531  37.642  1.00  0.00     0.040 A 
ATOM     72  C   UNL A   1      42.717  29.845  36.413  1.00  0.00     0.040 A 
ATOM     73  F   UNL A   1      41.148  30.373  34.840  1.00  0.00    -0.206 F 
ATOM     74  C   UNL A   1      43.706  30.192  37.314  1.00  0.00     0.006 A 
ENDBRANCH  53  67
BRANCH  54  75
ATOM     75  C   UNL A   1      39.763  28.568  28.624  1.00  0.00     0.057 A 
ATOM     76  C   UNL A   1      40.312  28.194  27.384  1.00  0.00     0.134 A 
ATOM     77  C   UNL A   1      39.270  27.516  29.411  1.00  0.00     0.134 A 
ATOM     78  F   UNL A   1      40.836  29.119  26.564  1.00  0.00    -0.206 F 
ATOM     79  C   UNL A   1      40.419  26.856  26.981  1.00  0.00     0.040 A 
ATOM     80  C   UNL A   1      39.363  26.174  29.018  1.00  0.00     0.040 A 
ATOM     81  F   UNL A   1      38.765  27.740  30.633  1.00  0.00    -0.206 F 
ATOM     82  C   UNL A   1      39.959  25.838  27.808  1.00  0.00     0.006 A 
ENDBRANCH  54  75
BRANCH  66  83
ATOM     83  C   UNL A   1      42.665  34.099  29.579  1.00  0.00     0.057 A 
ATOM     84  C   UNL A   1      41.557  34.842  29.152  1.00  0.00     0.134 A 
ATOM     85  C   UNL A   1      43.897  34.379  28.974  1.00  0.00     0.134 A 
ATOM     86  F   UNL A   1      40.354  34.683  29.721  1.00  0.00    -0.206 F 
ATOM     87  C   UNL A   1      41.679  35.832  28.171  1.00  0.00     0.040 A 
ATOM     88  C   UNL A   1      44.038  35.388  28.023  1.00  0.00     0.040 A 
ATOM     89  F   UNL A   1      45.003  33.727  29.366  1.00  0.00    -0.206 F 
ATOM     90  C   UNL A   1      42.926  36.120  27.619  1.00  0.00     0.006 A 
ENDBRANCH  66  83
ENDBRANCH  40  41
ENDBRANCH  33  35
ENDBRANCH  32  33
ENDBRANCH  31  32
ENDBRANCH  30  31
ENDBRANCH  29  30
ENDBRANCH  28  29
ENDBRANCH   1  28
TORSDOF 19
ENDMDL
