MODEL 1
REMARK VINA RESULT:     -10.3      0.000      0.000
REMARK SMILES C[C@@H](NC1=[NH+]CCC1)C(=O)OCCOCCOCCOC(=O)c1ccc(-c2c3nc(c(-c4c(F)cccc4F)c4ccc([nH]4)c(-c4c(F)cccc4F)c4nc(c(-c5c(F)cccc5F)c5ccc2[nH]5)C=C4)C=C3)cc1
REMARK SMILES IDX 16 1 15 2 14 3 13 4 12 5 11 6 9 7 10 8 2 9 1 10 3 11 4 12
REMARK SMILES IDX 5 14 8 15 6 16 7 18 17 19 18 20 19 21 20 22 21 23 22 24
REMARK SMILES IDX 23 25 24 26 76 27 25 28 75 29 26 30 27 31 28 32 69 33 29 34
REMARK SMILES IDX 74 35 68 36 70 37 30 38 73 39 67 40 66 41 31 43 57 44 40 45
REMARK SMILES IDX 56 46 41 47 44 48 55 49 71 50 42 51 43 52 54 54 72 55 45 56
REMARK SMILES IDX 32 57 33 58 38 59 34 60 35 61 37 62 39 63 36 64 58 65 59 66
REMARK SMILES IDX 64 67 60 68 61 69 63 70 65 71 62 72 46 73 47 74 52 75 48 76
REMARK SMILES IDX 49 77 51 78 53 79 50 80
REMARK H PARENT 3 13 5 17 70 42 44 53
REMARK Flexibility Score: inf
ROOT
ATOM      1  C   UNL A   1      40.047  19.920  25.960  1.00  0.00     0.188 C 
ENDROOT
BRANCH   1   2
ATOM      2  C   UNL A   1      38.742  19.202  25.590  1.00  0.00     0.188 C 
BRANCH   2   3
ATOM      3  O   UNL A   1      37.865  19.807  24.659  1.00  0.00    -0.376 OA
BRANCH   3   4
ATOM      4  C   UNL A   1      37.396  21.123  24.899  1.00  0.00     0.202 C 
BRANCH   4   5
ATOM      5  C   UNL A   1      35.909  21.463  24.749  1.00  0.00     0.261 C 
BRANCH   5   6
ATOM      6  O   UNL A   1      35.027  21.102  25.832  1.00  0.00    -0.460 OA
BRANCH   6   7
ATOM      7  C   UNL A   1      33.741  21.557  25.757  1.00  0.00     0.350 C 
ATOM      8  O   UNL A   1      33.399  22.702  26.041  1.00  0.00    -0.247 OA
BRANCH   7   9
ATOM      9  C   UNL A   1      32.721  20.468  25.388  1.00  0.00     0.279 C 
ATOM     10  C   UNL A   1      32.484  20.289  23.887  1.00  0.00     0.071 C 
BRANCH   9  11
ATOM     11  N   UNL A   1      33.025  19.162  25.983  1.00  0.00    -0.265 N 
ATOM     12  C   UNL A   1      33.290  18.019  25.291  1.00  0.00     0.243 C 
ATOM     13  H   UNL A   1      33.039  19.106  26.966  1.00  0.00     0.305 HD
ATOM     14  N   UNL A   1      32.555  16.962  25.473  1.00  0.00    -0.279 N 
ATOM     15  C   UNL A   1      34.463  17.841  24.368  1.00  0.00     0.131 C 
ATOM     16  C   UNL A   1      33.111  15.939  24.563  1.00  0.00     0.234 C 
ATOM     17  H   UNL A   1      31.791  16.863  26.086  1.00  0.00     0.304 HD
ATOM     18  C   UNL A   1      33.921  16.706  23.538  1.00  0.00     0.058 C 
ENDBRANCH   9  11
ENDBRANCH   7   9
ENDBRANCH   6   7
ENDBRANCH   5   6
ENDBRANCH   4   5
ENDBRANCH   3   4
ENDBRANCH   2   3
ENDBRANCH   1   2
BRANCH   1  19
ATOM     19  O   UNL A   1      41.261  19.322  25.593  1.00  0.00    -0.376 OA
BRANCH  19  20
ATOM     20  C   UNL A   1      42.484  19.795  26.124  1.00  0.00     0.202 C 
BRANCH  20  21
ATOM     21  C   UNL A   1      43.267  21.035  25.638  1.00  0.00     0.261 C 
BRANCH  21  22
ATOM     22  O   UNL A   1      42.553  22.238  25.346  1.00  0.00    -0.460 OA
BRANCH  22  23
ATOM     23  C   UNL A   1      43.289  23.356  25.136  1.00  0.00     0.338 C 
ATOM     24  O   UNL A   1      44.140  23.528  24.277  1.00  0.00    -0.246 OA
BRANCH  23  25
ATOM     25  C   UNL A   1      42.722  24.439  25.973  1.00  0.00     0.060 A 
ATOM     26  C   UNL A   1      43.276  25.727  25.890  1.00  0.00     0.016 A 
ATOM     27  C   UNL A   1      41.636  24.193  26.813  1.00  0.00     0.016 A 
ATOM     28  C   UNL A   1      42.764  26.766  26.670  1.00  0.00     0.010 A 
ATOM     29  C   UNL A   1      41.147  25.225  27.618  1.00  0.00     0.010 A 
ATOM     30  C   UNL A   1      41.731  26.506  27.578  1.00  0.00    -0.014 A 
BRANCH  30  31
ATOM     31  C   UNL A   1      41.432  27.471  28.664  1.00  0.00     0.031 A 
ATOM     32  C   UNL A   1      42.260  27.387  29.918  1.00  0.00     0.074 A 
ATOM     33  C   UNL A   1      40.451  28.385  28.568  1.00  0.00     0.049 A 
ATOM     34  N   UNL A   1      42.111  28.001  31.062  1.00  0.00    -0.248 NA
ATOM     35  C   UNL A   1      43.410  26.468  29.871  1.00  0.00     0.031 C 
ATOM     36  C   UNL A   1      39.616  28.617  27.393  1.00  0.00     0.029 A 
ATOM     37  N   UNL A   1      39.979  29.278  29.501  1.00  0.00    -0.354 N 
ATOM     38  C   UNL A   1      43.131  27.526  31.877  1.00  0.00     0.074 A 
ATOM     39  C   UNL A   1      43.876  26.556  31.106  1.00  0.00     0.031 C 
ATOM     40  C   UNL A   1      38.714  29.571  27.684  1.00  0.00     0.029 A 
ATOM     41  C   UNL A   1      38.881  29.985  29.078  1.00  0.00     0.049 A 
ATOM     42  H   UNL A   1      40.390  29.398  30.387  1.00  0.00     0.167 HD
ATOM     43  C   UNL A   1      43.422  27.866  33.155  1.00  0.00     0.037 A 
ATOM     44  C   UNL A   1      38.083  30.837  29.752  1.00  0.00     0.037 A 
ATOM     45  C   UNL A   1      42.676  28.827  33.923  1.00  0.00     0.049 A 
ATOM     46  C   UNL A   1      38.371  31.139  31.202  1.00  0.00     0.074 A 
ATOM     47  C   UNL A   1      42.898  29.251  35.220  1.00  0.00     0.029 A 
ATOM     48  N   UNL A   1      41.558  29.506  33.464  1.00  0.00    -0.354 N 
ATOM     49  N   UNL A   1      39.339  30.693  31.967  1.00  0.00    -0.248 NA
ATOM     50  C   UNL A   1      37.452  32.064  31.884  1.00  0.00     0.031 C 
ATOM     51  C   UNL A   1      41.877  30.142  35.568  1.00  0.00     0.029 A 
ATOM     52  C   UNL A   1      41.062  30.326  34.463  1.00  0.00     0.049 A 
ATOM     53  H   UNL A   1      41.174  29.419  32.561  1.00  0.00     0.167 HD
ATOM     54  C   UNL A   1      39.169  31.311  33.201  1.00  0.00     0.074 A 
ATOM     55  C   UNL A   1      38.007  32.165  33.084  1.00  0.00     0.031 C 
ATOM     56  C   UNL A   1      39.912  31.185  34.329  1.00  0.00     0.037 A 
BRANCH  43  57
ATOM     57  C   UNL A   1      44.571  27.156  33.811  1.00  0.00     0.057 A 
ATOM     58  C   UNL A   1      45.879  27.658  33.768  1.00  0.00     0.134 A 
ATOM     59  C   UNL A   1      44.362  25.957  34.501  1.00  0.00     0.134 A 
ATOM     60  F   UNL A   1      46.153  28.792  33.106  1.00  0.00    -0.206 F 
ATOM     61  C   UNL A   1      46.943  26.973  34.360  1.00  0.00     0.040 A 
ATOM     62  C   UNL A   1      45.411  25.280  35.126  1.00  0.00     0.040 A 
ATOM     63  F   UNL A   1      43.134  25.422  34.584  1.00  0.00    -0.206 F 
ATOM     64  C   UNL A   1      46.708  25.785  35.048  1.00  0.00     0.006 A 
ENDBRANCH  43  57
BRANCH  44  65
ATOM     65  C   UNL A   1      36.913  31.455  29.075  1.00  0.00     0.057 A 
ATOM     66  C   UNL A   1      35.746  30.721  28.828  1.00  0.00     0.134 A 
ATOM     67  C   UNL A   1      36.940  32.784  28.633  1.00  0.00     0.134 A 
ATOM     68  F   UNL A   1      35.669  29.434  29.198  1.00  0.00    -0.206 F 
ATOM     69  C   UNL A   1      34.657  31.278  28.156  1.00  0.00     0.040 A 
ATOM     70  C   UNL A   1      35.848  33.363  27.986  1.00  0.00     0.040 A 
ATOM     71  F   UNL A   1      38.029  33.541  28.832  1.00  0.00    -0.206 F 
ATOM     72  C   UNL A   1      34.703  32.607  27.739  1.00  0.00     0.006 A 
ENDBRANCH  44  65
BRANCH  56  73
ATOM     73  C   UNL A   1      39.535  32.034  35.513  1.00  0.00     0.057 A 
ATOM     74  C   UNL A   1      40.069  33.312  35.717  1.00  0.00     0.134 A 
ATOM     75  C   UNL A   1      38.576  31.581  36.429  1.00  0.00     0.134 A 
ATOM     76  F   UNL A   1      40.998  33.803  34.883  1.00  0.00    -0.206 F 
ATOM     77  C   UNL A   1      39.679  34.100  36.803  1.00  0.00     0.040 A 
ATOM     78  C   UNL A   1      38.155  32.372  37.500  1.00  0.00     0.040 A 
ATOM     79  F   UNL A   1      38.013  30.372  36.287  1.00  0.00    -0.206 F 
ATOM     80  C   UNL A   1      38.714  33.633  37.693  1.00  0.00     0.006 A 
ENDBRANCH  56  73
ENDBRANCH  30  31
ENDBRANCH  23  25
ENDBRANCH  22  23
ENDBRANCH  21  22
ENDBRANCH  20  21
ENDBRANCH  19  20
ENDBRANCH   1  19
TORSDOF 18
ENDMDL
MODEL 2
REMARK VINA RESULT:     -10.0      5.583     10.753
REMARK SMILES C[C@@H](NC1=[NH+]CCC1)C(=O)OCCOCCOCCOC(=O)c1ccc(-c2c3nc(c(-c4c(F)cccc4F)c4ccc([nH]4)c(-c4c(F)cccc4F)c4nc(c(-c5c(F)cccc5F)c5ccc2[nH]5)C=C4)C=C3)cc1
REMARK SMILES IDX 16 1 15 2 14 3 13 4 12 5 11 6 9 7 10 8 2 9 1 10 3 11 4 12
REMARK SMILES IDX 5 14 8 15 6 16 7 18 17 19 18 20 19 21 20 22 21 23 22 24
REMARK SMILES IDX 23 25 24 26 76 27 25 28 75 29 26 30 27 31 28 32 69 33 29 34
REMARK SMILES IDX 74 35 68 36 70 37 30 38 73 39 67 40 66 41 31 43 57 44 40 45
REMARK SMILES IDX 56 46 41 47 44 48 55 49 71 50 42 51 43 52 54 54 72 55 45 56
REMARK SMILES IDX 32 57 33 58 38 59 34 60 35 61 37 62 39 63 36 64 58 65 59 66
REMARK SMILES IDX 64 67 60 68 61 69 63 70 65 71 62 72 46 73 47 74 52 75 48 76
REMARK SMILES IDX 49 77 51 78 53 79 50 80
REMARK H PARENT 3 13 5 17 70 42 44 53
REMARK Flexibility Score: inf
ROOT
ATOM      1  C   UNL A   1      32.580  33.240  27.600  1.00  0.00     0.188 C 
ENDROOT
BRANCH   1   2
ATOM      2  C   UNL A   1      33.510  32.018  27.623  1.00  0.00     0.188 C 
BRANCH   2   3
ATOM      3  O   UNL A   1      32.954  30.729  27.450  1.00  0.00    -0.376 OA
BRANCH   3   4
ATOM      4  C   UNL A   1      32.854  30.183  26.147  1.00  0.00     0.202 C 
BRANCH   4   5
ATOM      5  C   UNL A   1      33.468  28.816  25.821  1.00  0.00     0.261 C 
BRANCH   5   6
ATOM      6  O   UNL A   1      32.748  27.959  24.910  1.00  0.00    -0.460 OA
BRANCH   6   7
ATOM      7  C   UNL A   1      32.407  28.495  23.701  1.00  0.00     0.350 C 
ATOM      8  O   UNL A   1      33.188  29.104  22.974  1.00  0.00    -0.247 OA
BRANCH   7   9
ATOM      9  C   UNL A   1      30.911  28.370  23.370  1.00  0.00     0.279 C 
ATOM     10  C   UNL A   1      30.241  27.095  23.889  1.00  0.00     0.071 C 
BRANCH   9  11
ATOM     11  N   UNL A   1      30.123  29.531  23.796  1.00  0.00    -0.265 N 
ATOM     12  C   UNL A   1      29.324  30.285  22.991  1.00  0.00     0.243 C 
ATOM     13  H   UNL A   1      30.176  29.788  24.744  1.00  0.00     0.305 HD
ATOM     14  N   UNL A   1      29.536  31.562  22.871  1.00  0.00    -0.279 N 
ATOM     15  C   UNL A   1      28.112  29.761  22.271  1.00  0.00     0.131 C 
ATOM     16  C   UNL A   1      28.510  32.043  21.925  1.00  0.00     0.234 C 
ATOM     17  H   UNL A   1      30.233  32.096  23.318  1.00  0.00     0.304 HD
ATOM     18  C   UNL A   1      28.026  30.808  21.191  1.00  0.00     0.058 C 
ENDBRANCH   9  11
ENDBRANCH   7   9
ENDBRANCH   6   7
ENDBRANCH   5   6
ENDBRANCH   4   5
ENDBRANCH   3   4
ENDBRANCH   2   3
ENDBRANCH   1   2
BRANCH   1  19
ATOM     19  O   UNL A   1      32.899  34.331  28.420  1.00  0.00    -0.376 OA
BRANCH  19  20
ATOM     20  C   UNL A   1      34.168  34.418  29.040  1.00  0.00     0.202 C 
BRANCH  20  21
ATOM     21  C   UNL A   1      34.483  34.088  30.516  1.00  0.00     0.261 C 
BRANCH  21  22
ATOM     22  O   UNL A   1      34.442  32.726  30.949  1.00  0.00    -0.460 OA
BRANCH  22  23
ATOM     23  C   UNL A   1      35.246  32.384  31.983  1.00  0.00     0.338 C 
ATOM     24  O   UNL A   1      35.026  32.546  33.173  1.00  0.00    -0.246 OA
BRANCH  23  25
ATOM     25  C   UNL A   1      36.347  31.549  31.448  1.00  0.00     0.060 A 
ATOM     26  C   UNL A   1      37.279  30.994  32.341  1.00  0.00     0.016 A 
ATOM     27  C   UNL A   1      36.445  31.294  30.081  1.00  0.00     0.016 A 
ATOM     28  C   UNL A   1      38.329  30.207  31.864  1.00  0.00     0.010 A 
ATOM     29  C   UNL A   1      37.515  30.534  29.602  1.00  0.00     0.010 A 
ATOM     30  C   UNL A   1      38.483  30.018  30.486  1.00  0.00    -0.014 A 
BRANCH  30  31
ATOM     31  C   UNL A   1      39.769  29.520  29.940  1.00  0.00     0.031 A 
ATOM     32  C   UNL A   1      40.897  30.507  29.807  1.00  0.00     0.074 A 
ATOM     33  C   UNL A   1      39.944  28.245  29.552  1.00  0.00     0.049 A 
ATOM     34  N   UNL A   1      42.061  30.374  29.227  1.00  0.00    -0.248 NA
ATOM     35  C   UNL A   1      40.667  31.835  30.403  1.00  0.00     0.031 C 
ATOM     36  C   UNL A   1      38.960  27.174  29.682  1.00  0.00     0.029 A 
ATOM     37  N   UNL A   1      41.020  27.646  28.942  1.00  0.00    -0.354 N 
ATOM     38  C   UNL A   1      42.692  31.604  29.368  1.00  0.00     0.074 A 
ATOM     39  C   UNL A   1      41.773  32.477  30.064  1.00  0.00     0.031 C 
ATOM     40  C   UNL A   1      39.468  26.052  29.141  1.00  0.00     0.029 A 
ATOM     41  C   UNL A   1      40.793  26.338  28.590  1.00  0.00     0.049 A 
ATOM     42  H   UNL A   1      41.871  28.110  28.774  1.00  0.00     0.167 HD
ATOM     43  C   UNL A   1      43.926  31.976  28.953  1.00  0.00     0.037 A 
ATOM     44  C   UNL A   1      41.552  25.486  27.872  1.00  0.00     0.037 A 
ATOM     45  C   UNL A   1      44.837  31.108  28.256  1.00  0.00     0.049 A 
ATOM     46  C   UNL A   1      42.889  25.945  27.344  1.00  0.00     0.074 A 
ATOM     47  C   UNL A   1      46.114  31.385  27.805  1.00  0.00     0.029 A 
ATOM     48  N   UNL A   1      44.560  29.797  27.900  1.00  0.00    -0.354 N 
ATOM     49  N   UNL A   1      43.484  27.105  27.484  1.00  0.00    -0.248 NA
ATOM     50  C   UNL A   1      43.662  24.973  26.554  1.00  0.00     0.031 C 
ATOM     51  C   UNL A   1      46.588  30.260  27.122  1.00  0.00     0.029 A 
ATOM     52  C   UNL A   1      45.634  29.259  27.211  1.00  0.00     0.049 A 
ATOM     53  H   UNL A   1      43.725  29.318  28.108  1.00  0.00     0.167 HD
ATOM     54  C   UNL A   1      44.710  26.990  26.838  1.00  0.00     0.074 A 
ATOM     55  C   UNL A   1      44.777  25.645  26.307  1.00  0.00     0.031 C 
ATOM     56  C   UNL A   1      45.695  27.913  26.700  1.00  0.00     0.037 A 
BRANCH  43  57
ATOM     57  C   UNL A   1      44.338  33.397  29.208  1.00  0.00     0.057 A 
ATOM     58  C   UNL A   1      44.101  34.420  28.279  1.00  0.00     0.134 A 
ATOM     59  C   UNL A   1      44.976  33.747  30.404  1.00  0.00     0.134 A 
ATOM     60  F   UNL A   1      43.511  34.150  27.105  1.00  0.00    -0.206 F 
ATOM     61  C   UNL A   1      44.512  35.733  28.519  1.00  0.00     0.040 A 
ATOM     62  C   UNL A   1      45.362  35.062  30.669  1.00  0.00     0.040 A 
ATOM     63  F   UNL A   1      45.231  32.818  31.338  1.00  0.00    -0.206 F 
ATOM     64  C   UNL A   1      45.139  36.057  29.720  1.00  0.00     0.006 A 
ENDBRANCH  43  57
BRANCH  44  65
ATOM     65  C   UNL A   1      41.063  24.113  27.585  1.00  0.00     0.057 A 
ATOM     66  C   UNL A   1      40.047  23.886  26.648  1.00  0.00     0.134 A 
ATOM     67  C   UNL A   1      41.577  22.996  28.257  1.00  0.00     0.134 A 
ATOM     68  F   UNL A   1      39.492  24.916  25.993  1.00  0.00    -0.206 F 
ATOM     69  C   UNL A   1      39.551  22.605  26.400  1.00  0.00     0.040 A 
ATOM     70  C   UNL A   1      41.110  21.707  27.999  1.00  0.00     0.040 A 
ATOM     71  F   UNL A   1      42.547  23.145  29.172  1.00  0.00    -0.206 F 
ATOM     72  C   UNL A   1      40.089  21.509  27.072  1.00  0.00     0.006 A 
ENDBRANCH  44  65
BRANCH  56  73
ATOM     73  C   UNL A   1      46.958  27.490  26.002  1.00  0.00     0.057 A 
ATOM     74  C   UNL A   1      48.056  26.966  26.695  1.00  0.00     0.134 A 
ATOM     75  C   UNL A   1      47.049  27.554  24.605  1.00  0.00     0.134 A 
ATOM     76  F   UNL A   1      48.040  26.883  28.034  1.00  0.00    -0.206 F 
ATOM     77  C   UNL A   1      49.207  26.544  26.025  1.00  0.00     0.040 A 
ATOM     78  C   UNL A   1      48.182  27.107  23.922  1.00  0.00     0.040 A 
ATOM     79  F   UNL A   1      46.029  28.033  23.876  1.00  0.00    -0.206 F 
ATOM     80  C   UNL A   1      49.268  26.606  24.635  1.00  0.00     0.006 A 
ENDBRANCH  56  73
ENDBRANCH  30  31
ENDBRANCH  23  25
ENDBRANCH  22  23
ENDBRANCH  21  22
ENDBRANCH  20  21
ENDBRANCH  19  20
ENDBRANCH   1  19
TORSDOF 18
ENDMDL
MODEL 3
REMARK VINA RESULT:     -10.0      6.190     11.485
REMARK SMILES C[C@@H](NC1=[NH+]CCC1)C(=O)OCCOCCOCCOC(=O)c1ccc(-c2c3nc(c(-c4c(F)cccc4F)c4ccc([nH]4)c(-c4c(F)cccc4F)c4nc(c(-c5c(F)cccc5F)c5ccc2[nH]5)C=C4)C=C3)cc1
REMARK SMILES IDX 16 1 15 2 14 3 13 4 12 5 11 6 9 7 10 8 2 9 1 10 3 11 4 12
REMARK SMILES IDX 5 14 8 15 6 16 7 18 17 19 18 20 19 21 20 22 21 23 22 24
REMARK SMILES IDX 23 25 24 26 76 27 25 28 75 29 26 30 27 31 28 32 69 33 29 34
REMARK SMILES IDX 74 35 68 36 70 37 30 38 73 39 67 40 66 41 31 43 57 44 40 45
REMARK SMILES IDX 56 46 41 47 44 48 55 49 71 50 42 51 43 52 54 54 72 55 45 56
REMARK SMILES IDX 32 57 33 58 38 59 34 60 35 61 37 62 39 63 36 64 58 65 59 66
REMARK SMILES IDX 64 67 60 68 61 69 63 70 65 71 62 72 46 73 47 74 52 75 48 76
REMARK SMILES IDX 49 77 51 78 53 79 50 80
REMARK H PARENT 3 13 5 17 70 42 44 53
REMARK Flexibility Score: inf
ROOT
ATOM      1  C   UNL A   1      33.982  36.989  32.647  1.00  0.00     0.188 C 
ENDROOT
BRANCH   1   2
ATOM      2  C   UNL A   1      32.677  36.491  32.011  1.00  0.00     0.188 C 
BRANCH   2   3
ATOM      3  O   UNL A   1      32.454  36.719  30.633  1.00  0.00    -0.376 OA
BRANCH   3   4
ATOM      4  C   UNL A   1      33.376  36.210  29.686  1.00  0.00     0.202 C 
BRANCH   4   5
ATOM      5  C   UNL A   1      33.099  34.891  28.954  1.00  0.00     0.261 C 
BRANCH   5   6
ATOM      6  O   UNL A   1      33.745  33.701  29.451  1.00  0.00    -0.460 OA
BRANCH   6   7
ATOM      7  C   UNL A   1      34.957  33.385  28.907  1.00  0.00     0.350 C 
ATOM      8  O   UNL A   1      35.983  34.037  29.089  1.00  0.00    -0.247 OA
BRANCH   7   9
ATOM      9  C   UNL A   1      34.909  32.190  27.942  1.00  0.00     0.279 C 
ATOM     10  C   UNL A   1      36.154  31.299  27.958  1.00  0.00     0.071 C 
BRANCH   9  11
ATOM     11  N   UNL A   1      33.719  31.352  28.115  1.00  0.00    -0.265 N 
ATOM     12  C   UNL A   1      33.143  30.584  27.149  1.00  0.00     0.243 C 
ATOM     13  H   UNL A   1      33.299  31.343  29.005  1.00  0.00     0.305 HD
ATOM     14  N   UNL A   1      31.900  30.773  26.819  1.00  0.00    -0.279 N 
ATOM     15  C   UNL A   1      33.824  29.428  26.468  1.00  0.00     0.131 C 
ATOM     16  C   UNL A   1      31.625  29.792  25.749  1.00  0.00     0.234 C 
ATOM     17  H   UNL A   1      31.274  31.429  27.202  1.00  0.00     0.304 HD
ATOM     18  C   UNL A   1      32.984  29.382  25.218  1.00  0.00     0.058 C 
ENDBRANCH   9  11
ENDBRANCH   7   9
ENDBRANCH   6   7
ENDBRANCH   5   6
ENDBRANCH   4   5
ENDBRANCH   3   4
ENDBRANCH   2   3
ENDBRANCH   1   2
BRANCH   1  19
ATOM     19  O   UNL A   1      34.867  36.038  33.176  1.00  0.00    -0.376 OA
BRANCH  19  20
ATOM     20  C   UNL A   1      35.060  34.796  32.525  1.00  0.00     0.202 C 
BRANCH  20  21
ATOM     21  C   UNL A   1      34.422  33.449  32.932  1.00  0.00     0.261 C 
BRANCH  21  22
ATOM     22  O   UNL A   1      35.211  32.258  32.868  1.00  0.00    -0.460 OA
BRANCH  22  23
ATOM     23  C   UNL A   1      36.435  32.299  33.447  1.00  0.00     0.338 C 
ATOM     24  O   UNL A   1      36.707  32.701  34.567  1.00  0.00    -0.246 OA
BRANCH  23  25
ATOM     25  C   UNL A   1      37.372  31.542  32.585  1.00  0.00     0.060 A 
ATOM     26  C   UNL A   1      37.891  30.321  33.047  1.00  0.00     0.016 A 
ATOM     27  C   UNL A   1      37.717  32.018  31.321  1.00  0.00     0.016 A 
ATOM     28  C   UNL A   1      38.779  29.588  32.258  1.00  0.00     0.010 A 
ATOM     29  C   UNL A   1      38.633  31.301  30.546  1.00  0.00     0.010 A 
ATOM     30  C   UNL A   1      39.197  30.103  31.025  1.00  0.00    -0.014 A 
BRANCH  30  31
ATOM     31  C   UNL A   1      40.398  29.550  30.353  1.00  0.00     0.031 A 
ATOM     32  C   UNL A   1      41.586  30.460  30.194  1.00  0.00     0.074 A 
ATOM     33  C   UNL A   1      40.447  28.294  29.878  1.00  0.00     0.049 A 
ATOM     34  N   UNL A   1      42.692  30.282  29.521  1.00  0.00    -0.248 NA
ATOM     35  C   UNL A   1      41.502  31.759  30.884  1.00  0.00     0.031 C 
ATOM     36  C   UNL A   1      39.396  27.290  30.019  1.00  0.00     0.029 A 
ATOM     37  N   UNL A   1      41.427  27.660  29.153  1.00  0.00    -0.354 N 
ATOM     38  C   UNL A   1      43.424  31.452  29.686  1.00  0.00     0.074 A 
ATOM     39  C   UNL A   1      42.626  32.341  30.501  1.00  0.00     0.031 C 
ATOM     40  C   UNL A   1      39.776  26.172  29.374  1.00  0.00     0.029 A 
ATOM     41  C   UNL A   1      41.076  26.397  28.742  1.00  0.00     0.049 A 
ATOM     42  H   UNL A   1      42.298  28.071  28.949  1.00  0.00     0.167 HD
ATOM     43  C   UNL A   1      44.650  31.760  29.201  1.00  0.00     0.037 A 
ATOM     44  C   UNL A   1      41.715  25.542  27.920  1.00  0.00     0.037 A 
ATOM     45  C   UNL A   1      45.439  30.876  28.386  1.00  0.00     0.049 A 
ATOM     46  C   UNL A   1      43.042  25.936  27.319  1.00  0.00     0.074 A 
ATOM     47  C   UNL A   1      46.699  31.089  27.856  1.00  0.00     0.029 A 
ATOM     48  N   UNL A   1      45.039  29.614  27.975  1.00  0.00    -0.354 N 
ATOM     49  N   UNL A   1      43.733  27.040  27.482  1.00  0.00    -0.248 NA
ATOM     50  C   UNL A   1      43.679  24.965  26.416  1.00  0.00     0.031 C 
ATOM     51  C   UNL A   1      47.035  29.980  27.074  1.00  0.00     0.029 A 
ATOM     52  C   UNL A   1      46.016  29.047  27.175  1.00  0.00     0.049 A 
ATOM     53  H   UNL A   1      44.186  29.184  28.217  1.00  0.00     0.167 HD
ATOM     54  C   UNL A   1      44.897  26.879  26.738  1.00  0.00     0.074 A 
ATOM     55  C   UNL A   1      44.822  25.570  26.125  1.00  0.00     0.031 C 
ATOM     56  C   UNL A   1      45.937  27.735  26.581  1.00  0.00     0.037 A 
BRANCH  43  57
ATOM     57  C   UNL A   1      45.187  33.128  29.508  1.00  0.00     0.057 A 
ATOM     58  C   UNL A   1      46.011  33.374  30.615  1.00  0.00     0.134 A 
ATOM     59  C   UNL A   1      44.879  34.213  28.679  1.00  0.00     0.134 A 
ATOM     60  F   UNL A   1      46.329  32.384  31.462  1.00  0.00    -0.206 F 
ATOM     61  C   UNL A   1      46.482  34.657  30.902  1.00  0.00     0.040 A 
ATOM     62  C   UNL A   1      45.371  35.493  28.936  1.00  0.00     0.040 A 
ATOM     63  F   UNL A   1      44.098  34.047  27.600  1.00  0.00    -0.206 F 
ATOM     64  C   UNL A   1      46.167  35.719  30.057  1.00  0.00     0.006 A 
ENDBRANCH  43  57
BRANCH  44  65
ATOM     65  C   UNL A   1      41.103  24.229  27.589  1.00  0.00     0.057 A 
ATOM     66  C   UNL A   1      41.536  23.050  28.208  1.00  0.00     0.134 A 
ATOM     67  C   UNL A   1      40.088  24.114  26.630  1.00  0.00     0.134 A 
ATOM     68  F   UNL A   1      42.525  23.088  29.113  1.00  0.00    -0.206 F 
ATOM     69  C   UNL A   1      40.997  21.806  27.875  1.00  0.00     0.040 A 
ATOM     70  C   UNL A   1      39.520  22.881  26.308  1.00  0.00     0.040 A 
ATOM     71  F   UNL A   1      39.631  25.205  25.995  1.00  0.00    -0.206 F 
ATOM     72  C   UNL A   1      39.979  21.720  26.927  1.00  0.00     0.006 A 
ENDBRANCH  44  65
BRANCH  56  73
ATOM     73  C   UNL A   1      47.111  27.268  25.765  1.00  0.00     0.057 A 
ATOM     74  C   UNL A   1      47.204  27.501  24.388  1.00  0.00     0.134 A 
ATOM     75  C   UNL A   1      48.192  26.628  26.386  1.00  0.00     0.134 A 
ATOM     76  F   UNL A   1      46.201  28.102  23.729  1.00  0.00    -0.206 F 
ATOM     77  C   UNL A   1      48.319  27.093  23.653  1.00  0.00     0.040 A 
ATOM     78  C   UNL A   1      49.326  26.243  25.667  1.00  0.00     0.040 A 
ATOM     79  F   UNL A   1      48.176  26.385  27.705  1.00  0.00    -0.206 F 
ATOM     80  C   UNL A   1      49.388  26.469  24.295  1.00  0.00     0.006 A 
ENDBRANCH  56  73
ENDBRANCH  30  31
ENDBRANCH  23  25
ENDBRANCH  22  23
ENDBRANCH  21  22
ENDBRANCH  20  21
ENDBRANCH  19  20
ENDBRANCH   1  19
TORSDOF 18
ENDMDL
