MODEL 1
REMARK VINA RESULT:     -11.9      0.000      0.000
REMARK SMILES C[NH2+][C@@]1(C(=O)OCCOCCOCCOC(=O)c2ccc(-c3c4nc(c(-c5c(F)cccc5F)c5ccc([nH]5)c(-c5c(F)cccc5F)c5nc(c(-c6c(F)cccc6F)c6ccc3[nH]6)C=C5)C=C4)cc2)CCC[C@H]1CCSc1nccc(=O)[nH]1
REMARK SMILES IDX 10 1 9 2 8 3 7 4 6 5 4 6 5 7 3 8 72 9 75 10 73 11 74 12 2 13
REMARK SMILES IDX 1 14 76 17 77 18 78 19 79 20 80 21 85 22 81 23 83 24 82 26
REMARK SMILES IDX 84 27 11 28 12 29 13 30 14 31 15 32 16 33 17 34 18 35 19 36
REMARK SMILES IDX 71 37 20 38 70 39 21 40 22 41 23 42 64 43 24 44 69 45 63 46
REMARK SMILES IDX 65 47 25 48 68 49 62 50 61 51 26 53 52 54 35 55 51 56 36 57
REMARK SMILES IDX 39 58 50 59 66 60 37 61 38 62 49 64 67 65 40 66 27 67 28 68
REMARK SMILES IDX 33 69 29 70 30 71 32 72 34 73 31 74 53 75 54 76 59 77 55 78
REMARK SMILES IDX 56 79 58 80 60 81 57 82 41 83 42 84 47 85 43 86 44 87 46 88
REMARK SMILES IDX 48 89 45 90
REMARK H PARENT 2 15 2 16 85 25 65 52 39 63
REMARK Flexibility Score: inf
ROOT
ATOM      1  C   UNL A   1      33.780  23.087  24.393  1.00  0.00     0.188 C 
ENDROOT
BRANCH   1   2
ATOM      2  O   UNL A   1      32.355  23.813  24.821  1.00  0.00    -0.376 OA
BRANCH   2   3
ATOM      3  C   UNL A   1      30.982  23.562  24.417  1.00  0.00     0.202 C 
BRANCH   3   4
ATOM      4  C   UNL A   1      30.542  24.502  23.248  1.00  0.00     0.261 C 
BRANCH   4   5
ATOM      5  O   UNL A   1      30.463  25.900  23.653  1.00  0.00    -0.459 OA
BRANCH   5   6
ATOM      6  C   UNL A   1      31.260  26.701  22.908  1.00  0.00     0.368 C 
ATOM      7  O   UNL A   1      31.539  26.389  21.742  1.00  0.00    -0.245 OA
BRANCH   6   8
ATOM      8  C   UNL A   1      31.986  27.954  23.608  1.00  0.00     0.197 C 
ATOM      9  C   UNL A   1      33.484  27.620  23.375  1.00  0.00     0.081 C 
ATOM     10  C   UNL A   1      32.163  28.355  25.131  1.00  0.00     0.063 C 
ATOM     11  C   UNL A   1      33.916  26.802  24.595  1.00  0.00     0.008 C 
ATOM     12  C   UNL A   1      33.188  27.413  25.760  1.00  0.00     0.011 C 
BRANCH   8  13
ATOM     13  N   UNL A   1      31.606  29.134  22.739  1.00  0.00    -0.334 N 
ATOM     14  C   UNL A   1      30.158  29.356  22.550  1.00  0.00     0.331 C 
ATOM     15  H   UNL A   1      31.999  29.975  23.162  1.00  0.00     0.347 HD
ATOM     16  H   UNL A   1      31.978  28.927  21.811  1.00  0.00     0.347 HD
ENDBRANCH   8  13
BRANCH  10  17
ATOM     17  C   UNL A   1      32.327  29.839  25.495  1.00  0.00     0.022 C 
BRANCH  17  18
ATOM     18  C   UNL A   1      32.558  30.085  26.989  1.00  0.00     0.079 C 
BRANCH  18  19
ATOM     19  S   UNL A   1      34.157  30.796  27.454  1.00  0.00    -0.088 SA
BRANCH  19  20
ATOM     20  C   UNL A   1      34.013  32.336  28.278  1.00  0.00     0.168 A 
ATOM     21  N   UNL A   1      33.437  33.667  27.950  1.00  0.00    -0.233 NA
ATOM     22  N   UNL A   1      34.625  32.036  29.745  1.00  0.00    -0.301 N 
ATOM     23  C   UNL A   1      33.215  35.019  29.059  1.00  0.00     0.120 A 
ATOM     24  C   UNL A   1      34.505  33.084  31.064  1.00  0.00     0.251 A 
ATOM     25  H   UNL A   1      35.099  31.183  29.879  1.00  0.00     0.172 HD
ATOM     26  C   UNL A   1      33.853  34.922  30.517  1.00  0.00     0.091 A 
ATOM     27  O   UNL A   1      34.312  32.434  32.101  1.00  0.00    -0.269 OA
ENDBRANCH  19  20
ENDBRANCH  18  19
ENDBRANCH  17  18
ENDBRANCH  10  17
ENDBRANCH   6   8
ENDBRANCH   5   6
ENDBRANCH   4   5
ENDBRANCH   3   4
ENDBRANCH   2   3
ENDBRANCH   1   2
BRANCH   1  28
ATOM     28  C   UNL A   1      34.634  21.080  24.735  1.00  0.00     0.188 C 
BRANCH  28  29
ATOM     29  O   UNL A   1      36.188  20.785  25.361  1.00  0.00    -0.376 OA
BRANCH  29  30
ATOM     30  C   UNL A   1      37.438  21.638  25.323  1.00  0.00     0.202 C 
BRANCH  30  31
ATOM     31  C   UNL A   1      39.071  21.300  25.905  1.00  0.00     0.261 C 
BRANCH  31  32
ATOM     32  O   UNL A   1      39.826  19.908  25.780  1.00  0.00    -0.460 OA
BRANCH  32  33
ATOM     33  C   UNL A   1      41.227  19.816  25.968  1.00  0.00     0.338 C 
ATOM     34  O   UNL A   1      41.854  18.824  25.601  1.00  0.00    -0.246 OA
BRANCH  33  35
ATOM     35  C   UNL A   1      42.096  21.013  26.546  1.00  0.00     0.060 A 
ATOM     36  C   UNL A   1      42.347  21.379  27.884  1.00  0.00     0.016 A 
ATOM     37  C   UNL A   1      42.454  22.031  25.662  1.00  0.00     0.016 A 
ATOM     38  C   UNL A   1      42.906  22.592  28.352  1.00  0.00     0.010 A 
ATOM     39  C   UNL A   1      43.060  23.252  26.094  1.00  0.00     0.010 A 
ATOM     40  C   UNL A   1      43.305  23.545  27.446  1.00  0.00    -0.014 A 
BRANCH  40  41
ATOM     41  C   UNL A   1      43.898  24.837  27.896  1.00  0.00     0.031 A 
ATOM     42  C   UNL A   1      42.984  25.937  28.347  1.00  0.00     0.074 A 
ATOM     43  C   UNL A   1      45.231  25.051  27.872  1.00  0.00     0.049 A 
ATOM     44  N   UNL A   1      43.199  27.223  28.416  1.00  0.00    -0.248 NA
ATOM     45  C   UNL A   1      41.636  25.521  28.764  1.00  0.00     0.031 C 
ATOM     46  C   UNL A   1      46.256  24.035  27.623  1.00  0.00     0.029 A 
ATOM     47  N   UNL A   1      45.953  26.215  28.016  1.00  0.00    -0.354 N 
ATOM     48  C   UNL A   1      41.989  27.783  28.808  1.00  0.00     0.074 A 
ATOM     49  C   UNL A   1      41.052  26.693  28.975  1.00  0.00     0.031 C 
ATOM     50  C   UNL A   1      47.461  24.626  27.573  1.00  0.00     0.029 A 
ATOM     51  C   UNL A   1      47.287  26.068  27.703  1.00  0.00     0.049 A 
ATOM     52  H   UNL A   1      45.556  27.067  28.311  1.00  0.00     0.167 HD
ATOM     53  C   UNL A   1      41.693  29.094  28.983  1.00  0.00     0.037 A 
ATOM     54  C   UNL A   1      48.240  26.992  27.468  1.00  0.00     0.037 A 
ATOM     55  C   UNL A   1      42.654  30.153  28.814  1.00  0.00     0.049 A 
ATOM     56  C   UNL A   1      47.866  28.449  27.544  1.00  0.00     0.074 A 
ATOM     57  C   UNL A   1      42.469  31.518  28.947  1.00  0.00     0.029 A 
ATOM     58  N   UNL A   1      43.986  29.962  28.469  1.00  0.00    -0.354 N 
ATOM     59  N   UNL A   1      46.707  28.991  27.838  1.00  0.00    -0.248 NA
ATOM     60  C   UNL A   1      48.924  29.425  27.247  1.00  0.00     0.031 C 
ATOM     61  C   UNL A   1      43.668  32.154  28.610  1.00  0.00     0.029 A 
ATOM     62  C   UNL A   1      44.626  31.184  28.354  1.00  0.00     0.049 A 
ATOM     63  H   UNL A   1      44.411  29.086  28.327  1.00  0.00     0.167 HD
ATOM     64  C   UNL A   1      46.907  30.366  27.803  1.00  0.00     0.074 A 
ATOM     65  C   UNL A   1      48.301  30.573  27.468  1.00  0.00     0.031 C 
ATOM     66  C   UNL A   1      46.020  31.367  28.031  1.00  0.00     0.037 A 
BRANCH  53  67
ATOM     67  C   UNL A   1      40.267  29.450  29.296  1.00  0.00     0.057 A 
ATOM     68  C   UNL A   1      39.287  29.589  28.305  1.00  0.00     0.134 A 
ATOM     69  C   UNL A   1      39.867  29.657  30.624  1.00  0.00     0.134 A 
ATOM     70  F   UNL A   1      39.600  29.419  27.011  1.00  0.00    -0.206 F 
ATOM     71  C   UNL A   1      37.976  29.955  28.617  1.00  0.00     0.040 A 
ATOM     72  C   UNL A   1      38.552  29.988  30.953  1.00  0.00     0.040 A 
ATOM     73  F   UNL A   1      40.749  29.537  31.628  1.00  0.00    -0.206 F 
ATOM     74  C   UNL A   1      37.604  30.150  29.946  1.00  0.00     0.006 A 
ENDBRANCH  53  67
BRANCH  54  75
ATOM     75  C   UNL A   1      49.619  26.580  27.078  1.00  0.00     0.057 A 
ATOM     76  C   UNL A   1      49.955  26.357  25.737  1.00  0.00     0.134 A 
ATOM     77  C   UNL A   1      50.625  26.371  28.031  1.00  0.00     0.134 A 
ATOM     78  F   UNL A   1      49.033  26.513  24.776  1.00  0.00    -0.206 F 
ATOM     79  C   UNL A   1      51.229  25.923  25.360  1.00  0.00     0.040 A 
ATOM     80  C   UNL A   1      51.913  25.972  27.666  1.00  0.00     0.040 A 
ATOM     81  F   UNL A   1      50.377  26.562  29.335  1.00  0.00    -0.206 F 
ATOM     82  C   UNL A   1      52.215  25.737  26.326  1.00  0.00     0.006 A 
ENDBRANCH  54  75
BRANCH  66  83
ATOM     83  C   UNL A   1      46.546  32.774  27.993  1.00  0.00     0.057 A 
ATOM     84  C   UNL A   1      46.387  33.605  26.877  1.00  0.00     0.134 A 
ATOM     85  C   UNL A   1      47.187  33.316  29.115  1.00  0.00     0.134 A 
ATOM     86  F   UNL A   1      45.793  33.146  25.765  1.00  0.00    -0.206 F 
ATOM     87  C   UNL A   1      46.875  34.913  26.868  1.00  0.00     0.040 A 
ATOM     88  C   UNL A   1      47.643  34.634  29.132  1.00  0.00     0.040 A 
ATOM     89  F   UNL A   1      47.362  32.579  30.224  1.00  0.00    -0.206 F 
ATOM     90  C   UNL A   1      47.497  35.433  28.001  1.00  0.00     0.006 A 
ENDBRANCH  66  83
ENDBRANCH  40  41
ENDBRANCH  33  35
ENDBRANCH  32  33
ENDBRANCH  31  32
ENDBRANCH  30  31
ENDBRANCH  29  30
ENDBRANCH  28  29
ENDBRANCH   1  28
TORSDOF 22
ENDMDL
MODEL 2
REMARK VINA RESULT:     -11.1      4.724      7.919
REMARK SMILES C[NH2+][C@@]1(C(=O)OCCOCCOCCOC(=O)c2ccc(-c3c4nc(c(-c5c(F)cccc5F)c5ccc([nH]5)c(-c5c(F)cccc5F)c5nc(c(-c6c(F)cccc6F)c6ccc3[nH]6)C=C5)C=C4)cc2)CCC[C@H]1CCSc1nccc(=O)[nH]1
REMARK SMILES IDX 10 1 9 2 8 3 7 4 6 5 4 6 5 7 3 8 72 9 75 10 73 11 74 12 2 13
REMARK SMILES IDX 1 14 76 17 77 18 78 19 79 20 80 21 85 22 81 23 83 24 82 26
REMARK SMILES IDX 84 27 11 28 12 29 13 30 14 31 15 32 16 33 17 34 18 35 19 36
REMARK SMILES IDX 71 37 20 38 70 39 21 40 22 41 23 42 64 43 24 44 69 45 63 46
REMARK SMILES IDX 65 47 25 48 68 49 62 50 61 51 26 53 52 54 35 55 51 56 36 57
REMARK SMILES IDX 39 58 50 59 66 60 37 61 38 62 49 64 67 65 40 66 27 67 28 68
REMARK SMILES IDX 33 69 29 70 30 71 32 72 34 73 31 74 53 75 54 76 59 77 55 78
REMARK SMILES IDX 56 79 58 80 60 81 57 82 41 83 42 84 47 85 43 86 44 87 46 88
REMARK SMILES IDX 48 89 45 90
REMARK H PARENT 2 15 2 16 85 25 65 52 39 63
REMARK Flexibility Score: inf
ROOT
ATOM      1  C   UNL A   1      39.659  22.964  26.840  1.00  0.00     0.188 C 
ENDROOT
BRANCH   1   2
ATOM      2  O   UNL A   1      38.194  23.581  26.375  1.00  0.00    -0.376 OA
BRANCH   2   3
ATOM      3  C   UNL A   1      37.339  23.291  25.237  1.00  0.00     0.202 C 
BRANCH   3   4
ATOM      4  C   UNL A   1      36.204  22.282  25.609  1.00  0.00     0.261 C 
BRANCH   4   5
ATOM      5  O   UNL A   1      35.649  21.607  24.443  1.00  0.00    -0.459 OA
BRANCH   5   6
ATOM      6  C   UNL A   1      34.620  20.788  24.759  1.00  0.00     0.368 C 
ATOM      7  O   UNL A   1      34.782  19.560  24.766  1.00  0.00    -0.245 OA
BRANCH   6   8
ATOM      8  C   UNL A   1      33.149  21.413  24.940  1.00  0.00     0.197 C 
ATOM      9  C   UNL A   1      32.317  20.547  23.955  1.00  0.00     0.081 C 
ATOM     10  C   UNL A   1      32.525  22.795  24.478  1.00  0.00     0.063 C 
ATOM     11  C   UNL A   1      32.368  21.286  22.616  1.00  0.00     0.008 C 
ATOM     12  C   UNL A   1      32.316  22.747  22.966  1.00  0.00     0.011 C 
BRANCH   8  13
ATOM     13  N   UNL A   1      32.764  21.048  26.358  1.00  0.00    -0.334 N 
ATOM     14  C   UNL A   1      33.682  21.518  27.416  1.00  0.00     0.331 C 
ATOM     15  H   UNL A   1      31.842  21.444  26.545  1.00  0.00     0.347 HD
ATOM     16  H   UNL A   1      32.792  20.028  26.400  1.00  0.00     0.347 HD
ENDBRANCH   8  13
BRANCH  10  17
ATOM     17  C   UNL A   1      31.358  23.389  25.283  1.00  0.00     0.022 C 
BRANCH  17  18
ATOM     18  C   UNL A   1      31.795  24.406  26.341  1.00  0.00     0.079 C 
BRANCH  18  19
ATOM     19  S   UNL A   1      33.446  25.122  26.142  1.00  0.00    -0.088 SA
BRANCH  19  20
ATOM     20  C   UNL A   1      33.543  26.275  24.826  1.00  0.00     0.168 A 
ATOM     21  N   UNL A   1      33.725  26.191  23.353  1.00  0.00    -0.233 NA
ATOM     22  N   UNL A   1      33.274  27.696  25.550  1.00  0.00    -0.301 N 
ATOM     23  C   UNL A   1      33.562  27.512  22.197  1.00  0.00     0.120 A 
ATOM     24  C   UNL A   1      32.986  29.146  24.732  1.00  0.00     0.251 A 
ATOM     25  H   UNL A   1      33.278  27.718  26.535  1.00  0.00     0.172 HD
ATOM     26  C   UNL A   1      33.394  28.997  22.755  1.00  0.00     0.091 A 
ATOM     27  O   UNL A   1      32.122  29.802  25.332  1.00  0.00    -0.269 OA
ENDBRANCH  19  20
ENDBRANCH  18  19
ENDBRANCH  17  18
ENDBRANCH  10  17
ENDBRANCH   6   8
ENDBRANCH   5   6
ENDBRANCH   4   5
ENDBRANCH   3   4
ENDBRANCH   2   3
ENDBRANCH   1   2
BRANCH   1  28
ATOM     28  C   UNL A   1      40.666  21.024  26.531  1.00  0.00     0.188 C 
BRANCH  28  29
ATOM     29  O   UNL A   1      42.198  20.835  25.816  1.00  0.00    -0.376 OA
BRANCH  29  30
ATOM     30  C   UNL A   1      43.263  21.860  25.494  1.00  0.00     0.202 C 
BRANCH  30  31
ATOM     31  C   UNL A   1      43.112  23.559  25.031  1.00  0.00     0.261 C 
BRANCH  31  32
ATOM     32  O   UNL A   1      44.318  24.577  24.851  1.00  0.00    -0.460 OA
BRANCH  32  33
ATOM     33  C   UNL A   1      44.919  25.205  25.970  1.00  0.00     0.338 C 
ATOM     34  O   UNL A   1      46.140  25.203  26.120  1.00  0.00    -0.246 OA
BRANCH  33  35
ATOM     35  C   UNL A   1      44.090  26.044  27.031  1.00  0.00     0.060 A 
ATOM     36  C   UNL A   1      44.285  27.363  27.489  1.00  0.00     0.016 A 
ATOM     37  C   UNL A   1      43.209  25.343  27.855  1.00  0.00     0.016 A 
ATOM     38  C   UNL A   1      43.688  27.979  28.614  1.00  0.00     0.010 A 
ATOM     39  C   UNL A   1      42.554  25.944  28.975  1.00  0.00     0.010 A 
ATOM     40  C   UNL A   1      42.777  27.276  29.364  1.00  0.00    -0.014 A 
BRANCH  40  41
ATOM     41  C   UNL A   1      42.126  27.886  30.559  1.00  0.00     0.031 A 
ATOM     42  C   UNL A   1      40.875  28.692  30.371  1.00  0.00     0.074 A 
ATOM     43  C   UNL A   1      42.652  27.758  31.795  1.00  0.00     0.049 A 
ATOM     44  N   UNL A   1      40.348  29.605  31.142  1.00  0.00    -0.248 NA
ATOM     45  C   UNL A   1      40.126  28.436  29.131  1.00  0.00     0.031 C 
ATOM     46  C   UNL A   1      43.760  26.875  32.166  1.00  0.00     0.029 A 
ATOM     47  N   UNL A   1      42.353  28.416  32.968  1.00  0.00    -0.354 N 
ATOM     48  C   UNL A   1      39.249  30.093  30.446  1.00  0.00     0.074 A 
ATOM     49  C   UNL A   1      39.179  29.362  29.199  1.00  0.00     0.031 C 
ATOM     50  C   UNL A   1      44.083  27.086  33.453  1.00  0.00     0.029 A 
ATOM     51  C   UNL A   1      43.264  28.175  33.973  1.00  0.00     0.049 A 
ATOM     52  H   UNL A   1      41.567  29.000  33.077  1.00  0.00     0.167 HD
ATOM     53  C   UNL A   1      38.399  31.082  30.815  1.00  0.00     0.037 A 
ATOM     54  C   UNL A   1      43.468  28.812  35.143  1.00  0.00     0.037 A 
ATOM     55  C   UNL A   1      38.496  31.784  32.069  1.00  0.00     0.049 A 
ATOM     56  C   UNL A   1      42.594  29.990  35.485  1.00  0.00     0.074 A 
ATOM     57  C   UNL A   1      37.704  32.813  32.547  1.00  0.00     0.029 A 
ATOM     58  N   UNL A   1      39.450  31.528  33.045  1.00  0.00    -0.354 N 
ATOM     59  N   UNL A   1      41.602  30.509  34.801  1.00  0.00    -0.248 NA
ATOM     60  C   UNL A   1      42.870  30.680  36.752  1.00  0.00     0.031 C 
ATOM     61  C   UNL A   1      38.226  33.229  33.776  1.00  0.00     0.029 A 
ATOM     62  C   UNL A   1      39.288  32.400  34.107  1.00  0.00     0.049 A 
ATOM     63  H   UNL A   1      40.141  30.829  32.988  1.00  0.00     0.167 HD
ATOM     64  C   UNL A   1      41.110  31.556  35.571  1.00  0.00     0.074 A 
ATOM     65  C   UNL A   1      41.908  31.590  36.780  1.00  0.00     0.031 C 
ATOM     66  C   UNL A   1      40.088  32.409  35.308  1.00  0.00     0.037 A 
BRANCH  53  67
ATOM     67  C   UNL A   1      37.353  31.507  29.823  1.00  0.00     0.057 A 
ATOM     68  C   UNL A   1      36.195  30.759  29.578  1.00  0.00     0.134 A 
ATOM     69  C   UNL A   1      37.511  32.698  29.098  1.00  0.00     0.134 A 
ATOM     70  F   UNL A   1      35.983  29.602  30.226  1.00  0.00    -0.206 F 
ATOM     71  C   UNL A   1      35.254  31.157  28.626  1.00  0.00     0.040 A 
ATOM     72  C   UNL A   1      36.561  33.124  28.170  1.00  0.00     0.040 A 
ATOM     73  F   UNL A   1      38.593  33.470  29.283  1.00  0.00    -0.206 F 
ATOM     74  C   UNL A   1      35.434  32.346  27.922  1.00  0.00     0.006 A 
ENDBRANCH  53  67
BRANCH  54  75
ATOM     75  C   UNL A   1      44.576  28.400  36.051  1.00  0.00     0.057 A 
ATOM     76  C   UNL A   1      45.851  28.968  35.940  1.00  0.00     0.134 A 
ATOM     77  C   UNL A   1      44.403  27.410  37.028  1.00  0.00     0.134 A 
ATOM     78  F   UNL A   1      46.095  29.902  35.009  1.00  0.00    -0.206 F 
ATOM     79  C   UNL A   1      46.913  28.558  36.751  1.00  0.00     0.040 A 
ATOM     80  C   UNL A   1      45.446  27.015  37.869  1.00  0.00     0.040 A 
ATOM     81  F   UNL A   1      43.210  26.818  37.192  1.00  0.00    -0.206 F 
ATOM     82  C   UNL A   1      46.709  27.582  37.724  1.00  0.00     0.006 A 
ENDBRANCH  54  75
BRANCH  66  83
ATOM     83  C   UNL A   1      39.732  33.406  36.373  1.00  0.00     0.057 A 
ATOM     84  C   UNL A   1      38.851  33.105  37.420  1.00  0.00     0.134 A 
ATOM     85  C   UNL A   1      40.319  34.679  36.371  1.00  0.00     0.134 A 
ATOM     86  F   UNL A   1      38.246  31.909  37.477  1.00  0.00    -0.206 F 
ATOM     87  C   UNL A   1      38.543  34.045  38.405  1.00  0.00     0.040 A 
ATOM     88  C   UNL A   1      40.050  35.611  37.372  1.00  0.00     0.040 A 
ATOM     89  F   UNL A   1      41.182  35.030  35.404  1.00  0.00    -0.206 F 
ATOM     90  C   UNL A   1      39.151  35.298  38.388  1.00  0.00     0.006 A 
ENDBRANCH  66  83
ENDBRANCH  40  41
ENDBRANCH  33  35
ENDBRANCH  32  33
ENDBRANCH  31  32
ENDBRANCH  30  31
ENDBRANCH  29  30
ENDBRANCH  28  29
ENDBRANCH   1  28
TORSDOF 22
ENDMDL
MODEL 3
REMARK VINA RESULT:     -10.6      4.751      7.907
REMARK SMILES C[NH2+][C@@]1(C(=O)OCCOCCOCCOC(=O)c2ccc(-c3c4nc(c(-c5c(F)cccc5F)c5ccc([nH]5)c(-c5c(F)cccc5F)c5nc(c(-c6c(F)cccc6F)c6ccc3[nH]6)C=C5)C=C4)cc2)CCC[C@H]1CCSc1nccc(=O)[nH]1
REMARK SMILES IDX 10 1 9 2 8 3 7 4 6 5 4 6 5 7 3 8 72 9 75 10 73 11 74 12 2 13
REMARK SMILES IDX 1 14 76 17 77 18 78 19 79 20 80 21 85 22 81 23 83 24 82 26
REMARK SMILES IDX 84 27 11 28 12 29 13 30 14 31 15 32 16 33 17 34 18 35 19 36
REMARK SMILES IDX 71 37 20 38 70 39 21 40 22 41 23 42 64 43 24 44 69 45 63 46
REMARK SMILES IDX 65 47 25 48 68 49 62 50 61 51 26 53 52 54 35 55 51 56 36 57
REMARK SMILES IDX 39 58 50 59 66 60 37 61 38 62 49 64 67 65 40 66 27 67 28 68
REMARK SMILES IDX 33 69 29 70 30 71 32 72 34 73 31 74 53 75 54 76 59 77 55 78
REMARK SMILES IDX 56 79 58 80 60 81 57 82 41 83 42 84 47 85 43 86 44 87 46 88
REMARK SMILES IDX 48 89 45 90
REMARK H PARENT 2 15 2 16 85 25 65 52 39 63
REMARK Flexibility Score: inf
ROOT
ATOM      1  C   UNL A   1      39.158  23.710  26.789  1.00  0.00     0.188 C 
ENDROOT
BRANCH   1   2
ATOM      2  O   UNL A   1      38.092  22.859  25.851  1.00  0.00    -0.376 OA
BRANCH   2   3
ATOM      3  C   UNL A   1      36.666  22.619  25.984  1.00  0.00     0.202 C 
BRANCH   3   4
ATOM      4  C   UNL A   1      35.960  22.542  24.591  1.00  0.00     0.261 C 
BRANCH   4   5
ATOM      5  O   UNL A   1      34.764  21.710  24.613  1.00  0.00    -0.459 OA
BRANCH   5   6
ATOM      6  C   UNL A   1      33.721  22.316  25.226  1.00  0.00     0.368 C 
ATOM      7  O   UNL A   1      33.366  21.949  26.355  1.00  0.00    -0.245 OA
BRANCH   6   8
ATOM      8  C   UNL A   1      32.840  23.381  24.404  1.00  0.00     0.197 C 
ATOM      9  C   UNL A   1      31.806  22.459  23.705  1.00  0.00     0.081 C 
ATOM     10  C   UNL A   1      33.160  24.244  23.114  1.00  0.00     0.063 C 
ATOM     11  C   UNL A   1      32.437  22.080  22.362  1.00  0.00     0.008 C 
ATOM     12  C   UNL A   1      33.162  23.314  21.902  1.00  0.00     0.011 C 
BRANCH   8  13
ATOM     13  N   UNL A   1      32.134  24.183  25.477  1.00  0.00    -0.334 N 
ATOM     14  C   UNL A   1      30.698  23.889  25.661  1.00  0.00     0.331 C 
ATOM     15  H   UNL A   1      32.606  24.005  26.364  1.00  0.00     0.347 HD
ATOM     16  H   UNL A   1      32.181  25.156  25.172  1.00  0.00     0.347 HD
ENDBRANCH   8  13
BRANCH  10  17
ATOM     17  C   UNL A   1      32.428  25.580  22.913  1.00  0.00     0.022 C 
BRANCH  17  18
ATOM     18  C   UNL A   1      33.287  26.807  23.235  1.00  0.00     0.079 C 
BRANCH  18  19
ATOM     19  S   UNL A   1      32.669  28.404  22.648  1.00  0.00    -0.088 SA
BRANCH  19  20
ATOM     20  C   UNL A   1      30.920  28.509  22.648  1.00  0.00     0.168 A 
ATOM     21  N   UNL A   1      29.808  27.712  23.230  1.00  0.00    -0.233 NA
ATOM     22  N   UNL A   1      30.626  29.890  21.858  1.00  0.00    -0.301 N 
ATOM     23  C   UNL A   1      28.104  28.161  23.276  1.00  0.00     0.120 A 
ATOM     24  C   UNL A   1      29.117  30.645  21.781  1.00  0.00     0.251 A 
ATOM     25  H   UNL A   1      31.378  30.320  21.390  1.00  0.00     0.172 HD
ATOM     26  C   UNL A   1      27.632  29.445  22.456  1.00  0.00     0.091 A 
ATOM     27  O   UNL A   1      29.258  31.873  21.852  1.00  0.00    -0.269 OA
ENDBRANCH  19  20
ENDBRANCH  18  19
ENDBRANCH  17  18
ENDBRANCH  10  17
ENDBRANCH   6   8
ENDBRANCH   5   6
ENDBRANCH   4   5
ENDBRANCH   3   4
ENDBRANCH   2   3
ENDBRANCH   1   2
BRANCH   1  28
ATOM     28  C   UNL A   1      41.340  23.595  27.110  1.00  0.00     0.188 C 
BRANCH  28  29
ATOM     29  O   UNL A   1      42.308  22.261  26.689  1.00  0.00    -0.376 OA
BRANCH  29  30
ATOM     30  C   UNL A   1      43.368  22.118  25.619  1.00  0.00     0.202 C 
BRANCH  30  31
ATOM     31  C   UNL A   1      44.109  23.333  24.573  1.00  0.00     0.261 C 
BRANCH  31  32
ATOM     32  O   UNL A   1      44.022  24.906  24.779  1.00  0.00    -0.460 OA
BRANCH  32  33
ATOM     33  C   UNL A   1      44.882  25.573  25.686  1.00  0.00     0.338 C 
ATOM     34  O   UNL A   1      46.032  25.873  25.369  1.00  0.00    -0.246 OA
BRANCH  33  35
ATOM     35  C   UNL A   1      44.399  26.082  27.110  1.00  0.00     0.060 A 
ATOM     36  C   UNL A   1      43.832  25.359  28.179  1.00  0.00     0.016 A 
ATOM     37  C   UNL A   1      44.234  27.456  27.278  1.00  0.00     0.016 A 
ATOM     38  C   UNL A   1      43.182  25.885  29.321  1.00  0.00     0.010 A 
ATOM     39  C   UNL A   1      43.621  28.026  28.437  1.00  0.00     0.010 A 
ATOM     40  C   UNL A   1      43.095  27.246  29.482  1.00  0.00    -0.014 A 
BRANCH  40  41
ATOM     41  C   UNL A   1      42.417  27.843  30.668  1.00  0.00     0.031 A 
ATOM     42  C   UNL A   1      41.157  28.629  30.466  1.00  0.00     0.074 A 
ATOM     43  C   UNL A   1      42.929  27.721  31.912  1.00  0.00     0.049 A 
ATOM     44  N   UNL A   1      40.605  29.533  31.231  1.00  0.00    -0.248 NA
ATOM     45  C   UNL A   1      40.429  28.365  29.215  1.00  0.00     0.031 C 
ATOM     46  C   UNL A   1      44.045  26.855  32.296  1.00  0.00     0.029 A 
ATOM     47  N   UNL A   1      42.603  28.371  33.082  1.00  0.00    -0.354 N 
ATOM     48  C   UNL A   1      39.508  30.005  30.521  1.00  0.00     0.074 A 
ATOM     49  C   UNL A   1      39.466  29.275  29.272  1.00  0.00     0.031 C 
ATOM     50  C   UNL A   1      44.347  27.068  33.588  1.00  0.00     0.029 A 
ATOM     51  C   UNL A   1      43.504  28.142  34.099  1.00  0.00     0.049 A 
ATOM     52  H   UNL A   1      41.807  28.942  33.181  1.00  0.00     0.167 HD
ATOM     53  C   UNL A   1      38.637  30.979  30.880  1.00  0.00     0.037 A 
ATOM     54  C   UNL A   1      43.682  28.780  35.273  1.00  0.00     0.037 A 
ATOM     55  C   UNL A   1      38.706  31.680  32.137  1.00  0.00     0.049 A 
ATOM     56  C   UNL A   1      42.785  29.943  35.605  1.00  0.00     0.074 A 
ATOM     57  C   UNL A   1      37.892  32.695  32.606  1.00  0.00     0.029 A 
ATOM     58  N   UNL A   1      39.651  31.436  33.125  1.00  0.00    -0.354 N 
ATOM     59  N   UNL A   1      41.794  30.448  34.908  1.00  0.00    -0.248 NA
ATOM     60  C   UNL A   1      43.033  30.634  36.878  1.00  0.00     0.031 C 
ATOM     61  C   UNL A   1      38.390  33.116  33.843  1.00  0.00     0.029 A 
ATOM     62  C   UNL A   1      39.460  32.304  34.187  1.00  0.00     0.049 A 
ATOM     63  H   UNL A   1      40.354  30.749  33.076  1.00  0.00     0.167 HD
ATOM     64  C   UNL A   1      41.275  31.485  35.674  1.00  0.00     0.074 A 
ATOM     65  C   UNL A   1      42.056  31.529  36.894  1.00  0.00     0.031 C 
ATOM     66  C   UNL A   1      40.243  32.322  35.399  1.00  0.00     0.037 A 
BRANCH  53  67
ATOM     67  C   UNL A   1      37.599  31.390  29.875  1.00  0.00     0.057 A 
ATOM     68  C   UNL A   1      37.704  32.561  29.114  1.00  0.00     0.134 A 
ATOM     69  C   UNL A   1      36.466  30.589  29.664  1.00  0.00     0.134 A 
ATOM     70  F   UNL A   1      38.754  33.382  29.273  1.00  0.00    -0.206 F 
ATOM     71  C   UNL A   1      36.708  32.939  28.212  1.00  0.00     0.040 A 
ATOM     72  C   UNL A   1      35.482  30.938  28.739  1.00  0.00     0.040 A 
ATOM     73  F   UNL A   1      36.299  29.450  30.352  1.00  0.00    -0.206 F 
ATOM     74  C   UNL A   1      35.595  32.123  28.017  1.00  0.00     0.006 A 
ENDBRANCH  53  67
BRANCH  54  75
ATOM     75  C   UNL A   1      44.784  28.383  36.195  1.00  0.00     0.057 A 
ATOM     76  C   UNL A   1      44.583  27.422  37.193  1.00  0.00     0.134 A 
ATOM     77  C   UNL A   1      46.055  28.971  36.125  1.00  0.00     0.134 A 
ATOM     78  F   UNL A   1      43.384  26.838  37.334  1.00  0.00    -0.206 F 
ATOM     79  C   UNL A   1      45.591  27.075  38.096  1.00  0.00     0.040 A 
ATOM     80  C   UNL A   1      47.083  28.609  36.998  1.00  0.00     0.040 A 
ATOM     81  F   UNL A   1      46.323  29.902  35.196  1.00  0.00    -0.206 F 
ATOM     82  C   UNL A   1      46.849  27.665  37.995  1.00  0.00     0.006 A 
ENDBRANCH  54  75
BRANCH  66  83
ATOM     83  C   UNL A   1      39.857  33.311  36.461  1.00  0.00     0.057 A 
ATOM     84  C   UNL A   1      40.402  34.600  36.521  1.00  0.00     0.134 A 
ATOM     85  C   UNL A   1      38.888  32.976  37.417  1.00  0.00     0.134 A 
ATOM     86  F   UNL A   1      41.343  34.983  35.644  1.00  0.00    -0.206 F 
ATOM     87  C   UNL A   1      40.021  35.507  37.512  1.00  0.00     0.040 A 
ATOM     88  C   UNL A   1      38.470  33.887  38.386  1.00  0.00     0.040 A 
ATOM     89  F   UNL A   1      38.315  31.762  37.410  1.00  0.00    -0.206 F 
ATOM     90  C   UNL A   1      39.045  35.154  38.442  1.00  0.00     0.006 A 
ENDBRANCH  66  83
ENDBRANCH  40  41
ENDBRANCH  33  35
ENDBRANCH  32  33
ENDBRANCH  31  32
ENDBRANCH  30  31
ENDBRANCH  29  30
ENDBRANCH  28  29
ENDBRANCH   1  28
TORSDOF 22
ENDMDL
