MODEL 1
REMARK VINA RESULT:     -10.8      0.000      0.000
REMARK SMILES COc1ccc([C@@H](CC(=O)OCCOCCOCCOC(=O)c2ccc(-c3c4nc(c(-c5c(F)cccc5F)c5ccc([nH]5)c(-c5c(F)cccc5F)c5nc(c(-c6c(F)cccc6F)c6ccc3[nH]6)C=C5)C=C4)cc2)NC(=O)c2ccc(Cl)c([N+](=O)[O-])c2)cc1
REMARK SMILES IDX 15 1 14 2 13 3 12 4 11 5 9 6 10 7 8 8 7 9 6 10 3 11 4 12
REMARK SMILES IDX 91 13 5 14 90 15 2 16 1 17 77 18 78 19 79 21 80 22 81 23
REMARK SMILES IDX 89 24 82 25 85 26 83 27 84 28 86 29 87 30 88 31 16 32 17 33
REMARK SMILES IDX 18 34 19 35 20 36 21 37 22 38 23 39 24 40 76 41 25 42 75 43
REMARK SMILES IDX 26 44 27 45 28 46 69 47 29 48 74 49 68 50 70 51 30 52 73 53
REMARK SMILES IDX 67 54 66 55 31 57 57 58 40 59 56 60 41 61 44 62 55 63 71 64
REMARK SMILES IDX 42 65 43 66 54 68 72 69 45 70 32 71 33 72 38 73 34 74 35 75
REMARK SMILES IDX 37 76 39 77 36 78 58 79 59 80 64 81 60 82 61 83 63 84 65 85
REMARK SMILES IDX 62 86 46 87 47 88 52 89 48 90 49 91 51 92 53 93 50 94
REMARK H PARENT 77 20 70 56 44 67
REMARK Flexibility Score: inf
ROOT
ATOM      1  C   UNL A   1      32.883  21.951  25.659  1.00  0.00     0.188 C 
ENDROOT
BRANCH   1   2
ATOM      2  O   UNL A   1      31.736  22.164  26.456  1.00  0.00    -0.376 OA
BRANCH   2   3
ATOM      3  C   UNL A   1      31.241  23.502  26.563  1.00  0.00     0.202 C 
BRANCH   3   4
ATOM      4  C   UNL A   1      32.235  24.667  26.524  1.00  0.00     0.261 C 
BRANCH   4   5
ATOM      5  O   UNL A   1      31.565  25.916  26.815  1.00  0.00    -0.463 OA
BRANCH   5   6
ATOM      6  C   UNL A   1      32.293  27.027  26.591  1.00  0.00     0.308 C 
ATOM      7  O   UNL A   1      33.478  26.998  26.265  1.00  0.00    -0.252 OA
BRANCH   6   8
ATOM      8  C   UNL A   1      31.533  28.334  26.622  1.00  0.00     0.152 C 
BRANCH   8   9
ATOM      9  C   UNL A   1      31.872  29.599  25.814  1.00  0.00     0.123 C 
BRANCH   9  10
ATOM     10  C   UNL A   1      32.381  30.839  26.529  1.00  0.00    -0.025 A 
ATOM     11  C   UNL A   1      33.230  33.159  27.904  1.00  0.00     0.118 A 
ATOM     12  C   UNL A   1      34.013  32.011  27.911  1.00  0.00     0.047 A 
ATOM     13  C   UNL A   1      32.016  33.158  27.223  1.00  0.00     0.047 A 
ATOM     14  C   UNL A   1      33.572  30.853  27.266  1.00  0.00     0.010 A 
ATOM     15  C   UNL A   1      31.599  32.009  26.539  1.00  0.00     0.010 A 
BRANCH  11  16
ATOM     16  O   UNL A   1      33.754  34.246  28.545  1.00  0.00    -0.497 OA
ATOM     17  C   UNL A   1      34.208  33.973  29.867  1.00  0.00     0.278 C 
ENDBRANCH  11  16
ENDBRANCH   9  10
BRANCH   9  18
ATOM     18  N   UNL A   1      30.856  29.956  24.824  1.00  0.00    -0.345 N 
ATOM     19  C   UNL A   1      30.531  29.324  23.646  1.00  0.00     0.252 C 
ATOM     20  H   UNL A   1      30.331  30.762  25.030  1.00  0.00     0.164 HD
ATOM     21  O   UNL A   1      30.037  29.975  22.729  1.00  0.00    -0.269 OA
BRANCH  19  22
ATOM     22  C   UNL A   1      30.718  27.864  23.419  1.00  0.00     0.046 A 
ATOM     23  C   UNL A   1      29.740  26.996  23.922  1.00  0.00     0.016 A 
ATOM     24  C   UNL A   1      31.862  27.315  22.839  1.00  0.00     0.101 A 
ATOM     25  C   UNL A   1      29.871  25.610  23.780  1.00  0.00     0.028 A 
ATOM     26  C   UNL A   1      31.984  25.916  22.663  1.00  0.00     0.288 A 
ATOM     27  C   UNL A   1      30.979  25.056  23.127  1.00  0.00     0.118 A 
ATOM     28  Cl  UNL A   1      30.953  23.339  22.948  1.00  0.00    -0.077 Cl
BRANCH  26  29
ATOM     29  N   UNL A   1      33.183  25.437  21.962  1.00  0.00     0.064 N 
ATOM     30  O   UNL A   1      34.056  24.835  22.593  1.00  0.00    -0.258 OA
ATOM     31  O   UNL A   1      33.256  25.690  20.749  1.00  0.00    -0.258 OA
ENDBRANCH  26  29
ENDBRANCH  19  22
ENDBRANCH   9  18
ENDBRANCH   8   9
ENDBRANCH   6   8
ENDBRANCH   5   6
ENDBRANCH   4   5
ENDBRANCH   3   4
ENDBRANCH   2   3
ENDBRANCH   1   2
BRANCH   1  32
ATOM     32  C   UNL A   1      33.121  20.520  25.183  1.00  0.00     0.188 C 
BRANCH  32  33
ATOM     33  O   UNL A   1      34.402  20.097  24.746  1.00  0.00    -0.376 OA
BRANCH  33  34
ATOM     34  C   UNL A   1      35.570  20.844  25.082  1.00  0.00     0.202 C 
BRANCH  34  35
ATOM     35  C   UNL A   1      36.986  20.246  24.998  1.00  0.00     0.261 C 
BRANCH  35  36
ATOM     36  O   UNL A   1      38.060  21.176  25.099  1.00  0.00    -0.460 OA
BRANCH  36  37
ATOM     37  C   UNL A   1      39.093  20.787  25.878  1.00  0.00     0.338 C 
ATOM     38  O   UNL A   1      39.566  19.671  25.968  1.00  0.00    -0.246 OA
BRANCH  37  39
ATOM     39  C   UNL A   1      39.674  22.029  26.435  1.00  0.00     0.060 A 
ATOM     40  C   UNL A   1      39.098  23.248  26.068  1.00  0.00     0.016 A 
ATOM     41  C   UNL A   1      40.695  21.992  27.390  1.00  0.00     0.016 A 
ATOM     42  C   UNL A   1      39.575  24.442  26.597  1.00  0.00     0.010 A 
ATOM     43  C   UNL A   1      41.182  23.187  27.920  1.00  0.00     0.010 A 
ATOM     44  C   UNL A   1      40.654  24.417  27.487  1.00  0.00    -0.014 A 
BRANCH  44  45
ATOM     45  C   UNL A   1      41.401  25.669  27.734  1.00  0.00     0.031 A 
ATOM     46  C   UNL A   1      40.698  26.751  28.504  1.00  0.00     0.074 A 
ATOM     47  C   UNL A   1      42.674  25.827  27.338  1.00  0.00     0.049 A 
ATOM     48  N   UNL A   1      41.111  27.949  28.826  1.00  0.00    -0.248 NA
ATOM     49  C   UNL A   1      39.335  26.437  28.970  1.00  0.00     0.031 C 
ATOM     50  C   UNL A   1      43.471  24.833  26.625  1.00  0.00     0.029 A 
ATOM     51  N   UNL A   1      43.516  26.900  27.482  1.00  0.00    -0.354 N 
ATOM     52  C   UNL A   1      40.056  28.533  29.514  1.00  0.00     0.074 A 
ATOM     53  C   UNL A   1      38.973  27.577  29.532  1.00  0.00     0.031 C 
ATOM     54  C   UNL A   1      44.688  25.350  26.378  1.00  0.00     0.029 A 
ATOM     55  C   UNL A   1      44.743  26.717  26.894  1.00  0.00     0.049 A 
ATOM     56  H   UNL A   1      43.266  27.721  27.962  1.00  0.00     0.167 HD
ATOM     57  C   UNL A   1      39.997  29.754  30.093  1.00  0.00     0.037 A 
ATOM     58  C   UNL A   1      45.779  27.569  26.773  1.00  0.00     0.037 A 
ATOM     59  C   UNL A   1      41.077  30.701  30.079  1.00  0.00     0.049 A 
ATOM     60  C   UNL A   1      45.678  28.942  27.386  1.00  0.00     0.074 A 
ATOM     61  C   UNL A   1      41.127  31.964  30.640  1.00  0.00     0.029 A 
ATOM     62  N   UNL A   1      42.300  30.484  29.461  1.00  0.00    -0.354 N 
ATOM     63  N   UNL A   1      44.683  29.484  28.046  1.00  0.00    -0.248 NA
ATOM     64  C   UNL A   1      46.850  29.818  27.242  1.00  0.00     0.031 C 
ATOM     65  C   UNL A   1      42.368  32.528  30.327  1.00  0.00     0.029 A 
ATOM     66  C   UNL A   1      43.108  31.599  29.613  1.00  0.00     0.049 A 
ATOM     67  H   UNL A   1      42.556  29.661  28.987  1.00  0.00     0.167 HD
ATOM     68  C   UNL A   1      45.114  30.753  28.415  1.00  0.00     0.074 A 
ATOM     69  C   UNL A   1      46.467  30.893  27.918  1.00  0.00     0.031 C 
ATOM     70  C   UNL A   1      44.453  31.715  29.106  1.00  0.00     0.037 A 
BRANCH  57  71
ATOM     71  C   UNL A   1      38.701  30.130  30.748  1.00  0.00     0.057 A 
ATOM     72  C   UNL A   1      37.671  30.771  30.047  1.00  0.00     0.134 A 
ATOM     73  C   UNL A   1      38.496  29.878  32.110  1.00  0.00     0.134 A 
ATOM     74  F   UNL A   1      37.815  31.065  28.746  1.00  0.00    -0.206 F 
ATOM     75  C   UNL A   1      36.499  31.184  30.685  1.00  0.00     0.040 A 
ATOM     76  C   UNL A   1      37.317  30.259  32.753  1.00  0.00     0.040 A 
ATOM     77  F   UNL A   1      39.443  29.271  32.840  1.00  0.00    -0.206 F 
ATOM     78  C   UNL A   1      36.320  30.923  32.043  1.00  0.00     0.006 A 
ENDBRANCH  57  71
BRANCH  58  79
ATOM     79  C   UNL A   1      46.993  27.152  26.030  1.00  0.00     0.057 A 
ATOM     80  C   UNL A   1      48.075  26.545  26.678  1.00  0.00     0.134 A 
ATOM     81  C   UNL A   1      47.100  27.353  24.649  1.00  0.00     0.134 A 
ATOM     82  F   UNL A   1      48.042  26.347  28.004  1.00  0.00    -0.206 F 
ATOM     83  C   UNL A   1      49.224  26.164  25.982  1.00  0.00     0.040 A 
ATOM     84  C   UNL A   1      48.233  26.956  23.936  1.00  0.00     0.040 A 
ATOM     85  F   UNL A   1      46.098  27.930  23.968  1.00  0.00    -0.206 F 
ATOM     86  C   UNL A   1      49.301  26.363  24.605  1.00  0.00     0.006 A 
ENDBRANCH  58  79
BRANCH  70  87
ATOM     87  C   UNL A   1      45.194  32.989  29.390  1.00  0.00     0.057 A 
ATOM     88  C   UNL A   1      45.133  34.089  28.525  1.00  0.00     0.134 A 
ATOM     89  C   UNL A   1      45.943  33.131  30.565  1.00  0.00     0.134 A 
ATOM     90  F   UNL A   1      44.441  34.016  27.378  1.00  0.00    -0.206 F 
ATOM     91  C   UNL A   1      45.813  35.276  28.807  1.00  0.00     0.040 A 
ATOM     92  C   UNL A   1      46.605  34.321  30.871  1.00  0.00     0.040 A 
ATOM     93  F   UNL A   1      46.031  32.120  31.443  1.00  0.00    -0.206 F 
ATOM     94  C   UNL A   1      46.547  35.395  29.986  1.00  0.00     0.006 A 
ENDBRANCH  70  87
ENDBRANCH  44  45
ENDBRANCH  37  39
ENDBRANCH  36  37
ENDBRANCH  35  36
ENDBRANCH  34  35
ENDBRANCH  33  34
ENDBRANCH  32  33
ENDBRANCH   1  32
TORSDOF 23
ENDMDL
MODEL 2
REMARK VINA RESULT:     -10.7      2.325      7.078
REMARK SMILES COc1ccc([C@@H](CC(=O)OCCOCCOCCOC(=O)c2ccc(-c3c4nc(c(-c5c(F)cccc5F)c5ccc([nH]5)c(-c5c(F)cccc5F)c5nc(c(-c6c(F)cccc6F)c6ccc3[nH]6)C=C5)C=C4)cc2)NC(=O)c2ccc(Cl)c([N+](=O)[O-])c2)cc1
REMARK SMILES IDX 15 1 14 2 13 3 12 4 11 5 9 6 10 7 8 8 7 9 6 10 3 11 4 12
REMARK SMILES IDX 91 13 5 14 90 15 2 16 1 17 77 18 78 19 79 21 80 22 81 23
REMARK SMILES IDX 89 24 82 25 85 26 83 27 84 28 86 29 87 30 88 31 16 32 17 33
REMARK SMILES IDX 18 34 19 35 20 36 21 37 22 38 23 39 24 40 76 41 25 42 75 43
REMARK SMILES IDX 26 44 27 45 28 46 69 47 29 48 74 49 68 50 70 51 30 52 73 53
REMARK SMILES IDX 67 54 66 55 31 57 57 58 40 59 56 60 41 61 44 62 55 63 71 64
REMARK SMILES IDX 42 65 43 66 54 68 72 69 45 70 32 71 33 72 38 73 34 74 35 75
REMARK SMILES IDX 37 76 39 77 36 78 58 79 59 80 64 81 60 82 61 83 63 84 65 85
REMARK SMILES IDX 62 86 46 87 47 88 52 89 48 90 49 91 51 92 53 93 50 94
REMARK H PARENT 77 20 70 56 44 67
REMARK Flexibility Score: inf
ROOT
ATOM      1  C   UNL A   1      33.534  20.471  25.029  1.00  0.00     0.188 C 
ENDROOT
BRANCH   1   2
ATOM      2  O   UNL A   1      32.684  21.467  24.496  1.00  0.00    -0.376 OA
BRANCH   2   3
ATOM      3  C   UNL A   1      33.204  22.295  23.452  1.00  0.00     0.202 C 
BRANCH   3   4
ATOM      4  C   UNL A   1      32.432  23.555  23.048  1.00  0.00     0.261 C 
BRANCH   4   5
ATOM      5  O   UNL A   1      33.163  24.743  23.433  1.00  0.00    -0.463 OA
BRANCH   5   6
ATOM      6  C   UNL A   1      33.137  25.751  22.539  1.00  0.00     0.308 C 
ATOM      7  O   UNL A   1      33.695  25.691  21.445  1.00  0.00    -0.252 OA
BRANCH   6   8
ATOM      8  C   UNL A   1      32.254  26.926  22.892  1.00  0.00     0.152 C 
BRANCH   8   9
ATOM      9  C   UNL A   1      30.747  26.868  23.199  1.00  0.00     0.123 C 
BRANCH   9  10
ATOM     10  C   UNL A   1      29.875  28.085  22.939  1.00  0.00    -0.025 A 
ATOM     11  C   UNL A   1      28.201  30.329  22.548  1.00  0.00     0.118 A 
ATOM     12  C   UNL A   1      29.572  30.430  22.343  1.00  0.00     0.047 A 
ATOM     13  C   UNL A   1      27.656  29.117  22.958  1.00  0.00     0.047 A 
ATOM     14  C   UNL A   1      30.403  29.331  22.577  1.00  0.00     0.010 A 
ATOM     15  C   UNL A   1      28.486  28.005  23.148  1.00  0.00     0.010 A 
BRANCH  11  16
ATOM     16  O   UNL A   1      27.470  31.451  22.274  1.00  0.00    -0.497 OA
ATOM     17  C   UNL A   1      28.237  32.521  21.730  1.00  0.00     0.278 C 
ENDBRANCH  11  16
ENDBRANCH   9  10
BRANCH   9  18
ATOM     18  N   UNL A   1      30.434  26.278  24.501  1.00  0.00    -0.345 N 
ATOM     19  C   UNL A   1      31.109  26.397  25.693  1.00  0.00     0.252 C 
ATOM     20  H   UNL A   1      29.625  25.718  24.526  1.00  0.00     0.164 HD
ATOM     21  O   UNL A   1      31.021  25.499  26.527  1.00  0.00    -0.269 OA
BRANCH  19  22
ATOM     22  C   UNL A   1      31.933  27.582  26.056  1.00  0.00     0.046 A 
ATOM     23  C   UNL A   1      33.251  27.358  26.476  1.00  0.00     0.016 A 
ATOM     24  C   UNL A   1      31.428  28.883  26.111  1.00  0.00     0.101 A 
ATOM     25  C   UNL A   1      34.068  28.422  26.871  1.00  0.00     0.028 A 
ATOM     26  C   UNL A   1      32.262  29.967  26.477  1.00  0.00     0.288 A 
ATOM     27  C   UNL A   1      33.593  29.739  26.851  1.00  0.00     0.118 A 
ATOM     28  Cl  UNL A   1      34.747  30.951  27.275  1.00  0.00    -0.077 Cl
BRANCH  26  29
ATOM     29  N   UNL A   1      31.668  31.309  26.420  1.00  0.00     0.064 N 
ATOM     30  O   UNL A   1      30.813  31.561  25.566  1.00  0.00    -0.258 OA
ATOM     31  O   UNL A   1      32.085  32.137  27.246  1.00  0.00    -0.258 OA
ENDBRANCH  26  29
ENDBRANCH  19  22
ENDBRANCH   9  18
ENDBRANCH   8   9
ENDBRANCH   6   8
ENDBRANCH   5   6
ENDBRANCH   4   5
ENDBRANCH   3   4
ENDBRANCH   2   3
ENDBRANCH   1   2
BRANCH   1  32
ATOM     32  C   UNL A   1      35.023  20.805  25.071  1.00  0.00     0.188 C 
BRANCH  32  33
ATOM     33  O   UNL A   1      35.546  21.695  26.044  1.00  0.00    -0.376 OA
BRANCH  33  34
ATOM     34  C   UNL A   1      36.573  22.625  25.704  1.00  0.00     0.202 C 
BRANCH  34  35
ATOM     35  C   UNL A   1      38.024  22.190  25.429  1.00  0.00     0.261 C 
BRANCH  35  36
ATOM     36  O   UNL A   1      38.871  22.095  26.570  1.00  0.00    -0.460 OA
BRANCH  36  37
ATOM     37  C   UNL A   1      40.144  22.507  26.383  1.00  0.00     0.338 C 
ATOM     38  O   UNL A   1      41.023  21.925  25.778  1.00  0.00    -0.246 OA
BRANCH  37  39
ATOM     39  C   UNL A   1      40.197  23.903  26.870  1.00  0.00     0.060 A 
ATOM     40  C   UNL A   1      40.539  24.907  25.960  1.00  0.00     0.016 A 
ATOM     41  C   UNL A   1      39.808  24.236  28.172  1.00  0.00     0.016 A 
ATOM     42  C   UNL A   1      40.559  26.240  26.354  1.00  0.00     0.010 A 
ATOM     43  C   UNL A   1      39.831  25.572  28.574  1.00  0.00     0.010 A 
ATOM     44  C   UNL A   1      40.254  26.571  27.678  1.00  0.00    -0.014 A 
BRANCH  44  45
ATOM     45  C   UNL A   1      40.652  27.901  28.188  1.00  0.00     0.031 A 
ATOM     46  C   UNL A   1      42.118  28.228  28.194  1.00  0.00     0.074 A 
ATOM     47  C   UNL A   1      39.746  28.808  28.585  1.00  0.00     0.049 A 
ATOM     48  N   UNL A   1      42.731  29.302  28.617  1.00  0.00    -0.248 NA
ATOM     49  C   UNL A   1      43.017  27.193  27.652  1.00  0.00     0.031 C 
ATOM     50  C   UNL A   1      38.297  28.621  28.582  1.00  0.00     0.029 A 
ATOM     51  N   UNL A   1      39.924  30.077  29.074  1.00  0.00    -0.354 N 
ATOM     52  C   UNL A   1      44.083  29.064  28.407  1.00  0.00     0.074 A 
ATOM     53  C   UNL A   1      44.205  27.734  27.856  1.00  0.00     0.031 C 
ATOM     54  C   UNL A   1      37.715  29.733  29.065  1.00  0.00     0.029 A 
ATOM     55  C   UNL A   1      38.753  30.697  29.431  1.00  0.00     0.049 A 
ATOM     56  H   UNL A   1      40.807  30.503  29.160  1.00  0.00     0.167 HD
ATOM     57  C   UNL A   1      45.132  29.885  28.640  1.00  0.00     0.037 A 
ATOM     58  C   UNL A   1      38.552  31.898  30.008  1.00  0.00     0.037 A 
ATOM     59  C   UNL A   1      45.008  31.210  29.182  1.00  0.00     0.049 A 
ATOM     60  C   UNL A   1      39.736  32.782  30.302  1.00  0.00     0.074 A 
ATOM     61  C   UNL A   1      46.004  32.131  29.452  1.00  0.00     0.029 A 
ATOM     62  N   UNL A   1      43.805  31.798  29.545  1.00  0.00    -0.354 N 
ATOM     63  N   UNL A   1      41.010  32.556  30.089  1.00  0.00    -0.248 NA
ATOM     64  C   UNL A   1      39.451  34.090  30.908  1.00  0.00     0.031 C 
ATOM     65  C   UNL A   1      45.406  33.262  30.017  1.00  0.00     0.029 A 
ATOM     66  C   UNL A   1      44.034  33.066  30.053  1.00  0.00     0.049 A 
ATOM     67  H   UNL A   1      42.920  31.378  29.452  1.00  0.00     0.167 HD
ATOM     68  C   UNL A   1      41.677  33.701  30.514  1.00  0.00     0.074 A 
ATOM     69  C   UNL A   1      40.663  34.622  30.981  1.00  0.00     0.031 C 
ATOM     70  C   UNL A   1      43.007  33.966  30.514  1.00  0.00     0.037 A 
BRANCH  57  71
ATOM     71  C   UNL A   1      46.497  29.341  28.340  1.00  0.00     0.057 A 
ATOM     72  C   UNL A   1      47.089  29.471  27.076  1.00  0.00     0.134 A 
ATOM     73  C   UNL A   1      47.215  28.645  29.320  1.00  0.00     0.134 A 
ATOM     74  F   UNL A   1      46.442  30.104  26.085  1.00  0.00    -0.206 F 
ATOM     75  C   UNL A   1      48.327  28.896  26.786  1.00  0.00     0.040 A 
ATOM     76  C   UNL A   1      48.467  28.090  29.052  1.00  0.00     0.040 A 
ATOM     77  F   UNL A   1      46.705  28.481  30.549  1.00  0.00    -0.206 F 
ATOM     78  C   UNL A   1      49.021  28.205  27.778  1.00  0.00     0.006 A 
ENDBRANCH  57  71
BRANCH  58  79
ATOM     79  C   UNL A   1      37.174  32.326  30.357  1.00  0.00     0.057 A 
ATOM     80  C   UNL A   1      36.401  33.089  29.475  1.00  0.00     0.134 A 
ATOM     81  C   UNL A   1      36.600  31.982  31.586  1.00  0.00     0.134 A 
ATOM     82  F   UNL A   1      36.904  33.471  28.293  1.00  0.00    -0.206 F 
ATOM     83  C   UNL A   1      35.109  33.504  29.807  1.00  0.00     0.040 A 
ATOM     84  C   UNL A   1      35.302  32.369  31.922  1.00  0.00     0.040 A 
ATOM     85  F   UNL A   1      37.289  31.252  32.475  1.00  0.00    -0.206 F 
ATOM     86  C   UNL A   1      34.554  33.137  31.032  1.00  0.00     0.006 A 
ENDBRANCH  58  79
BRANCH  70  87
ATOM     87  C   UNL A   1      43.438  35.317  31.007  1.00  0.00     0.057 A 
ATOM     88  C   UNL A   1      43.628  36.397  30.136  1.00  0.00     0.134 A 
ATOM     89  C   UNL A   1      43.624  35.549  32.376  1.00  0.00     0.134 A 
ATOM     90  F   UNL A   1      43.475  36.239  28.812  1.00  0.00    -0.206 F 
ATOM     91  C   UNL A   1      44.013  37.654  30.607  1.00  0.00     0.040 A 
ATOM     92  C   UNL A   1      43.983  36.807  32.861  1.00  0.00     0.040 A 
ATOM     93  F   UNL A   1      43.446  34.560  33.265  1.00  0.00    -0.206 F 
ATOM     94  C   UNL A   1      44.185  37.862  31.974  1.00  0.00     0.006 A 
ENDBRANCH  70  87
ENDBRANCH  44  45
ENDBRANCH  37  39
ENDBRANCH  36  37
ENDBRANCH  35  36
ENDBRANCH  34  35
ENDBRANCH  33  34
ENDBRANCH  32  33
ENDBRANCH   1  32
TORSDOF 23
ENDMDL
MODEL 3
REMARK VINA RESULT:     -10.6      0.422      5.905
REMARK SMILES COc1ccc([C@@H](CC(=O)OCCOCCOCCOC(=O)c2ccc(-c3c4nc(c(-c5c(F)cccc5F)c5ccc([nH]5)c(-c5c(F)cccc5F)c5nc(c(-c6c(F)cccc6F)c6ccc3[nH]6)C=C5)C=C4)cc2)NC(=O)c2ccc(Cl)c([N+](=O)[O-])c2)cc1
REMARK SMILES IDX 15 1 14 2 13 3 12 4 11 5 9 6 10 7 8 8 7 9 6 10 3 11 4 12
REMARK SMILES IDX 91 13 5 14 90 15 2 16 1 17 77 18 78 19 79 21 80 22 81 23
REMARK SMILES IDX 89 24 82 25 85 26 83 27 84 28 86 29 87 30 88 31 16 32 17 33
REMARK SMILES IDX 18 34 19 35 20 36 21 37 22 38 23 39 24 40 76 41 25 42 75 43
REMARK SMILES IDX 26 44 27 45 28 46 69 47 29 48 74 49 68 50 70 51 30 52 73 53
REMARK SMILES IDX 67 54 66 55 31 57 57 58 40 59 56 60 41 61 44 62 55 63 71 64
REMARK SMILES IDX 42 65 43 66 54 68 72 69 45 70 32 71 33 72 38 73 34 74 35 75
REMARK SMILES IDX 37 76 39 77 36 78 58 79 59 80 64 81 60 82 61 83 63 84 65 85
REMARK SMILES IDX 62 86 46 87 47 88 52 89 48 90 49 91 51 92 53 93 50 94
REMARK H PARENT 77 20 70 56 44 67
REMARK Flexibility Score: inf
ROOT
ATOM      1  C   UNL A   1      33.123  21.786  25.248  1.00  0.00     0.188 C 
ENDROOT
BRANCH   1   2
ATOM      2  O   UNL A   1      32.696  22.166  26.541  1.00  0.00    -0.376 OA
BRANCH   2   3
ATOM      3  C   UNL A   1      32.065  23.442  26.682  1.00  0.00     0.202 C 
BRANCH   3   4
ATOM      4  C   UNL A   1      32.844  24.704  26.297  1.00  0.00     0.261 C 
BRANCH   4   5
ATOM      5  O   UNL A   1      32.117  25.890  26.695  1.00  0.00    -0.463 OA
BRANCH   5   6
ATOM      6  C   UNL A   1      32.725  27.059  26.414  1.00  0.00     0.308 C 
ATOM      7  O   UNL A   1      33.871  27.131  25.974  1.00  0.00    -0.252 OA
BRANCH   6   8
ATOM      8  C   UNL A   1      31.865  28.297  26.534  1.00  0.00     0.152 C 
BRANCH   8   9
ATOM      9  C   UNL A   1      32.070  29.621  25.775  1.00  0.00     0.123 C 
BRANCH   9  10
ATOM     10  C   UNL A   1      32.549  30.854  26.522  1.00  0.00    -0.025 A 
ATOM     11  C   UNL A   1      33.341  33.160  27.953  1.00  0.00     0.118 A 
ATOM     12  C   UNL A   1      34.139  32.022  27.955  1.00  0.00     0.047 A 
ATOM     13  C   UNL A   1      32.141  33.155  27.250  1.00  0.00     0.047 A 
ATOM     14  C   UNL A   1      33.726  30.870  27.281  1.00  0.00     0.010 A 
ATOM     15  C   UNL A   1      31.751  32.013  26.538  1.00  0.00     0.010 A 
BRANCH  11  16
ATOM     16  O   UNL A   1      33.839  34.242  28.623  1.00  0.00    -0.497 OA
ATOM     17  C   UNL A   1      34.058  34.010  30.011  1.00  0.00     0.278 C 
ENDBRANCH  11  16
ENDBRANCH   9  10
BRANCH   9  18
ATOM     18  N   UNL A   1      30.970  29.959  24.873  1.00  0.00    -0.345 N 
ATOM     19  C   UNL A   1      30.551  29.314  23.734  1.00  0.00     0.252 C 
ATOM     20  H   UNL A   1      30.456  30.763  25.118  1.00  0.00     0.164 HD
ATOM     21  O   UNL A   1      29.973  29.952  22.857  1.00  0.00    -0.269 OA
BRANCH  19  22
ATOM     22  C   UNL A   1      30.731  27.854  23.503  1.00  0.00     0.046 A 
ATOM     23  C   UNL A   1      29.797  26.982  24.079  1.00  0.00     0.016 A 
ATOM     24  C   UNL A   1      31.836  27.308  22.847  1.00  0.00     0.101 A 
ATOM     25  C   UNL A   1      29.928  25.596  23.937  1.00  0.00     0.028 A 
ATOM     26  C   UNL A   1      31.954  25.908  22.672  1.00  0.00     0.288 A 
ATOM     27  C   UNL A   1      30.991  25.045  23.212  1.00  0.00     0.118 A 
ATOM     28  Cl  UNL A   1      30.965  23.327  23.046  1.00  0.00    -0.077 Cl
BRANCH  26  29
ATOM     29  N   UNL A   1      33.105  25.433  21.893  1.00  0.00     0.064 N 
ATOM     30  O   UNL A   1      33.259  25.825  20.733  1.00  0.00    -0.258 OA
ATOM     31  O   UNL A   1      33.865  24.630  22.458  1.00  0.00    -0.258 OA
ENDBRANCH  26  29
ENDBRANCH  19  22
ENDBRANCH   9  18
ENDBRANCH   8   9
ENDBRANCH   6   8
ENDBRANCH   5   6
ENDBRANCH   4   5
ENDBRANCH   3   4
ENDBRANCH   2   3
ENDBRANCH   1   2
BRANCH   1  32
ATOM     32  C   UNL A   1      33.632  20.354  25.097  1.00  0.00     0.188 C 
BRANCH  32  33
ATOM     33  O   UNL A   1      34.937  20.090  24.609  1.00  0.00    -0.376 OA
BRANCH  33  34
ATOM     34  C   UNL A   1      36.083  20.634  25.262  1.00  0.00     0.202 C 
BRANCH  34  35
ATOM     35  C   UNL A   1      37.505  20.096  25.019  1.00  0.00     0.261 C 
BRANCH  35  36
ATOM     36  O   UNL A   1      38.556  21.052  25.118  1.00  0.00    -0.460 OA
BRANCH  36  37
ATOM     37  C   UNL A   1      39.516  20.767  26.025  1.00  0.00     0.338 C 
ATOM     38  O   UNL A   1      40.060  19.696  26.206  1.00  0.00    -0.246 OA
BRANCH  37  39
ATOM     39  C   UNL A   1      39.928  22.066  26.604  1.00  0.00     0.060 A 
ATOM     40  C   UNL A   1      39.182  23.201  26.275  1.00  0.00     0.016 A 
ATOM     41  C   UNL A   1      40.961  22.150  27.543  1.00  0.00     0.016 A 
ATOM     42  C   UNL A   1      39.498  24.437  26.826  1.00  0.00     0.010 A 
ATOM     43  C   UNL A   1      41.286  23.389  28.095  1.00  0.00     0.010 A 
ATOM     44  C   UNL A   1      40.584  24.543  27.700  1.00  0.00    -0.014 A 
BRANCH  44  45
ATOM     45  C   UNL A   1      41.154  25.881  27.968  1.00  0.00     0.031 A 
ATOM     46  C   UNL A   1      42.531  26.164  27.438  1.00  0.00     0.074 A 
ATOM     47  C   UNL A   1      40.459  26.833  28.611  1.00  0.00     0.049 A 
ATOM     48  N   UNL A   1      43.268  27.236  27.560  1.00  0.00    -0.248 NA
ATOM     49  C   UNL A   1      43.166  25.079  26.668  1.00  0.00     0.031 C 
ATOM     50  C   UNL A   1      39.102  26.690  29.131  1.00  0.00     0.029 A 
ATOM     51  N   UNL A   1      40.816  28.116  28.940  1.00  0.00    -0.354 N 
ATOM     52  C   UNL A   1      44.455  26.948  26.899  1.00  0.00     0.074 A 
ATOM     53  C   UNL A   1      44.357  25.593  26.410  1.00  0.00     0.031 C 
ATOM     54  C   UNL A   1      38.743  27.839  29.730  1.00  0.00     0.029 A 
ATOM     55  C   UNL A   1      39.856  28.786  29.656  1.00  0.00     0.049 A 
ATOM     56  H   UNL A   1      41.678  28.517  28.686  1.00  0.00     0.167 HD
ATOM     57  C   UNL A   1      45.529  27.747  26.703  1.00  0.00     0.037 A 
ATOM     58  C   UNL A   1      39.888  30.017  30.203  1.00  0.00     0.037 A 
ATOM     59  C   UNL A   1      45.623  29.097  27.185  1.00  0.00     0.049 A 
ATOM     60  C   UNL A   1      41.110  30.876  30.013  1.00  0.00     0.074 A 
ATOM     61  C   UNL A   1      46.661  29.997  27.038  1.00  0.00     0.029 A 
ATOM     62  N   UNL A   1      44.634  29.737  27.919  1.00  0.00    -0.354 N 
ATOM     63  N   UNL A   1      42.224  30.603  29.376  1.00  0.00    -0.248 NA
ATOM     64  C   UNL A   1      41.076  32.218  30.613  1.00  0.00     0.031 C 
ATOM     65  C   UNL A   1      46.317  31.171  27.718  1.00  0.00     0.029 A 
ATOM     66  C   UNL A   1      45.045  31.018  28.246  1.00  0.00     0.049 A 
ATOM     67  H   UNL A   1      43.768  29.340  28.167  1.00  0.00     0.167 HD
ATOM     68  C   UNL A   1      43.013  31.743  29.478  1.00  0.00     0.074 A 
ATOM     69  C   UNL A   1      42.242  32.715  30.225  1.00  0.00     0.031 C 
ATOM     70  C   UNL A   1      44.260  31.968  28.994  1.00  0.00     0.037 A 
BRANCH  57  71
ATOM     71  C   UNL A   1      46.692  27.148  25.969  1.00  0.00     0.057 A 
ATOM     72  C   UNL A   1      47.637  26.335  26.608  1.00  0.00     0.134 A 
ATOM     73  C   UNL A   1      46.888  27.420  24.609  1.00  0.00     0.134 A 
ATOM     74  F   UNL A   1      47.522  26.058  27.916  1.00  0.00    -0.206 F 
ATOM     75  C   UNL A   1      48.756  25.845  25.932  1.00  0.00     0.040 A 
ATOM     76  C   UNL A   1      47.986  26.912  23.914  1.00  0.00     0.040 A 
ATOM     77  F   UNL A   1      46.022  28.194  23.938  1.00  0.00    -0.206 F 
ATOM     78  C   UNL A   1      48.930  26.132  24.579  1.00  0.00     0.006 A 
ENDBRANCH  57  71
BRANCH  58  79
ATOM     79  C   UNL A   1      38.729  30.501  30.994  1.00  0.00     0.057 A 
ATOM     80  C   UNL A   1      37.682  31.211  30.396  1.00  0.00     0.134 A 
ATOM     81  C   UNL A   1      38.645  30.266  32.371  1.00  0.00     0.134 A 
ATOM     82  F   UNL A   1      37.717  31.489  29.085  1.00  0.00    -0.206 F 
ATOM     83  C   UNL A   1      36.597  31.680  31.141  1.00  0.00     0.040 A 
ATOM     84  C   UNL A   1      37.556  30.707  33.125  1.00  0.00     0.040 A 
ATOM     85  F   UNL A   1      39.616  29.591  33.004  1.00  0.00    -0.206 F 
ATOM     86  C   UNL A   1      36.530  31.421  32.509  1.00  0.00     0.006 A 
ENDBRANCH  58  79
BRANCH  70  87
ATOM     87  C   UNL A   1      44.855  33.325  29.233  1.00  0.00     0.057 A 
ATOM     88  C   UNL A   1      44.600  34.406  28.379  1.00  0.00     0.134 A 
ATOM     89  C   UNL A   1      45.659  33.563  30.354  1.00  0.00     0.134 A 
ATOM     90  F   UNL A   1      43.845  34.243  27.281  1.00  0.00    -0.206 F 
ATOM     91  C   UNL A   1      45.146  35.668  28.619  1.00  0.00     0.040 A 
ATOM     92  C   UNL A   1      46.188  34.826  30.620  1.00  0.00     0.040 A 
ATOM     93  F   UNL A   1      45.932  32.574  31.219  1.00  0.00    -0.206 F 
ATOM     94  C   UNL A   1      45.938  35.882  29.746  1.00  0.00     0.006 A 
ENDBRANCH  70  87
ENDBRANCH  44  45
ENDBRANCH  37  39
ENDBRANCH  36  37
ENDBRANCH  35  36
ENDBRANCH  34  35
ENDBRANCH  33  34
ENDBRANCH  32  33
ENDBRANCH   1  32
TORSDOF 23
ENDMDL
