MODEL 1
REMARK VINA RESULT:     -11.8      0.000      0.000
REMARK SMILES O=C(OCCOCCOCCOC(=O)c1ccccc1-c1ccccc1C(=O)N1CC[NH+](Cc2ccc3c(c2)OCO3)CC1)c1ccc(-c2c3nc(c(-c4c(F)cccc4F)c4ccc([nH]4)c(-c4c(F)cccc4F)c4nc(c(-c5c(F)cccc5F)c5ccc2[nH]5)C=C4)C=C3)cc1
REMARK SMILES IDX 8 1 7 2 6 3 5 4 4 5 3 6 2 7 1 8 45 9 46 10 98 11 47 12 97 13
REMARK SMILES IDX 48 14 49 15 50 16 91 17 51 18 96 19 90 20 92 21 52 22 95 23
REMARK SMILES IDX 89 24 88 25 53 27 79 28 62 29 78 30 63 31 66 32 77 33 93 34
REMARK SMILES IDX 64 35 65 36 76 38 94 39 67 40 54 41 55 42 60 43 56 44 57 45
REMARK SMILES IDX 59 46 61 47 58 48 80 49 81 50 86 51 82 52 83 53 85 54 87 55
REMARK SMILES IDX 84 56 68 57 69 58 74 59 70 60 71 61 73 62 75 63 72 64 9 65
REMARK SMILES IDX 10 66 11 67 12 68 13 69 14 70 15 71 16 72 20 73 17 74 19 75
REMARK SMILES IDX 18 76 21 77 22 78 26 79 23 80 25 81 24 82 27 83 28 84 29 85
REMARK SMILES IDX 30 86 44 87 31 88 43 89 32 90 33 92 34 93 35 94 39 95 36 96
REMARK SMILES IDX 38 97 37 98 40 99 42 100 41 101
REMARK H PARENT 92 26 66 37 32 91
REMARK Flexibility Score: inf
ROOT
ATOM      1  C   UNL A   1      34.805  33.773  28.123  1.00  0.00     0.188 C 
ENDROOT
BRANCH   1   2
ATOM      2  C   UNL A   1      33.485  34.154  28.812  1.00  0.00     0.188 C 
BRANCH   2   3
ATOM      3  O   UNL A   1      33.660  34.337  30.221  1.00  0.00    -0.376 OA
BRANCH   3   4
ATOM      4  C   UNL A   1      34.983  34.626  30.637  1.00  0.00     0.202 C 
BRANCH   4   5
ATOM      5  C   UNL A   1      35.116  34.539  32.161  1.00  0.00     0.261 C 
BRANCH   5   6
ATOM      6  O   UNL A   1      35.967  33.444  32.549  1.00  0.00    -0.460 OA
BRANCH   6   7
ATOM      7  C   UNL A   1      35.922  32.149  32.144  1.00  0.00     0.338 C 
ATOM      8  O   UNL A   1      34.834  31.575  32.145  1.00  0.00    -0.246 OA
BRANCH   7   9
ATOM      9  C   UNL A   1      37.093  31.403  31.577  1.00  0.00     0.060 A 
ATOM     10  C   UNL A   1      38.058  30.718  32.317  1.00  0.00     0.016 A 
ATOM     11  C   UNL A   1      37.193  31.354  30.172  1.00  0.00     0.016 A 
ATOM     12  C   UNL A   1      39.164  30.127  31.697  1.00  0.00     0.010 A 
ATOM     13  C   UNL A   1      38.269  30.716  29.540  1.00  0.00     0.010 A 
ATOM     14  C   UNL A   1      39.295  30.151  30.307  1.00  0.00    -0.014 A 
BRANCH  14  15
ATOM     15  C   UNL A   1      40.584  29.739  29.697  1.00  0.00     0.031 A 
ATOM     16  C   UNL A   1      40.706  28.339  29.184  1.00  0.00     0.074 A 
ATOM     17  C   UNL A   1      41.582  30.618  29.500  1.00  0.00     0.049 A 
ATOM     18  N   UNL A   1      41.689  27.787  28.524  1.00  0.00    -0.248 NA
ATOM     19  C   UNL A   1      39.557  27.448  29.418  1.00  0.00     0.031 C 
ATOM     20  C   UNL A   1      41.525  32.020  29.876  1.00  0.00     0.029 A 
ATOM     21  N   UNL A   1      42.819  30.488  28.922  1.00  0.00    -0.354 N 
ATOM     22  C   UNL A   1      41.275  26.490  28.258  1.00  0.00     0.074 A 
ATOM     23  C   UNL A   1      39.967  26.324  28.854  1.00  0.00     0.031 C 
ATOM     24  C   UNL A   1      42.670  32.629  29.544  1.00  0.00     0.029 A 
ATOM     25  C   UNL A   1      43.540  31.661  28.901  1.00  0.00     0.049 A 
ATOM     26  H   UNL A   1      43.158  29.639  28.558  1.00  0.00     0.167 HD
ATOM     27  C   UNL A   1      41.925  25.528  27.567  1.00  0.00     0.037 A 
ATOM     28  C   UNL A   1      44.755  31.935  28.394  1.00  0.00     0.037 A 
ATOM     29  C   UNL A   1      43.232  25.699  26.997  1.00  0.00     0.049 A 
ATOM     30  C   UNL A   1      45.480  30.835  27.677  1.00  0.00     0.074 A 
ATOM     31  C   UNL A   1      44.014  24.774  26.331  1.00  0.00     0.029 A 
ATOM     32  N   UNL A   1      43.951  26.887  27.031  1.00  0.00    -0.354 N 
ATOM     33  N   UNL A   1      45.079  29.609  27.442  1.00  0.00    -0.248 NA
ATOM     34  C   UNL A   1      46.808  31.152  27.144  1.00  0.00     0.031 C 
ATOM     35  C   UNL A   1      45.223  25.395  25.991  1.00  0.00     0.029 A 
ATOM     36  C   UNL A   1      45.177  26.715  26.412  1.00  0.00     0.049 A 
ATOM     37  H   UNL A   1      43.636  27.726  27.436  1.00  0.00     0.167 HD
ATOM     38  C   UNL A   1      46.097  29.010  26.719  1.00  0.00     0.074 A 
ATOM     39  C   UNL A   1      47.125  30.017  26.537  1.00  0.00     0.031 C 
ATOM     40  C   UNL A   1      46.178  27.740  26.253  1.00  0.00     0.037 A 
BRANCH  27  41
ATOM     41  C   UNL A   1      41.230  24.207  27.460  1.00  0.00     0.057 A 
ATOM     42  C   UNL A   1      41.646  23.090  28.198  1.00  0.00     0.134 A 
ATOM     43  C   UNL A   1      40.183  24.030  26.547  1.00  0.00     0.134 A 
ATOM     44  F   UNL A   1      42.669  23.188  29.060  1.00  0.00    -0.206 F 
ATOM     45  C   UNL A   1      41.064  21.835  28.008  1.00  0.00     0.040 A 
ATOM     46  C   UNL A   1      39.581  22.785  26.364  1.00  0.00     0.040 A 
ATOM     47  F   UNL A   1      39.751  25.056  25.801  1.00  0.00    -0.206 F 
ATOM     48  C   UNL A   1      40.028  21.681  27.088  1.00  0.00     0.006 A 
ENDBRANCH  27  41
BRANCH  28  49
ATOM     49  C   UNL A   1      45.323  33.304  28.496  1.00  0.00     0.057 A 
ATOM     50  C   UNL A   1      45.107  34.255  27.491  1.00  0.00     0.134 A 
ATOM     51  C   UNL A   1      46.075  33.706  29.608  1.00  0.00     0.134 A 
ATOM     52  F   UNL A   1      44.402  33.934  26.398  1.00  0.00    -0.206 F 
ATOM     53  C   UNL A   1      45.631  35.548  27.579  1.00  0.00     0.040 A 
ATOM     54  C   UNL A   1      46.588  35.000  29.719  1.00  0.00     0.040 A 
ATOM     55  F   UNL A   1      46.308  32.849  30.613  1.00  0.00    -0.206 F 
ATOM     56  C   UNL A   1      46.371  35.925  28.699  1.00  0.00     0.006 A 
ENDBRANCH  28  49
BRANCH  40  57
ATOM     57  C   UNL A   1      47.422  27.385  25.501  1.00  0.00     0.057 A 
ATOM     58  C   UNL A   1      47.536  27.622  24.127  1.00  0.00     0.134 A 
ATOM     59  C   UNL A   1      48.520  26.828  26.164  1.00  0.00     0.134 A 
ATOM     60  F   UNL A   1      46.507  28.140  23.438  1.00  0.00    -0.206 F 
ATOM     61  C   UNL A   1      48.698  27.296  23.430  1.00  0.00     0.040 A 
ATOM     62  C   UNL A   1      49.695  26.517  25.483  1.00  0.00     0.040 A 
ATOM     63  F   UNL A   1      48.468  26.581  27.482  1.00  0.00    -0.206 F 
ATOM     64  C   UNL A   1      49.784  26.747  24.111  1.00  0.00     0.006 A 
ENDBRANCH  40  57
ENDBRANCH  14  15
ENDBRANCH   7   9
ENDBRANCH   6   7
ENDBRANCH   5   6
ENDBRANCH   4   5
ENDBRANCH   3   4
ENDBRANCH   2   3
ENDBRANCH   1   2
BRANCH   1  65
ATOM     65  O   UNL A   1      34.877  32.419  27.664  1.00  0.00    -0.376 OA
BRANCH  65  66
ATOM     66  C   UNL A   1      33.638  31.711  27.710  1.00  0.00     0.202 C 
BRANCH  66  67
ATOM     67  C   UNL A   1      33.700  30.413  26.900  1.00  0.00     0.261 C 
BRANCH  67  68
ATOM     68  O   UNL A   1      32.822  30.214  25.757  1.00  0.00    -0.460 OA
BRANCH  68  69
ATOM     69  C   UNL A   1      32.101  29.084  25.624  1.00  0.00     0.338 C 
ATOM     70  O   UNL A   1      31.281  28.647  26.407  1.00  0.00    -0.246 OA
BRANCH  69  71
ATOM     71  C   UNL A   1      32.387  28.309  24.387  1.00  0.00     0.067 A 
ATOM     72  C   UNL A   1      33.697  27.790  24.286  1.00  0.00     0.016 A 
ATOM     73  C   UNL A   1      31.519  28.213  23.284  1.00  0.00    -0.003 A 
ATOM     74  C   UNL A   1      34.142  27.158  23.127  1.00  0.00     0.001 A 
ATOM     75  C   UNL A   1      31.982  27.543  22.129  1.00  0.00     0.009 A 
ATOM     76  C   UNL A   1      33.276  27.022  22.050  1.00  0.00     0.001 A 
BRANCH  73  77
ATOM     77  C   UNL A   1      30.155  28.757  23.271  1.00  0.00    -0.005 A 
ATOM     78  C   UNL A   1      30.031  30.119  22.900  1.00  0.00     0.009 A 
ATOM     79  C   UNL A   1      28.980  28.015  23.527  1.00  0.00     0.047 A 
ATOM     80  C   UNL A   1      28.790  30.737  22.758  1.00  0.00     0.001 A 
ATOM     81  C   UNL A   1      27.733  28.667  23.381  1.00  0.00     0.014 A 
ATOM     82  C   UNL A   1      27.638  30.007  22.997  1.00  0.00     0.001 A 
BRANCH  79  83
ATOM     83  C   UNL A   1      28.892  26.530  23.791  1.00  0.00     0.254 C 
ATOM     84  O   UNL A   1      27.851  25.937  23.500  1.00  0.00    -0.269 OA
ATOM     85  N   UNL A   1      30.005  25.830  24.260  1.00  0.00    -0.327 N 
ATOM     86  C   UNL A   1      30.292  24.574  23.574  1.00  0.00     0.181 C 
ATOM     87  C   UNL A   1      30.184  25.719  25.702  1.00  0.00     0.181 C 
ATOM     88  C   UNL A   1      31.710  24.060  23.883  1.00  0.00     0.284 C 
ATOM     89  C   UNL A   1      31.502  25.017  26.132  1.00  0.00     0.284 C 
ATOM     90  N   UNL A   1      32.028  23.914  25.314  1.00  0.00    -0.328 N 
ATOM     91  H   UNL A   1      33.037  24.034  25.387  1.00  0.00     0.348 HD
BRANCH  90  92
ATOM     92  C   UNL A   1      31.908  22.554  25.852  1.00  0.00     0.299 C 
BRANCH  92  93
ATOM     93  C   UNL A   1      32.766  21.533  25.139  1.00  0.00     0.010 A 
ATOM     94  C   UNL A   1      34.171  21.580  25.268  1.00  0.00     0.013 A 
ATOM     95  C   UNL A   1      32.146  20.403  24.574  1.00  0.00     0.060 A 
ATOM     96  C   UNL A   1      34.944  20.450  24.996  1.00  0.00     0.051 A 
ATOM     97  C   UNL A   1      32.921  19.284  24.403  1.00  0.00     0.166 A 
ATOM     98  C   UNL A   1      34.278  19.300  24.632  1.00  0.00     0.165 A 
ATOM     99  O   UNL A   1      32.448  18.025  24.183  1.00  0.00    -0.454 OA
ATOM    100  O   UNL A   1      34.815  18.048  24.577  1.00  0.00    -0.454 OA
ATOM    101  C   UNL A   1      33.602  17.265  24.596  1.00  0.00     0.468 C 
ENDBRANCH  92  93
ENDBRANCH  90  92
ENDBRANCH  79  83
ENDBRANCH  73  77
ENDBRANCH  69  71
ENDBRANCH  68  69
ENDBRANCH  67  68
ENDBRANCH  66  67
ENDBRANCH  65  66
ENDBRANCH   1  65
TORSDOF 21
ENDMDL
MODEL 2
REMARK VINA RESULT:     -11.4      4.463      7.878
REMARK SMILES O=C(OCCOCCOCCOC(=O)c1ccccc1-c1ccccc1C(=O)N1CC[NH+](Cc2ccc3c(c2)OCO3)CC1)c1ccc(-c2c3nc(c(-c4c(F)cccc4F)c4ccc([nH]4)c(-c4c(F)cccc4F)c4nc(c(-c5c(F)cccc5F)c5ccc2[nH]5)C=C4)C=C3)cc1
REMARK SMILES IDX 8 1 7 2 6 3 5 4 4 5 3 6 2 7 1 8 45 9 46 10 98 11 47 12 97 13
REMARK SMILES IDX 48 14 49 15 50 16 91 17 51 18 96 19 90 20 92 21 52 22 95 23
REMARK SMILES IDX 89 24 88 25 53 27 79 28 62 29 78 30 63 31 66 32 77 33 93 34
REMARK SMILES IDX 64 35 65 36 76 38 94 39 67 40 54 41 55 42 60 43 56 44 57 45
REMARK SMILES IDX 59 46 61 47 58 48 80 49 81 50 86 51 82 52 83 53 85 54 87 55
REMARK SMILES IDX 84 56 68 57 69 58 74 59 70 60 71 61 73 62 75 63 72 64 9 65
REMARK SMILES IDX 10 66 11 67 12 68 13 69 14 70 15 71 16 72 20 73 17 74 19 75
REMARK SMILES IDX 18 76 21 77 22 78 26 79 23 80 25 81 24 82 27 83 28 84 29 85
REMARK SMILES IDX 30 86 44 87 31 88 43 89 32 90 33 92 34 93 35 94 39 95 36 96
REMARK SMILES IDX 38 97 37 98 40 99 42 100 41 101
REMARK H PARENT 92 26 66 37 32 91
REMARK Flexibility Score: inf
ROOT
ATOM      1  C   UNL A   1      34.504  33.543  27.999  1.00  0.00     0.188 C 
ENDROOT
BRANCH   1   2
ATOM      2  C   UNL A   1      32.989  33.796  27.930  1.00  0.00     0.188 C 
BRANCH   2   3
ATOM      3  O   UNL A   1      32.539  34.602  29.024  1.00  0.00    -0.376 OA
BRANCH   3   4
ATOM      4  C   UNL A   1      33.432  35.622  29.436  1.00  0.00     0.202 C 
BRANCH   4   5
ATOM      5  C   UNL A   1      32.692  36.740  30.176  1.00  0.00     0.261 C 
BRANCH   5   6
ATOM      6  O   UNL A   1      32.862  36.623  31.602  1.00  0.00    -0.460 OA
BRANCH   6   7
ATOM      7  C   UNL A   1      33.025  35.501  32.348  1.00  0.00     0.338 C 
ATOM      8  O   UNL A   1      32.033  34.815  32.595  1.00  0.00    -0.246 OA
BRANCH   7   9
ATOM      9  C   UNL A   1      34.356  34.972  32.791  1.00  0.00     0.060 A 
ATOM     10  C   UNL A   1      35.596  35.552  32.517  1.00  0.00     0.016 A 
ATOM     11  C   UNL A   1      34.342  33.815  33.597  1.00  0.00     0.016 A 
ATOM     12  C   UNL A   1      36.789  34.932  32.902  1.00  0.00     0.010 A 
ATOM     13  C   UNL A   1      35.532  33.217  34.033  1.00  0.00     0.010 A 
ATOM     14  C   UNL A   1      36.766  33.743  33.633  1.00  0.00    -0.014 A 
BRANCH  14  15
ATOM     15  C   UNL A   1      38.029  32.984  33.813  1.00  0.00     0.031 A 
ATOM     16  C   UNL A   1      38.832  33.233  35.051  1.00  0.00     0.074 A 
ATOM     17  C   UNL A   1      38.396  32.015  32.956  1.00  0.00     0.049 A 
ATOM     18  N   UNL A   1      39.905  32.620  35.474  1.00  0.00    -0.248 NA
ATOM     19  C   UNL A   1      38.345  34.293  35.950  1.00  0.00     0.031 C 
ATOM     20  C   UNL A   1      37.638  31.633  31.778  1.00  0.00     0.029 A 
ATOM     21  N   UNL A   1      39.469  31.160  32.942  1.00  0.00    -0.354 N 
ATOM     22  C   UNL A   1      40.217  33.214  36.687  1.00  0.00     0.074 A 
ATOM     23  C   UNL A   1      39.242  34.256  36.921  1.00  0.00     0.031 C 
ATOM     24  C   UNL A   1      38.262  30.638  31.135  1.00  0.00     0.029 A 
ATOM     25  C   UNL A   1      39.461  30.288  31.876  1.00  0.00     0.049 A 
ATOM     26  H   UNL A   1      40.176  31.170  33.626  1.00  0.00     0.167 HD
ATOM     27  C   UNL A   1      41.224  32.907  37.536  1.00  0.00     0.037 A 
ATOM     28  C   UNL A   1      40.307  29.296  31.548  1.00  0.00     0.037 A 
ATOM     29  C   UNL A   1      42.197  31.882  37.284  1.00  0.00     0.049 A 
ATOM     30  C   UNL A   1      41.446  29.009  32.480  1.00  0.00     0.074 A 
ATOM     31  C   UNL A   1      43.297  31.526  38.041  1.00  0.00     0.029 A 
ATOM     32  N   UNL A   1      42.183  31.046  36.174  1.00  0.00    -0.354 N 
ATOM     33  N   UNL A   1      41.735  29.586  33.621  1.00  0.00    -0.248 NA
ATOM     34  C   UNL A   1      42.364  27.932  32.095  1.00  0.00     0.031 C 
ATOM     35  C   UNL A   1      43.968  30.495  37.373  1.00  0.00     0.029 A 
ATOM     36  C   UNL A   1      43.264  30.184  36.218  1.00  0.00     0.049 A 
ATOM     37  H   UNL A   1      41.504  31.064  35.462  1.00  0.00     0.167 HD
ATOM     38  C   UNL A   1      42.858  28.935  34.102  1.00  0.00     0.074 A 
ATOM     39  C   UNL A   1      43.185  27.903  33.136  1.00  0.00     0.031 C 
ATOM     40  C   UNL A   1      43.561  29.172  35.236  1.00  0.00     0.037 A 
BRANCH  27  41
ATOM     41  C   UNL A   1      41.322  33.743  38.773  1.00  0.00     0.057 A 
ATOM     42  C   UNL A   1      42.180  34.849  38.853  1.00  0.00     0.134 A 
ATOM     43  C   UNL A   1      40.611  33.389  39.926  1.00  0.00     0.134 A 
ATOM     44  F   UNL A   1      42.917  35.214  37.793  1.00  0.00    -0.206 F 
ATOM     45  C   UNL A   1      42.349  35.555  40.045  1.00  0.00     0.040 A 
ATOM     46  C   UNL A   1      40.757  34.099  41.117  1.00  0.00     0.040 A 
ATOM     47  F   UNL A   1      39.786  32.332  39.918  1.00  0.00    -0.206 F 
ATOM     48  C   UNL A   1      41.636  35.179  41.182  1.00  0.00     0.006 A 
ENDBRANCH  27  41
BRANCH  28  49
ATOM     49  C   UNL A   1      40.074  28.480  30.328  1.00  0.00     0.057 A 
ATOM     50  C   UNL A   1      40.698  28.795  29.115  1.00  0.00     0.134 A 
ATOM     51  C   UNL A   1      39.241  27.354  30.347  1.00  0.00     0.134 A 
ATOM     52  F   UNL A   1      41.502  29.864  29.027  1.00  0.00    -0.206 F 
ATOM     53  C   UNL A   1      40.491  28.032  27.963  1.00  0.00     0.040 A 
ATOM     54  C   UNL A   1      39.041  26.570  29.208  1.00  0.00     0.040 A 
ATOM     55  F   UNL A   1      38.623  26.987  31.479  1.00  0.00    -0.206 F 
ATOM     56  C   UNL A   1      39.662  26.912  28.009  1.00  0.00     0.006 A 
ENDBRANCH  28  49
BRANCH  40  57
ATOM     57  C   UNL A   1      44.744  28.291  35.482  1.00  0.00     0.057 A 
ATOM     58  C   UNL A   1      46.011  28.618  34.985  1.00  0.00     0.134 A 
ATOM     59  C   UNL A   1      44.618  27.123  36.240  1.00  0.00     0.134 A 
ATOM     60  F   UNL A   1      46.186  29.718  34.237  1.00  0.00    -0.206 F 
ATOM     61  C   UNL A   1      47.114  27.798  35.221  1.00  0.00     0.040 A 
ATOM     62  C   UNL A   1      45.718  26.306  36.500  1.00  0.00     0.040 A 
ATOM     63  F   UNL A   1      43.428  26.760  36.743  1.00  0.00    -0.206 F 
ATOM     64  C   UNL A   1      46.969  26.642  35.985  1.00  0.00     0.006 A 
ENDBRANCH  40  57
ENDBRANCH  14  15
ENDBRANCH   7   9
ENDBRANCH   6   7
ENDBRANCH   5   6
ENDBRANCH   4   5
ENDBRANCH   3   4
ENDBRANCH   2   3
ENDBRANCH   1   2
BRANCH   1  65
ATOM     65  O   UNL A   1      34.905  32.200  27.710  1.00  0.00    -0.376 OA
BRANCH  65  66
ATOM     66  C   UNL A   1      33.880  31.223  27.891  1.00  0.00     0.202 C 
BRANCH  66  67
ATOM     67  C   UNL A   1      34.000  30.085  26.874  1.00  0.00     0.261 C 
BRANCH  67  68
ATOM     68  O   UNL A   1      33.173  30.075  25.677  1.00  0.00    -0.460 OA
BRANCH  68  69
ATOM     69  C   UNL A   1      32.257  29.109  25.474  1.00  0.00     0.338 C 
ATOM     70  O   UNL A   1      31.298  28.856  26.176  1.00  0.00    -0.246 OA
BRANCH  69  71
ATOM     71  C   UNL A   1      32.495  28.274  24.267  1.00  0.00     0.067 A 
ATOM     72  C   UNL A   1      33.800  27.748  24.141  1.00  0.00     0.016 A 
ATOM     73  C   UNL A   1      31.585  28.124  23.204  1.00  0.00    -0.003 A 
ATOM     74  C   UNL A   1      34.200  27.058  22.998  1.00  0.00     0.001 A 
ATOM     75  C   UNL A   1      32.003  27.398  22.066  1.00  0.00     0.009 A 
ATOM     76  C   UNL A   1      33.293  26.871  21.963  1.00  0.00     0.001 A 
BRANCH  73  77
ATOM     77  C   UNL A   1      30.221  28.669  23.218  1.00  0.00    -0.005 A 
ATOM     78  C   UNL A   1      30.085  30.019  22.808  1.00  0.00     0.009 A 
ATOM     79  C   UNL A   1      29.055  27.936  23.533  1.00  0.00     0.047 A 
ATOM     80  C   UNL A   1      28.841  30.634  22.686  1.00  0.00     0.001 A 
ATOM     81  C   UNL A   1      27.804  28.585  23.407  1.00  0.00     0.014 A 
ATOM     82  C   UNL A   1      27.697  29.913  22.984  1.00  0.00     0.001 A 
BRANCH  79  83
ATOM     83  C   UNL A   1      28.975  26.461  23.846  1.00  0.00     0.254 C 
ATOM     84  O   UNL A   1      27.923  25.862  23.615  1.00  0.00    -0.269 OA
ATOM     85  N   UNL A   1      30.104  25.773  24.292  1.00  0.00    -0.327 N 
ATOM     86  C   UNL A   1      30.362  24.495  23.634  1.00  0.00     0.181 C 
ATOM     87  C   UNL A   1      30.341  25.705  25.729  1.00  0.00     0.181 C 
ATOM     88  C   UNL A   1      31.791  23.987  23.903  1.00  0.00     0.284 C 
ATOM     89  C   UNL A   1      31.673  25.013  26.128  1.00  0.00     0.284 C 
ATOM     90  N   UNL A   1      32.165  23.884  25.324  1.00  0.00    -0.328 N 
ATOM     91  H   UNL A   1      33.177  24.003  25.353  1.00  0.00     0.348 HD
BRANCH  90  92
ATOM     92  C   UNL A   1      32.065  22.542  25.908  1.00  0.00     0.299 C 
BRANCH  92  93
ATOM     93  C   UNL A   1      32.842  21.485  25.156  1.00  0.00     0.010 A 
ATOM     94  C   UNL A   1      34.251  21.452  25.243  1.00  0.00     0.013 A 
ATOM     95  C   UNL A   1      32.143  20.398  24.598  1.00  0.00     0.060 A 
ATOM     96  C   UNL A   1      34.952  20.285  24.933  1.00  0.00     0.051 A 
ATOM     97  C   UNL A   1      32.850  19.240  24.389  1.00  0.00     0.166 A 
ATOM     98  C   UNL A   1      34.212  19.179  24.577  1.00  0.00     0.165 A 
ATOM     99  O   UNL A   1      32.301  18.013  24.169  1.00  0.00    -0.454 OA
ATOM    100  O   UNL A   1      34.676  17.900  24.490  1.00  0.00    -0.454 OA
ATOM    101  C   UNL A   1      33.423  17.184  24.538  1.00  0.00     0.468 C 
ENDBRANCH  92  93
ENDBRANCH  90  92
ENDBRANCH  79  83
ENDBRANCH  73  77
ENDBRANCH  69  71
ENDBRANCH  68  69
ENDBRANCH  67  68
ENDBRANCH  66  67
ENDBRANCH  65  66
ENDBRANCH   1  65
TORSDOF 21
ENDMDL
MODEL 3
REMARK VINA RESULT:     -11.3      3.176      8.342
REMARK SMILES O=C(OCCOCCOCCOC(=O)c1ccccc1-c1ccccc1C(=O)N1CC[NH+](Cc2ccc3c(c2)OCO3)CC1)c1ccc(-c2c3nc(c(-c4c(F)cccc4F)c4ccc([nH]4)c(-c4c(F)cccc4F)c4nc(c(-c5c(F)cccc5F)c5ccc2[nH]5)C=C4)C=C3)cc1
REMARK SMILES IDX 8 1 7 2 6 3 5 4 4 5 3 6 2 7 1 8 45 9 46 10 98 11 47 12 97 13
REMARK SMILES IDX 48 14 49 15 50 16 91 17 51 18 96 19 90 20 92 21 52 22 95 23
REMARK SMILES IDX 89 24 88 25 53 27 79 28 62 29 78 30 63 31 66 32 77 33 93 34
REMARK SMILES IDX 64 35 65 36 76 38 94 39 67 40 54 41 55 42 60 43 56 44 57 45
REMARK SMILES IDX 59 46 61 47 58 48 80 49 81 50 86 51 82 52 83 53 85 54 87 55
REMARK SMILES IDX 84 56 68 57 69 58 74 59 70 60 71 61 73 62 75 63 72 64 9 65
REMARK SMILES IDX 10 66 11 67 12 68 13 69 14 70 15 71 16 72 20 73 17 74 19 75
REMARK SMILES IDX 18 76 21 77 22 78 26 79 23 80 25 81 24 82 27 83 28 84 29 85
REMARK SMILES IDX 30 86 44 87 31 88 43 89 32 90 33 92 34 93 35 94 39 95 36 96
REMARK SMILES IDX 38 97 37 98 40 99 42 100 41 101
REMARK H PARENT 92 26 66 37 32 91
REMARK Flexibility Score: inf
ROOT
ATOM      1  C   UNL A   1      38.744  22.405  25.743  1.00  0.00     0.188 C 
ENDROOT
BRANCH   1   2
ATOM      2  C   UNL A   1      39.772  21.918  26.777  1.00  0.00     0.188 C 
BRANCH   2   3
ATOM      3  O   UNL A   1      39.882  20.490  26.778  1.00  0.00    -0.376 OA
BRANCH   3   4
ATOM      4  C   UNL A   1      40.740  19.946  25.791  1.00  0.00     0.202 C 
BRANCH   4   5
ATOM      5  C   UNL A   1      41.789  19.022  26.418  1.00  0.00     0.261 C 
BRANCH   5   6
ATOM      6  O   UNL A   1      43.100  19.280  25.882  1.00  0.00    -0.460 OA
BRANCH   6   7
ATOM      7  C   UNL A   1      43.597  20.437  25.373  1.00  0.00     0.338 C 
ATOM      8  O   UNL A   1      44.224  20.388  24.316  1.00  0.00    -0.246 OA
BRANCH   7   9
ATOM      9  C   UNL A   1      43.326  21.794  25.951  1.00  0.00     0.060 A 
ATOM     10  C   UNL A   1      43.038  22.948  25.220  1.00  0.00     0.016 A 
ATOM     11  C   UNL A   1      43.314  21.894  27.357  1.00  0.00     0.016 A 
ATOM     12  C   UNL A   1      42.887  24.188  25.850  1.00  0.00     0.010 A 
ATOM     13  C   UNL A   1      43.110  23.123  27.998  1.00  0.00     0.010 A 
ATOM     14  C   UNL A   1      42.956  24.290  27.241  1.00  0.00    -0.014 A 
BRANCH  14  15
ATOM     15  C   UNL A   1      43.039  25.636  27.861  1.00  0.00     0.031 A 
ATOM     16  C   UNL A   1      44.395  26.226  28.088  1.00  0.00     0.074 A 
ATOM     17  C   UNL A   1      41.937  26.364  28.112  1.00  0.00     0.049 A 
ATOM     18  N   UNL A   1      44.712  27.419  28.515  1.00  0.00    -0.248 NA
ATOM     19  C   UNL A   1      45.549  25.372  27.762  1.00  0.00     0.031 C 
ATOM     20  C   UNL A   1      40.582  25.918  27.839  1.00  0.00     0.029 A 
ATOM     21  N   UNL A   1      41.766  27.626  28.621  1.00  0.00    -0.354 N 
ATOM     22  C   UNL A   1      46.098  27.460  28.503  1.00  0.00     0.074 A 
ATOM     23  C   UNL A   1      46.564  26.166  28.058  1.00  0.00     0.031 C 
ATOM     24  C   UNL A   1      39.707  26.869  28.195  1.00  0.00     0.029 A 
ATOM     25  C   UNL A   1      40.447  28.012  28.699  1.00  0.00     0.049 A 
ATOM     26  H   UNL A   1      42.514  28.199  28.905  1.00  0.00     0.167 HD
ATOM     27  C   UNL A   1      46.909  28.493  28.825  1.00  0.00     0.037 A 
ATOM     28  C   UNL A   1      39.894  29.170  29.101  1.00  0.00     0.037 A 
ATOM     29  C   UNL A   1      46.434  29.768  29.284  1.00  0.00     0.049 A 
ATOM     30  C   UNL A   1      40.814  30.284  29.503  1.00  0.00     0.074 A 
ATOM     31  C   UNL A   1      47.163  30.866  29.699  1.00  0.00     0.029 A 
ATOM     32  N   UNL A   1      45.092  30.111  29.390  1.00  0.00    -0.354 N 
ATOM     33  N   UNL A   1      42.125  30.305  29.496  1.00  0.00    -0.248 NA
ATOM     34  C   UNL A   1      40.189  31.532  29.952  1.00  0.00     0.031 C 
ATOM     35  C   UNL A   1      46.261  31.864  30.087  1.00  0.00     0.029 A 
ATOM     36  C   UNL A   1      44.970  31.400  29.879  1.00  0.00     0.049 A 
ATOM     37  H   UNL A   1      44.338  29.524  29.153  1.00  0.00     0.167 HD
ATOM     38  C   UNL A   1      42.486  31.572  29.922  1.00  0.00     0.074 A 
ATOM     39  C   UNL A   1      41.252  32.298  30.160  1.00  0.00     0.031 C 
ATOM     40  C   UNL A   1      43.725  32.089  30.107  1.00  0.00     0.037 A 
BRANCH  27  41
ATOM     41  C   UNL A   1      48.379  28.232  28.733  1.00  0.00     0.057 A 
ATOM     42  C   UNL A   1      49.098  28.460  27.551  1.00  0.00     0.134 A 
ATOM     43  C   UNL A   1      49.068  27.670  29.813  1.00  0.00     0.134 A 
ATOM     44  F   UNL A   1      48.485  28.961  26.468  1.00  0.00    -0.206 F 
ATOM     45  C   UNL A   1      50.445  28.108  27.439  1.00  0.00     0.040 A 
ATOM     46  C   UNL A   1      50.418  27.333  29.720  1.00  0.00     0.040 A 
ATOM     47  F   UNL A   1      48.432  27.413  30.966  1.00  0.00    -0.206 F 
ATOM     48  C   UNL A   1      51.107  27.543  28.527  1.00  0.00     0.006 A 
ENDBRANCH  27  41
BRANCH  28  49
ATOM     49  C   UNL A   1      38.418  29.345  29.087  1.00  0.00     0.057 A 
ATOM     50  C   UNL A   1      37.666  29.255  30.264  1.00  0.00     0.134 A 
ATOM     51  C   UNL A   1      37.725  29.628  27.903  1.00  0.00     0.134 A 
ATOM     52  F   UNL A   1      38.267  28.981  31.430  1.00  0.00    -0.206 F 
ATOM     53  C   UNL A   1      36.279  29.424  30.264  1.00  0.00     0.040 A 
ATOM     54  C   UNL A   1      36.341  29.819  27.890  1.00  0.00     0.040 A 
ATOM     55  F   UNL A   1      38.385  29.741  26.741  1.00  0.00    -0.206 F 
ATOM     56  C   UNL A   1      35.613  29.711  29.073  1.00  0.00     0.006 A 
ENDBRANCH  28  49
BRANCH  40  57
ATOM     57  C   UNL A   1      43.791  33.504  30.586  1.00  0.00     0.057 A 
ATOM     58  C   UNL A   1      43.826  33.811  31.951  1.00  0.00     0.134 A 
ATOM     59  C   UNL A   1      43.846  34.563  29.673  1.00  0.00     0.134 A 
ATOM     60  F   UNL A   1      43.760  32.836  32.869  1.00  0.00    -0.206 F 
ATOM     61  C   UNL A   1      43.894  35.131  32.394  1.00  0.00     0.040 A 
ATOM     62  C   UNL A   1      43.934  35.885  30.104  1.00  0.00     0.040 A 
ATOM     63  F   UNL A   1      43.817  34.328  28.352  1.00  0.00    -0.206 F 
ATOM     64  C   UNL A   1      43.954  36.172  31.468  1.00  0.00     0.006 A 
ENDBRANCH  40  57
ENDBRANCH  14  15
ENDBRANCH   7   9
ENDBRANCH   6   7
ENDBRANCH   5   6
ENDBRANCH   4   5
ENDBRANCH   3   4
ENDBRANCH   2   3
ENDBRANCH   1   2
BRANCH   1  65
ATOM     65  O   UNL A   1      37.506  21.686  25.739  1.00  0.00    -0.376 OA
BRANCH  65  66
ATOM     66  C   UNL A   1      36.638  22.008  24.652  1.00  0.00     0.202 C 
BRANCH  66  67
ATOM     67  C   UNL A   1      36.286  23.497  24.634  1.00  0.00     0.261 C 
BRANCH  67  68
ATOM     68  O   UNL A   1      35.074  23.961  23.975  1.00  0.00    -0.460 OA
BRANCH  68  69
ATOM     69  C   UNL A   1      34.516  25.143  24.301  1.00  0.00     0.338 C 
ATOM     70  O   UNL A   1      34.780  25.831  25.266  1.00  0.00    -0.246 OA
BRANCH  69  71
ATOM     71  C   UNL A   1      33.455  25.605  23.367  1.00  0.00     0.067 A 
ATOM     72  C   UNL A   1      33.500  25.042  22.072  1.00  0.00     0.016 A 
ATOM     73  C   UNL A   1      32.552  26.651  23.634  1.00  0.00    -0.003 A 
ATOM     74  C   UNL A   1      32.650  25.480  21.058  1.00  0.00     0.001 A 
ATOM     75  C   UNL A   1      31.681  27.059  22.599  1.00  0.00     0.009 A 
ATOM     76  C   UNL A   1      31.728  26.482  21.327  1.00  0.00     0.001 A 
BRANCH  73  77
ATOM     77  C   UNL A   1      32.456  27.331  24.932  1.00  0.00    -0.005 A 
ATOM     78  C   UNL A   1      32.965  28.653  24.982  1.00  0.00     0.009 A 
ATOM     79  C   UNL A   1      31.840  26.799  26.086  1.00  0.00     0.047 A 
ATOM     80  C   UNL A   1      32.856  29.446  26.122  1.00  0.00     0.001 A 
ATOM     81  C   UNL A   1      31.746  27.622  27.234  1.00  0.00     0.014 A 
ATOM     82  C   UNL A   1      32.242  28.929  27.251  1.00  0.00     0.001 A 
BRANCH  79  83
ATOM     83  C   UNL A   1      31.113  25.479  26.192  1.00  0.00     0.254 C 
ATOM     84  O   UNL A   1      29.918  25.483  26.494  1.00  0.00    -0.269 OA
ATOM     85  N   UNL A   1      31.760  24.289  25.856  1.00  0.00    -0.327 N 
ATOM     86  C   UNL A   1      31.002  23.382  25.001  1.00  0.00     0.181 C 
ATOM     87  C   UNL A   1      32.475  23.578  26.910  1.00  0.00     0.181 C 
ATOM     88  C   UNL A   1      31.897  22.293  24.379  1.00  0.00     0.284 C 
ATOM     89  C   UNL A   1      33.252  22.324  26.423  1.00  0.00     0.284 C 
ATOM     90  N   UNL A   1      32.688  21.506  25.340  1.00  0.00    -0.328 N 
ATOM     91  H   UNL A   1      33.515  21.197  24.829  1.00  0.00     0.348 HD
BRANCH  90  92
ATOM     92  C   UNL A   1      32.127  20.199  25.699  1.00  0.00     0.299 C 
BRANCH  92  93
ATOM     93  C   UNL A   1      32.803  19.030  25.017  1.00  0.00     0.010 A 
ATOM     94  C   UNL A   1      34.156  19.130  24.626  1.00  0.00     0.013 A 
ATOM     95  C   UNL A   1      32.159  17.779  25.018  1.00  0.00     0.060 A 
ATOM     96  C   UNL A   1      34.914  17.981  24.399  1.00  0.00     0.051 A 
ATOM     97  C   UNL A   1      32.952  16.667  24.878  1.00  0.00     0.166 A 
ATOM     98  C   UNL A   1      34.296  16.766  24.601  1.00  0.00     0.165 A 
ATOM     99  O   UNL A   1      32.574  15.391  25.170  1.00  0.00    -0.454 OA
ATOM    100  O   UNL A   1      34.918  15.556  24.684  1.00  0.00    -0.454 OA
ATOM    101  C   UNL A   1      33.877  14.792  25.330  1.00  0.00     0.468 C 
ENDBRANCH  92  93
ENDBRANCH  90  92
ENDBRANCH  79  83
ENDBRANCH  73  77
ENDBRANCH  69  71
ENDBRANCH  68  69
ENDBRANCH  67  68
ENDBRANCH  66  67
ENDBRANCH  65  66
ENDBRANCH   1  65
TORSDOF 21
ENDMDL
