MODEL 1
REMARK VINA RESULT:      -9.0      0.000      0.000
REMARK SMILES COC(CNS(=O)(=O)c1ccc(Cl)c(C(=O)OCCOCCOCCOC(=O)c2ccc(-c3c4nc(c(-c5c(F)cccc5F)c5ccc([nH]5)c(-c5c(F)cccc5F)c5nc(c(-c6c(F)cccc6F)c6ccc3[nH]6)C=C5)C=C4)cc2)c1Cl)OC
REMARK SMILES IDX 20 1 19 2 18 3 17 4 15 5 16 6 14 7 9 8 10 9 83 10 11 11
REMARK SMILES IDX 84 12 12 13 13 14 6 15 7 16 8 17 5 18 4 20 3 21 2 22 1 23
REMARK SMILES IDX 85 24 86 25 21 26 22 27 23 28 24 29 25 30 26 31 27 32 28 33
REMARK SMILES IDX 29 34 30 35 82 36 31 37 81 38 32 39 33 40 34 41 75 42 35 43
REMARK SMILES IDX 80 44 74 45 76 46 36 47 79 48 73 49 72 50 37 52 63 53 46 54
REMARK SMILES IDX 62 55 47 56 50 57 61 58 77 59 48 60 49 61 60 63 78 64 51 65
REMARK SMILES IDX 38 66 39 67 44 68 40 69 41 70 43 71 45 72 42 73 64 74 65 75
REMARK SMILES IDX 70 76 66 77 67 78 69 79 71 80 68 81 52 82 53 83 58 84 54 85
REMARK SMILES IDX 55 86 57 87 59 88 56 89
REMARK H PARENT 5 19 76 51 50 62
REMARK Flexibility Score: inf
ROOT
ATOM      1  O   UNL A   1      37.532  21.351  24.978  1.00  0.00    -0.376 OA
ENDROOT
BRANCH   1   2
ATOM      2  C   UNL A   1      36.273  21.493  25.625  1.00  0.00     0.202 C 
BRANCH   2   3
ATOM      3  C   UNL A   1      34.915  21.173  24.971  1.00  0.00     0.261 C 
BRANCH   3   4
ATOM      4  O   UNL A   1      33.902  22.167  25.144  1.00  0.00    -0.460 OA
BRANCH   4   5
ATOM      5  C   UNL A   1      32.673  21.861  24.668  1.00  0.00     0.341 C 
ATOM      6  O   UNL A   1      32.195  20.753  24.513  1.00  0.00    -0.246 OA
BRANCH   5   7
ATOM      7  C   UNL A   1      31.914  23.111  24.457  1.00  0.00     0.098 A 
ATOM      8  C   UNL A   1      31.506  25.128  23.169  1.00  0.00     0.102 A 
ATOM      9  C   UNL A   1      30.562  25.531  24.129  1.00  0.00     0.025 A 
ATOM     10  C   UNL A   1      32.160  23.894  23.305  1.00  0.00     0.077 A 
ATOM     11  C   UNL A   1      30.295  24.731  25.239  1.00  0.00     0.023 A 
ATOM     12  Cl  UNL A   1      33.154  23.242  22.039  1.00  0.00    -0.082 Cl
ATOM     13  C   UNL A   1      30.989  23.536  25.422  1.00  0.00     0.057 A 
ATOM     14  Cl  UNL A   1      30.676  22.661  26.878  1.00  0.00    -0.083 Cl
BRANCH   8  15
ATOM     15  S   UNL A   1      31.922  26.327  21.922  1.00  0.00     0.242 S 
ATOM     16  O   UNL A   1      30.828  27.214  21.652  1.00  0.00    -0.207 OA
ATOM     17  O   UNL A   1      32.548  25.590  20.836  1.00  0.00    -0.207 OA
BRANCH  15  18
ATOM     18  N   UNL A   1      33.166  27.197  22.632  1.00  0.00    -0.206 NA
ATOM     19  H   UNL A   1      33.429  26.701  23.485  1.00  0.00     0.141 HD
BRANCH  18  20
ATOM     20  C   UNL A   1      32.927  28.621  23.009  1.00  0.00     0.161 C 
BRANCH  20  21
ATOM     21  C   UNL A   1      32.617  28.682  24.530  1.00  0.00     0.263 C 
BRANCH  21  22
ATOM     22  O   UNL A   1      31.196  28.646  24.654  1.00  0.00    -0.355 OA
ATOM     23  C   UNL A   1      30.510  29.743  24.080  1.00  0.00     0.198 C 
ENDBRANCH  21  22
BRANCH  21  24
ATOM     24  O   UNL A   1      33.270  29.750  25.216  1.00  0.00    -0.355 OA
ATOM     25  C   UNL A   1      33.304  29.700  26.627  1.00  0.00     0.198 C 
ENDBRANCH  21  24
ENDBRANCH  20  21
ENDBRANCH  18  20
ENDBRANCH  15  18
ENDBRANCH   8  15
ENDBRANCH   5   7
ENDBRANCH   4   5
ENDBRANCH   3   4
ENDBRANCH   2   3
ENDBRANCH   1   2
BRANCH   1  26
ATOM     26  C   UNL A   1      38.731  21.417  25.719  1.00  0.00     0.188 C 
BRANCH  26  27
ATOM     27  C   UNL A   1      39.614  20.158  25.827  1.00  0.00     0.188 C 
BRANCH  27  28
ATOM     28  O   UNL A   1      40.729  20.175  26.688  1.00  0.00    -0.376 OA
BRANCH  28  29
ATOM     29  C   UNL A   1      42.042  20.191  26.149  1.00  0.00     0.202 C 
BRANCH  29  30
ATOM     30  C   UNL A   1      42.968  21.427  26.090  1.00  0.00     0.261 C 
BRANCH  30  31
ATOM     31  O   UNL A   1      42.816  22.428  27.107  1.00  0.00    -0.460 OA
BRANCH  31  32
ATOM     32  C   UNL A   1      42.064  23.502  26.757  1.00  0.00     0.338 C 
ATOM     33  O   UNL A   1      40.852  23.541  26.620  1.00  0.00    -0.246 OA
BRANCH  32  34
ATOM     34  C   UNL A   1      42.886  24.728  26.758  1.00  0.00     0.060 A 
ATOM     35  C   UNL A   1      43.084  25.362  25.531  1.00  0.00     0.016 A 
ATOM     36  C   UNL A   1      43.564  25.182  27.892  1.00  0.00     0.016 A 
ATOM     37  C   UNL A   1      43.957  26.442  25.443  1.00  0.00     0.010 A 
ATOM     38  C   UNL A   1      44.458  26.269  27.789  1.00  0.00     0.010 A 
ATOM     39  C   UNL A   1      44.672  26.904  26.556  1.00  0.00    -0.014 A 
BRANCH  39  40
ATOM     40  C   UNL A   1      45.739  27.925  26.326  1.00  0.00     0.031 A 
ATOM     41  C   UNL A   1      45.421  29.381  26.557  1.00  0.00     0.074 A 
ATOM     42  C   UNL A   1      47.021  27.576  26.096  1.00  0.00     0.049 A 
ATOM     43  N   UNL A   1      46.218  30.422  26.553  1.00  0.00    -0.248 NA
ATOM     44  C   UNL A   1      44.012  29.700  26.830  1.00  0.00     0.031 C 
ATOM     45  C   UNL A   1      47.513  26.208  25.963  1.00  0.00     0.029 A 
ATOM     46  N   UNL A   1      48.162  28.350  26.044  1.00  0.00    -0.354 N 
ATOM     47  C   UNL A   1      45.403  31.525  26.781  1.00  0.00     0.074 A 
ATOM     48  C   UNL A   1      44.053  31.020  26.940  1.00  0.00     0.031 C 
ATOM     49  C   UNL A   1      48.859  26.231  25.946  1.00  0.00     0.029 A 
ATOM     50  C   UNL A   1      49.327  27.619  26.002  1.00  0.00     0.049 A 
ATOM     51  H   UNL A   1      48.144  29.334  26.039  1.00  0.00     0.167 HD
ATOM     52  C   UNL A   1      45.734  32.839  26.828  1.00  0.00     0.037 A 
ATOM     53  C   UNL A   1      50.619  28.015  26.023  1.00  0.00     0.037 A 
ATOM     54  C   UNL A   1      47.068  33.365  26.683  1.00  0.00     0.049 A 
ATOM     55  C   UNL A   1      50.962  29.488  26.053  1.00  0.00     0.074 A 
ATOM     56  C   UNL A   1      47.474  34.689  26.672  1.00  0.00     0.029 A 
ATOM     57  N   UNL A   1      48.211  32.600  26.526  1.00  0.00    -0.354 N 
ATOM     58  N   UNL A   1      50.179  30.524  26.224  1.00  0.00    -0.248 NA
ATOM     59  C   UNL A   1      52.381  29.841  25.868  1.00  0.00     0.031 C 
ATOM     60  C   UNL A   1      48.854  34.728  26.450  1.00  0.00     0.029 A 
ATOM     61  C   UNL A   1      49.319  33.425  26.396  1.00  0.00     0.049 A 
ATOM     62  H   UNL A   1      48.235  31.616  26.509  1.00  0.00     0.167 HD
ATOM     63  C   UNL A   1      51.008  31.643  26.174  1.00  0.00     0.074 A 
ATOM     64  C   UNL A   1      52.360  31.159  26.010  1.00  0.00     0.031 C 
ATOM     65  C   UNL A   1      50.673  32.956  26.240  1.00  0.00     0.037 A 
BRANCH  52  66
ATOM     66  C   UNL A   1      44.607  33.822  26.960  1.00  0.00     0.057 A 
ATOM     67  C   UNL A   1      43.918  34.333  25.854  1.00  0.00     0.134 A 
ATOM     68  C   UNL A   1      44.191  34.242  28.232  1.00  0.00     0.134 A 
ATOM     69  F   UNL A   1      44.277  33.985  24.609  1.00  0.00    -0.206 F 
ATOM     70  C   UNL A   1      42.874  35.248  26.006  1.00  0.00     0.040 A 
ATOM     71  C   UNL A   1      43.130  35.129  28.399  1.00  0.00     0.040 A 
ATOM     72  F   UNL A   1      44.805  33.784  29.334  1.00  0.00    -0.206 F 
ATOM     73  C   UNL A   1      42.473  35.642  27.283  1.00  0.00     0.006 A 
ENDBRANCH  52  66
BRANCH  53  74
ATOM     74  C   UNL A   1      51.728  27.017  26.002  1.00  0.00     0.057 A 
ATOM     75  C   UNL A   1      52.165  26.442  24.799  1.00  0.00     0.134 A 
ATOM     76  C   UNL A   1      52.312  26.545  27.183  1.00  0.00     0.134 A 
ATOM     77  F   UNL A   1      51.615  26.816  23.634  1.00  0.00    -0.206 F 
ATOM     78  C   UNL A   1      53.119  25.423  24.776  1.00  0.00     0.040 A 
ATOM     79  C   UNL A   1      53.295  25.554  27.171  1.00  0.00     0.040 A 
ATOM     80  F   UNL A   1      51.929  27.033  28.371  1.00  0.00    -0.206 F 
ATOM     81  C   UNL A   1      53.692  24.980  25.965  1.00  0.00     0.006 A 
ENDBRANCH  53  74
BRANCH  65  82
ATOM     82  C   UNL A   1      51.781  33.975  26.159  1.00  0.00     0.057 A 
ATOM     83  C   UNL A   1      52.226  34.501  24.937  1.00  0.00     0.134 A 
ATOM     84  C   UNL A   1      52.394  34.463  27.322  1.00  0.00     0.134 A 
ATOM     85  F   UNL A   1      51.689  34.082  23.781  1.00  0.00    -0.206 F 
ATOM     86  C   UNL A   1      53.259  35.439  24.874  1.00  0.00     0.040 A 
ATOM     87  C   UNL A   1      53.406  35.425  27.274  1.00  0.00     0.040 A 
ATOM     88  F   UNL A   1      52.012  34.020  28.530  1.00  0.00    -0.206 F 
ATOM     89  C   UNL A   1      53.849  35.908  26.045  1.00  0.00     0.006 A 
ENDBRANCH  65  82
ENDBRANCH  39  40
ENDBRANCH  32  34
ENDBRANCH  31  32
ENDBRANCH  30  31
ENDBRANCH  29  30
ENDBRANCH  28  29
ENDBRANCH  27  28
ENDBRANCH  26  27
ENDBRANCH   1  26
TORSDOF 23
ENDMDL
MODEL 2
REMARK VINA RESULT:      -9.0      3.650      8.039
REMARK SMILES COC(CNS(=O)(=O)c1ccc(Cl)c(C(=O)OCCOCCOCCOC(=O)c2ccc(-c3c4nc(c(-c5c(F)cccc5F)c5ccc([nH]5)c(-c5c(F)cccc5F)c5nc(c(-c6c(F)cccc6F)c6ccc3[nH]6)C=C5)C=C4)cc2)c1Cl)OC
REMARK SMILES IDX 20 1 19 2 18 3 17 4 15 5 16 6 14 7 9 8 10 9 83 10 11 11
REMARK SMILES IDX 84 12 12 13 13 14 6 15 7 16 8 17 5 18 4 20 3 21 2 22 1 23
REMARK SMILES IDX 85 24 86 25 21 26 22 27 23 28 24 29 25 30 26 31 27 32 28 33
REMARK SMILES IDX 29 34 30 35 82 36 31 37 81 38 32 39 33 40 34 41 75 42 35 43
REMARK SMILES IDX 80 44 74 45 76 46 36 47 79 48 73 49 72 50 37 52 63 53 46 54
REMARK SMILES IDX 62 55 47 56 50 57 61 58 77 59 48 60 49 61 60 63 78 64 51 65
REMARK SMILES IDX 38 66 39 67 44 68 40 69 41 70 43 71 45 72 42 73 64 74 65 75
REMARK SMILES IDX 70 76 66 77 67 78 69 79 71 80 68 81 52 82 53 83 58 84 54 85
REMARK SMILES IDX 55 86 57 87 59 88 56 89
REMARK H PARENT 5 19 76 51 50 62
REMARK Flexibility Score: inf
ROOT
ATOM      1  O   UNL A   1      32.354  30.191  27.601  1.00  0.00    -0.376 OA
ENDROOT
BRANCH   1   2
ATOM      2  C   UNL A   1      31.873  29.201  26.700  1.00  0.00     0.202 C 
BRANCH   2   3
ATOM      3  C   UNL A   1      32.227  27.704  26.780  1.00  0.00     0.261 C 
BRANCH   3   4
ATOM      4  O   UNL A   1      33.123  27.231  25.772  1.00  0.00    -0.460 OA
BRANCH   4   5
ATOM      5  C   UNL A   1      32.594  26.411  24.834  1.00  0.00     0.341 C 
ATOM      6  O   UNL A   1      32.491  26.625  23.640  1.00  0.00    -0.246 OA
BRANCH   5   7
ATOM      7  C   UNL A   1      32.247  25.121  25.462  1.00  0.00     0.098 A 
ATOM      8  C   UNL A   1      32.909  22.919  26.241  1.00  0.00     0.102 A 
ATOM      9  C   UNL A   1      31.564  22.637  26.539  1.00  0.00     0.025 A 
ATOM     10  C   UNL A   1      33.266  24.179  25.738  1.00  0.00     0.077 A 
ATOM     11  C   UNL A   1      30.573  23.588  26.304  1.00  0.00     0.023 A 
ATOM     12  Cl  UNL A   1      34.925  24.661  25.574  1.00  0.00    -0.082 Cl
ATOM     13  C   UNL A   1      30.905  24.819  25.739  1.00  0.00     0.057 A 
ATOM     14  Cl  UNL A   1      29.603  25.896  25.381  1.00  0.00    -0.083 Cl
BRANCH   8  15
ATOM     15  S   UNL A   1      34.046  21.556  26.373  1.00  0.00     0.242 S 
ATOM     16  O   UNL A   1      34.606  21.458  27.689  1.00  0.00    -0.207 OA
ATOM     17  O   UNL A   1      34.921  21.639  25.213  1.00  0.00    -0.207 OA
BRANCH  15  18
ATOM     18  N   UNL A   1      33.074  20.221  26.092  1.00  0.00    -0.206 NA
ATOM     19  H   UNL A   1      33.614  19.397  26.360  1.00  0.00     0.141 HD
BRANCH  18  20
ATOM     20  C   UNL A   1      32.560  19.980  24.713  1.00  0.00     0.161 C 
BRANCH  20  21
ATOM     21  C   UNL A   1      32.265  18.463  24.555  1.00  0.00     0.263 C 
BRANCH  21  22
ATOM     22  O   UNL A   1      32.502  17.871  25.832  1.00  0.00    -0.355 OA
ATOM     23  C   UNL A   1      32.928  16.521  25.804  1.00  0.00     0.198 C 
ENDBRANCH  21  22
BRANCH  21  24
ATOM     24  O   UNL A   1      32.936  17.849  23.455  1.00  0.00    -0.355 OA
ATOM     25  C   UNL A   1      32.413  18.070  22.161  1.00  0.00     0.198 C 
ENDBRANCH  21  24
ENDBRANCH  20  21
ENDBRANCH  18  20
ENDBRANCH  15  18
ENDBRANCH   8  15
ENDBRANCH   5   7
ENDBRANCH   4   5
ENDBRANCH   3   4
ENDBRANCH   2   3
ENDBRANCH   1   2
BRANCH   1  26
ATOM     26  C   UNL A   1      33.174  31.243  27.139  1.00  0.00     0.188 C 
BRANCH  26  27
ATOM     27  C   UNL A   1      34.623  31.344  27.658  1.00  0.00     0.188 C 
BRANCH  27  28
ATOM     28  O   UNL A   1      35.161  32.615  27.940  1.00  0.00    -0.376 OA
BRANCH  28  29
ATOM     29  C   UNL A   1      35.220  33.079  29.281  1.00  0.00     0.202 C 
BRANCH  29  30
ATOM     30  C   UNL A   1      36.488  33.603  29.991  1.00  0.00     0.261 C 
BRANCH  30  31
ATOM     31  O   UNL A   1      37.017  32.828  31.077  1.00  0.00    -0.460 OA
BRANCH  31  32
ATOM     32  C   UNL A   1      36.726  31.504  31.041  1.00  0.00     0.338 C 
ATOM     33  O   UNL A   1      35.670  30.972  31.344  1.00  0.00    -0.246 OA
BRANCH  32  34
ATOM     34  C   UNL A   1      37.807  30.756  30.370  1.00  0.00     0.060 A 
ATOM     35  C   UNL A   1      38.827  30.251  31.176  1.00  0.00     0.016 A 
ATOM     36  C   UNL A   1      37.909  30.661  28.979  1.00  0.00     0.016 A 
ATOM     37  C   UNL A   1      39.941  29.656  30.592  1.00  0.00     0.010 A 
ATOM     38  C   UNL A   1      39.050  30.069  28.397  1.00  0.00     0.010 A 
ATOM     39  C   UNL A   1      40.086  29.569  29.201  1.00  0.00    -0.014 A 
BRANCH  39  40
ATOM     40  C   UNL A   1      41.402  29.110  28.663  1.00  0.00     0.031 A 
ATOM     41  C   UNL A   1      42.614  29.989  28.845  1.00  0.00     0.074 A 
ATOM     42  C   UNL A   1      41.580  27.862  28.185  1.00  0.00     0.049 A 
ATOM     43  N   UNL A   1      43.875  29.740  28.585  1.00  0.00    -0.248 NA
ATOM     44  C   UNL A   1      42.365  31.329  29.396  1.00  0.00     0.031 C 
ATOM     45  C   UNL A   1      40.534  26.851  28.053  1.00  0.00     0.029 A 
ATOM     46  N   UNL A   1      42.735  27.200  27.823  1.00  0.00    -0.354 N 
ATOM     47  C   UNL A   1      44.565  30.904  28.901  1.00  0.00     0.074 A 
ATOM     48  C   UNL A   1      43.583  31.851  29.391  1.00  0.00     0.031 C 
ATOM     49  C   UNL A   1      41.107  25.674  27.738  1.00  0.00     0.029 A 
ATOM     50  C   UNL A   1      42.552  25.857  27.581  1.00  0.00     0.049 A 
ATOM     51  H   UNL A   1      43.609  27.647  27.745  1.00  0.00     0.167 HD
ATOM     52  C   UNL A   1      45.887  31.178  28.772  1.00  0.00     0.037 A 
ATOM     53  C   UNL A   1      43.443  24.884  27.286  1.00  0.00     0.037 A 
ATOM     54  C   UNL A   1      46.884  30.252  28.296  1.00  0.00     0.049 A 
ATOM     55  C   UNL A   1      44.909  25.219  27.125  1.00  0.00     0.074 A 
ATOM     56  C   UNL A   1      48.236  30.474  28.092  1.00  0.00     0.029 A 
ATOM     57  N   UNL A   1      46.643  28.933  27.950  1.00  0.00    -0.354 N 
ATOM     58  N   UNL A   1      45.544  26.336  27.384  1.00  0.00    -0.248 NA
ATOM     59  C   UNL A   1      45.780  24.150  26.606  1.00  0.00     0.031 C 
ATOM     60  C   UNL A   1      48.803  29.306  27.570  1.00  0.00     0.029 A 
ATOM     61  C   UNL A   1      47.818  28.336  27.516  1.00  0.00     0.049 A 
ATOM     62  H   UNL A   1      45.769  28.485  28.005  1.00  0.00     0.167 HD
ATOM     63  C   UNL A   1      46.880  26.100  27.066  1.00  0.00     0.074 A 
ATOM     64  C   UNL A   1      46.975  24.721  26.647  1.00  0.00     0.031 C 
ATOM     65  C   UNL A   1      47.930  26.960  27.102  1.00  0.00     0.037 A 
BRANCH  52  66
ATOM     66  C   UNL A   1      46.326  32.581  29.072  1.00  0.00     0.057 A 
ATOM     67  C   UNL A   1      46.290  33.604  28.116  1.00  0.00     0.134 A 
ATOM     68  C   UNL A   1      46.770  32.914  30.360  1.00  0.00     0.134 A 
ATOM     69  F   UNL A   1      45.891  33.348  26.862  1.00  0.00    -0.206 F 
ATOM     70  C   UNL A   1      46.705  34.901  28.424  1.00  0.00     0.040 A 
ATOM     71  C   UNL A   1      47.156  34.213  30.687  1.00  0.00     0.040 A 
ATOM     72  F   UNL A   1      46.822  31.982  31.323  1.00  0.00    -0.206 F 
ATOM     73  C   UNL A   1      47.133  35.210  29.715  1.00  0.00     0.006 A 
ENDBRANCH  52  66
BRANCH  53  74
ATOM     74  C   UNL A   1      43.002  23.472  27.099  1.00  0.00     0.057 A 
ATOM     75  C   UNL A   1      42.764  22.949  25.819  1.00  0.00     0.134 A 
ATOM     76  C   UNL A   1      42.718  22.641  28.190  1.00  0.00     0.134 A 
ATOM     77  F   UNL A   1      42.972  23.706  24.732  1.00  0.00    -0.206 F 
ATOM     78  C   UNL A   1      42.240  21.668  25.635  1.00  0.00     0.040 A 
ATOM     79  C   UNL A   1      42.230  21.345  28.018  1.00  0.00     0.040 A 
ATOM     80  F   UNL A   1      42.902  23.081  29.443  1.00  0.00    -0.206 F 
ATOM     81  C   UNL A   1      41.977  20.859  26.737  1.00  0.00     0.006 A 
ENDBRANCH  53  74
BRANCH  65  82
ATOM     82  C   UNL A   1      49.286  26.437  26.701  1.00  0.00     0.057 A 
ATOM     83  C   UNL A   1      49.825  26.661  25.425  1.00  0.00     0.134 A 
ATOM     84  C   UNL A   1      50.080  25.727  27.612  1.00  0.00     0.134 A 
ATOM     85  F   UNL A   1      49.124  27.332  24.499  1.00  0.00    -0.206 F 
ATOM     86  C   UNL A   1      51.080  26.166  25.061  1.00  0.00     0.040 A 
ATOM     87  C   UNL A   1      51.350  25.256  27.270  1.00  0.00     0.040 A 
ATOM     88  F   UNL A   1      49.640  25.487  28.857  1.00  0.00    -0.206 F 
ATOM     89  C   UNL A   1      51.849  25.465  25.987  1.00  0.00     0.006 A 
ENDBRANCH  65  82
ENDBRANCH  39  40
ENDBRANCH  32  34
ENDBRANCH  31  32
ENDBRANCH  30  31
ENDBRANCH  29  30
ENDBRANCH  28  29
ENDBRANCH  27  28
ENDBRANCH  26  27
ENDBRANCH   1  26
TORSDOF 23
ENDMDL
MODEL 3
REMARK VINA RESULT:      -8.8      6.469     10.407
REMARK SMILES COC(CNS(=O)(=O)c1ccc(Cl)c(C(=O)OCCOCCOCCOC(=O)c2ccc(-c3c4nc(c(-c5c(F)cccc5F)c5ccc([nH]5)c(-c5c(F)cccc5F)c5nc(c(-c6c(F)cccc6F)c6ccc3[nH]6)C=C5)C=C4)cc2)c1Cl)OC
REMARK SMILES IDX 20 1 19 2 18 3 17 4 15 5 16 6 14 7 9 8 10 9 83 10 11 11
REMARK SMILES IDX 84 12 12 13 13 14 6 15 7 16 8 17 5 18 4 20 3 21 2 22 1 23
REMARK SMILES IDX 85 24 86 25 21 26 22 27 23 28 24 29 25 30 26 31 27 32 28 33
REMARK SMILES IDX 29 34 30 35 82 36 31 37 81 38 32 39 33 40 34 41 75 42 35 43
REMARK SMILES IDX 80 44 74 45 76 46 36 47 79 48 73 49 72 50 37 52 63 53 46 54
REMARK SMILES IDX 62 55 47 56 50 57 61 58 77 59 48 60 49 61 60 63 78 64 51 65
REMARK SMILES IDX 38 66 39 67 44 68 40 69 41 70 43 71 45 72 42 73 64 74 65 75
REMARK SMILES IDX 70 76 66 77 67 78 69 79 71 80 68 81 52 82 53 83 58 84 54 85
REMARK SMILES IDX 55 86 57 87 59 88 56 89
REMARK H PARENT 5 19 76 51 50 62
REMARK Flexibility Score: inf
ROOT
ATOM      1  O   UNL A   1      38.631  22.043  25.503  1.00  0.00    -0.376 OA
ENDROOT
BRANCH   1   2
ATOM      2  C   UNL A   1      37.793  21.004  25.013  1.00  0.00     0.202 C 
BRANCH   2   3
ATOM      3  C   UNL A   1      36.388  21.225  24.418  1.00  0.00     0.261 C 
BRANCH   3   4
ATOM      4  O   UNL A   1      35.665  22.336  24.951  1.00  0.00    -0.460 OA
BRANCH   4   5
ATOM      5  C   UNL A   1      34.637  22.043  25.780  1.00  0.00     0.341 C 
ATOM      6  O   UNL A   1      34.690  21.452  26.843  1.00  0.00    -0.246 OA
BRANCH   5   7
ATOM      7  C   UNL A   1      33.402  22.661  25.254  1.00  0.00     0.098 A 
ATOM      8  C   UNL A   1      31.896  24.560  25.124  1.00  0.00     0.102 A 
ATOM      9  C   UNL A   1      31.009  23.784  24.358  1.00  0.00     0.025 A 
ATOM     10  C   UNL A   1      33.120  24.016  25.544  1.00  0.00     0.077 A 
ATOM     11  C   UNL A   1      31.317  22.463  24.042  1.00  0.00     0.023 A 
ATOM     12  Cl  UNL A   1      34.348  24.994  26.286  1.00  0.00    -0.082 Cl
ATOM     13  C   UNL A   1      32.498  21.888  24.512  1.00  0.00     0.057 A 
ATOM     14  Cl  UNL A   1      32.749  20.214  24.165  1.00  0.00    -0.083 Cl
BRANCH   8  15
ATOM     15  S   UNL A   1      31.298  26.151  25.651  1.00  0.00     0.242 S 
ATOM     16  O   UNL A   1      31.342  26.289  27.078  1.00  0.00    -0.207 OA
ATOM     17  O   UNL A   1      30.052  26.378  24.935  1.00  0.00    -0.207 OA
BRANCH  15  18
ATOM     18  N   UNL A   1      32.394  27.216  24.966  1.00  0.00    -0.206 NA
ATOM     19  H   UNL A   1      33.217  27.228  25.571  1.00  0.00     0.141 HD
BRANCH  18  20
ATOM     20  C   UNL A   1      31.986  28.635  24.754  1.00  0.00     0.161 C 
BRANCH  20  21
ATOM     21  C   UNL A   1      31.657  28.834  23.249  1.00  0.00     0.263 C 
BRANCH  21  22
ATOM     22  O   UNL A   1      32.875  29.227  22.618  1.00  0.00    -0.355 OA
ATOM     23  C   UNL A   1      33.808  28.185  22.399  1.00  0.00     0.198 C 
ENDBRANCH  21  22
BRANCH  21  24
ATOM     24  O   UNL A   1      30.533  29.679  23.004  1.00  0.00    -0.355 OA
ATOM     25  C   UNL A   1      29.424  29.117  22.334  1.00  0.00     0.198 C 
ENDBRANCH  21  24
ENDBRANCH  20  21
ENDBRANCH  18  20
ENDBRANCH  15  18
ENDBRANCH   8  15
ENDBRANCH   5   7
ENDBRANCH   4   5
ENDBRANCH   3   4
ENDBRANCH   2   3
ENDBRANCH   1   2
BRANCH   1  26
ATOM     26  C   UNL A   1      39.628  21.767  26.464  1.00  0.00     0.188 C 
BRANCH  26  27
ATOM     27  C   UNL A   1      40.576  20.572  26.234  1.00  0.00     0.188 C 
BRANCH  27  28
ATOM     28  O   UNL A   1      41.838  20.802  25.652  1.00  0.00    -0.376 OA
BRANCH  28  29
ATOM     29  C   UNL A   1      42.434  22.088  25.734  1.00  0.00     0.202 C 
BRANCH  29  30
ATOM     30  C   UNL A   1      43.419  22.684  24.703  1.00  0.00     0.261 C 
BRANCH  30  31
ATOM     31  O   UNL A   1      43.574  24.111  24.671  1.00  0.00    -0.460 OA
BRANCH  31  32
ATOM     32  C   UNL A   1      44.309  24.638  25.682  1.00  0.00     0.338 C 
ATOM     33  O   UNL A   1      45.526  24.682  25.764  1.00  0.00    -0.246 OA
BRANCH  32  34
ATOM     34  C   UNL A   1      43.439  25.372  26.623  1.00  0.00     0.060 A 
ATOM     35  C   UNL A   1      43.700  26.731  26.802  1.00  0.00     0.016 A 
ATOM     36  C   UNL A   1      42.482  24.737  27.418  1.00  0.00     0.016 A 
ATOM     37  C   UNL A   1      43.005  27.446  27.772  1.00  0.00     0.010 A 
ATOM     38  C   UNL A   1      41.794  25.469  28.409  1.00  0.00     0.010 A 
ATOM     39  C   UNL A   1      42.059  26.833  28.604  1.00  0.00    -0.014 A 
BRANCH  39  40
ATOM     40  C   UNL A   1      41.521  27.624  29.751  1.00  0.00     0.031 A 
ATOM     41  C   UNL A   1      42.329  27.715  31.021  1.00  0.00     0.074 A 
ATOM     42  C   UNL A   1      40.430  28.406  29.628  1.00  0.00     0.049 A 
ATOM     43  N   UNL A   1      42.130  28.448  32.090  1.00  0.00    -0.248 NA
ATOM     44  C   UNL A   1      43.524  26.860  31.090  1.00  0.00     0.031 C 
ATOM     45  C   UNL A   1      39.605  28.522  28.429  1.00  0.00     0.029 A 
ATOM     46  N   UNL A   1      39.894  29.336  30.495  1.00  0.00    -0.354 N 
ATOM     47  C   UNL A   1      43.149  28.115  32.975  1.00  0.00     0.074 A 
ATOM     48  C   UNL A   1      43.975  27.128  32.307  1.00  0.00     0.031 C 
ATOM     49  C   UNL A   1      38.734  29.536  28.597  1.00  0.00     0.029 A 
ATOM     50  C   UNL A   1      38.893  30.102  29.940  1.00  0.00     0.049 A 
ATOM     51  H   UNL A   1      40.200  29.443  31.425  1.00  0.00     0.167 HD
ATOM     52  C   UNL A   1      43.368  28.562  34.236  1.00  0.00     0.037 A 
ATOM     53  C   UNL A   1      38.198  31.145  30.443  1.00  0.00     0.037 A 
ATOM     54  C   UNL A   1      42.568  29.548  34.918  1.00  0.00     0.049 A 
ATOM     55  C   UNL A   1      38.445  31.610  31.861  1.00  0.00     0.074 A 
ATOM     56  C   UNL A   1      42.700  30.016  36.215  1.00  0.00     0.029 A 
ATOM     57  N   UNL A   1      41.490  30.218  34.364  1.00  0.00    -0.354 N 
ATOM     58  N   UNL A   1      39.383  31.256  32.704  1.00  0.00    -0.248 NA
ATOM     59  C   UNL A   1      37.510  32.613  32.401  1.00  0.00     0.031 C 
ATOM     60  C   UNL A   1      41.669  30.926  36.465  1.00  0.00     0.029 A 
ATOM     61  C   UNL A   1      40.937  31.080  35.301  1.00  0.00     0.049 A 
ATOM     62  H   UNL A   1      41.164  30.101  33.443  1.00  0.00     0.167 HD
ATOM     63  C   UNL A   1      39.155  31.995  33.864  1.00  0.00     0.074 A 
ATOM     64  C   UNL A   1      38.023  32.854  33.599  1.00  0.00     0.031 C 
ATOM     65  C   UNL A   1      39.814  31.948  35.049  1.00  0.00     0.037 A 
BRANCH  52  66
ATOM     66  C   UNL A   1      44.483  27.915  35.005  1.00  0.00     0.057 A 
ATOM     67  C   UNL A   1      44.296  26.765  35.782  1.00  0.00     0.134 A 
ATOM     68  C   UNL A   1      45.778  28.450  34.941  1.00  0.00     0.134 A 
ATOM     69  F   UNL A   1      43.079  26.214  35.899  1.00  0.00    -0.206 F 
ATOM     70  C   UNL A   1      45.353  26.186  36.487  1.00  0.00     0.040 A 
ATOM     71  C   UNL A   1      46.846  27.862  35.615  1.00  0.00     0.040 A 
ATOM     72  F   UNL A   1      46.025  29.547  34.209  1.00  0.00    -0.206 F 
ATOM     73  C   UNL A   1      46.634  26.730  36.398  1.00  0.00     0.006 A 
ENDBRANCH  52  66
BRANCH  53  74
ATOM     74  C   UNL A   1      37.168  31.847  29.623  1.00  0.00     0.057 A 
ATOM     75  C   UNL A   1      37.407  33.124  29.095  1.00  0.00     0.134 A 
ATOM     76  C   UNL A   1      35.893  31.303  29.425  1.00  0.00     0.134 A 
ATOM     77  F   UNL A   1      38.592  33.723  29.287  1.00  0.00    -0.206 F 
ATOM     78  C   UNL A   1      36.412  33.841  28.426  1.00  0.00     0.040 A 
ATOM     79  C   UNL A   1      34.902  31.993  28.724  1.00  0.00     0.040 A 
ATOM     80  F   UNL A   1      35.587  30.095  29.919  1.00  0.00    -0.206 F 
ATOM     81  C   UNL A   1      35.156  33.271  28.234  1.00  0.00     0.006 A 
ENDBRANCH  53  74
BRANCH  65  82
ATOM     82  C   UNL A   1      39.354  32.866  36.152  1.00  0.00     0.057 A 
ATOM     83  C   UNL A   1      39.877  34.157  36.317  1.00  0.00     0.134 A 
ATOM     84  C   UNL A   1      38.349  32.469  37.045  1.00  0.00     0.134 A 
ATOM     85  F   UNL A   1      40.842  34.609  35.502  1.00  0.00    -0.206 F 
ATOM     86  C   UNL A   1      39.448  34.998  37.347  1.00  0.00     0.040 A 
ATOM     87  C   UNL A   1      37.888  33.312  38.059  1.00  0.00     0.040 A 
ATOM     88  F   UNL A   1      37.788  31.254  36.942  1.00  0.00    -0.206 F 
ATOM     89  C   UNL A   1      38.447  34.578  38.219  1.00  0.00     0.006 A 
ENDBRANCH  65  82
ENDBRANCH  39  40
ENDBRANCH  32  34
ENDBRANCH  31  32
ENDBRANCH  30  31
ENDBRANCH  29  30
ENDBRANCH  28  29
ENDBRANCH  27  28
ENDBRANCH  26  27
ENDBRANCH   1  26
TORSDOF 23
ENDMDL
