MODEL 1
REMARK VINA RESULT:     -10.9      0.000      0.000
REMARK SMILES CCCc1cc(OC(F)(F)F)cc2c1O[C@H](C(F)(F)F)C(C(=O)OCCOCCOCCOC(=O)c1ccc(-c3c4nc(c(-c5c(F)cccc5F)c5ccc([nH]5)c(-c5c(F)cccc5F)c5nc(c(-c6c(F)cccc6F)c6ccc3[nH]6)C=C5)C=C4)cc1)=C2
REMARK SMILES IDX 28 1 27 2 26 3 25 4 24 5 22 6 23 7 21 8 4 9 5 10 14 11 6 12
REMARK SMILES IDX 13 13 15 14 12 15 90 16 16 17 3 18 2 19 1 20 7 21 8 22 9 23
REMARK SMILES IDX 10 24 11 25 17 26 18 27 19 28 20 29 29 30 30 31 31 32 32 33
REMARK SMILES IDX 33 34 34 35 35 36 36 37 37 38 89 39 38 40 88 41 39 42 40 43
REMARK SMILES IDX 41 44 82 45 42 46 87 47 81 48 83 49 43 50 86 51 80 52 79 53
REMARK SMILES IDX 44 55 70 56 53 57 69 58 54 59 57 60 68 61 84 62 55 63 56 64
REMARK SMILES IDX 67 66 85 67 58 68 45 69 46 70 51 71 47 72 48 73 50 74 52 75
REMARK SMILES IDX 49 76 71 77 72 78 77 79 73 80 74 81 76 82 78 83 75 84 59 85
REMARK SMILES IDX 60 86 65 87 61 88 62 89 64 90 66 91 63 92
REMARK H PARENT 83 54 57 65
REMARK Flexibility Score: inf
ROOT
ATOM      1  C   UNL A   1      33.734  35.714  28.803  1.00  0.00     0.188 C 
ENDROOT
BRANCH   1   2
ATOM      2  O   UNL A   1      34.416  34.513  28.486  1.00  0.00    -0.376 OA
BRANCH   2   3
ATOM      3  C   UNL A   1      33.691  33.305  28.347  1.00  0.00     0.202 C 
BRANCH   3   4
ATOM      4  C   UNL A   1      34.446  32.062  27.876  1.00  0.00     0.261 C 
BRANCH   4   5
ATOM      5  O   UNL A   1      33.647  31.170  27.081  1.00  0.00    -0.460 OA
BRANCH   5   6
ATOM      6  C   UNL A   1      34.234  29.978  26.799  1.00  0.00     0.338 C 
ATOM      7  O   UNL A   1      35.377  29.669  27.039  1.00  0.00    -0.246 OA
BRANCH   6   8
ATOM      8  C   UNL A   1      33.268  29.010  26.232  1.00  0.00     0.087 C 
ATOM      9  C   UNL A   1      30.129  27.103  24.274  1.00  0.00    -0.002 A 
ATOM     10  C   UNL A   1      29.624  25.911  24.807  1.00  0.00     0.054 A 
ATOM     11  C   UNL A   1      31.125  27.768  25.001  1.00  0.00     0.131 A 
ATOM     12  C   UNL A   1      30.054  25.438  26.054  1.00  0.00     0.130 A 
ATOM     13  C   UNL A   1      31.606  27.292  26.231  1.00  0.00     0.021 A 
ATOM     14  O   UNL A   1      31.601  28.940  24.460  1.00  0.00    -0.475 OA
ATOM     15  C   UNL A   1      31.058  26.122  26.755  1.00  0.00     0.058 A 
ATOM     16  C   UNL A   1      32.620  28.075  26.947  1.00  0.00     0.027 C 
ATOM     17  C   UNL A   1      32.992  29.187  24.756  1.00  0.00     0.316 C 
BRANCH   9  18
ATOM     18  C   UNL A   1      29.702  27.686  22.941  1.00  0.00     0.039 C 
BRANCH  18  19
ATOM     19  C   UNL A   1      28.699  28.841  22.920  1.00  0.00     0.001 C 
ATOM     20  C   UNL A   1      27.284  28.411  23.281  1.00  0.00     0.004 C 
ENDBRANCH  18  19
ENDBRANCH   9  18
BRANCH  12  21
ATOM     21  O   UNL A   1      29.576  24.318  26.677  1.00  0.00    -0.406 OA
BRANCH  21  22
ATOM     22  C   UNL A   1      30.321  23.121  26.499  1.00  0.00     0.573 C 
ATOM     23  F   UNL A   1      31.276  22.986  27.445  1.00  0.00    -0.132 F 
ATOM     24  F   UNL A   1      29.512  22.041  26.520  1.00  0.00    -0.132 F 
ATOM     25  F   UNL A   1      30.932  23.164  25.294  1.00  0.00    -0.132 F 
ENDBRANCH  21  22
ENDBRANCH  12  21
BRANCH  17  26
ATOM     26  C   UNL A   1      33.923  28.356  23.843  1.00  0.00     0.430 C 
ATOM     27  F   UNL A   1      33.282  27.833  22.772  1.00  0.00    -0.167 F 
ATOM     28  F   UNL A   1      34.938  29.110  23.359  1.00  0.00    -0.167 F 
ATOM     29  F   UNL A   1      34.496  27.312  24.491  1.00  0.00    -0.167 F 
ENDBRANCH  17  26
ENDBRANCH   6   8
ENDBRANCH   5   6
ENDBRANCH   4   5
ENDBRANCH   3   4
ENDBRANCH   2   3
ENDBRANCH   1   2
BRANCH   1  30
ATOM     30  C   UNL A   1      33.023  35.908  30.159  1.00  0.00     0.188 C 
BRANCH  30  31
ATOM     31  O   UNL A   1      33.361  35.145  31.295  1.00  0.00    -0.376 OA
BRANCH  31  32
ATOM     32  C   UNL A   1      34.187  35.648  32.326  1.00  0.00     0.202 C 
BRANCH  32  33
ATOM     33  C   UNL A   1      35.565  35.069  32.673  1.00  0.00     0.261 C 
BRANCH  33  34
ATOM     34  O   UNL A   1      36.040  34.013  31.836  1.00  0.00    -0.460 OA
BRANCH  34  35
ATOM     35  C   UNL A   1      36.139  32.804  32.438  1.00  0.00     0.338 C 
ATOM     36  O   UNL A   1      35.460  32.369  33.354  1.00  0.00    -0.246 OA
BRANCH  35  37
ATOM     37  C   UNL A   1      37.151  31.995  31.743  1.00  0.00     0.060 A 
ATOM     38  C   UNL A   1      38.006  31.191  32.505  1.00  0.00     0.016 A 
ATOM     39  C   UNL A   1      37.305  32.092  30.359  1.00  0.00     0.016 A 
ATOM     40  C   UNL A   1      39.039  30.492  31.881  1.00  0.00     0.010 A 
ATOM     41  C   UNL A   1      38.351  31.404  29.739  1.00  0.00     0.010 A 
ATOM     42  C   UNL A   1      39.238  30.621  30.499  1.00  0.00    -0.014 A 
BRANCH  42  43
ATOM     43  C   UNL A   1      40.458  30.063  29.869  1.00  0.00     0.031 A 
ATOM     44  C   UNL A   1      41.641  30.965  29.655  1.00  0.00     0.074 A 
ATOM     45  C   UNL A   1      40.518  28.773  29.497  1.00  0.00     0.049 A 
ATOM     46  N   UNL A   1      42.771  30.723  29.042  1.00  0.00    -0.248 NA
ATOM     47  C   UNL A   1      41.534  32.323  30.210  1.00  0.00     0.031 C 
ATOM     48  C   UNL A   1      39.464  27.783  29.700  1.00  0.00     0.029 A 
ATOM     49  N   UNL A   1      41.515  28.081  28.855  1.00  0.00    -0.354 N 
ATOM     50  C   UNL A   1      43.505  31.898  29.129  1.00  0.00     0.074 A 
ATOM     51  C   UNL A   1      42.687  32.859  29.837  1.00  0.00     0.031 C 
ATOM     52  C   UNL A   1      39.865  26.609  29.179  1.00  0.00     0.029 A 
ATOM     53  C   UNL A   1      41.185  26.778  28.574  1.00  0.00     0.049 A 
ATOM     54  H   UNL A   1      42.384  28.479  28.620  1.00  0.00     0.167 HD
ATOM     55  C   UNL A   1      44.751  32.153  28.664  1.00  0.00     0.037 A 
ATOM     56  C   UNL A   1      41.860  25.840  27.881  1.00  0.00     0.037 A 
ATOM     57  C   UNL A   1      45.566  31.201  27.957  1.00  0.00     0.049 A 
ATOM     58  C   UNL A   1      43.208  26.175  27.296  1.00  0.00     0.074 A 
ATOM     59  C   UNL A   1      46.840  31.368  27.444  1.00  0.00     0.029 A 
ATOM     60  N   UNL A   1      45.180  29.903  27.659  1.00  0.00    -0.354 N 
ATOM     61  N   UNL A   1      43.895  27.288  27.381  1.00  0.00    -0.248 NA
ATOM     62  C   UNL A   1      43.871  25.122  26.512  1.00  0.00     0.031 C 
ATOM     63  C   UNL A   1      47.209  30.183  26.798  1.00  0.00     0.029 A 
ATOM     64  C   UNL A   1      46.183  29.264  26.949  1.00  0.00     0.049 A 
ATOM     65  H   UNL A   1      44.321  29.496  27.915  1.00  0.00     0.167 HD
ATOM     66  C   UNL A   1      45.077  27.063  26.687  1.00  0.00     0.074 A 
ATOM     67  C   UNL A   1      45.020  25.702  26.194  1.00  0.00     0.031 C 
ATOM     68  C   UNL A   1      46.117  27.907  26.475  1.00  0.00     0.037 A 
BRANCH  55  69
ATOM     69  C   UNL A   1      45.293  33.535  28.878  1.00  0.00     0.057 A 
ATOM     70  C   UNL A   1      46.106  33.851  29.973  1.00  0.00     0.134 A 
ATOM     71  C   UNL A   1      45.012  34.558  27.963  1.00  0.00     0.134 A 
ATOM     72  F   UNL A   1      46.398  32.918  30.892  1.00  0.00    -0.206 F 
ATOM     73  C   UNL A   1      46.602  35.141  30.165  1.00  0.00     0.040 A 
ATOM     74  C   UNL A   1      45.521  35.847  28.131  1.00  0.00     0.040 A 
ATOM     75  F   UNL A   1      44.242  34.321  26.891  1.00  0.00    -0.206 F 
ATOM     76  C   UNL A   1      46.314  36.142  29.238  1.00  0.00     0.006 A 
ENDBRANCH  55  69
BRANCH  56  77
ATOM     77  C   UNL A   1      41.265  24.496  27.672  1.00  0.00     0.057 A 
ATOM     78  C   UNL A   1      41.726  23.380  28.379  1.00  0.00     0.134 A 
ATOM     79  C   UNL A   1      40.247  24.290  26.732  1.00  0.00     0.134 A 
ATOM     80  F   UNL A   1      42.718  23.509  29.271  1.00  0.00    -0.206 F 
ATOM     81  C   UNL A   1      41.205  22.105  28.151  1.00  0.00     0.040 A 
ATOM     82  C   UNL A   1      39.701  23.025  26.512  1.00  0.00     0.040 A 
ATOM     83  F   UNL A   1      39.767  25.317  26.017  1.00  0.00    -0.206 F 
ATOM     84  C   UNL A   1      40.186  21.925  27.218  1.00  0.00     0.006 A 
ENDBRANCH  56  77
BRANCH  68  85
ATOM     85  C   UNL A   1      47.295  27.374  25.712  1.00  0.00     0.057 A 
ATOM     86  C   UNL A   1      48.332  26.677  26.343  1.00  0.00     0.134 A 
ATOM     87  C   UNL A   1      47.364  27.517  24.320  1.00  0.00     0.134 A 
ATOM     88  F   UNL A   1      48.331  26.515  27.675  1.00  0.00    -0.206 F 
ATOM     89  C   UNL A   1      49.406  26.156  25.619  1.00  0.00     0.040 A 
ATOM     90  C   UNL A   1      48.421  26.981  23.583  1.00  0.00     0.040 A 
ATOM     91  F   UNL A   1      46.399  28.167  23.653  1.00  0.00    -0.206 F 
ATOM     92  C   UNL A   1      49.448  26.301  24.234  1.00  0.00     0.006 A 
ENDBRANCH  68  85
ENDBRANCH  42  43
ENDBRANCH  35  37
ENDBRANCH  34  35
ENDBRANCH  33  34
ENDBRANCH  32  33
ENDBRANCH  31  32
ENDBRANCH  30  31
ENDBRANCH   1  30
TORSDOF 22
ENDMDL
MODEL 2
REMARK VINA RESULT:     -10.7      1.822      3.054
REMARK SMILES CCCc1cc(OC(F)(F)F)cc2c1O[C@H](C(F)(F)F)C(C(=O)OCCOCCOCCOC(=O)c1ccc(-c3c4nc(c(-c5c(F)cccc5F)c5ccc([nH]5)c(-c5c(F)cccc5F)c5nc(c(-c6c(F)cccc6F)c6ccc3[nH]6)C=C5)C=C4)cc1)=C2
REMARK SMILES IDX 28 1 27 2 26 3 25 4 24 5 22 6 23 7 21 8 4 9 5 10 14 11 6 12
REMARK SMILES IDX 13 13 15 14 12 15 90 16 16 17 3 18 2 19 1 20 7 21 8 22 9 23
REMARK SMILES IDX 10 24 11 25 17 26 18 27 19 28 20 29 29 30 30 31 31 32 32 33
REMARK SMILES IDX 33 34 34 35 35 36 36 37 37 38 89 39 38 40 88 41 39 42 40 43
REMARK SMILES IDX 41 44 82 45 42 46 87 47 81 48 83 49 43 50 86 51 80 52 79 53
REMARK SMILES IDX 44 55 70 56 53 57 69 58 54 59 57 60 68 61 84 62 55 63 56 64
REMARK SMILES IDX 67 66 85 67 58 68 45 69 46 70 51 71 47 72 48 73 50 74 52 75
REMARK SMILES IDX 49 76 71 77 72 78 77 79 73 80 74 81 76 82 78 83 75 84 59 85
REMARK SMILES IDX 60 86 65 87 61 88 62 89 64 90 66 91 63 92
REMARK H PARENT 83 54 57 65
REMARK Flexibility Score: inf
ROOT
ATOM      1  C   UNL A   1      33.576  35.152  29.778  1.00  0.00     0.188 C 
ENDROOT
BRANCH   1   2
ATOM      2  O   UNL A   1      33.314  33.820  29.374  1.00  0.00    -0.376 OA
BRANCH   2   3
ATOM      3  C   UNL A   1      33.336  33.481  28.000  1.00  0.00     0.202 C 
BRANCH   3   4
ATOM      4  C   UNL A   1      34.113  32.235  27.577  1.00  0.00     0.261 C 
BRANCH   4   5
ATOM      5  O   UNL A   1      33.357  31.018  27.693  1.00  0.00    -0.460 OA
BRANCH   5   6
ATOM      6  C   UNL A   1      32.458  30.809  26.696  1.00  0.00     0.338 C 
ATOM      7  O   UNL A   1      31.596  31.576  26.339  1.00  0.00    -0.246 OA
BRANCH   6   8
ATOM      8  C   UNL A   1      32.707  29.532  25.990  1.00  0.00     0.087 C 
ATOM      9  C   UNL A   1      34.134  25.853  24.665  1.00  0.00    -0.002 A 
ATOM     10  C   UNL A   1      34.027  25.536  23.306  1.00  0.00     0.054 A 
ATOM     11  C   UNL A   1      33.727  27.133  25.067  1.00  0.00     0.131 A 
ATOM     12  C   UNL A   1      33.590  26.488  22.374  1.00  0.00     0.130 A 
ATOM     13  C   UNL A   1      33.242  28.089  24.160  1.00  0.00     0.021 A 
ATOM     14  O   UNL A   1      33.847  27.422  26.406  1.00  0.00    -0.475 OA
ATOM     15  C   UNL A   1      33.181  27.757  22.808  1.00  0.00     0.058 A 
ATOM     16  C   UNL A   1      32.877  29.419  24.662  1.00  0.00     0.027 C 
ATOM     17  C   UNL A   1      32.833  28.326  26.893  1.00  0.00     0.316 C 
BRANCH   9  18
ATOM     18  C   UNL A   1      34.614  24.885  25.728  1.00  0.00     0.039 C 
BRANCH  18  19
ATOM     19  C   UNL A   1      33.964  23.504  25.828  1.00  0.00     0.001 C 
ATOM     20  C   UNL A   1      32.992  23.382  26.993  1.00  0.00     0.004 C 
ENDBRANCH  18  19
ENDBRANCH   9  18
BRANCH  12  21
ATOM     21  O   UNL A   1      33.508  26.285  21.023  1.00  0.00    -0.406 OA
BRANCH  21  22
ATOM     22  C   UNL A   1      32.536  25.351  20.575  1.00  0.00     0.573 C 
ATOM     23  F   UNL A   1      31.662  25.919  19.716  1.00  0.00    -0.132 F 
ATOM     24  F   UNL A   1      33.124  24.290  19.983  1.00  0.00    -0.132 F 
ATOM     25  F   UNL A   1      31.839  24.902  21.643  1.00  0.00    -0.132 F 
ENDBRANCH  21  22
ENDBRANCH  12  21
BRANCH  17  26
ATOM     26  C   UNL A   1      31.494  27.594  27.144  1.00  0.00     0.430 C 
ATOM     27  F   UNL A   1      31.658  26.291  27.471  1.00  0.00    -0.167 F 
ATOM     28  F   UNL A   1      30.804  28.166  28.159  1.00  0.00    -0.167 F 
ATOM     29  F   UNL A   1      30.675  27.615  26.064  1.00  0.00    -0.167 F 
ENDBRANCH  17  26
ENDBRANCH   6   8
ENDBRANCH   5   6
ENDBRANCH   4   5
ENDBRANCH   3   4
ENDBRANCH   2   3
ENDBRANCH   1   2
BRANCH   1  30
ATOM     30  C   UNL A   1      33.146  35.678  31.164  1.00  0.00     0.188 C 
BRANCH  30  31
ATOM     31  O   UNL A   1      33.978  36.509  31.939  1.00  0.00    -0.376 OA
BRANCH  31  32
ATOM     32  C   UNL A   1      34.825  36.002  32.952  1.00  0.00     0.202 C 
BRANCH  32  33
ATOM     33  C   UNL A   1      35.009  34.507  33.240  1.00  0.00     0.261 C 
BRANCH  33  34
ATOM     34  O   UNL A   1      35.863  33.789  32.347  1.00  0.00    -0.460 OA
BRANCH  34  35
ATOM     35  C   UNL A   1      35.395  32.580  31.954  1.00  0.00     0.338 C 
ATOM     36  O   UNL A   1      34.239  32.189  31.962  1.00  0.00    -0.246 OA
BRANCH  35  37
ATOM     37  C   UNL A   1      36.498  31.791  31.387  1.00  0.00     0.060 A 
ATOM     38  C   UNL A   1      37.390  31.158  32.260  1.00  0.00     0.016 A 
ATOM     39  C   UNL A   1      36.697  31.743  30.005  1.00  0.00     0.016 A 
ATOM     40  C   UNL A   1      38.502  30.488  31.751  1.00  0.00     0.010 A 
ATOM     41  C   UNL A   1      37.820  31.086  29.499  1.00  0.00     0.010 A 
ATOM     42  C   UNL A   1      38.741  30.477  30.370  1.00  0.00    -0.014 A 
BRANCH  42  43
ATOM     43  C   UNL A   1      40.027  29.962  29.843  1.00  0.00     0.031 A 
ATOM     44  C   UNL A   1      41.197  30.901  29.741  1.00  0.00     0.074 A 
ATOM     45  C   UNL A   1      40.159  28.679  29.465  1.00  0.00     0.049 A 
ATOM     46  N   UNL A   1      42.383  30.699  29.227  1.00  0.00    -0.248 NA
ATOM     47  C   UNL A   1      41.001  32.249  30.298  1.00  0.00     0.031 C 
ATOM     48  C   UNL A   1      39.121  27.656  29.567  1.00  0.00     0.029 A 
ATOM     49  N   UNL A   1      41.228  28.024  28.907  1.00  0.00    -0.354 N 
ATOM     50  C   UNL A   1      43.071  31.894  29.389  1.00  0.00     0.074 A 
ATOM     51  C   UNL A   1      42.166  32.822  30.031  1.00  0.00     0.031 C 
ATOM     52  C   UNL A   1      39.601  26.501  29.072  1.00  0.00     0.029 A 
ATOM     53  C   UNL A   1      40.963  26.715  28.586  1.00  0.00     0.049 A 
ATOM     54  H   UNL A   1      42.102  28.450  28.752  1.00  0.00     0.167 HD
ATOM     55  C   UNL A   1      44.345  32.191  29.036  1.00  0.00     0.037 A 
ATOM     56  C   UNL A   1      41.724  25.806  27.946  1.00  0.00     0.037 A 
ATOM     57  C   UNL A   1      45.246  31.272  28.394  1.00  0.00     0.049 A 
ATOM     58  C   UNL A   1      43.107  26.187  27.483  1.00  0.00     0.074 A 
ATOM     59  C   UNL A   1      46.554  31.481  27.996  1.00  0.00     0.029 A 
ATOM     60  N   UNL A   1      44.927  29.967  28.052  1.00  0.00    -0.354 N 
ATOM     61  N   UNL A   1      43.749  27.319  27.639  1.00  0.00    -0.248 NA
ATOM     62  C   UNL A   1      43.867  25.164  26.750  1.00  0.00     0.031 C 
ATOM     63  C   UNL A   1      47.013  30.316  27.373  1.00  0.00     0.029 A 
ATOM     64  C   UNL A   1      46.006  29.366  27.426  1.00  0.00     0.049 A 
ATOM     65  H   UNL A   1      44.061  29.532  28.227  1.00  0.00     0.167 HD
ATOM     66  C   UNL A   1      44.994  27.136  27.047  1.00  0.00     0.074 A 
ATOM     67  C   UNL A   1      45.021  25.780  26.539  1.00  0.00     0.031 C 
ATOM     68  C   UNL A   1      46.022  28.012  26.935  1.00  0.00     0.037 A 
BRANCH  55  69
ATOM     69  C   UNL A   1      44.824  33.586  29.309  1.00  0.00     0.057 A 
ATOM     70  C   UNL A   1      45.408  33.942  30.531  1.00  0.00     0.134 A 
ATOM     71  C   UNL A   1      44.716  34.579  28.328  1.00  0.00     0.134 A 
ATOM     72  F   UNL A   1      45.526  33.039  31.516  1.00  0.00    -0.206 F 
ATOM     73  C   UNL A   1      45.848  35.244  30.776  1.00  0.00     0.040 A 
ATOM     74  C   UNL A   1      45.173  35.879  28.553  1.00  0.00     0.040 A 
ATOM     75  F   UNL A   1      44.168  34.303  27.135  1.00  0.00    -0.206 F 
ATOM     76  C   UNL A   1      45.735  36.215  29.782  1.00  0.00     0.006 A 
ENDBRANCH  55  69
BRANCH  56  77
ATOM     77  C   UNL A   1      41.190  24.447  27.672  1.00  0.00     0.057 A 
ATOM     78  C   UNL A   1      40.201  24.237  26.705  1.00  0.00     0.134 A 
ATOM     79  C   UNL A   1      41.632  23.334  28.397  1.00  0.00     0.134 A 
ATOM     80  F   UNL A   1      39.718  25.269  25.999  1.00  0.00    -0.206 F 
ATOM     81  C   UNL A   1      39.660  22.971  26.478  1.00  0.00     0.040 A 
ATOM     82  C   UNL A   1      41.117  22.058  28.163  1.00  0.00     0.040 A 
ATOM     83  F   UNL A   1      42.574  23.470  29.343  1.00  0.00    -0.206 F 
ATOM     84  C   UNL A   1      40.121  21.875  27.205  1.00  0.00     0.006 A 
ENDBRANCH  56  77
BRANCH  68  85
ATOM     85  C   UNL A   1      47.278  27.524  26.272  1.00  0.00     0.057 A 
ATOM     86  C   UNL A   1      47.469  27.620  24.889  1.00  0.00     0.134 A 
ATOM     87  C   UNL A   1      48.328  26.999  27.036  1.00  0.00     0.134 A 
ATOM     88  F   UNL A   1      46.497  28.102  24.099  1.00  0.00    -0.206 F 
ATOM     89  C   UNL A   1      48.654  27.194  24.286  1.00  0.00     0.040 A 
ATOM     90  C   UNL A   1      49.527  26.593  26.448  1.00  0.00     0.040 A 
ATOM     91  F   UNL A   1      48.213  26.889  28.368  1.00  0.00    -0.206 F 
ATOM     92  C   UNL A   1      49.690  26.686  25.067  1.00  0.00     0.006 A 
ENDBRANCH  68  85
ENDBRANCH  42  43
ENDBRANCH  35  37
ENDBRANCH  34  35
ENDBRANCH  33  34
ENDBRANCH  32  33
ENDBRANCH  31  32
ENDBRANCH  30  31
ENDBRANCH   1  30
TORSDOF 22
ENDMDL
MODEL 3
REMARK VINA RESULT:     -10.7      4.617     10.052
REMARK SMILES CCCc1cc(OC(F)(F)F)cc2c1O[C@H](C(F)(F)F)C(C(=O)OCCOCCOCCOC(=O)c1ccc(-c3c4nc(c(-c5c(F)cccc5F)c5ccc([nH]5)c(-c5c(F)cccc5F)c5nc(c(-c6c(F)cccc6F)c6ccc3[nH]6)C=C5)C=C4)cc1)=C2
REMARK SMILES IDX 28 1 27 2 26 3 25 4 24 5 22 6 23 7 21 8 4 9 5 10 14 11 6 12
REMARK SMILES IDX 13 13 15 14 12 15 90 16 16 17 3 18 2 19 1 20 7 21 8 22 9 23
REMARK SMILES IDX 10 24 11 25 17 26 18 27 19 28 20 29 29 30 30 31 31 32 32 33
REMARK SMILES IDX 33 34 34 35 35 36 36 37 37 38 89 39 38 40 88 41 39 42 40 43
REMARK SMILES IDX 41 44 82 45 42 46 87 47 81 48 83 49 43 50 86 51 80 52 79 53
REMARK SMILES IDX 44 55 70 56 53 57 69 58 54 59 57 60 68 61 84 62 55 63 56 64
REMARK SMILES IDX 67 66 85 67 58 68 45 69 46 70 51 71 47 72 48 73 50 74 52 75
REMARK SMILES IDX 49 76 71 77 72 78 77 79 73 80 74 81 76 82 78 83 75 84 59 85
REMARK SMILES IDX 60 86 65 87 61 88 62 89 64 90 66 91 63 92
REMARK H PARENT 83 54 57 65
REMARK Flexibility Score: inf
ROOT
ATOM      1  C   UNL A   1      39.185  21.884  26.055  1.00  0.00     0.188 C 
ENDROOT
BRANCH   1   2
ATOM      2  O   UNL A   1      38.076  21.686  25.196  1.00  0.00    -0.376 OA
BRANCH   2   3
ATOM      3  C   UNL A   1      37.097  22.700  25.058  1.00  0.00     0.202 C 
BRANCH   3   4
ATOM      4  C   UNL A   1      36.194  22.668  23.827  1.00  0.00     0.261 C 
BRANCH   4   5
ATOM      5  O   UNL A   1      34.817  22.964  24.115  1.00  0.00    -0.460 OA
BRANCH   5   6
ATOM      6  C   UNL A   1      34.169  23.661  23.145  1.00  0.00     0.338 C 
ATOM      7  O   UNL A   1      34.058  23.338  21.986  1.00  0.00    -0.246 OA
BRANCH   6   8
ATOM      8  C   UNL A   1      33.497  24.863  23.687  1.00  0.00     0.087 C 
ATOM      9  C   UNL A   1      31.555  28.501  24.257  1.00  0.00    -0.002 A 
ATOM     10  C   UNL A   1      31.795  29.218  25.434  1.00  0.00     0.054 A 
ATOM     11  C   UNL A   1      32.289  27.324  24.052  1.00  0.00     0.131 A 
ATOM     12  C   UNL A   1      32.781  28.807  26.342  1.00  0.00     0.130 A 
ATOM     13  C   UNL A   1      33.250  26.866  24.968  1.00  0.00     0.021 A 
ATOM     14  O   UNL A   1      32.040  26.641  22.885  1.00  0.00    -0.475 OA
ATOM     15  C   UNL A   1      33.493  27.621  26.115  1.00  0.00     0.058 A 
ATOM     16  C   UNL A   1      34.003  25.646  24.654  1.00  0.00     0.027 C 
ATOM     17  C   UNL A   1      32.189  25.211  23.012  1.00  0.00     0.316 C 
BRANCH   9  18
ATOM     18  C   UNL A   1      30.520  28.891  23.220  1.00  0.00     0.039 C 
BRANCH  18  19
ATOM     19  C   UNL A   1      29.625  30.104  23.480  1.00  0.00     0.001 C 
ATOM     20  C   UNL A   1      29.079  30.730  22.204  1.00  0.00     0.004 C 
ENDBRANCH  18  19
ENDBRANCH   9  18
BRANCH  12  21
ATOM     21  O   UNL A   1      33.122  29.474  27.487  1.00  0.00    -0.406 OA
BRANCH  21  22
ATOM     22  C   UNL A   1      34.373  30.148  27.486  1.00  0.00     0.573 C 
ATOM     23  F   UNL A   1      34.267  31.390  26.966  1.00  0.00    -0.132 F 
ATOM     24  F   UNL A   1      34.880  30.225  28.735  1.00  0.00    -0.132 F 
ATOM     25  F   UNL A   1      35.242  29.449  26.723  1.00  0.00    -0.132 F 
ENDBRANCH  21  22
ENDBRANCH  12  21
BRANCH  17  26
ATOM     26  C   UNL A   1      30.952  24.570  23.684  1.00  0.00     0.430 C 
ATOM     27  F   UNL A   1      29.858  25.365  23.643  1.00  0.00    -0.167 F 
ATOM     28  F   UNL A   1      30.611  23.407  23.078  1.00  0.00    -0.167 F 
ATOM     29  F   UNL A   1      31.159  24.274  24.990  1.00  0.00    -0.167 F 
ENDBRANCH  17  26
ENDBRANCH   6   8
ENDBRANCH   5   6
ENDBRANCH   4   5
ENDBRANCH   3   4
ENDBRANCH   2   3
ENDBRANCH   1   2
BRANCH   1  30
ATOM     30  C   UNL A   1      40.272  20.803  26.236  1.00  0.00     0.188 C 
BRANCH  30  31
ATOM     31  O   UNL A   1      41.563  21.115  26.706  1.00  0.00    -0.376 OA
BRANCH  31  32
ATOM     32  C   UNL A   1      42.526  21.765  25.900  1.00  0.00     0.202 C 
BRANCH  32  33
ATOM     33  C   UNL A   1      42.871  23.255  26.017  1.00  0.00     0.261 C 
BRANCH  33  34
ATOM     34  O   UNL A   1      41.770  24.152  26.170  1.00  0.00    -0.460 OA
BRANCH  34  35
ATOM     35  C   UNL A   1      42.004  25.423  25.765  1.00  0.00     0.338 C 
ATOM     36  O   UNL A   1      42.442  25.794  24.688  1.00  0.00    -0.246 OA
BRANCH  35  37
ATOM     37  C   UNL A   1      41.542  26.358  26.801  1.00  0.00     0.060 A 
ATOM     38  C   UNL A   1      42.175  27.601  26.913  1.00  0.00     0.016 A 
ATOM     39  C   UNL A   1      40.547  25.978  27.704  1.00  0.00     0.016 A 
ATOM     40  C   UNL A   1      41.824  28.466  27.950  1.00  0.00     0.010 A 
ATOM     41  C   UNL A   1      40.211  26.839  28.751  1.00  0.00     0.010 A 
ATOM     42  C   UNL A   1      40.865  28.076  28.894  1.00  0.00    -0.014 A 
BRANCH  42  43
ATOM     43  C   UNL A   1      40.650  28.888  30.115  1.00  0.00     0.031 A 
ATOM     44  C   UNL A   1      39.558  29.922  30.115  1.00  0.00     0.074 A 
ATOM     45  C   UNL A   1      41.407  28.708  31.211  1.00  0.00     0.049 A 
ATOM     46  N   UNL A   1      39.251  30.807  31.029  1.00  0.00    -0.248 NA
ATOM     47  C   UNL A   1      38.697  29.961  28.923  1.00  0.00     0.031 C 
ATOM     48  C   UNL A   1      42.456  27.703  31.359  1.00  0.00     0.029 A 
ATOM     49  N   UNL A   1      41.410  29.381  32.407  1.00  0.00    -0.354 N 
ATOM     50  C   UNL A   1      38.169  31.512  30.520  1.00  0.00     0.074 A 
ATOM     51  C   UNL A   1      37.884  30.967  29.210  1.00  0.00     0.031 C 
ATOM     52  C   UNL A   1      43.014  27.834  32.576  1.00  0.00     0.029 A 
ATOM     53  C   UNL A   1      42.386  28.955  33.273  1.00  0.00     0.049 A 
ATOM     54  H   UNL A   1      40.773  30.100  32.624  1.00  0.00     0.167 HD
ATOM     55  C   UNL A   1      37.473  32.523  31.094  1.00  0.00     0.037 A 
ATOM     56  C   UNL A   1      42.750  29.437  34.478  1.00  0.00     0.037 A 
ATOM     57  C   UNL A   1      37.756  33.069  32.394  1.00  0.00     0.049 A 
ATOM     58  C   UNL A   1      42.017  30.619  35.058  1.00  0.00     0.074 A 
ATOM     59  C   UNL A   1      37.108  34.095  33.059  1.00  0.00     0.029 A 
ATOM     60  N   UNL A   1      38.778  32.635  33.225  1.00  0.00    -0.354 N 
ATOM     61  N   UNL A   1      40.997  31.281  34.570  1.00  0.00    -0.248 NA
ATOM     62  C   UNL A   1      42.494  31.124  36.354  1.00  0.00     0.031 C 
ATOM     63  C   UNL A   1      37.765  34.310  34.275  1.00  0.00     0.029 A 
ATOM     64  C   UNL A   1      38.793  33.388  34.387  1.00  0.00     0.049 A 
ATOM     65  H   UNL A   1      39.400  31.900  33.018  1.00  0.00     0.167 HD
ATOM     66  C   UNL A   1      40.694  32.261  35.508  1.00  0.00     0.074 A 
ATOM     67  C   UNL A   1      41.632  32.101  36.599  1.00  0.00     0.031 C 
ATOM     68  C   UNL A   1      39.725  33.209  35.469  1.00  0.00     0.037 A 
BRANCH  55  69
ATOM     69  C   UNL A   1      36.355  33.124  30.295  1.00  0.00     0.057 A 
ATOM     70  C   UNL A   1      36.595  34.001  29.230  1.00  0.00     0.134 A 
ATOM     71  C   UNL A   1      35.023  32.805  30.585  1.00  0.00     0.134 A 
ATOM     72  F   UNL A   1      37.849  34.358  28.913  1.00  0.00    -0.206 F 
ATOM     73  C   UNL A   1      35.547  34.559  28.495  1.00  0.00     0.040 A 
ATOM     74  C   UNL A   1      33.967  33.338  29.842  1.00  0.00     0.040 A 
ATOM     75  F   UNL A   1      34.725  31.969  31.590  1.00  0.00    -0.206 F 
ATOM     76  C   UNL A   1      34.229  34.222  28.798  1.00  0.00     0.006 A 
ENDBRANCH  55  69
BRANCH  56  77
ATOM     77  C   UNL A   1      43.884  28.823  35.215  1.00  0.00     0.057 A 
ATOM     78  C   UNL A   1      43.678  27.789  36.134  1.00  0.00     0.134 A 
ATOM     79  C   UNL A   1      45.196  29.282  35.041  1.00  0.00     0.134 A 
ATOM     80  F   UNL A   1      42.441  27.327  36.364  1.00  0.00    -0.206 F 
ATOM     81  C   UNL A   1      44.734  27.242  36.866  1.00  0.00     0.040 A 
ATOM     82  C   UNL A   1      46.263  28.727  35.749  1.00  0.00     0.040 A 
ATOM     83  F   UNL A   1      45.459  30.275  34.180  1.00  0.00    -0.206 F 
ATOM     84  C   UNL A   1      46.032  27.708  36.671  1.00  0.00     0.006 A 
ENDBRANCH  56  77
BRANCH  68  85
ATOM     85  C   UNL A   1      39.603  34.122  36.655  1.00  0.00     0.057 A 
ATOM     86  C   UNL A   1      40.124  35.422  36.644  1.00  0.00     0.134 A 
ATOM     87  C   UNL A   1      38.910  33.712  37.801  1.00  0.00     0.134 A 
ATOM     88  F   UNL A   1      40.809  35.872  35.581  1.00  0.00    -0.206 F 
ATOM     89  C   UNL A   1      39.976  36.275  37.739  1.00  0.00     0.040 A 
ATOM     90  C   UNL A   1      38.735  34.564  38.892  1.00  0.00     0.040 A 
ATOM     91  F   UNL A   1      38.379  32.482  37.872  1.00  0.00    -0.206 F 
ATOM     92  C   UNL A   1      39.273  35.849  38.864  1.00  0.00     0.006 A 
ENDBRANCH  68  85
ENDBRANCH  42  43
ENDBRANCH  35  37
ENDBRANCH  34  35
ENDBRANCH  33  34
ENDBRANCH  32  33
ENDBRANCH  31  32
ENDBRANCH  30  31
ENDBRANCH   1  30
TORSDOF 22
ENDMDL
