MODEL 1
REMARK VINA RESULT:     -10.0      0.000      0.000
REMARK SMILES COC(=O)c1ccc([C@H]([NH3+])CC(=O)OCCOCCOCCOC(=O)c2ccc(-c3c4nc(c(-c5c(F)cccc5F)c5ccc([nH]5)c(-c5c(F)cccc5F)c5nc(c(-c6c(F)cccc6F)c6ccc3[nH]6)C=C5)C=C4)cc2)cc1
REMARK SMILES IDX 18 1 17 2 16 3 15 4 14 5 12 6 13 7 11 8 9 9 8 10 5 11 6 12
REMARK SMILES IDX 81 13 7 14 80 15 3 16 4 17 2 18 1 19 10 20 19 24 20 25 21 26
REMARK SMILES IDX 22 27 23 28 24 29 25 30 26 31 27 32 79 33 28 34 78 35 29 36
REMARK SMILES IDX 30 37 31 38 72 39 32 40 77 41 71 42 73 43 33 44 76 45 70 46
REMARK SMILES IDX 69 47 34 49 60 50 43 51 59 52 44 53 47 54 58 55 74 56 45 57
REMARK SMILES IDX 46 58 57 60 75 61 48 62 35 63 36 64 41 65 37 66 38 67 40 68
REMARK SMILES IDX 42 69 39 70 61 71 62 72 67 73 63 74 64 75 66 76 68 77 65 78
REMARK SMILES IDX 49 79 50 80 55 81 51 82 52 83 54 84 56 85 53 86
REMARK H PARENT 10 21 10 22 10 23 73 48 47 59
REMARK Flexibility Score: inf
ROOT
ATOM      1  C   UNL A   1      33.281  36.864  31.386  1.00  0.00     0.188 C 
ENDROOT
BRANCH   1   2
ATOM      2  O   UNL A   1      32.528  36.328  30.304  1.00  0.00    -0.376 OA
BRANCH   2   3
ATOM      3  C   UNL A   1      33.193  36.236  29.044  1.00  0.00     0.202 C 
BRANCH   3   4
ATOM      4  C   UNL A   1      34.125  35.028  28.852  1.00  0.00     0.261 C 
BRANCH   4   5
ATOM      5  O   UNL A   1      33.462  33.839  28.363  1.00  0.00    -0.463 OA
BRANCH   5   6
ATOM      6  C   UNL A   1      34.281  32.856  27.906  1.00  0.00     0.312 C 
ATOM      7  O   UNL A   1      35.457  33.025  27.588  1.00  0.00    -0.252 OA
BRANCH   6   8
ATOM      8  C   UNL A   1      33.679  31.466  27.896  1.00  0.00     0.192 C 
BRANCH   8   9
ATOM      9  C   UNL A   1      34.509  30.226  27.510  1.00  0.00     0.223 C 
BRANCH   9  10
ATOM     10  C   UNL A   1      33.603  29.072  27.023  1.00  0.00     0.010 A 
ATOM     11  C   UNL A   1      31.965  26.895  26.190  1.00  0.00     0.060 A 
ATOM     12  C   UNL A   1      33.258  27.045  25.685  1.00  0.00     0.016 A 
ATOM     13  C   UNL A   1      31.468  27.857  27.073  1.00  0.00     0.016 A 
ATOM     14  C   UNL A   1      34.057  28.126  26.085  1.00  0.00     0.011 A 
ATOM     15  C   UNL A   1      32.275  28.934  27.474  1.00  0.00     0.011 A 
BRANCH  11  16
ATOM     16  C   UNL A   1      31.182  25.692  25.795  1.00  0.00     0.337 C 
ATOM     17  O   UNL A   1      30.802  25.484  24.654  1.00  0.00    -0.246 OA
BRANCH  16  18
ATOM     18  O   UNL A   1      30.961  24.890  26.867  1.00  0.00    -0.465 OA
ATOM     19  C   UNL A   1      31.776  23.714  26.898  1.00  0.00     0.282 C 
ENDBRANCH  16  18
ENDBRANCH  11  16
ENDBRANCH   9  10
BRANCH   9  20
ATOM     20  N   UNL A   1      35.372  29.791  28.615  1.00  0.00    -0.351 N 
ATOM     21  H   UNL A   1      35.177  30.354  29.441  1.00  0.00     0.345 HD
ATOM     22  H   UNL A   1      36.350  29.905  28.348  1.00  0.00     0.345 HD
ATOM     23  H   UNL A   1      35.190  28.808  28.822  1.00  0.00     0.345 HD
ENDBRANCH   9  20
ENDBRANCH   8   9
ENDBRANCH   6   8
ENDBRANCH   5   6
ENDBRANCH   4   5
ENDBRANCH   3   4
ENDBRANCH   2   3
ENDBRANCH   1   2
BRANCH   1  24
ATOM     24  C   UNL A   1      33.269  36.054  32.682  1.00  0.00     0.188 C 
BRANCH  24  25
ATOM     25  O   UNL A   1      34.376  36.255  33.549  1.00  0.00    -0.376 OA
BRANCH  25  26
ATOM     26  C   UNL A   1      35.280  35.150  33.680  1.00  0.00     0.202 C 
BRANCH  26  27
ATOM     27  C   UNL A   1      34.660  33.733  33.677  1.00  0.00     0.261 C 
BRANCH  27  28
ATOM     28  O   UNL A   1      35.556  32.652  33.335  1.00  0.00    -0.460 OA
BRANCH  28  29
ATOM     29  C   UNL A   1      35.421  32.090  32.107  1.00  0.00     0.338 C 
ATOM     30  O   UNL A   1      34.431  32.103  31.414  1.00  0.00    -0.246 OA
BRANCH  29  31
ATOM     31  C   UNL A   1      36.776  31.686  31.622  1.00  0.00     0.060 A 
ATOM     32  C   UNL A   1      37.190  32.165  30.369  1.00  0.00     0.016 A 
ATOM     33  C   UNL A   1      37.651  30.913  32.389  1.00  0.00     0.016 A 
ATOM     34  C   UNL A   1      38.452  31.833  29.863  1.00  0.00     0.010 A 
ATOM     35  C   UNL A   1      38.910  30.567  31.875  1.00  0.00     0.010 A 
ATOM     36  C   UNL A   1      39.304  30.994  30.594  1.00  0.00    -0.014 A 
BRANCH  36  37
ATOM     37  C   UNL A   1      40.494  30.394  29.931  1.00  0.00     0.031 A 
ATOM     38  C   UNL A   1      41.703  31.266  29.715  1.00  0.00     0.074 A 
ATOM     39  C   UNL A   1      40.536  29.103  29.554  1.00  0.00     0.049 A 
ATOM     40  N   UNL A   1      42.843  30.986  29.136  1.00  0.00    -0.248 NA
ATOM     41  C   UNL A   1      41.609  32.645  30.223  1.00  0.00     0.031 C 
ATOM     42  C   UNL A   1      39.465  28.127  29.737  1.00  0.00     0.029 A 
ATOM     43  N   UNL A   1      41.535  28.392  28.929  1.00  0.00    -0.354 N 
ATOM     44  C   UNL A   1      43.598  32.152  29.205  1.00  0.00     0.074 A 
ATOM     45  C   UNL A   1      42.775  33.151  29.852  1.00  0.00     0.031 C 
ATOM     46  C   UNL A   1      39.857  26.948  29.223  1.00  0.00     0.029 A 
ATOM     47  C   UNL A   1      41.195  27.090  28.648  1.00  0.00     0.049 A 
ATOM     48  H   UNL A   1      42.411  28.780  28.703  1.00  0.00     0.167 HD
ATOM     49  C   UNL A   1      44.863  32.373  28.779  1.00  0.00     0.037 A 
ATOM     50  C   UNL A   1      41.877  26.132  27.986  1.00  0.00     0.037 A 
ATOM     51  C   UNL A   1      45.692  31.389  28.134  1.00  0.00     0.049 A 
ATOM     52  C   UNL A   1      43.256  26.425  27.448  1.00  0.00     0.074 A 
ATOM     53  C   UNL A   1      46.994  31.522  27.686  1.00  0.00     0.029 A 
ATOM     54  N   UNL A   1      45.296  30.095  27.837  1.00  0.00    -0.354 N 
ATOM     55  N   UNL A   1      43.969  27.521  27.543  1.00  0.00    -0.248 NA
ATOM     56  C   UNL A   1      43.927  25.342  26.709  1.00  0.00     0.031 C 
ATOM     57  C   UNL A   1      47.368  30.324  27.068  1.00  0.00     0.029 A 
ATOM     58  C   UNL A   1      46.320  29.427  27.185  1.00  0.00     0.049 A 
ATOM     59  H   UNL A   1      44.417  29.707  28.057  1.00  0.00     0.167 HD
ATOM     60  C   UNL A   1      45.178  27.249  26.910  1.00  0.00     0.074 A 
ATOM     61  C   UNL A   1      45.108  25.881  26.444  1.00  0.00     0.031 C 
ATOM     62  C   UNL A   1      46.250  28.060  26.733  1.00  0.00     0.037 A 
BRANCH  49  63
ATOM     63  C   UNL A   1      45.423  33.752  28.972  1.00  0.00     0.057 A 
ATOM     64  C   UNL A   1      46.131  34.111  30.125  1.00  0.00     0.134 A 
ATOM     65  C   UNL A   1      45.275  34.725  27.974  1.00  0.00     0.134 A 
ATOM     66  F   UNL A   1      46.294  33.231  31.125  1.00  0.00    -0.206 F 
ATOM     67  C   UNL A   1      46.654  35.395  30.290  1.00  0.00     0.040 A 
ATOM     68  C   UNL A   1      45.817  36.003  28.116  1.00  0.00     0.040 A 
ATOM     69  F   UNL A   1      44.611  34.445  26.843  1.00  0.00    -0.206 F 
ATOM     70  C   UNL A   1      46.503  36.343  29.279  1.00  0.00     0.006 A 
ENDBRANCH  49  63
BRANCH  50  71
ATOM     71  C   UNL A   1      41.264  24.794  27.764  1.00  0.00     0.057 A 
ATOM     72  C   UNL A   1      41.689  23.670  28.482  1.00  0.00     0.134 A 
ATOM     73  C   UNL A   1      40.275  24.600  26.792  1.00  0.00     0.134 A 
ATOM     74  F   UNL A   1      42.657  23.782  29.404  1.00  0.00    -0.206 F 
ATOM     75  C   UNL A   1      41.167  22.399  28.230  1.00  0.00     0.040 A 
ATOM     76  C   UNL A   1      39.724  23.341  26.549  1.00  0.00     0.040 A 
ATOM     77  F   UNL A   1      39.829  25.634  26.064  1.00  0.00    -0.206 F 
ATOM     78  C   UNL A   1      40.177  22.233  27.263  1.00  0.00     0.006 A 
ENDBRANCH  50  71
BRANCH  62  79
ATOM     79  C   UNL A   1      47.458  27.484  26.048  1.00  0.00     0.057 A 
ATOM     80  C   UNL A   1      48.476  26.833  26.756  1.00  0.00     0.134 A 
ATOM     81  C   UNL A   1      47.580  27.541  24.653  1.00  0.00     0.134 A 
ATOM     82  F   UNL A   1      48.428  26.749  28.094  1.00  0.00    -0.206 F 
ATOM     83  C   UNL A   1      49.582  26.283  26.105  1.00  0.00     0.040 A 
ATOM     84  C   UNL A   1      48.666  26.971  23.988  1.00  0.00     0.040 A 
ATOM     85  F   UNL A   1      46.635  28.139  23.911  1.00  0.00    -0.206 F 
ATOM     86  C   UNL A   1      49.676  26.345  24.716  1.00  0.00     0.006 A 
ENDBRANCH  62  79
ENDBRANCH  36  37
ENDBRANCH  29  31
ENDBRANCH  28  29
ENDBRANCH  27  28
ENDBRANCH  26  27
ENDBRANCH  25  26
ENDBRANCH  24  25
ENDBRANCH   1  24
TORSDOF 22
ENDMDL
MODEL 2
REMARK VINA RESULT:      -9.7      5.207     10.696
REMARK SMILES COC(=O)c1ccc([C@H]([NH3+])CC(=O)OCCOCCOCCOC(=O)c2ccc(-c3c4nc(c(-c5c(F)cccc5F)c5ccc([nH]5)c(-c5c(F)cccc5F)c5nc(c(-c6c(F)cccc6F)c6ccc3[nH]6)C=C5)C=C4)cc2)cc1
REMARK SMILES IDX 18 1 17 2 16 3 15 4 14 5 12 6 13 7 11 8 9 9 8 10 5 11 6 12
REMARK SMILES IDX 81 13 7 14 80 15 3 16 4 17 2 18 1 19 10 20 19 24 20 25 21 26
REMARK SMILES IDX 22 27 23 28 24 29 25 30 26 31 27 32 79 33 28 34 78 35 29 36
REMARK SMILES IDX 30 37 31 38 72 39 32 40 77 41 71 42 73 43 33 44 76 45 70 46
REMARK SMILES IDX 69 47 34 49 60 50 43 51 59 52 44 53 47 54 58 55 74 56 45 57
REMARK SMILES IDX 46 58 57 60 75 61 48 62 35 63 36 64 41 65 37 66 38 67 40 68
REMARK SMILES IDX 42 69 39 70 61 71 62 72 67 73 63 74 64 75 66 76 68 77 65 78
REMARK SMILES IDX 49 79 50 80 55 81 51 82 52 83 54 84 56 85 53 86
REMARK H PARENT 10 21 10 22 10 23 73 48 47 59
REMARK Flexibility Score: inf
ROOT
ATOM      1  C   UNL A   1      39.027  22.396  26.151  1.00  0.00     0.188 C 
ENDROOT
BRANCH   1   2
ATOM      2  O   UNL A   1      37.904  21.828  25.486  1.00  0.00    -0.376 OA
BRANCH   2   3
ATOM      3  C   UNL A   1      37.162  22.694  24.628  1.00  0.00     0.202 C 
BRANCH   3   4
ATOM      4  C   UNL A   1      35.776  23.129  25.133  1.00  0.00     0.261 C 
BRANCH   4   5
ATOM      5  O   UNL A   1      35.482  24.530  24.929  1.00  0.00    -0.463 OA
BRANCH   5   6
ATOM      6  C   UNL A   1      34.209  24.814  24.550  1.00  0.00     0.312 C 
ATOM      7  O   UNL A   1      33.870  25.845  23.973  1.00  0.00    -0.252 OA
BRANCH   6   8
ATOM      8  C   UNL A   1      33.201  23.711  24.798  1.00  0.00     0.192 C 
BRANCH   8   9
ATOM      9  C   UNL A   1      32.505  22.972  23.637  1.00  0.00     0.223 C 
BRANCH   9  10
ATOM     10  C   UNL A   1      32.604  21.439  23.807  1.00  0.00     0.010 A 
ATOM     11  C   UNL A   1      32.866  18.616  24.084  1.00  0.00     0.060 A 
ATOM     12  C   UNL A   1      32.350  19.170  22.911  1.00  0.00     0.016 A 
ATOM     13  C   UNL A   1      33.206  19.465  25.141  1.00  0.00     0.016 A 
ATOM     14  C   UNL A   1      32.208  20.559  22.782  1.00  0.00     0.011 A 
ATOM     15  C   UNL A   1      33.066  20.855  25.004  1.00  0.00     0.011 A 
BRANCH  11  16
ATOM     16  C   UNL A   1      33.070  17.143  24.146  1.00  0.00     0.337 C 
ATOM     17  O   UNL A   1      33.384  16.468  23.179  1.00  0.00    -0.246 OA
BRANCH  16  18
ATOM     18  O   UNL A   1      32.855  16.681  25.404  1.00  0.00    -0.465 OA
ATOM     19  C   UNL A   1      32.631  15.270  25.481  1.00  0.00     0.282 C 
ENDBRANCH  16  18
ENDBRANCH  11  16
ENDBRANCH   9  10
BRANCH   9  20
ATOM     20  N   UNL A   1      33.035  23.396  22.336  1.00  0.00    -0.351 N 
ATOM     21  H   UNL A   1      32.264  23.669  21.727  1.00  0.00     0.345 HD
ATOM     22  H   UNL A   1      33.548  22.624  21.909  1.00  0.00     0.345 HD
ATOM     23  H   UNL A   1      33.663  24.189  22.466  1.00  0.00     0.345 HD
ENDBRANCH   9  20
ENDBRANCH   8   9
ENDBRANCH   6   8
ENDBRANCH   5   6
ENDBRANCH   4   5
ENDBRANCH   3   4
ENDBRANCH   2   3
ENDBRANCH   1   2
BRANCH   1  24
ATOM     24  C   UNL A   1      40.111  21.416  26.599  1.00  0.00     0.188 C 
BRANCH  24  25
ATOM     25  O   UNL A   1      41.035  21.014  25.597  1.00  0.00    -0.376 OA
BRANCH  25  26
ATOM     26  C   UNL A   1      42.390  20.836  26.029  1.00  0.00     0.202 C 
BRANCH  26  27
ATOM     27  C   UNL A   1      43.461  21.731  25.363  1.00  0.00     0.261 C 
BRANCH  27  28
ATOM     28  O   UNL A   1      43.001  23.014  24.879  1.00  0.00    -0.460 OA
BRANCH  28  29
ATOM     29  C   UNL A   1      43.804  24.088  25.088  1.00  0.00     0.338 C 
ATOM     30  O   UNL A   1      44.799  24.376  24.464  1.00  0.00    -0.246 OA
BRANCH  29  31
ATOM     31  C   UNL A   1      43.116  25.013  26.038  1.00  0.00     0.060 A 
ATOM     32  C   UNL A   1      43.617  26.319  26.157  1.00  0.00     0.016 A 
ATOM     33  C   UNL A   1      41.971  24.646  26.751  1.00  0.00     0.016 A 
ATOM     34  C   UNL A   1      43.010  27.238  27.020  1.00  0.00     0.010 A 
ATOM     35  C   UNL A   1      41.372  25.562  27.628  1.00  0.00     0.010 A 
ATOM     36  C   UNL A   1      41.909  26.852  27.796  1.00  0.00    -0.014 A 
BRANCH  36  37
ATOM     37  C   UNL A   1      41.466  27.712  28.927  1.00  0.00     0.031 A 
ATOM     38  C   UNL A   1      42.227  27.628  30.226  1.00  0.00     0.074 A 
ATOM     39  C   UNL A   1      40.441  28.577  28.819  1.00  0.00     0.049 A 
ATOM     40  N   UNL A   1      42.018  28.248  31.359  1.00  0.00    -0.248 NA
ATOM     41  C   UNL A   1      43.383  26.716  30.243  1.00  0.00     0.031 C 
ATOM     42  C   UNL A   1      39.641  28.802  27.618  1.00  0.00     0.029 A 
ATOM     43  N   UNL A   1      39.896  29.430  29.751  1.00  0.00    -0.354 N 
ATOM     44  C   UNL A   1      43.009  27.799  32.223  1.00  0.00     0.074 A 
ATOM     45  C   UNL A   1      43.799  26.830  31.494  1.00  0.00     0.031 C 
ATOM     46  C   UNL A   1      38.698  29.722  27.889  1.00  0.00     0.029 A 
ATOM     47  C   UNL A   1      38.807  30.131  29.290  1.00  0.00     0.049 A 
ATOM     48  H   UNL A   1      40.252  29.529  30.663  1.00  0.00     0.167 HD
ATOM     49  C   UNL A   1      43.250  28.162  33.505  1.00  0.00     0.037 A 
ATOM     50  C   UNL A   1      37.983  30.987  29.930  1.00  0.00     0.037 A 
ATOM     51  C   UNL A   1      42.472  29.124  34.241  1.00  0.00     0.049 A 
ATOM     52  C   UNL A   1      38.222  31.317  31.383  1.00  0.00     0.074 A 
ATOM     53  C   UNL A   1      42.657  29.566  35.539  1.00  0.00     0.029 A 
ATOM     54  N   UNL A   1      41.357  29.782  33.748  1.00  0.00    -0.354 N 
ATOM     55  N   UNL A   1      39.178  30.907  32.181  1.00  0.00    -0.248 NA
ATOM     56  C   UNL A   1      37.264  32.234  32.024  1.00  0.00     0.031 C 
ATOM     57  C   UNL A   1      41.620  30.453  35.850  1.00  0.00     0.029 A 
ATOM     58  C   UNL A   1      40.827  30.607  34.726  1.00  0.00     0.049 A 
ATOM     59  H   UNL A   1      40.996  29.680  32.837  1.00  0.00     0.167 HD
ATOM     60  C   UNL A   1      38.957  31.539  33.401  1.00  0.00     0.074 A 
ATOM     61  C   UNL A   1      37.783  32.369  33.236  1.00  0.00     0.031 C 
ATOM     62  C   UNL A   1      39.664  31.441  34.553  1.00  0.00     0.037 A 
BRANCH  49  63
ATOM     63  C   UNL A   1      44.393  27.490  34.208  1.00  0.00     0.057 A 
ATOM     64  C   UNL A   1      45.681  28.040  34.223  1.00  0.00     0.134 A 
ATOM     65  C   UNL A   1      44.193  26.290  34.903  1.00  0.00     0.134 A 
ATOM     66  F   UNL A   1      45.943  29.178  33.563  1.00  0.00    -0.206 F 
ATOM     67  C   UNL A   1      46.735  27.409  34.886  1.00  0.00     0.040 A 
ATOM     68  C   UNL A   1      45.232  25.665  35.593  1.00  0.00     0.040 A 
ATOM     69  F   UNL A   1      42.983  25.713  34.931  1.00  0.00    -0.206 F 
ATOM     70  C   UNL A   1      46.509  26.221  35.580  1.00  0.00     0.006 A 
ENDBRANCH  49  63
BRANCH  50  71
ATOM     71  C   UNL A   1      36.826  31.589  29.214  1.00  0.00     0.057 A 
ATOM     72  C   UNL A   1      35.681  30.839  28.920  1.00  0.00     0.134 A 
ATOM     73  C   UNL A   1      36.859  32.914  28.763  1.00  0.00     0.134 A 
ATOM     74  F   UNL A   1      35.600  29.553  29.295  1.00  0.00    -0.206 F 
ATOM     75  C   UNL A   1      34.621  31.377  28.187  1.00  0.00     0.040 A 
ATOM     76  C   UNL A   1      35.795  33.474  28.054  1.00  0.00     0.040 A 
ATOM     77  F   UNL A   1      37.930  33.685  29.004  1.00  0.00    -0.206 F 
ATOM     78  C   UNL A   1      34.674  32.701  27.756  1.00  0.00     0.006 A 
ENDBRANCH  50  71
BRANCH  62  79
ATOM     79  C   UNL A   1      39.224  32.284  35.718  1.00  0.00     0.057 A 
ATOM     80  C   UNL A   1      38.367  31.793  36.711  1.00  0.00     0.134 A 
ATOM     81  C   UNL A   1      39.704  33.592  35.872  1.00  0.00     0.134 A 
ATOM     82  F   UNL A   1      37.864  30.552  36.623  1.00  0.00    -0.206 F 
ATOM     83  C   UNL A   1      37.984  32.579  37.800  1.00  0.00     0.040 A 
ATOM     84  C   UNL A   1      39.351  34.378  36.970  1.00  0.00     0.040 A 
ATOM     85  F   UNL A   1      40.539  34.122  34.965  1.00  0.00    -0.206 F 
ATOM     86  C   UNL A   1      38.482  33.873  37.935  1.00  0.00     0.006 A 
ENDBRANCH  62  79
ENDBRANCH  36  37
ENDBRANCH  29  31
ENDBRANCH  28  29
ENDBRANCH  27  28
ENDBRANCH  26  27
ENDBRANCH  25  26
ENDBRANCH  24  25
ENDBRANCH   1  24
TORSDOF 22
ENDMDL
MODEL 3
REMARK VINA RESULT:      -9.7      4.794     10.584
REMARK SMILES COC(=O)c1ccc([C@H]([NH3+])CC(=O)OCCOCCOCCOC(=O)c2ccc(-c3c4nc(c(-c5c(F)cccc5F)c5ccc([nH]5)c(-c5c(F)cccc5F)c5nc(c(-c6c(F)cccc6F)c6ccc3[nH]6)C=C5)C=C4)cc2)cc1
REMARK SMILES IDX 18 1 17 2 16 3 15 4 14 5 12 6 13 7 11 8 9 9 8 10 5 11 6 12
REMARK SMILES IDX 81 13 7 14 80 15 3 16 4 17 2 18 1 19 10 20 19 24 20 25 21 26
REMARK SMILES IDX 22 27 23 28 24 29 25 30 26 31 27 32 79 33 28 34 78 35 29 36
REMARK SMILES IDX 30 37 31 38 72 39 32 40 77 41 71 42 73 43 33 44 76 45 70 46
REMARK SMILES IDX 69 47 34 49 60 50 43 51 59 52 44 53 47 54 58 55 74 56 45 57
REMARK SMILES IDX 46 58 57 60 75 61 48 62 35 63 36 64 41 65 37 66 38 67 40 68
REMARK SMILES IDX 42 69 39 70 61 71 62 72 67 73 63 74 64 75 66 76 68 77 65 78
REMARK SMILES IDX 49 79 50 80 55 81 51 82 52 83 54 84 56 85 53 86
REMARK H PARENT 10 21 10 22 10 23 73 48 47 59
REMARK Flexibility Score: inf
ROOT
ATOM      1  C   UNL A   1      39.119  21.994  26.150  1.00  0.00     0.188 C 
ENDROOT
BRANCH   1   2
ATOM      2  O   UNL A   1      38.321  21.045  25.452  1.00  0.00    -0.376 OA
BRANCH   2   3
ATOM      3  C   UNL A   1      37.257  21.564  24.655  1.00  0.00     0.202 C 
BRANCH   3   4
ATOM      4  C   UNL A   1      35.875  20.923  24.864  1.00  0.00     0.261 C 
BRANCH   4   5
ATOM      5  O   UNL A   1      34.808  21.872  25.094  1.00  0.00    -0.463 OA
BRANCH   5   6
ATOM      6  C   UNL A   1      33.576  21.334  25.292  1.00  0.00     0.312 C 
ATOM      7  O   UNL A   1      33.376  20.197  25.715  1.00  0.00    -0.252 OA
BRANCH   6   8
ATOM      8  C   UNL A   1      32.414  22.273  25.046  1.00  0.00     0.192 C 
BRANCH   8   9
ATOM      9  C   UNL A   1      31.695  22.993  26.203  1.00  0.00     0.223 C 
BRANCH   9  10
ATOM     10  C   UNL A   1      31.881  24.525  26.116  1.00  0.00     0.010 A 
ATOM     11  C   UNL A   1      32.229  27.342  25.867  1.00  0.00     0.060 A 
ATOM     12  C   UNL A   1      33.335  26.496  25.979  1.00  0.00     0.016 A 
ATOM     13  C   UNL A   1      30.947  26.790  25.929  1.00  0.00     0.016 A 
ATOM     14  C   UNL A   1      33.160  25.111  26.117  1.00  0.00     0.011 A 
ATOM     15  C   UNL A   1      30.779  25.402  26.061  1.00  0.00     0.011 A 
BRANCH  11  16
ATOM     16  C   UNL A   1      32.464  28.795  25.647  1.00  0.00     0.337 C 
ATOM     17  O   UNL A   1      32.020  29.665  26.379  1.00  0.00    -0.246 OA
BRANCH  16  18
ATOM     18  O   UNL A   1      33.222  28.996  24.540  1.00  0.00    -0.465 OA
ATOM     19  C   UNL A   1      32.536  28.760  23.307  1.00  0.00     0.282 C 
ENDBRANCH  16  18
ENDBRANCH  11  16
ENDBRANCH   9  10
BRANCH   9  20
ATOM     20  N   UNL A   1      32.129  22.481  27.509  1.00  0.00    -0.351 N 
ATOM     21  H   UNL A   1      32.582  21.576  27.386  1.00  0.00     0.345 HD
ATOM     22  H   UNL A   1      31.319  22.376  28.119  1.00  0.00     0.345 HD
ATOM     23  H   UNL A   1      32.788  23.137  27.929  1.00  0.00     0.345 HD
ENDBRANCH   9  20
ENDBRANCH   8   9
ENDBRANCH   6   8
ENDBRANCH   5   6
ENDBRANCH   4   5
ENDBRANCH   3   4
ENDBRANCH   2   3
ENDBRANCH   1   2
BRANCH   1  24
ATOM     24  C   UNL A   1      40.461  21.488  26.680  1.00  0.00     0.188 C 
BRANCH  24  25
ATOM     25  O   UNL A   1      41.384  21.040  25.698  1.00  0.00    -0.376 OA
BRANCH  25  26
ATOM     26  C   UNL A   1      42.751  20.943  26.120  1.00  0.00     0.202 C 
BRANCH  26  27
ATOM     27  C   UNL A   1      43.785  21.797  25.349  1.00  0.00     0.261 C 
BRANCH  27  28
ATOM     28  O   UNL A   1      43.314  23.076  24.866  1.00  0.00    -0.460 OA
BRANCH  28  29
ATOM     29  C   UNL A   1      44.087  24.163  25.114  1.00  0.00     0.338 C 
ATOM     30  O   UNL A   1      45.086  24.488  24.515  1.00  0.00    -0.246 OA
BRANCH  29  31
ATOM     31  C   UNL A   1      43.358  25.052  26.068  1.00  0.00     0.060 A 
ATOM     32  C   UNL A   1      43.796  26.381  26.187  1.00  0.00     0.016 A 
ATOM     33  C   UNL A   1      42.237  24.628  26.787  1.00  0.00     0.016 A 
ATOM     34  C   UNL A   1      43.148  27.267  27.055  1.00  0.00     0.010 A 
ATOM     35  C   UNL A   1      41.598  25.512  27.668  1.00  0.00     0.010 A 
ATOM     36  C   UNL A   1      42.072  26.827  27.836  1.00  0.00    -0.014 A 
BRANCH  36  37
ATOM     37  C   UNL A   1      41.593  27.662  28.971  1.00  0.00     0.031 A 
ATOM     38  C   UNL A   1      42.325  27.565  30.284  1.00  0.00     0.074 A 
ATOM     39  C   UNL A   1      40.559  28.516  28.853  1.00  0.00     0.049 A 
ATOM     40  N   UNL A   1      42.083  28.164  31.422  1.00  0.00    -0.248 NA
ATOM     41  C   UNL A   1      43.492  26.668  30.313  1.00  0.00     0.031 C 
ATOM     42  C   UNL A   1      39.784  28.751  27.639  1.00  0.00     0.029 A 
ATOM     43  N   UNL A   1      39.983  29.347  29.787  1.00  0.00    -0.354 N 
ATOM     44  C   UNL A   1      43.060  27.712  32.302  1.00  0.00     0.074 A 
ATOM     45  C   UNL A   1      43.878  26.766  31.575  1.00  0.00     0.031 C 
ATOM     46  C   UNL A   1      38.823  29.655  27.903  1.00  0.00     0.029 A 
ATOM     47  C   UNL A   1      38.896  30.042  29.313  1.00  0.00     0.049 A 
ATOM     48  H   UNL A   1      40.317  29.435  30.708  1.00  0.00     0.167 HD
ATOM     49  C   UNL A   1      43.267  28.057  33.594  1.00  0.00     0.037 A 
ATOM     50  C   UNL A   1      38.047  30.877  29.948  1.00  0.00     0.037 A 
ATOM     51  C   UNL A   1      42.461  28.997  34.328  1.00  0.00     0.049 A 
ATOM     52  C   UNL A   1      38.249  31.185  31.411  1.00  0.00     0.074 A 
ATOM     53  C   UNL A   1      42.611  29.420  35.637  1.00  0.00     0.029 A 
ATOM     54  N   UNL A   1      41.350  29.650  33.821  1.00  0.00    -0.354 N 
ATOM     55  N   UNL A   1      39.191  30.774  32.224  1.00  0.00    -0.248 NA
ATOM     56  C   UNL A   1      37.266  32.079  32.046  1.00  0.00     0.031 C 
ATOM     57  C   UNL A   1      41.557  30.288  35.939  1.00  0.00     0.029 A 
ATOM     58  C   UNL A   1      40.787  30.451  34.801  1.00  0.00     0.049 A 
ATOM     59  H   UNL A   1      41.010  29.558  32.901  1.00  0.00     0.167 HD
ATOM     60  C   UNL A   1      38.935  31.382  33.449  1.00  0.00     0.074 A 
ATOM     61  C   UNL A   1      37.755  32.201  33.271  1.00  0.00     0.031 C 
ATOM     62  C   UNL A   1      39.618  31.274  34.615  1.00  0.00     0.037 A 
BRANCH  49  63
ATOM     63  C   UNL A   1      44.403  27.388  34.311  1.00  0.00     0.057 A 
ATOM     64  C   UNL A   1      44.250  26.157  34.961  1.00  0.00     0.134 A 
ATOM     65  C   UNL A   1      45.677  27.973  34.325  1.00  0.00     0.134 A 
ATOM     66  F   UNL A   1      43.053  25.552  34.998  1.00  0.00    -0.206 F 
ATOM     67  C   UNL A   1      45.316  25.542  35.619  1.00  0.00     0.040 A 
ATOM     68  C   UNL A   1      46.756  27.354  34.956  1.00  0.00     0.040 A 
ATOM     69  F   UNL A   1      45.893  29.150  33.719  1.00  0.00    -0.206 F 
ATOM     70  C   UNL A   1      46.576  26.138  35.611  1.00  0.00     0.006 A 
ENDBRANCH  49  63
BRANCH  50  71
ATOM     71  C   UNL A   1      36.898  31.476  29.216  1.00  0.00     0.057 A 
ATOM     72  C   UNL A   1      35.747  30.732  28.931  1.00  0.00     0.134 A 
ATOM     73  C   UNL A   1      36.946  32.792  28.741  1.00  0.00     0.134 A 
ATOM     74  F   UNL A   1      35.653  29.454  29.329  1.00  0.00    -0.206 F 
ATOM     75  C   UNL A   1      34.695  31.266  28.184  1.00  0.00     0.040 A 
ATOM     76  C   UNL A   1      35.890  33.349  28.017  1.00  0.00     0.040 A 
ATOM     77  F   UNL A   1      38.023  33.557  28.973  1.00  0.00    -0.206 F 
ATOM     78  C   UNL A   1      34.763  32.581  27.729  1.00  0.00     0.006 A 
ENDBRANCH  50  71
BRANCH  62  79
ATOM     79  C   UNL A   1      39.142  32.092  35.784  1.00  0.00     0.057 A 
ATOM     80  C   UNL A   1      39.537  33.422  35.971  1.00  0.00     0.134 A 
ATOM     81  C   UNL A   1      38.237  31.553  36.708  1.00  0.00     0.134 A 
ATOM     82  F   UNL A   1      40.407  33.999  35.129  1.00  0.00    -0.206 F 
ATOM     83  C   UNL A   1      39.069  34.178  37.049  1.00  0.00     0.040 A 
ATOM     84  C   UNL A   1      37.741  32.306  37.773  1.00  0.00     0.040 A 
ATOM     85  F   UNL A   1      37.806  30.288  36.582  1.00  0.00    -0.206 F 
ATOM     86  C   UNL A   1      38.164  33.622  37.950  1.00  0.00     0.006 A 
ENDBRANCH  62  79
ENDBRANCH  36  37
ENDBRANCH  29  31
ENDBRANCH  28  29
ENDBRANCH  27  28
ENDBRANCH  26  27
ENDBRANCH  25  26
ENDBRANCH  24  25
ENDBRANCH   1  24
TORSDOF 22
ENDMDL
