MODEL 1
REMARK VINA RESULT:     -10.5      0.000      0.000
REMARK SMILES Cc1nn(C)c2c1nc(SCC(=O)OCCOCCOCCOC(=O)c1ccc(-c3c4nc(c(-c5c(F)cccc5F)c5ccc([nH]5)c(-c5c(F)cccc5F)c5nc(c(-c6c(F)cccc6F)c6ccc3[nH]6)C=C5)C=C4)cc1)n2[C@H]1CC[N@@H+](C)C1
REMARK SMILES IDX 18 1 17 2 16 3 15 4 14 5 12 6 13 7 11 8 10 9 9 10 1 11 2 12
REMARK SMILES IDX 3 13 7 14 4 15 6 16 8 17 5 18 80 19 81 20 82 21 86 22 83 23
REMARK SMILES IDX 84 24 85 25 19 27 20 28 21 29 22 30 23 31 24 32 25 33 26 34
REMARK SMILES IDX 27 35 79 36 28 37 78 38 29 39 30 40 31 41 72 42 32 43 77 44
REMARK SMILES IDX 71 45 73 46 33 47 76 48 70 49 69 50 34 52 60 53 43 54 59 55
REMARK SMILES IDX 44 56 47 57 58 58 74 59 45 60 46 61 57 63 75 64 48 65 35 66
REMARK SMILES IDX 36 67 41 68 37 69 38 70 40 71 42 72 39 73 61 74 62 75 67 76
REMARK SMILES IDX 63 77 64 78 66 79 68 80 65 81 49 82 50 83 55 84 51 85 52 86
REMARK SMILES IDX 54 87 56 88 53 89
REMARK H PARENT 84 26 73 51 47 62
REMARK Flexibility Score: inf
ROOT
ATOM      1  C   UNL A   1      38.917  21.462  26.025  1.00  0.00     0.188 C 
ENDROOT
BRANCH   1   2
ATOM      2  O   UNL A   1      37.864  22.251  25.480  1.00  0.00    -0.376 OA
BRANCH   2   3
ATOM      3  C   UNL A   1      37.033  21.691  24.472  1.00  0.00     0.202 C 
BRANCH   3   4
ATOM      4  C   UNL A   1      36.019  20.645  24.952  1.00  0.00     0.261 C 
BRANCH   4   5
ATOM      5  O   UNL A   1      34.663  21.024  24.640  1.00  0.00    -0.463 OA
BRANCH   5   6
ATOM      6  C   UNL A   1      34.078  22.005  25.378  1.00  0.00     0.316 C 
ATOM      7  O   UNL A   1      34.409  22.277  26.528  1.00  0.00    -0.251 OA
BRANCH   6   8
ATOM      8  C   UNL A   1      33.080  22.861  24.588  1.00  0.00     0.200 C 
BRANCH   8   9
ATOM      9  S   UNL A   1      33.805  24.301  23.762  1.00  0.00    -0.076 SA
BRANCH   9  10
ATOM     10  C   UNL A   1      33.375  25.693  24.747  1.00  0.00     0.171 A 
ATOM     11  C   UNL A   1      34.401  29.334  27.430  1.00  0.00     0.071 C 
ATOM     12  C   UNL A   1      33.339  28.424  26.974  1.00  0.00     0.087 A 
ATOM     13  N   UNL A   1      32.092  28.926  27.036  1.00  0.00    -0.174 NA
ATOM     14  C   UNL A   1      33.306  27.277  26.154  1.00  0.00     0.132 A 
ATOM     15  N   UNL A   1      31.649  28.637  25.794  1.00  0.00    -0.250 N 
ATOM     16  C   UNL A   1      32.191  27.439  25.389  1.00  0.00     0.159 A 
ATOM     17  N   UNL A   1      34.091  26.245  25.722  1.00  0.00    -0.219 NA
ATOM     18  C   UNL A   1      31.396  29.820  24.994  1.00  0.00     0.176 C 
ATOM     19  N   UNL A   1      32.250  26.467  24.433  1.00  0.00    -0.295 N 
BRANCH  19  20
ATOM     20  C   UNL A   1      31.328  26.197  23.339  1.00  0.00     0.152 C 
ATOM     21  C   UNL A   1      30.062  25.501  23.828  1.00  0.00     0.093 C 
ATOM     22  C   UNL A   1      30.793  27.407  22.565  1.00  0.00     0.288 C 
ATOM     23  C   UNL A   1      29.095  26.652  24.029  1.00  0.00     0.264 C 
ATOM     24  N   UNL A   1      29.363  27.514  22.875  1.00  0.00    -0.336 N 
ATOM     25  C   UNL A   1      28.895  28.874  23.095  1.00  0.00     0.332 C 
ATOM     26  H   UNL A   1      28.835  27.207  22.059  1.00  0.00     0.347 HD
ENDBRANCH  19  20
ENDBRANCH   9  10
ENDBRANCH   8   9
ENDBRANCH   6   8
ENDBRANCH   5   6
ENDBRANCH   4   5
ENDBRANCH   3   4
ENDBRANCH   2   3
ENDBRANCH   1   2
BRANCH   1  27
ATOM     27  C   UNL A   1      40.286  22.092  26.318  1.00  0.00     0.188 C 
BRANCH  27  28
ATOM     28  O   UNL A   1      40.614  22.134  27.698  1.00  0.00    -0.376 OA
BRANCH  28  29
ATOM     29  C   UNL A   1      42.006  22.053  27.959  1.00  0.00     0.202 C 
BRANCH  29  30
ATOM     30  C   UNL A   1      42.605  23.417  27.619  1.00  0.00     0.261 C 
BRANCH  30  31
ATOM     31  O   UNL A   1      41.930  24.493  28.291  1.00  0.00    -0.460 OA
BRANCH  31  32
ATOM     32  C   UNL A   1      41.776  25.579  27.510  1.00  0.00     0.338 C 
ATOM     33  O   UNL A   1      42.632  26.091  26.808  1.00  0.00    -0.246 OA
BRANCH  32  34
ATOM     34  C   UNL A   1      40.422  26.140  27.667  1.00  0.00     0.060 A 
ATOM     35  C   UNL A   1      40.129  27.290  26.922  1.00  0.00     0.016 A 
ATOM     36  C   UNL A   1      39.895  25.943  28.939  1.00  0.00     0.016 A 
ATOM     37  C   UNL A   1      39.682  28.408  27.612  1.00  0.00     0.010 A 
ATOM     38  C   UNL A   1      39.455  27.058  29.621  1.00  0.00     0.010 A 
ATOM     39  C   UNL A   1      39.542  28.308  28.998  1.00  0.00    -0.014 A 
BRANCH  39  40
ATOM     40  C   UNL A   1      39.623  29.527  29.815  1.00  0.00     0.031 A 
ATOM     41  C   UNL A   1      40.962  30.150  29.947  1.00  0.00     0.074 A 
ATOM     42  C   UNL A   1      38.496  30.131  30.266  1.00  0.00     0.049 A 
ATOM     43  N   UNL A   1      41.468  30.773  30.964  1.00  0.00    -0.248 NA
ATOM     44  C   UNL A   1      41.866  30.038  28.788  1.00  0.00     0.031 C 
ATOM     45  C   UNL A   1      37.114  29.677  30.054  1.00  0.00     0.029 A 
ATOM     46  N   UNL A   1      38.324  31.361  30.849  1.00  0.00    -0.354 N 
ATOM     47  C   UNL A   1      42.675  31.288  30.510  1.00  0.00     0.074 A 
ATOM     48  C   UNL A   1      42.922  30.726  29.207  1.00  0.00     0.031 C 
ATOM     49  C   UNL A   1      36.275  30.718  30.233  1.00  0.00     0.029 A 
ATOM     50  C   UNL A   1      37.046  31.878  30.646  1.00  0.00     0.049 A 
ATOM     51  H   UNL A   1      39.027  31.828  31.356  1.00  0.00     0.167 HD
ATOM     52  C   UNL A   1      43.303  32.334  31.103  1.00  0.00     0.037 A 
ATOM     53  C   UNL A   1      36.654  33.176  30.690  1.00  0.00     0.037 A 
ATOM     54  C   UNL A   1      42.958  32.528  32.475  1.00  0.00     0.049 A 
ATOM     55  C   UNL A   1      37.694  33.954  31.399  1.00  0.00     0.074 A 
ATOM     56  C   UNL A   1      43.054  31.759  33.618  1.00  0.00     0.029 A 
ATOM     57  N   UNL A   1      42.176  33.602  32.810  1.00  0.00    -0.354 N 
ATOM     58  N   UNL A   1      37.885  33.959  32.685  1.00  0.00    -0.248 NA
ATOM     59  C   UNL A   1      38.757  34.556  30.607  1.00  0.00     0.031 C 
ATOM     60  C   UNL A   1      41.996  32.191  34.465  1.00  0.00     0.029 A 
ATOM     61  C   UNL A   1      41.303  33.191  33.785  1.00  0.00     0.049 A 
ATOM     62  H   UNL A   1      42.230  34.505  32.422  1.00  0.00     0.167 HD
ATOM     63  C   UNL A   1      39.246  34.168  32.831  1.00  0.00     0.074 A 
ATOM     64  C   UNL A   1      39.695  34.680  31.545  1.00  0.00     0.031 C 
ATOM     65  C   UNL A   1      39.931  33.627  33.879  1.00  0.00     0.037 A 
BRANCH  52  66
ATOM     66  C   UNL A   1      43.998  33.357  30.265  1.00  0.00     0.057 A 
ATOM     67  C   UNL A   1      43.291  34.188  29.393  1.00  0.00     0.134 A 
ATOM     68  C   UNL A   1      45.406  33.394  30.160  1.00  0.00     0.134 A 
ATOM     69  F   UNL A   1      41.951  34.171  29.367  1.00  0.00    -0.206 F 
ATOM     70  C   UNL A   1      43.949  35.029  28.488  1.00  0.00     0.040 A 
ATOM     71  C   UNL A   1      46.073  34.260  29.298  1.00  0.00     0.040 A 
ATOM     72  F   UNL A   1      46.179  32.539  30.848  1.00  0.00    -0.206 F 
ATOM     73  C   UNL A   1      45.342  35.077  28.448  1.00  0.00     0.006 A 
ENDBRANCH  52  66
BRANCH  53  74
ATOM     74  C   UNL A   1      35.540  33.856  29.976  1.00  0.00     0.057 A 
ATOM     75  C   UNL A   1      35.384  33.716  28.587  1.00  0.00     0.134 A 
ATOM     76  C   UNL A   1      34.465  34.464  30.649  1.00  0.00     0.134 A 
ATOM     77  F   UNL A   1      36.324  33.108  27.850  1.00  0.00    -0.206 F 
ATOM     78  C   UNL A   1      34.230  34.140  27.915  1.00  0.00     0.040 A 
ATOM     79  C   UNL A   1      33.317  34.913  29.986  1.00  0.00     0.040 A 
ATOM     80  F   UNL A   1      34.443  34.569  31.985  1.00  0.00    -0.206 F 
ATOM     81  C   UNL A   1      33.189  34.739  28.615  1.00  0.00     0.006 A 
ENDBRANCH  53  74
BRANCH  65  82
ATOM     82  C   UNL A   1      39.141  33.174  35.071  1.00  0.00     0.057 A 
ATOM     83  C   UNL A   1      38.664  31.867  35.248  1.00  0.00     0.134 A 
ATOM     84  C   UNL A   1      38.953  34.069  36.131  1.00  0.00     0.134 A 
ATOM     85  F   UNL A   1      38.887  30.915  34.332  1.00  0.00    -0.206 F 
ATOM     86  C   UNL A   1      37.978  31.490  36.407  1.00  0.00     0.040 A 
ATOM     87  C   UNL A   1      38.301  33.694  37.308  1.00  0.00     0.040 A 
ATOM     88  F   UNL A   1      39.434  35.321  36.054  1.00  0.00    -0.206 F 
ATOM     89  C   UNL A   1      37.798  32.403  37.442  1.00  0.00     0.006 A 
ENDBRANCH  65  82
ENDBRANCH  39  40
ENDBRANCH  32  34
ENDBRANCH  31  32
ENDBRANCH  30  31
ENDBRANCH  29  30
ENDBRANCH  28  29
ENDBRANCH  27  28
ENDBRANCH   1  27
TORSDOF 20
ENDMDL
MODEL 2
REMARK VINA RESULT:     -10.4      1.730      3.507
REMARK SMILES Cc1nn(C)c2c1nc(SCC(=O)OCCOCCOCCOC(=O)c1ccc(-c3c4nc(c(-c5c(F)cccc5F)c5ccc([nH]5)c(-c5c(F)cccc5F)c5nc(c(-c6c(F)cccc6F)c6ccc3[nH]6)C=C5)C=C4)cc1)n2[C@H]1CC[N@@H+](C)C1
REMARK SMILES IDX 18 1 17 2 16 3 15 4 14 5 12 6 13 7 11 8 10 9 9 10 1 11 2 12
REMARK SMILES IDX 3 13 7 14 4 15 6 16 8 17 5 18 80 19 81 20 82 21 86 22 83 23
REMARK SMILES IDX 84 24 85 25 19 27 20 28 21 29 22 30 23 31 24 32 25 33 26 34
REMARK SMILES IDX 27 35 79 36 28 37 78 38 29 39 30 40 31 41 72 42 32 43 77 44
REMARK SMILES IDX 71 45 73 46 33 47 76 48 70 49 69 50 34 52 60 53 43 54 59 55
REMARK SMILES IDX 44 56 47 57 58 58 74 59 45 60 46 61 57 63 75 64 48 65 35 66
REMARK SMILES IDX 36 67 41 68 37 69 38 70 40 71 42 72 39 73 61 74 62 75 67 76
REMARK SMILES IDX 63 77 64 78 66 79 68 80 65 81 49 82 50 83 55 84 51 85 52 86
REMARK SMILES IDX 54 87 56 88 53 89
REMARK H PARENT 84 26 73 51 47 62
REMARK Flexibility Score: inf
ROOT
ATOM      1  C   UNL A   1      44.433  21.465  25.328  1.00  0.00     0.188 C 
ENDROOT
BRANCH   1   2
ATOM      2  O   UNL A   1      43.149  20.850  25.374  1.00  0.00    -0.376 OA
BRANCH   2   3
ATOM      3  C   UNL A   1      42.182  21.339  26.294  1.00  0.00     0.202 C 
BRANCH   3   4
ATOM      4  C   UNL A   1      40.908  20.495  26.429  1.00  0.00     0.261 C 
BRANCH   4   5
ATOM      5  O   UNL A   1      39.766  21.296  26.798  1.00  0.00    -0.463 OA
BRANCH   5   6
ATOM      6  C   UNL A   1      38.795  21.506  25.868  1.00  0.00     0.316 C 
ATOM      7  O   UNL A   1      38.479  20.679  25.019  1.00  0.00    -0.251 OA
BRANCH   6   8
ATOM      8  C   UNL A   1      38.006  22.804  26.081  1.00  0.00     0.200 C 
BRANCH   8   9
ATOM      9  S   UNL A   1      37.086  23.378  24.630  1.00  0.00    -0.076 SA
BRANCH   9  10
ATOM     10  C   UNL A   1      35.545  22.531  24.667  1.00  0.00     0.171 A 
ATOM     11  C   UNL A   1      32.834  18.929  25.758  1.00  0.00     0.071 C 
ATOM     12  C   UNL A   1      32.957  20.157  24.957  1.00  0.00     0.087 A 
ATOM     13  N   UNL A   1      31.789  20.734  24.614  1.00  0.00    -0.174 NA
ATOM     14  C   UNL A   1      33.985  21.097  24.742  1.00  0.00     0.132 A 
ATOM     15  N   UNL A   1      32.028  22.010  24.984  1.00  0.00    -0.250 N 
ATOM     16  C   UNL A   1      33.354  22.303  24.763  1.00  0.00     0.159 A 
ATOM     17  N   UNL A   1      35.346  21.219  24.759  1.00  0.00    -0.219 NA
ATOM     18  C   UNL A   1      31.185  22.448  26.080  1.00  0.00     0.176 C 
ATOM     19  N   UNL A   1      34.344  23.242  24.783  1.00  0.00    -0.295 N 
BRANCH  19  20
ATOM     20  C   UNL A   1      34.233  24.693  24.839  1.00  0.00     0.152 C 
ATOM     21  C   UNL A   1      33.619  25.260  23.561  1.00  0.00     0.093 C 
ATOM     22  C   UNL A   1      33.355  25.283  25.947  1.00  0.00     0.288 C 
ATOM     23  C   UNL A   1      32.149  25.383  23.914  1.00  0.00     0.264 C 
ATOM     24  N   UNL A   1      32.181  25.872  25.295  1.00  0.00    -0.336 N 
ATOM     25  C   UNL A   1      30.923  25.629  25.984  1.00  0.00     0.332 C 
ATOM     26  H   UNL A   1      32.277  26.887  25.320  1.00  0.00     0.347 HD
ENDBRANCH  19  20
ENDBRANCH   9  10
ENDBRANCH   8   9
ENDBRANCH   6   8
ENDBRANCH   5   6
ENDBRANCH   4   5
ENDBRANCH   3   4
ENDBRANCH   2   3
ENDBRANCH   1   2
BRANCH   1  27
ATOM     27  C   UNL A   1      44.952  22.078  24.020  1.00  0.00     0.188 C 
BRANCH  27  28
ATOM     28  O   UNL A   1      44.931  23.497  24.004  1.00  0.00    -0.376 OA
BRANCH  28  29
ATOM     29  C   UNL A   1      44.653  24.080  25.267  1.00  0.00     0.202 C 
BRANCH  29  30
ATOM     30  C   UNL A   1      43.463  25.019  25.073  1.00  0.00     0.261 C 
BRANCH  30  31
ATOM     31  O   UNL A   1      42.465  24.853  26.093  1.00  0.00    -0.460 OA
BRANCH  31  32
ATOM     32  C   UNL A   1      42.420  25.890  26.951  1.00  0.00     0.338 C 
ATOM     33  O   UNL A   1      43.377  26.438  27.472  1.00  0.00    -0.246 OA
BRANCH  32  34
ATOM     34  C   UNL A   1      41.023  26.248  27.256  1.00  0.00     0.060 A 
ATOM     35  C   UNL A   1      40.501  27.365  26.590  1.00  0.00     0.016 A 
ATOM     36  C   UNL A   1      40.655  25.942  28.561  1.00  0.00     0.016 A 
ATOM     37  C   UNL A   1      39.973  28.388  27.364  1.00  0.00     0.010 A 
ATOM     38  C   UNL A   1      40.132  26.963  29.328  1.00  0.00     0.010 A 
ATOM     39  C   UNL A   1      39.984  28.230  28.751  1.00  0.00    -0.014 A 
BRANCH  39  40
ATOM     40  C   UNL A   1      39.974  29.424  29.608  1.00  0.00     0.031 A 
ATOM     41  C   UNL A   1      41.262  30.142  29.761  1.00  0.00     0.074 A 
ATOM     42  C   UNL A   1      38.805  29.927  30.077  1.00  0.00     0.049 A 
ATOM     43  N   UNL A   1      41.721  30.768  30.799  1.00  0.00    -0.248 NA
ATOM     44  C   UNL A   1      42.170  30.135  28.601  1.00  0.00     0.031 C 
ATOM     45  C   UNL A   1      37.461  29.378  29.848  1.00  0.00     0.029 A 
ATOM     46  N   UNL A   1      38.542  31.121  30.699  1.00  0.00    -0.354 N 
ATOM     47  C   UNL A   1      42.885  31.387  30.364  1.00  0.00     0.074 A 
ATOM     48  C   UNL A   1      43.173  30.888  29.043  1.00  0.00     0.031 C 
ATOM     49  C   UNL A   1      36.546  30.346  30.059  1.00  0.00     0.029 A 
ATOM     50  C   UNL A   1      37.227  31.546  30.511  1.00  0.00     0.049 A 
ATOM     51  H   UNL A   1      39.208  31.623  31.222  1.00  0.00     0.167 HD
ATOM     52  C   UNL A   1      43.433  32.457  30.991  1.00  0.00     0.037 A 
ATOM     53  C   UNL A   1      36.739  32.809  30.596  1.00  0.00     0.037 A 
ATOM     54  C   UNL A   1      43.076  32.580  32.369  1.00  0.00     0.049 A 
ATOM     55  C   UNL A   1      37.718  33.640  31.332  1.00  0.00     0.074 A 
ATOM     56  C   UNL A   1      43.231  31.784  33.485  1.00  0.00     0.029 A 
ATOM     57  N   UNL A   1      42.216  33.581  32.737  1.00  0.00    -0.354 N 
ATOM     58  N   UNL A   1      37.910  33.618  32.618  1.00  0.00    -0.248 NA
ATOM     59  C   UNL A   1      38.732  34.346  30.561  1.00  0.00     0.031 C 
ATOM     60  C   UNL A   1      42.144  32.107  34.345  1.00  0.00     0.029 A 
ATOM     61  C   UNL A   1      41.377  33.073  33.696  1.00  0.00     0.049 A 
ATOM     62  H   UNL A   1      42.201  34.497  32.378  1.00  0.00     0.167 HD
ATOM     63  C   UNL A   1      39.251  33.924  32.772  1.00  0.00     0.074 A 
ATOM     64  C   UNL A   1      39.659  34.509  31.504  1.00  0.00     0.031 C 
ATOM     65  C   UNL A   1      39.976  33.402  33.803  1.00  0.00     0.037 A 
BRANCH  52  66
ATOM     66  C   UNL A   1      44.048  33.557  30.187  1.00  0.00     0.057 A 
ATOM     67  C   UNL A   1      45.391  33.907  30.339  1.00  0.00     0.134 A 
ATOM     68  C   UNL A   1      43.262  34.421  29.395  1.00  0.00     0.134 A 
ATOM     69  F   UNL A   1      46.201  33.189  31.129  1.00  0.00    -0.206 F 
ATOM     70  C   UNL A   1      45.928  35.039  29.714  1.00  0.00     0.040 A 
ATOM     71  C   UNL A   1      43.793  35.522  28.730  1.00  0.00     0.040 A 
ATOM     72  F   UNL A   1      41.933  34.260  29.295  1.00  0.00    -0.206 F 
ATOM     73  C   UNL A   1      45.133  35.841  28.897  1.00  0.00     0.006 A 
ENDBRANCH  52  66
BRANCH  53  74
ATOM     74  C   UNL A   1      35.577  33.426  29.904  1.00  0.00     0.057 A 
ATOM     75  C   UNL A   1      34.586  34.109  30.629  1.00  0.00     0.134 A 
ATOM     76  C   UNL A   1      35.515  33.575  28.507  1.00  0.00     0.134 A 
ATOM     77  F   UNL A   1      34.576  34.078  31.969  1.00  0.00    -0.206 F 
ATOM     78  C   UNL A   1      33.610  34.898  30.008  1.00  0.00     0.040 A 
ATOM     79  C   UNL A   1      34.530  34.341  27.872  1.00  0.00     0.040 A 
ATOM     80  F   UNL A   1      36.456  33.058  27.704  1.00  0.00    -0.206 F 
ATOM     81  C   UNL A   1      33.580  35.018  28.623  1.00  0.00     0.006 A 
ENDBRANCH  53  74
BRANCH  65  82
ATOM     82  C   UNL A   1      39.224  32.852  34.979  1.00  0.00     0.057 A 
ATOM     83  C   UNL A   1      38.670  31.565  35.026  1.00  0.00     0.134 A 
ATOM     84  C   UNL A   1      39.155  33.618  36.149  1.00  0.00     0.134 A 
ATOM     85  F   UNL A   1      38.778  30.722  33.990  1.00  0.00    -0.206 F 
ATOM     86  C   UNL A   1      38.025  31.088  36.172  1.00  0.00     0.040 A 
ATOM     87  C   UNL A   1      38.545  33.140  37.310  1.00  0.00     0.040 A 
ATOM     88  F   UNL A   1      39.715  34.839  36.194  1.00  0.00    -0.206 F 
ATOM     89  C   UNL A   1      37.964  31.874  37.319  1.00  0.00     0.006 A 
ENDBRANCH  65  82
ENDBRANCH  39  40
ENDBRANCH  32  34
ENDBRANCH  31  32
ENDBRANCH  30  31
ENDBRANCH  29  30
ENDBRANCH  28  29
ENDBRANCH  27  28
ENDBRANCH   1  27
TORSDOF 20
ENDMDL
MODEL 3
REMARK VINA RESULT:     -10.3      1.105      2.127
REMARK SMILES Cc1nn(C)c2c1nc(SCC(=O)OCCOCCOCCOC(=O)c1ccc(-c3c4nc(c(-c5c(F)cccc5F)c5ccc([nH]5)c(-c5c(F)cccc5F)c5nc(c(-c6c(F)cccc6F)c6ccc3[nH]6)C=C5)C=C4)cc1)n2[C@H]1CC[N@@H+](C)C1
REMARK SMILES IDX 18 1 17 2 16 3 15 4 14 5 12 6 13 7 11 8 10 9 9 10 1 11 2 12
REMARK SMILES IDX 3 13 7 14 4 15 6 16 8 17 5 18 80 19 81 20 82 21 86 22 83 23
REMARK SMILES IDX 84 24 85 25 19 27 20 28 21 29 22 30 23 31 24 32 25 33 26 34
REMARK SMILES IDX 27 35 79 36 28 37 78 38 29 39 30 40 31 41 72 42 32 43 77 44
REMARK SMILES IDX 71 45 73 46 33 47 76 48 70 49 69 50 34 52 60 53 43 54 59 55
REMARK SMILES IDX 44 56 47 57 58 58 74 59 45 60 46 61 57 63 75 64 48 65 35 66
REMARK SMILES IDX 36 67 41 68 37 69 38 70 40 71 42 72 39 73 61 74 62 75 67 76
REMARK SMILES IDX 63 77 64 78 66 79 68 80 65 81 49 82 50 83 55 84 51 85 52 86
REMARK SMILES IDX 54 87 56 88 53 89
REMARK H PARENT 84 26 73 51 47 62
REMARK Flexibility Score: inf
ROOT
ATOM      1  C   UNL A   1      37.027  23.062  24.568  1.00  0.00     0.188 C 
ENDROOT
BRANCH   1   2
ATOM      2  O   UNL A   1      35.630  22.948  24.315  1.00  0.00    -0.376 OA
BRANCH   2   3
ATOM      3  C   UNL A   1      34.818  24.112  24.391  1.00  0.00     0.202 C 
BRANCH   3   4
ATOM      4  C   UNL A   1      34.023  24.283  25.692  1.00  0.00     0.261 C 
BRANCH   4   5
ATOM      5  O   UNL A   1      33.346  23.068  26.076  1.00  0.00    -0.463 OA
BRANCH   5   6
ATOM      6  C   UNL A   1      32.086  23.160  26.579  1.00  0.00     0.316 C 
ATOM      7  O   UNL A   1      31.826  23.083  27.776  1.00  0.00    -0.251 OA
BRANCH   6   8
ATOM      8  C   UNL A   1      31.031  23.543  25.534  1.00  0.00     0.200 C 
BRANCH   8   9
ATOM      9  S   UNL A   1      29.907  24.871  26.043  1.00  0.00    -0.076 SA
BRANCH   9  10
ATOM     10  C   UNL A   1      30.867  26.344  26.044  1.00  0.00     0.171 A 
ATOM     11  C   UNL A   1      34.480  28.923  27.391  1.00  0.00     0.071 C 
ATOM     12  C   UNL A   1      33.161  28.928  26.739  1.00  0.00     0.087 A 
ATOM     13  N   UNL A   1      32.953  29.944  25.881  1.00  0.00    -0.174 NA
ATOM     14  C   UNL A   1      32.172  27.951  26.503  1.00  0.00     0.132 A 
ATOM     15  N   UNL A   1      32.497  29.268  24.805  1.00  0.00    -0.250 N 
ATOM     16  C   UNL A   1      31.752  28.193  25.231  1.00  0.00     0.159 A 
ATOM     17  N   UNL A   1      31.694  26.770  26.995  1.00  0.00    -0.219 NA
ATOM     18  C   UNL A   1      33.396  29.340  23.669  1.00  0.00     0.176 C 
ATOM     19  N   UNL A   1      30.961  27.134  24.891  1.00  0.00    -0.295 N 
BRANCH  19  20
ATOM     20  C   UNL A   1      30.275  26.865  23.635  1.00  0.00     0.152 C 
ATOM     21  C   UNL A   1      28.777  27.140  23.742  1.00  0.00     0.093 C 
ATOM     22  C   UNL A   1      30.702  27.691  22.417  1.00  0.00     0.288 C 
ATOM     23  C   UNL A   1      28.652  28.558  23.220  1.00  0.00     0.264 C 
ATOM     24  N   UNL A   1      29.579  28.575  22.086  1.00  0.00    -0.336 N 
ATOM     25  C   UNL A   1      29.967  29.930  21.723  1.00  0.00     0.332 C 
ATOM     26  H   UNL A   1      29.131  28.219  21.242  1.00  0.00     0.347 HD
ENDBRANCH  19  20
ENDBRANCH   9  10
ENDBRANCH   8   9
ENDBRANCH   6   8
ENDBRANCH   5   6
ENDBRANCH   4   5
ENDBRANCH   3   4
ENDBRANCH   2   3
ENDBRANCH   1   2
BRANCH   1  27
ATOM     27  C   UNL A   1      37.846  21.827  24.970  1.00  0.00     0.188 C 
BRANCH  27  28
ATOM     28  O   UNL A   1      38.396  21.904  26.276  1.00  0.00    -0.376 OA
BRANCH  28  29
ATOM     29  C   UNL A   1      39.783  22.200  26.296  1.00  0.00     0.202 C 
BRANCH  29  30
ATOM     30  C   UNL A   1      39.994  23.282  27.354  1.00  0.00     0.261 C 
BRANCH  30  31
ATOM     31  O   UNL A   1      41.224  24.001  27.163  1.00  0.00    -0.460 OA
BRANCH  31  32
ATOM     32  C   UNL A   1      41.301  25.110  27.923  1.00  0.00     0.338 C 
ATOM     33  O   UNL A   1      42.268  25.476  28.569  1.00  0.00    -0.246 OA
BRANCH  32  34
ATOM     34  C   UNL A   1      40.006  25.814  27.944  1.00  0.00     0.060 A 
ATOM     35  C   UNL A   1      39.889  26.938  27.115  1.00  0.00     0.016 A 
ATOM     36  C   UNL A   1      39.372  25.752  29.180  1.00  0.00     0.016 A 
ATOM     37  C   UNL A   1      39.514  28.136  27.705  1.00  0.00     0.010 A 
ATOM     38  C   UNL A   1      39.004  26.947  29.763  1.00  0.00     0.010 A 
ATOM     39  C   UNL A   1      39.266  28.140  29.079  1.00  0.00    -0.014 A 
BRANCH  39  40
ATOM     40  C   UNL A   1      39.417  29.394  29.831  1.00  0.00     0.031 A 
ATOM     41  C   UNL A   1      40.770  30.001  29.845  1.00  0.00     0.074 A 
ATOM     42  C   UNL A   1      38.330  30.036  30.325  1.00  0.00     0.049 A 
ATOM     43  N   UNL A   1      41.350  30.662  30.796  1.00  0.00    -0.248 NA
ATOM     44  C   UNL A   1      41.593  29.820  28.637  1.00  0.00     0.031 C 
ATOM     45  C   UNL A   1      36.931  29.595  30.225  1.00  0.00     0.029 A 
ATOM     46  N   UNL A   1      38.213  31.294  30.859  1.00  0.00    -0.354 N 
ATOM     47  C   UNL A   1      42.530  31.136  30.241  1.00  0.00     0.074 A 
ATOM     48  C   UNL A   1      42.684  30.510  28.952  1.00  0.00     0.031 C 
ATOM     49  C   UNL A   1      36.119  30.656  30.408  1.00  0.00     0.029 A 
ATOM     50  C   UNL A   1      36.930  31.821  30.716  1.00  0.00     0.049 A 
ATOM     51  H   UNL A   1      38.953  31.773  31.297  1.00  0.00     0.167 HD
ATOM     52  C   UNL A   1      43.209  32.198  30.742  1.00  0.00     0.037 A 
ATOM     53  C   UNL A   1      36.559  33.126  30.723  1.00  0.00     0.037 A 
ATOM     54  C   UNL A   1      42.958  32.462  32.123  1.00  0.00     0.049 A 
ATOM     55  C   UNL A   1      37.653  33.920  31.325  1.00  0.00     0.074 A 
ATOM     56  C   UNL A   1      43.119  31.745  33.291  1.00  0.00     0.029 A 
ATOM     57  N   UNL A   1      42.213  33.562  32.457  1.00  0.00    -0.354 N 
ATOM     58  N   UNL A   1      37.929  33.981  32.595  1.00  0.00    -0.248 NA
ATOM     59  C   UNL A   1      38.670  34.468  30.437  1.00  0.00     0.031 C 
ATOM     60  C   UNL A   1      42.125  32.232  34.185  1.00  0.00     0.029 A 
ATOM     61  C   UNL A   1      41.402  33.210  33.504  1.00  0.00     0.049 A 
ATOM     62  H   UNL A   1      42.254  34.445  32.023  1.00  0.00     0.167 HD
ATOM     63  C   UNL A   1      39.299  34.175  32.641  1.00  0.00     0.074 A 
ATOM     64  C   UNL A   1      39.669  34.619  31.306  1.00  0.00     0.031 C 
ATOM     65  C   UNL A   1      40.044  33.673  33.667  1.00  0.00     0.037 A 
BRANCH  52  66
ATOM     66  C   UNL A   1      43.861  33.170  29.812  1.00  0.00     0.057 A 
ATOM     67  C   UNL A   1      45.249  33.318  29.767  1.00  0.00     0.134 A 
ATOM     68  C   UNL A   1      43.107  34.122  29.092  1.00  0.00     0.134 A 
ATOM     69  F   UNL A   1      46.047  32.507  30.475  1.00  0.00    -0.206 F 
ATOM     70  C   UNL A   1      45.853  34.338  29.023  1.00  0.00     0.040 A 
ATOM     71  C   UNL A   1      43.696  35.113  28.311  1.00  0.00     0.040 A 
ATOM     72  F   UNL A   1      41.768  34.162  29.177  1.00  0.00    -0.206 F 
ATOM     73  C   UNL A   1      45.078  35.230  28.283  1.00  0.00     0.006 A 
ENDBRANCH  52  66
BRANCH  53  74
ATOM     74  C   UNL A   1      35.410  33.790  30.052  1.00  0.00     0.057 A 
ATOM     75  C   UNL A   1      34.389  34.395  30.804  1.00  0.00     0.134 A 
ATOM     76  C   UNL A   1      35.388  34.062  28.672  1.00  0.00     0.134 A 
ATOM     77  F   UNL A   1      34.338  34.243  32.135  1.00  0.00    -0.206 F 
ATOM     78  C   UNL A   1      33.420  35.225  30.225  1.00  0.00     0.040 A 
ATOM     79  C   UNL A   1      34.412  34.871  28.078  1.00  0.00     0.040 A 
ATOM     80  F   UNL A   1      36.360  33.629  27.857  1.00  0.00    -0.206 F 
ATOM     81  C   UNL A   1      33.431  35.469  28.857  1.00  0.00     0.006 A 
ENDBRANCH  53  74
BRANCH  65  82
ATOM     82  C   UNL A   1      39.329  33.288  34.928  1.00  0.00     0.057 A 
ATOM     83  C   UNL A   1      39.096  34.162  35.999  1.00  0.00     0.134 A 
ATOM     84  C   UNL A   1      38.757  32.012  35.012  1.00  0.00     0.134 A 
ATOM     85  F   UNL A   1      39.516  35.434  35.962  1.00  0.00    -0.206 F 
ATOM     86  C   UNL A   1      38.375  33.760  37.128  1.00  0.00     0.040 A 
ATOM     87  C   UNL A   1      38.006  31.611  36.119  1.00  0.00     0.040 A 
ATOM     88  F   UNL A   1      38.891  31.141  33.998  1.00  0.00    -0.206 F 
ATOM     89  C   UNL A   1      37.825  32.483  37.189  1.00  0.00     0.006 A 
ENDBRANCH  65  82
ENDBRANCH  39  40
ENDBRANCH  32  34
ENDBRANCH  31  32
ENDBRANCH  30  31
ENDBRANCH  29  30
ENDBRANCH  28  29
ENDBRANCH  27  28
ENDBRANCH   1  27
TORSDOF 20
ENDMDL
