MODEL 1
REMARK VINA RESULT:     -11.0      0.000      0.000
REMARK SMILES Cc1nn(C)c(C)c1CNC(=O)N[C@H]1CC[C@@H](C(=O)OCCOCCOCCOC(=O)c2ccc(-c3c4nc(c(-c5c(F)cccc5F)c5ccc([nH]5)c(-c5c(F)cccc5F)c5nc(c(-c6c(F)cccc6F)c6ccc3[nH]6)C=C5)C=C4)cc2)C1
REMARK SMILES IDX 24 1 23 2 22 3 21 4 20 5 18 6 19 7 17 8 14 9 15 10 86 11
REMARK SMILES IDX 16 12 13 13 10 14 11 15 12 17 9 19 8 20 1 21 2 22 3 23 4 24
REMARK SMILES IDX 6 25 5 26 7 27 25 28 26 29 27 30 28 31 29 32 30 33 31 34
REMARK SMILES IDX 32 35 33 36 85 37 34 38 84 39 35 40 36 41 37 42 78 43 38 44
REMARK SMILES IDX 83 45 77 46 79 47 39 48 82 49 76 50 75 51 40 53 66 54 49 55
REMARK SMILES IDX 65 56 50 57 53 58 64 59 80 60 51 61 52 62 63 64 81 65 54 66
REMARK SMILES IDX 41 67 42 68 47 69 43 70 44 71 46 72 48 73 45 74 67 75 68 76
REMARK SMILES IDX 73 77 69 78 70 79 72 80 74 81 71 82 55 83 56 84 61 85 57 86
REMARK SMILES IDX 58 87 60 88 62 89 59 90
REMARK H PARENT 10 16 13 18 79 52 53 63
REMARK Flexibility Score: inf
ROOT
ATOM      1  C   UNL A   1      39.904  19.524  25.740  1.00  0.00     0.188 C 
ENDROOT
BRANCH   1   2
ATOM      2  O   UNL A   1      38.671  19.670  25.050  1.00  0.00    -0.376 OA
BRANCH   2   3
ATOM      3  C   UNL A   1      37.922  20.874  25.205  1.00  0.00     0.202 C 
BRANCH   3   4
ATOM      4  C   UNL A   1      36.397  20.876  24.988  1.00  0.00     0.261 C 
BRANCH   4   5
ATOM      5  O   UNL A   1      35.622  21.217  26.154  1.00  0.00    -0.463 OA
BRANCH   5   6
ATOM      6  C   UNL A   1      34.721  22.222  26.013  1.00  0.00     0.309 C 
ATOM      7  O   UNL A   1      34.184  22.807  26.946  1.00  0.00    -0.252 OA
BRANCH   6   8
ATOM      8  C   UNL A   1      34.530  22.655  24.562  1.00  0.00     0.101 C 
ATOM      9  C   UNL A   1      32.382  23.718  24.231  1.00  0.00     0.084 C 
ATOM     10  C   UNL A   1      33.428  24.825  24.207  1.00  0.00     0.026 C 
ATOM     11  C   UNL A   1      33.163  22.464  23.910  1.00  0.00     0.040 C 
ATOM     12  C   UNL A   1      34.791  24.155  24.409  1.00  0.00     0.017 C 
BRANCH   9  13
ATOM     13  N   UNL A   1      31.742  23.590  25.530  1.00  0.00    -0.335 N 
ATOM     14  N   UNL A   1      29.912  25.073  25.473  1.00  0.00    -0.334 N 
ATOM     15  C   UNL A   1      30.648  24.135  26.073  1.00  0.00     0.315 C 
ATOM     16  H   UNL A   1      29.079  25.278  25.956  1.00  0.00     0.165 HD
ATOM     17  O   UNL A   1      30.285  23.723  27.176  1.00  0.00    -0.249 OA
ATOM     18  H   UNL A   1      32.213  22.974  26.136  1.00  0.00     0.165 HD
BRANCH  14  19
ATOM     19  C   UNL A   1      30.072  25.847  24.270  1.00  0.00     0.157 C 
BRANCH  19  20
ATOM     20  C   UNL A   1      30.523  27.245  24.558  1.00  0.00     0.015 A 
ATOM     21  C   UNL A   1      29.022  28.470  22.787  1.00  0.00     0.069 C 
ATOM     22  C   UNL A   1      30.056  28.393  23.850  1.00  0.00     0.065 A 
ATOM     23  N   UNL A   1      30.671  29.511  24.239  1.00  0.00    -0.178 NA
ATOM     24  N   UNL A   1      31.516  29.106  25.199  1.00  0.00    -0.272 N 
ATOM     25  C   UNL A   1      31.390  27.775  25.513  1.00  0.00     0.040 A 
ATOM     26  C   UNL A   1      32.438  30.078  25.742  1.00  0.00     0.174 C 
ATOM     27  C   UNL A   1      32.124  27.176  26.660  1.00  0.00     0.067 C 
ENDBRANCH  19  20
ENDBRANCH  14  19
ENDBRANCH   9  13
ENDBRANCH   6   8
ENDBRANCH   5   6
ENDBRANCH   4   5
ENDBRANCH   3   4
ENDBRANCH   2   3
ENDBRANCH   1   2
BRANCH   1  28
ATOM     28  C   UNL A   1      40.422  20.678  26.604  1.00  0.00     0.188 C 
BRANCH  28  29
ATOM     29  O   UNL A   1      41.754  20.557  27.034  1.00  0.00    -0.376 OA
BRANCH  29  30
ATOM     30  C   UNL A   1      42.747  20.201  26.081  1.00  0.00     0.202 C 
BRANCH  30  31
ATOM     31  C   UNL A   1      43.845  21.178  25.596  1.00  0.00     0.261 C 
BRANCH  31  32
ATOM     32  O   UNL A   1      44.007  22.423  26.294  1.00  0.00    -0.460 OA
BRANCH  32  33
ATOM     33  C   UNL A   1      43.860  23.564  25.582  1.00  0.00     0.338 C 
ATOM     34  O   UNL A   1      44.002  23.702  24.375  1.00  0.00    -0.246 OA
BRANCH  33  35
ATOM     35  C   UNL A   1      43.239  24.575  26.470  1.00  0.00     0.060 A 
ATOM     36  C   UNL A   1      43.706  25.899  26.431  1.00  0.00     0.016 A 
ATOM     37  C   UNL A   1      42.186  24.228  27.316  1.00  0.00     0.016 A 
ATOM     38  C   UNL A   1      43.132  26.875  27.248  1.00  0.00     0.010 A 
ATOM     39  C   UNL A   1      41.634  25.198  28.158  1.00  0.00     0.010 A 
ATOM     40  C   UNL A   1      42.118  26.519  28.147  1.00  0.00    -0.014 A 
BRANCH  40  41
ATOM     41  C   UNL A   1      41.697  27.467  29.209  1.00  0.00     0.031 A 
ATOM     42  C   UNL A   1      42.428  27.434  30.523  1.00  0.00     0.074 A 
ATOM     43  C   UNL A   1      40.689  28.337  29.023  1.00  0.00     0.049 A 
ATOM     44  N   UNL A   1      42.180  28.083  31.632  1.00  0.00    -0.248 NA
ATOM     45  C   UNL A   1      43.596  26.542  30.594  1.00  0.00     0.031 C 
ATOM     46  C   UNL A   1      39.935  28.510  27.783  1.00  0.00     0.029 A 
ATOM     47  N   UNL A   1      40.116  29.232  29.894  1.00  0.00    -0.354 N 
ATOM     48  C   UNL A   1      43.152  27.668  32.534  1.00  0.00     0.074 A 
ATOM     49  C   UNL A   1      43.975  26.692  31.854  1.00  0.00     0.031 C 
ATOM     50  C   UNL A   1      38.984  29.442  27.978  1.00  0.00     0.029 A 
ATOM     51  C   UNL A   1      39.037  29.899  29.366  1.00  0.00     0.049 A 
ATOM     52  H   UNL A   1      40.447  29.381  30.808  1.00  0.00     0.167 HD
ATOM     53  C   UNL A   1      43.344  28.066  33.814  1.00  0.00     0.037 A 
ATOM     54  C   UNL A   1      38.175  30.757  29.950  1.00  0.00     0.037 A 
ATOM     55  C   UNL A   1      42.520  29.031  34.493  1.00  0.00     0.049 A 
ATOM     56  C   UNL A   1      38.352  31.114  31.404  1.00  0.00     0.074 A 
ATOM     57  C   UNL A   1      42.639  29.507  35.787  1.00  0.00     0.029 A 
ATOM     58  N   UNL A   1      41.417  29.658  33.935  1.00  0.00    -0.354 N 
ATOM     59  N   UNL A   1      39.279  30.729  32.246  1.00  0.00    -0.248 NA
ATOM     60  C   UNL A   1      37.357  32.026  31.989  1.00  0.00     0.031 C 
ATOM     61  C   UNL A   1      41.574  30.379  36.031  1.00  0.00     0.029 A 
ATOM     62  C   UNL A   1      40.829  30.497  34.868  1.00  0.00     0.049 A 
ATOM     63  H   UNL A   1      41.097  29.527  33.013  1.00  0.00     0.167 HD
ATOM     64  C   UNL A   1      39.003  31.378  33.445  1.00  0.00     0.074 A 
ATOM     65  C   UNL A   1      37.825  32.189  33.217  1.00  0.00     0.031 C 
ATOM     66  C   UNL A   1      39.664  31.311  34.626  1.00  0.00     0.037 A 
BRANCH  53  67
ATOM     67  C   UNL A   1      44.474  27.432  34.572  1.00  0.00     0.057 A 
ATOM     68  C   UNL A   1      45.745  28.018  34.637  1.00  0.00     0.134 A 
ATOM     69  C   UNL A   1      44.279  26.234  35.270  1.00  0.00     0.134 A 
ATOM     70  F   UNL A   1      46.005  29.157  33.978  1.00  0.00    -0.206 F 
ATOM     71  C   UNL A   1      46.788  27.420  35.349  1.00  0.00     0.040 A 
ATOM     72  C   UNL A   1      45.304  25.644  36.010  1.00  0.00     0.040 A 
ATOM     73  F   UNL A   1      43.084  25.622  35.254  1.00  0.00    -0.206 F 
ATOM     74  C   UNL A   1      46.566  26.234  36.045  1.00  0.00     0.006 A 
ENDBRANCH  53  67
BRANCH  54  75
ATOM     75  C   UNL A   1      37.046  31.330  29.169  1.00  0.00     0.057 A 
ATOM     76  C   UNL A   1      37.091  32.644  28.691  1.00  0.00     0.134 A 
ATOM     77  C   UNL A   1      35.883  30.592  28.916  1.00  0.00     0.134 A 
ATOM     78  F   UNL A   1      38.165  33.413  28.926  1.00  0.00    -0.206 F 
ATOM     79  C   UNL A   1      36.014  33.213  28.006  1.00  0.00     0.040 A 
ATOM     80  C   UNL A   1      34.811  31.137  28.207  1.00  0.00     0.040 A 
ATOM     81  F   UNL A   1      35.774  29.328  29.351  1.00  0.00    -0.206 F 
ATOM     82  C   UNL A   1      34.871  32.455  27.758  1.00  0.00     0.006 A 
ENDBRANCH  54  75
BRANCH  66  83
ATOM     83  C   UNL A   1      39.166  32.172  35.753  1.00  0.00     0.057 A 
ATOM     84  C   UNL A   1      39.568  33.505  35.908  1.00  0.00     0.134 A 
ATOM     85  C   UNL A   1      38.231  31.671  36.670  1.00  0.00     0.134 A 
ATOM     86  F   UNL A   1      40.468  34.045  35.072  1.00  0.00    -0.206 F 
ATOM     87  C   UNL A   1      39.079  34.299  36.947  1.00  0.00     0.040 A 
ATOM     88  C   UNL A   1      37.711  32.464  37.694  1.00  0.00     0.040 A 
ATOM     89  F   UNL A   1      37.794  30.407  36.574  1.00  0.00    -0.206 F 
ATOM     90  C   UNL A   1      38.141  33.781  37.840  1.00  0.00     0.006 A 
ENDBRANCH  66  83
ENDBRANCH  40  41
ENDBRANCH  33  35
ENDBRANCH  32  33
ENDBRANCH  31  32
ENDBRANCH  30  31
ENDBRANCH  29  30
ENDBRANCH  28  29
ENDBRANCH   1  28
TORSDOF 20
ENDMDL
MODEL 2
REMARK VINA RESULT:     -10.9      5.770     11.978
REMARK SMILES Cc1nn(C)c(C)c1CNC(=O)N[C@H]1CC[C@@H](C(=O)OCCOCCOCCOC(=O)c2ccc(-c3c4nc(c(-c5c(F)cccc5F)c5ccc([nH]5)c(-c5c(F)cccc5F)c5nc(c(-c6c(F)cccc6F)c6ccc3[nH]6)C=C5)C=C4)cc2)C1
REMARK SMILES IDX 24 1 23 2 22 3 21 4 20 5 18 6 19 7 17 8 14 9 15 10 86 11
REMARK SMILES IDX 16 12 13 13 10 14 11 15 12 17 9 19 8 20 1 21 2 22 3 23 4 24
REMARK SMILES IDX 6 25 5 26 7 27 25 28 26 29 27 30 28 31 29 32 30 33 31 34
REMARK SMILES IDX 32 35 33 36 85 37 34 38 84 39 35 40 36 41 37 42 78 43 38 44
REMARK SMILES IDX 83 45 77 46 79 47 39 48 82 49 76 50 75 51 40 53 66 54 49 55
REMARK SMILES IDX 65 56 50 57 53 58 64 59 80 60 51 61 52 62 63 64 81 65 54 66
REMARK SMILES IDX 41 67 42 68 47 69 43 70 44 71 46 72 48 73 45 74 67 75 68 76
REMARK SMILES IDX 73 77 69 78 70 79 72 80 74 81 71 82 55 83 56 84 61 85 57 86
REMARK SMILES IDX 58 87 60 88 62 89 59 90
REMARK H PARENT 10 16 13 18 79 52 53 63
REMARK Flexibility Score: inf
ROOT
ATOM      1  C   UNL A   1      35.152  34.522  34.379  1.00  0.00     0.188 C 
ENDROOT
BRANCH   1   2
ATOM      2  O   UNL A   1      35.805  33.264  34.295  1.00  0.00    -0.376 OA
BRANCH   2   3
ATOM      3  C   UNL A   1      37.036  33.067  34.986  1.00  0.00     0.202 C 
BRANCH   3   4
ATOM      4  C   UNL A   1      37.861  31.785  34.760  1.00  0.00     0.261 C 
BRANCH   4   5
ATOM      5  O   UNL A   1      39.161  31.788  35.382  1.00  0.00    -0.463 OA
BRANCH   5   6
ATOM      6  C   UNL A   1      39.770  30.583  35.524  1.00  0.00     0.309 C 
ATOM      7  O   UNL A   1      39.371  29.688  36.260  1.00  0.00    -0.252 OA
BRANCH   6   8
ATOM      8  C   UNL A   1      40.942  30.389  34.567  1.00  0.00     0.101 C 
ATOM      9  C   UNL A   1      42.015  28.246  34.906  1.00  0.00     0.084 C 
ATOM     10  C   UNL A   1      41.213  28.137  33.615  1.00  0.00     0.026 C 
ATOM     11  C   UNL A   1      42.219  29.733  35.090  1.00  0.00     0.040 C 
ATOM     12  C   UNL A   1      40.538  29.494  33.394  1.00  0.00     0.017 C 
BRANCH   9  13
ATOM     13  N   UNL A   1      41.305  27.694  36.047  1.00  0.00    -0.335 N 
ATOM     14  N   UNL A   1      42.106  25.489  36.273  1.00  0.00    -0.334 N 
ATOM     15  C   UNL A   1      41.359  26.517  36.682  1.00  0.00     0.315 C 
ATOM     16  H   UNL A   1      42.122  24.744  36.917  1.00  0.00     0.165 HD
ATOM     17  O   UNL A   1      40.706  26.391  37.719  1.00  0.00    -0.249 OA
ATOM     18  H   UNL A   1      40.645  28.315  36.433  1.00  0.00     0.165 HD
BRANCH  14  19
ATOM     19  C   UNL A   1      42.894  25.236  35.096  1.00  0.00     0.157 C 
BRANCH  19  20
ATOM     20  C   UNL A   1      44.265  24.743  35.434  1.00  0.00     0.015 A 
ATOM     21  C   UNL A   1      45.128  26.906  36.645  1.00  0.00     0.069 C 
ATOM     22  C   UNL A   1      45.253  25.531  36.098  1.00  0.00     0.065 A 
ATOM     23  N   UNL A   1      46.418  24.892  36.210  1.00  0.00    -0.178 NA
ATOM     24  N   UNL A   1      46.195  23.697  35.642  1.00  0.00    -0.272 N 
ATOM     25  C   UNL A   1      44.890  23.508  35.261  1.00  0.00     0.040 A 
ATOM     26  C   UNL A   1      47.320  22.804  35.483  1.00  0.00     0.174 C 
ATOM     27  C   UNL A   1      44.411  22.191  34.761  1.00  0.00     0.067 C 
ENDBRANCH  19  20
ENDBRANCH  14  19
ENDBRANCH   9  13
ENDBRANCH   6   8
ENDBRANCH   5   6
ENDBRANCH   4   5
ENDBRANCH   3   4
ENDBRANCH   2   3
ENDBRANCH   1   2
BRANCH   1  28
ATOM     28  C   UNL A   1      35.022  35.385  33.119  1.00  0.00     0.188 C 
BRANCH  28  29
ATOM     29  O   UNL A   1      33.709  35.580  32.657  1.00  0.00    -0.376 OA
BRANCH  29  30
ATOM     30  C   UNL A   1      33.473  36.590  31.686  1.00  0.00     0.202 C 
BRANCH  30  31
ATOM     31  C   UNL A   1      33.041  36.284  30.232  1.00  0.00     0.261 C 
BRANCH  31  32
ATOM     32  O   UNL A   1      32.514  34.980  29.937  1.00  0.00    -0.460 OA
BRANCH  32  33
ATOM     33  C   UNL A   1      33.076  34.293  28.917  1.00  0.00     0.338 C 
ATOM     34  O   UNL A   1      32.689  34.249  27.757  1.00  0.00    -0.246 OA
BRANCH  33  35
ATOM     35  C   UNL A   1      34.399  33.805  29.373  1.00  0.00     0.060 A 
ATOM     36  C   UNL A   1      35.553  34.207  28.681  1.00  0.00     0.016 A 
ATOM     37  C   UNL A   1      34.506  32.977  30.491  1.00  0.00     0.016 A 
ATOM     38  C   UNL A   1      36.814  33.772  29.095  1.00  0.00     0.010 A 
ATOM     39  C   UNL A   1      35.765  32.515  30.885  1.00  0.00     0.010 A 
ATOM     40  C   UNL A   1      36.922  32.889  30.177  1.00  0.00    -0.014 A 
BRANCH  40  41
ATOM     41  C   UNL A   1      38.208  32.200  30.452  1.00  0.00     0.031 A 
ATOM     42  C   UNL A   1      39.209  32.890  31.338  1.00  0.00     0.074 A 
ATOM     43  C   UNL A   1      38.491  30.994  29.930  1.00  0.00     0.049 A 
ATOM     44  N   UNL A   1      40.434  32.544  31.638  1.00  0.00    -0.248 NA
ATOM     45  C   UNL A   1      38.765  34.144  31.965  1.00  0.00     0.031 C 
ATOM     46  C   UNL A   1      37.591  30.194  29.102  1.00  0.00     0.029 A 
ATOM     47  N   UNL A   1      39.636  30.238  30.011  1.00  0.00    -0.354 N 
ATOM     48  C   UNL A   1      40.911  33.543  32.478  1.00  0.00     0.074 A 
ATOM     49  C   UNL A   1      39.855  34.521  32.617  1.00  0.00     0.031 C 
ATOM     50  C   UNL A   1      38.224  29.066  28.735  1.00  0.00     0.029 A 
ATOM     51  C   UNL A   1      39.586  29.084  29.267  1.00  0.00     0.049 A 
ATOM     52  H   UNL A   1      40.417  30.499  30.550  1.00  0.00     0.167 HD
ATOM     53  C   UNL A   1      42.119  33.636  33.083  1.00  0.00     0.037 A 
ATOM     54  C   UNL A   1      40.544  28.166  29.021  1.00  0.00     0.037 A 
ATOM     55  C   UNL A   1      43.172  32.667  32.938  1.00  0.00     0.049 A 
ATOM     56  C   UNL A   1      41.913  28.339  29.629  1.00  0.00     0.074 A 
ATOM     57  C   UNL A   1      44.429  32.667  33.516  1.00  0.00     0.029 A 
ATOM     58  N   UNL A   1      43.095  31.529  32.149  1.00  0.00    -0.354 N 
ATOM     59  N   UNL A   1      42.352  29.278  30.432  1.00  0.00    -0.248 NA
ATOM     60  C   UNL A   1      42.922  27.323  29.293  1.00  0.00     0.031 C 
ATOM     61  C   UNL A   1      45.133  31.561  33.033  1.00  0.00     0.029 A 
ATOM     62  C   UNL A   1      44.293  30.835  32.204  1.00  0.00     0.049 A 
ATOM     63  H   UNL A   1      42.307  31.256  31.626  1.00  0.00     0.167 HD
ATOM     64  C   UNL A   1      43.670  28.947  30.725  1.00  0.00     0.074 A 
ATOM     65  C   UNL A   1      43.956  27.715  30.021  1.00  0.00     0.031 C 
ATOM     66  C   UNL A   1      44.563  29.601  31.509  1.00  0.00     0.037 A 
BRANCH  53  67
ATOM     67  C   UNL A   1      42.375  34.847  33.932  1.00  0.00     0.057 A 
ATOM     68  C   UNL A   1      42.939  36.017  33.407  1.00  0.00     0.134 A 
ATOM     69  C   UNL A   1      42.026  34.851  35.289  1.00  0.00     0.134 A 
ATOM     70  F   UNL A   1      43.312  36.074  32.119  1.00  0.00    -0.206 F 
ATOM     71  C   UNL A   1      43.169  37.138  34.206  1.00  0.00     0.040 A 
ATOM     72  C   UNL A   1      42.223  35.976  36.090  1.00  0.00     0.040 A 
ATOM     73  F   UNL A   1      41.477  33.765  35.855  1.00  0.00    -0.206 F 
ATOM     74  C   UNL A   1      42.803  37.123  35.550  1.00  0.00     0.006 A 
ENDBRANCH  53  67
BRANCH  54  75
ATOM     75  C   UNL A   1      40.257  27.003  28.141  1.00  0.00     0.057 A 
ATOM     76  C   UNL A   1      39.490  25.924  28.594  1.00  0.00     0.134 A 
ATOM     77  C   UNL A   1      40.772  26.925  26.840  1.00  0.00     0.134 A 
ATOM     78  F   UNL A   1      38.993  25.925  29.840  1.00  0.00    -0.206 F 
ATOM     79  C   UNL A   1      39.261  24.800  27.797  1.00  0.00     0.040 A 
ATOM     80  C   UNL A   1      40.527  25.821  26.021  1.00  0.00     0.040 A 
ATOM     81  F   UNL A   1      41.518  27.923  26.346  1.00  0.00    -0.206 F 
ATOM     82  C   UNL A   1      39.777  24.750  26.503  1.00  0.00     0.006 A 
ENDBRANCH  54  75
BRANCH  66  83
ATOM     83  C   UNL A   1      45.918  28.977  31.691  1.00  0.00     0.057 A 
ATOM     84  C   UNL A   1      46.164  27.996  32.660  1.00  0.00     0.134 A 
ATOM     85  C   UNL A   1      46.982  29.331  30.848  1.00  0.00     0.134 A 
ATOM     86  F   UNL A   1      45.194  27.619  33.506  1.00  0.00    -0.206 F 
ATOM     87  C   UNL A   1      47.424  27.410  32.802  1.00  0.00     0.040 A 
ATOM     88  C   UNL A   1      48.236  28.730  30.960  1.00  0.00     0.040 A 
ATOM     89  F   UNL A   1      46.813  30.255  29.890  1.00  0.00    -0.206 F 
ATOM     90  C   UNL A   1      48.462  27.771  31.945  1.00  0.00     0.006 A 
ENDBRANCH  66  83
ENDBRANCH  40  41
ENDBRANCH  33  35
ENDBRANCH  32  33
ENDBRANCH  31  32
ENDBRANCH  30  31
ENDBRANCH  29  30
ENDBRANCH  28  29
ENDBRANCH   1  28
TORSDOF 20
ENDMDL
MODEL 3
REMARK VINA RESULT:     -10.8      1.401      6.192
REMARK SMILES Cc1nn(C)c(C)c1CNC(=O)N[C@H]1CC[C@@H](C(=O)OCCOCCOCCOC(=O)c2ccc(-c3c4nc(c(-c5c(F)cccc5F)c5ccc([nH]5)c(-c5c(F)cccc5F)c5nc(c(-c6c(F)cccc6F)c6ccc3[nH]6)C=C5)C=C4)cc2)C1
REMARK SMILES IDX 24 1 23 2 22 3 21 4 20 5 18 6 19 7 17 8 14 9 15 10 86 11
REMARK SMILES IDX 16 12 13 13 10 14 11 15 12 17 9 19 8 20 1 21 2 22 3 23 4 24
REMARK SMILES IDX 6 25 5 26 7 27 25 28 26 29 27 30 28 31 29 32 30 33 31 34
REMARK SMILES IDX 32 35 33 36 85 37 34 38 84 39 35 40 36 41 37 42 78 43 38 44
REMARK SMILES IDX 83 45 77 46 79 47 39 48 82 49 76 50 75 51 40 53 66 54 49 55
REMARK SMILES IDX 65 56 50 57 53 58 64 59 80 60 51 61 52 62 63 64 81 65 54 66
REMARK SMILES IDX 41 67 42 68 47 69 43 70 44 71 46 72 48 73 45 74 67 75 68 76
REMARK SMILES IDX 73 77 69 78 70 79 72 80 74 81 71 82 55 83 56 84 61 85 57 86
REMARK SMILES IDX 58 87 60 88 62 89 59 90
REMARK H PARENT 10 16 13 18 79 52 53 63
REMARK Flexibility Score: inf
ROOT
ATOM      1  C   UNL A   1      40.387  20.835  26.430  1.00  0.00     0.188 C 
ENDROOT
BRANCH   1   2
ATOM      2  O   UNL A   1      39.374  21.767  26.081  1.00  0.00    -0.376 OA
BRANCH   2   3
ATOM      3  C   UNL A   1      38.202  21.307  25.413  1.00  0.00     0.202 C 
BRANCH   3   4
ATOM      4  C   UNL A   1      36.917  22.158  25.418  1.00  0.00     0.261 C 
BRANCH   4   5
ATOM      5  O   UNL A   1      36.809  23.095  24.329  1.00  0.00    -0.463 OA
BRANCH   5   6
ATOM      6  C   UNL A   1      35.608  23.160  23.700  1.00  0.00     0.309 C 
ATOM      7  O   UNL A   1      35.465  23.210  22.484  1.00  0.00    -0.252 OA
BRANCH   6   8
ATOM      8  C   UNL A   1      34.425  23.029  24.654  1.00  0.00     0.101 C 
ATOM      9  C   UNL A   1      32.376  23.818  23.637  1.00  0.00     0.084 C 
ATOM     10  C   UNL A   1      32.297  22.297  23.662  1.00  0.00     0.026 C 
ATOM     11  C   UNL A   1      33.393  24.153  24.706  1.00  0.00     0.040 C 
ATOM     12  C   UNL A   1      33.590  21.794  24.311  1.00  0.00     0.017 C 
BRANCH   9  13
ATOM     13  N   UNL A   1      32.817  24.329  22.350  1.00  0.00    -0.335 N 
ATOM     14  N   UNL A   1      31.711  26.392  22.085  1.00  0.00    -0.334 N 
ATOM     15  C   UNL A   1      32.575  25.460  21.678  1.00  0.00     0.315 C 
ATOM     16  H   UNL A   1      31.740  27.211  21.539  1.00  0.00     0.165 HD
ATOM     17  O   UNL A   1      33.210  25.663  20.642  1.00  0.00    -0.249 OA
ATOM     18  H   UNL A   1      33.420  23.713  21.873  1.00  0.00     0.165 HD
BRANCH  14  19
ATOM     19  C   UNL A   1      30.746  26.460  23.152  1.00  0.00     0.157 C 
BRANCH  19  20
ATOM     20  C   UNL A   1      30.848  27.740  23.920  1.00  0.00     0.015 A 
ATOM     21  C   UNL A   1      29.348  29.212  22.347  1.00  0.00     0.069 C 
ATOM     22  C   UNL A   1      30.236  28.963  23.511  1.00  0.00     0.065 A 
ATOM     23  N   UNL A   1      30.542  29.977  24.321  1.00  0.00    -0.178 NA
ATOM     24  N   UNL A   1      31.331  29.425  25.256  1.00  0.00    -0.272 N 
ATOM     25  C   UNL A   1      31.456  28.063  25.132  1.00  0.00     0.040 A 
ATOM     26  C   UNL A   1      31.948  30.304  26.224  1.00  0.00     0.174 C 
ATOM     27  C   UNL A   1      32.155  27.252  26.164  1.00  0.00     0.067 C 
ENDBRANCH  19  20
ENDBRANCH  14  19
ENDBRANCH   9  13
ENDBRANCH   6   8
ENDBRANCH   5   6
ENDBRANCH   4   5
ENDBRANCH   3   4
ENDBRANCH   2   3
ENDBRANCH   1   2
BRANCH   1  28
ATOM     28  C   UNL A   1      41.843  21.306  26.513  1.00  0.00     0.188 C 
BRANCH  28  29
ATOM     29  O   UNL A   1      42.645  20.982  25.405  1.00  0.00    -0.376 OA
BRANCH  29  30
ATOM     30  C   UNL A   1      44.025  21.317  25.443  1.00  0.00     0.202 C 
BRANCH  30  31
ATOM     31  C   UNL A   1      44.587  22.660  24.916  1.00  0.00     0.261 C 
BRANCH  31  32
ATOM     32  O   UNL A   1      43.823  23.855  25.146  1.00  0.00    -0.460 OA
BRANCH  32  33
ATOM     33  C   UNL A   1      44.506  25.002  25.364  1.00  0.00     0.338 C 
ATOM     34  O   UNL A   1      45.410  25.462  24.680  1.00  0.00    -0.246 OA
BRANCH  33  35
ATOM     35  C   UNL A   1      43.801  25.754  26.428  1.00  0.00     0.060 A 
ATOM     36  C   UNL A   1      44.155  27.091  26.672  1.00  0.00     0.016 A 
ATOM     37  C   UNL A   1      42.779  25.155  27.165  1.00  0.00     0.016 A 
ATOM     38  C   UNL A   1      43.500  27.827  27.661  1.00  0.00     0.010 A 
ATOM     39  C   UNL A   1      42.146  25.882  28.178  1.00  0.00     0.010 A 
ATOM     40  C   UNL A   1      42.518  27.212  28.448  1.00  0.00    -0.014 A 
BRANCH  40  41
ATOM     41  C   UNL A   1      42.017  27.883  29.674  1.00  0.00     0.031 A 
ATOM     42  C   UNL A   1      40.776  28.725  29.568  1.00  0.00     0.074 A 
ATOM     43  C   UNL A   1      42.643  27.755  30.858  1.00  0.00     0.049 A 
ATOM     44  N   UNL A   1      40.208  29.489  30.465  1.00  0.00    -0.248 NA
ATOM     45  C   UNL A   1      40.087  28.706  28.268  1.00  0.00     0.031 C 
ATOM     46  C   UNL A   1      43.821  26.927  31.110  1.00  0.00     0.029 A 
ATOM     47  N   UNL A   1      42.377  28.342  32.070  1.00  0.00    -0.354 N 
ATOM     48  C   UNL A   1      39.104  30.050  29.834  1.00  0.00     0.074 A 
ATOM     49  C   UNL A   1      39.098  29.561  28.473  1.00  0.00     0.031 C 
ATOM     50  C   UNL A   1      44.188  27.074  32.396  1.00  0.00     0.029 A 
ATOM     51  C   UNL A   1      43.297  28.036  33.043  1.00  0.00     0.049 A 
ATOM     52  H   UNL A   1      41.601  28.927  32.228  1.00  0.00     0.167 HD
ATOM     53  C   UNL A   1      38.175  30.892  30.345  1.00  0.00     0.037 A 
ATOM     54  C   UNL A   1      43.421  28.505  34.302  1.00  0.00     0.037 A 
ATOM     55  C   UNL A   1      38.185  31.385  31.696  1.00  0.00     0.049 A 
ATOM     56  C   UNL A   1      42.429  29.516  34.819  1.00  0.00     0.074 A 
ATOM     57  C   UNL A   1      37.284  32.236  32.311  1.00  0.00     0.029 A 
ATOM     58  N   UNL A   1      39.153  31.078  32.641  1.00  0.00    -0.354 N 
ATOM     59  N   UNL A   1      41.382  30.031  34.223  1.00  0.00    -0.248 NA
ATOM     60  C   UNL A   1      42.641  30.014  36.187  1.00  0.00     0.031 C 
ATOM     61  C   UNL A   1      37.736  32.490  33.608  1.00  0.00     0.029 A 
ATOM     62  C   UNL A   1      38.885  31.745  33.825  1.00  0.00     0.049 A 
ATOM     63  H   UNL A   1      39.917  30.476  32.492  1.00  0.00     0.167 HD
ATOM     64  C   UNL A   1      40.790  30.881  35.152  1.00  0.00     0.074 A 
ATOM     65  C   UNL A   1      41.592  30.805  36.355  1.00  0.00     0.031 C 
ATOM     66  C   UNL A   1      39.683  31.652  35.022  1.00  0.00     0.037 A 
BRANCH  53  67
ATOM     67  C   UNL A   1      37.086  31.361  29.423  1.00  0.00     0.057 A 
ATOM     68  C   UNL A   1      37.117  32.625  28.819  1.00  0.00     0.134 A 
ATOM     69  C   UNL A   1      36.006  30.524  29.114  1.00  0.00     0.134 A 
ATOM     70  F   UNL A   1      38.114  33.482  29.084  1.00  0.00    -0.206 F 
ATOM     71  C   UNL A   1      36.101  33.048  27.960  1.00  0.00     0.040 A 
ATOM     72  C   UNL A   1      35.000  30.924  28.234  1.00  0.00     0.040 A 
ATOM     73  F   UNL A   1      35.916  29.299  29.655  1.00  0.00    -0.206 F 
ATOM     74  C   UNL A   1      35.042  32.193  27.659  1.00  0.00     0.006 A 
ENDBRANCH  53  67
BRANCH  54  75
ATOM     75  C   UNL A   1      44.539  28.042  35.167  1.00  0.00     0.057 A 
ATOM     76  C   UNL A   1      44.402  26.917  35.988  1.00  0.00     0.134 A 
ATOM     77  C   UNL A   1      45.756  28.733  35.221  1.00  0.00     0.134 A 
ATOM     78  F   UNL A   1      43.250  26.229  36.003  1.00  0.00    -0.206 F 
ATOM     79  C   UNL A   1      45.424  26.506  36.846  1.00  0.00     0.040 A 
ATOM     80  C   UNL A   1      46.798  28.317  36.052  1.00  0.00     0.040 A 
ATOM     81  F   UNL A   1      45.951  29.822  34.463  1.00  0.00    -0.206 F 
ATOM     82  C   UNL A   1      46.629  27.206  36.876  1.00  0.00     0.006 A 
ENDBRANCH  54  75
BRANCH  66  83
ATOM     83  C   UNL A   1      39.238  32.439  36.222  1.00  0.00     0.057 A 
ATOM     84  C   UNL A   1      39.677  33.748  36.462  1.00  0.00     0.134 A 
ATOM     85  C   UNL A   1      38.316  31.894  37.127  1.00  0.00     0.134 A 
ATOM     86  F   UNL A   1      40.567  34.327  35.642  1.00  0.00    -0.206 F 
ATOM     87  C   UNL A   1      39.237  34.474  37.571  1.00  0.00     0.040 A 
ATOM     88  C   UNL A   1      37.845  32.621  38.221  1.00  0.00     0.040 A 
ATOM     89  F   UNL A   1      37.844  30.651  36.952  1.00  0.00    -0.206 F 
ATOM     90  C   UNL A   1      38.312  33.913  38.450  1.00  0.00     0.006 A 
ENDBRANCH  66  83
ENDBRANCH  40  41
ENDBRANCH  33  35
ENDBRANCH  32  33
ENDBRANCH  31  32
ENDBRANCH  30  31
ENDBRANCH  29  30
ENDBRANCH  28  29
ENDBRANCH   1  28
TORSDOF 20
ENDMDL
