MODEL 1
REMARK VINA RESULT:     -11.0      0.000      0.000
REMARK SMILES O=C1NC(=O)/C(=C/c2ccc(OCc3cn(-c4ccc(C(=O)OCCOCCOCCOC(=O)c5ccc(-c6c7nc(c(-c8c(F)cccc8F)c8ccc([nH]8)c(-c8c(F)cccc8F)c8nc(c(-c9c(F)cccc9F)c9ccc6[nH]9)C=C8)C=C7)cc5)cc4)nn3)cc2)S1
REMARK SMILES IDX 26 1 25 2 24 3 23 4 21 5 22 6 20 7 17 8 18 9 90 10 19 11
REMARK SMILES IDX 89 12 16 13 14 14 15 15 92 16 91 17 13 18 12 19 11 20 8 21
REMARK SMILES IDX 9 22 94 23 10 24 93 25 7 26 1 27 2 28 3 29 95 30 4 31 6 33
REMARK SMILES IDX 5 34 27 35 28 36 29 37 30 38 31 39 32 40 33 41 34 42 35 43
REMARK SMILES IDX 36 44 88 45 37 46 87 47 38 48 39 49 40 50 81 51 41 52 86 53
REMARK SMILES IDX 80 54 82 55 42 56 85 57 79 58 78 59 43 61 69 62 52 63 68 64
REMARK SMILES IDX 53 65 56 66 67 67 83 68 54 69 55 70 66 72 84 73 57 74 44 75
REMARK SMILES IDX 45 76 50 77 46 78 47 79 49 80 51 81 48 82 70 83 71 84 76 85
REMARK SMILES IDX 72 86 73 87 75 88 77 89 74 90 58 91 59 92 64 93 60 94 61 95
REMARK SMILES IDX 63 96 65 97 62 98
REMARK H PARENT 3 32 82 60 56 71
REMARK Flexibility Score: inf
ROOT
ATOM      1  O   UNL A   1      34.344  32.940  27.713  1.00  0.00    -0.376 OA
ENDROOT
BRANCH   1   2
ATOM      2  C   UNL A   1      34.292  31.532  27.864  1.00  0.00     0.202 C 
BRANCH   2   3
ATOM      3  C   UNL A   1      33.214  30.582  27.300  1.00  0.00     0.261 C 
BRANCH   3   4
ATOM      4  O   UNL A   1      33.125  30.417  25.886  1.00  0.00    -0.460 OA
BRANCH   4   5
ATOM      5  C   UNL A   1      32.057  29.710  25.450  1.00  0.00     0.338 C 
ATOM      6  O   UNL A   1      31.004  30.155  25.027  1.00  0.00    -0.246 OA
BRANCH   5   7
ATOM      7  C   UNL A   1      32.417  28.281  25.364  1.00  0.00     0.060 A 
ATOM      8  C   UNL A   1      33.132  25.597  25.415  1.00  0.00     0.066 A 
ATOM      9  C   UNL A   1      32.041  26.036  26.179  1.00  0.00     0.029 A 
ATOM     10  C   UNL A   1      33.798  26.476  24.551  1.00  0.00     0.029 A 
ATOM     11  C   UNL A   1      31.715  27.388  26.183  1.00  0.00     0.018 A 
ATOM     12  C   UNL A   1      33.416  27.819  24.502  1.00  0.00     0.018 A 
BRANCH   8  13
ATOM     13  N   UNL A   1      33.613  24.286  25.626  1.00  0.00    -0.220 N 
ATOM     14  C   UNL A   1      34.922  22.562  25.893  1.00  0.00     0.120 A 
ATOM     15  C   UNL A   1      34.818  23.760  25.217  1.00  0.00     0.144 A 
ATOM     16  N   UNL A   1      33.783  22.380  26.632  1.00  0.00    -0.131 NA
ATOM     17  N   UNL A   1      33.002  23.433  26.475  1.00  0.00    -0.062 NA
BRANCH  14  18
ATOM     18  C   UNL A   1      36.070  21.613  26.014  1.00  0.00     0.289 C 
BRANCH  18  19
ATOM     19  O   UNL A   1      37.363  22.173  25.737  1.00  0.00    -0.487 OA
BRANCH  19  20
ATOM     20  C   UNL A   1      38.456  21.360  25.859  1.00  0.00     0.119 A 
ATOM     21  C   UNL A   1      40.912  19.997  25.940  1.00  0.00    -0.024 A 
ATOM     22  C   UNL A   1      40.806  21.283  26.474  1.00  0.00     0.012 A 
ATOM     23  C   UNL A   1      39.764  19.365  25.456  1.00  0.00     0.012 A 
ATOM     24  C   UNL A   1      39.582  21.962  26.428  1.00  0.00     0.047 A 
ATOM     25  C   UNL A   1      38.539  20.035  25.440  1.00  0.00     0.047 A 
BRANCH  21  26
ATOM     26  C   UNL A   1      42.202  19.304  25.899  1.00  0.00     0.029 C 
ATOM     27  O   UNL A   1      46.291  22.147  25.168  1.00  0.00    -0.261 OA
ATOM     28  C   UNL A   1      45.460  21.283  25.350  1.00  0.00     0.290 C 
ATOM     29  N   UNL A   1      45.699  19.944  25.390  1.00  0.00    -0.282 N 
ATOM     30  S   UNL A   1      43.751  21.578  25.598  1.00  0.00    -0.022 SA
ATOM     31  C   UNL A   1      44.647  19.107  25.602  1.00  0.00     0.265 C 
ATOM     32  H   UNL A   1      46.610  19.590  25.270  1.00  0.00     0.174 HD
ATOM     33  C   UNL A   1      43.393  19.894  25.730  1.00  0.00     0.083 C 
ATOM     34  O   UNL A   1      44.727  17.890  25.659  1.00  0.00    -0.268 OA
ENDBRANCH  21  26
ENDBRANCH  19  20
ENDBRANCH  18  19
ENDBRANCH  14  18
ENDBRANCH   8  13
ENDBRANCH   5   7
ENDBRANCH   4   5
ENDBRANCH   3   4
ENDBRANCH   2   3
ENDBRANCH   1   2
BRANCH   1  35
ATOM     35  C   UNL A   1      33.276  33.760  28.122  1.00  0.00     0.188 C 
BRANCH  35  36
ATOM     36  C   UNL A   1      33.569  34.783  29.237  1.00  0.00     0.188 C 
BRANCH  36  37
ATOM     37  O   UNL A   1      32.592  35.098  30.211  1.00  0.00    -0.376 OA
BRANCH  37  38
ATOM     38  C   UNL A   1      32.914  35.701  31.452  1.00  0.00     0.202 C 
BRANCH  38  39
ATOM     39  C   UNL A   1      33.469  34.965  32.670  1.00  0.00     0.261 C 
BRANCH  39  40
ATOM     40  O   UNL A   1      33.768  33.593  32.511  1.00  0.00    -0.460 OA
BRANCH  40  41
ATOM     41  C   UNL A   1      34.799  33.185  33.278  1.00  0.00     0.338 C 
ATOM     42  O   UNL A   1      34.996  33.440  34.454  1.00  0.00    -0.246 OA
BRANCH  41  43
ATOM     43  C   UNL A   1      35.768  32.493  32.435  1.00  0.00     0.060 A 
ATOM     44  C   UNL A   1      36.685  31.659  33.075  1.00  0.00     0.016 A 
ATOM     45  C   UNL A   1      35.958  32.956  31.126  1.00  0.00     0.016 A 
ATOM     46  C   UNL A   1      37.908  31.465  32.475  1.00  0.00     0.010 A 
ATOM     47  C   UNL A   1      37.186  32.780  30.540  1.00  0.00     0.010 A 
ATOM     48  C   UNL A   1      38.174  32.113  31.260  1.00  0.00    -0.014 A 
BRANCH  48  49
ATOM     49  C   UNL A   1      39.474  31.922  30.650  1.00  0.00     0.031 A 
ATOM     50  C   UNL A   1      39.539  30.614  29.964  1.00  0.00     0.074 A 
ATOM     51  C   UNL A   1      40.430  32.874  30.637  1.00  0.00     0.049 A 
ATOM     52  N   UNL A   1      40.213  29.580  30.338  1.00  0.00    -0.248 NA
ATOM     53  C   UNL A   1      38.567  30.338  28.888  1.00  0.00     0.031 C 
ATOM     54  C   UNL A   1      40.321  34.257  31.108  1.00  0.00     0.029 A 
ATOM     55  N   UNL A   1      41.690  32.835  30.114  1.00  0.00    -0.354 N 
ATOM     56  C   UNL A   1      39.961  28.617  29.369  1.00  0.00     0.074 A 
ATOM     57  C   UNL A   1      38.778  29.039  28.672  1.00  0.00     0.031 C 
ATOM     58  C   UNL A   1      41.367  34.978  30.641  1.00  0.00     0.029 A 
ATOM     59  C   UNL A   1      42.284  34.090  29.950  1.00  0.00     0.049 A 
ATOM     60  H   UNL A   1      42.142  31.995  29.871  1.00  0.00     0.167 HD
ATOM     61  C   UNL A   1      40.961  27.781  28.987  1.00  0.00     0.037 A 
ATOM     62  C   UNL A   1      43.414  34.364  29.244  1.00  0.00     0.037 A 
ATOM     63  C   UNL A   1      41.990  27.726  30.002  1.00  0.00     0.049 A 
ATOM     64  C   UNL A   1      44.155  33.089  29.093  1.00  0.00     0.074 A 
ATOM     65  C   UNL A   1      42.041  27.381  31.337  1.00  0.00     0.029 A 
ATOM     66  N   UNL A   1      43.113  28.470  29.755  1.00  0.00    -0.354 N 
ATOM     67  N   UNL A   1      44.742  32.472  30.077  1.00  0.00    -0.248 NA
ATOM     68  C   UNL A   1      43.860  32.273  27.928  1.00  0.00     0.031 C 
ATOM     69  C   UNL A   1      42.989  28.274  31.923  1.00  0.00     0.029 A 
ATOM     70  C   UNL A   1      43.535  29.064  30.911  1.00  0.00     0.049 A 
ATOM     71  H   UNL A   1      43.551  28.562  28.878  1.00  0.00     0.167 HD
ATOM     72  C   UNL A   1      44.446  31.136  29.867  1.00  0.00     0.074 A 
ATOM     73  C   UNL A   1      44.005  31.063  28.474  1.00  0.00     0.031 C 
ATOM     74  C   UNL A   1      44.297  30.291  30.931  1.00  0.00     0.037 A 
BRANCH  61  75
ATOM     75  C   UNL A   1      41.254  27.469  27.531  1.00  0.00     0.057 A 
ATOM     76  C   UNL A   1      41.440  26.126  27.160  1.00  0.00     0.134 A 
ATOM     77  C   UNL A   1      41.674  28.414  26.568  1.00  0.00     0.134 A 
ATOM     78  F   UNL A   1      41.109  25.131  27.996  1.00  0.00    -0.206 F 
ATOM     79  C   UNL A   1      42.068  25.757  25.963  1.00  0.00     0.040 A 
ATOM     80  C   UNL A   1      42.252  28.054  25.349  1.00  0.00     0.040 A 
ATOM     81  F   UNL A   1      41.652  29.733  26.779  1.00  0.00    -0.206 F 
ATOM     82  C   UNL A   1      42.483  26.723  25.056  1.00  0.00     0.006 A 
ENDBRANCH  61  75
BRANCH  62  83
ATOM     83  C   UNL A   1      43.760  35.545  28.411  1.00  0.00     0.057 A 
ATOM     84  C   UNL A   1      43.026  35.854  27.251  1.00  0.00     0.134 A 
ATOM     85  C   UNL A   1      44.596  36.565  28.892  1.00  0.00     0.134 A 
ATOM     86  F   UNL A   1      42.167  34.964  26.730  1.00  0.00    -0.206 F 
ATOM     87  C   UNL A   1      43.088  37.111  26.635  1.00  0.00     0.040 A 
ATOM     88  C   UNL A   1      44.672  37.824  28.283  1.00  0.00     0.040 A 
ATOM     89  F   UNL A   1      45.295  36.412  30.025  1.00  0.00    -0.206 F 
ATOM     90  C   UNL A   1      43.903  38.108  27.161  1.00  0.00     0.006 A 
ENDBRANCH  62  83
BRANCH  74  91
ATOM     91  C   UNL A   1      44.822  30.755  32.264  1.00  0.00     0.057 A 
ATOM     92  C   UNL A   1      44.071  31.431  33.239  1.00  0.00     0.134 A 
ATOM     93  C   UNL A   1      46.138  30.421  32.602  1.00  0.00     0.134 A 
ATOM     94  F   UNL A   1      42.774  31.711  33.052  1.00  0.00    -0.206 F 
ATOM     95  C   UNL A   1      44.628  31.806  34.468  1.00  0.00     0.040 A 
ATOM     96  C   UNL A   1      46.694  30.754  33.838  1.00  0.00     0.040 A 
ATOM     97  F   UNL A   1      46.903  29.732  31.740  1.00  0.00    -0.206 F 
ATOM     98  C   UNL A   1      45.943  31.464  34.771  1.00  0.00     0.006 A 
ENDBRANCH  74  91
ENDBRANCH  48  49
ENDBRANCH  41  43
ENDBRANCH  40  41
ENDBRANCH  39  40
ENDBRANCH  38  39
ENDBRANCH  37  38
ENDBRANCH  36  37
ENDBRANCH  35  36
ENDBRANCH   1  35
TORSDOF 22
ENDMDL
MODEL 2
REMARK VINA RESULT:     -10.9      2.403      6.076
REMARK SMILES O=C1NC(=O)/C(=C/c2ccc(OCc3cn(-c4ccc(C(=O)OCCOCCOCCOC(=O)c5ccc(-c6c7nc(c(-c8c(F)cccc8F)c8ccc([nH]8)c(-c8c(F)cccc8F)c8nc(c(-c9c(F)cccc9F)c9ccc6[nH]9)C=C8)C=C7)cc5)cc4)nn3)cc2)S1
REMARK SMILES IDX 26 1 25 2 24 3 23 4 21 5 22 6 20 7 17 8 18 9 90 10 19 11
REMARK SMILES IDX 89 12 16 13 14 14 15 15 92 16 91 17 13 18 12 19 11 20 8 21
REMARK SMILES IDX 9 22 94 23 10 24 93 25 7 26 1 27 2 28 3 29 95 30 4 31 6 33
REMARK SMILES IDX 5 34 27 35 28 36 29 37 30 38 31 39 32 40 33 41 34 42 35 43
REMARK SMILES IDX 36 44 88 45 37 46 87 47 38 48 39 49 40 50 81 51 41 52 86 53
REMARK SMILES IDX 80 54 82 55 42 56 85 57 79 58 78 59 43 61 69 62 52 63 68 64
REMARK SMILES IDX 53 65 56 66 67 67 83 68 54 69 55 70 66 72 84 73 57 74 44 75
REMARK SMILES IDX 45 76 50 77 46 78 47 79 49 80 51 81 48 82 70 83 71 84 76 85
REMARK SMILES IDX 72 86 73 87 75 88 77 89 74 90 58 91 59 92 64 93 60 94 61 95
REMARK SMILES IDX 63 96 65 97 62 98
REMARK H PARENT 3 32 82 60 56 71
REMARK Flexibility Score: inf
ROOT
ATOM      1  O   UNL A   1      34.411  33.388  28.145  1.00  0.00    -0.376 OA
ENDROOT
BRANCH   1   2
ATOM      2  C   UNL A   1      34.408  32.046  28.599  1.00  0.00     0.202 C 
BRANCH   2   3
ATOM      3  C   UNL A   1      34.210  30.780  27.737  1.00  0.00     0.261 C 
BRANCH   3   4
ATOM      4  O   UNL A   1      33.514  30.903  26.499  1.00  0.00    -0.460 OA
BRANCH   4   5
ATOM      5  C   UNL A   1      32.166  30.815  26.580  1.00  0.00     0.338 C 
ATOM      6  O   UNL A   1      31.374  31.736  26.672  1.00  0.00    -0.246 OA
BRANCH   5   7
ATOM      7  C   UNL A   1      31.750  29.420  26.335  1.00  0.00     0.060 A 
ATOM      8  C   UNL A   1      31.157  26.732  25.960  1.00  0.00     0.066 A 
ATOM      9  C   UNL A   1      31.392  27.213  27.256  1.00  0.00     0.029 A 
ATOM     10  C   UNL A   1      31.117  27.610  24.868  1.00  0.00     0.029 A 
ATOM     11  C   UNL A   1      31.731  28.550  27.433  1.00  0.00     0.018 A 
ATOM     12  C   UNL A   1      31.383  28.968  25.064  1.00  0.00     0.018 A 
BRANCH   8  13
ATOM     13  N   UNL A   1      31.079  25.335  25.767  1.00  0.00    -0.220 N 
ATOM     14  C   UNL A   1      31.429  23.305  25.051  1.00  0.00     0.120 A 
ATOM     15  C   UNL A   1      31.433  24.623  24.644  1.00  0.00     0.144 A 
ATOM     16  N   UNL A   1      31.033  23.256  26.361  1.00  0.00    -0.131 NA
ATOM     17  N   UNL A   1      30.836  24.489  26.791  1.00  0.00    -0.062 NA
BRANCH  14  18
ATOM     18  C   UNL A   1      31.895  22.071  24.349  1.00  0.00     0.289 C 
BRANCH  18  19
ATOM     19  O   UNL A   1      32.890  22.280  23.334  1.00  0.00    -0.487 OA
BRANCH  19  20
ATOM     20  C   UNL A   1      34.201  22.079  23.666  1.00  0.00     0.119 A 
ATOM     21  C   UNL A   1      36.766  21.664  24.736  1.00  0.00    -0.024 A 
ATOM     22  C   UNL A   1      35.709  20.828  25.103  1.00  0.00     0.012 A 
ATOM     23  C   UNL A   1      36.552  22.642  23.761  1.00  0.00     0.012 A 
ATOM     24  C   UNL A   1      34.431  21.040  24.572  1.00  0.00     0.047 A 
ATOM     25  C   UNL A   1      35.283  22.829  23.212  1.00  0.00     0.047 A 
BRANCH  21  26
ATOM     26  C   UNL A   1      38.091  21.515  25.345  1.00  0.00     0.029 C 
ATOM     27  O   UNL A   1      39.868  25.458  27.920  1.00  0.00    -0.261 OA
ATOM     28  C   UNL A   1      39.645  24.407  27.359  1.00  0.00     0.290 C 
ATOM     29  N   UNL A   1      40.514  23.366  27.243  1.00  0.00    -0.282 N 
ATOM     30  S   UNL A   1      38.138  23.999  26.563  1.00  0.00    -0.022 SA
ATOM     31  C   UNL A   1      40.102  22.253  26.576  1.00  0.00     0.265 C 
ATOM     32  H   UNL A   1      41.416  23.416  27.633  1.00  0.00     0.174 HD
ATOM     33  C   UNL A   1      38.716  22.447  26.076  1.00  0.00     0.083 C 
ATOM     34  O   UNL A   1      40.783  21.255  26.401  1.00  0.00    -0.268 OA
ENDBRANCH  21  26
ENDBRANCH  19  20
ENDBRANCH  18  19
ENDBRANCH  14  18
ENDBRANCH   8  13
ENDBRANCH   5   7
ENDBRANCH   4   5
ENDBRANCH   3   4
ENDBRANCH   2   3
ENDBRANCH   1   2
BRANCH   1  35
ATOM     35  C   UNL A   1      33.264  34.197  28.242  1.00  0.00     0.188 C 
BRANCH  35  36
ATOM     36  C   UNL A   1      33.436  35.574  28.913  1.00  0.00     0.188 C 
BRANCH  36  37
ATOM     37  O   UNL A   1      32.504  36.039  29.870  1.00  0.00    -0.376 OA
BRANCH  37  38
ATOM     38  C   UNL A   1      32.890  36.512  31.149  1.00  0.00     0.202 C 
BRANCH  38  39
ATOM     39  C   UNL A   1      32.694  35.756  32.462  1.00  0.00     0.261 C 
BRANCH  39  40
ATOM     40  O   UNL A   1      33.836  35.150  33.032  1.00  0.00    -0.460 OA
BRANCH  40  41
ATOM     41  C   UNL A   1      33.854  33.811  32.881  1.00  0.00     0.338 C 
ATOM     42  O   UNL A   1      33.067  33.000  33.341  1.00  0.00    -0.246 OA
BRANCH  41  43
ATOM     43  C   UNL A   1      35.081  33.431  32.189  1.00  0.00     0.060 A 
ATOM     44  C   UNL A   1      35.434  32.081  32.216  1.00  0.00     0.016 A 
ATOM     45  C   UNL A   1      35.993  34.441  31.855  1.00  0.00     0.016 A 
ATOM     46  C   UNL A   1      36.769  31.762  32.120  1.00  0.00     0.010 A 
ATOM     47  C   UNL A   1      37.326  34.122  31.782  1.00  0.00     0.010 A 
ATOM     48  C   UNL A   1      37.705  32.801  32.005  1.00  0.00    -0.014 A 
BRANCH  48  49
ATOM     49  C   UNL A   1      39.109  32.454  31.930  1.00  0.00     0.031 A 
ATOM     50  C   UNL A   1      39.795  32.786  33.197  1.00  0.00     0.074 A 
ATOM     51  C   UNL A   1      39.656  31.817  30.873  1.00  0.00     0.049 A 
ATOM     52  N   UNL A   1      40.643  33.739  33.387  1.00  0.00    -0.248 NA
ATOM     53  C   UNL A   1      39.311  32.157  34.441  1.00  0.00     0.031 C 
ATOM     54  C   UNL A   1      38.965  31.274  29.701  1.00  0.00     0.029 A 
ATOM     55  N   UNL A   1      40.949  31.436  30.661  1.00  0.00    -0.354 N 
ATOM     56  C   UNL A   1      41.006  33.633  34.724  1.00  0.00     0.074 A 
ATOM     57  C   UNL A   1      39.995  32.838  35.361  1.00  0.00     0.031 C 
ATOM     58  C   UNL A   1      39.797  30.442  29.031  1.00  0.00     0.029 A 
ATOM     59  C   UNL A   1      41.111  30.490  29.645  1.00  0.00     0.049 A 
ATOM     60  H   UNL A   1      41.705  31.796  31.180  1.00  0.00     0.167 HD
ATOM     61  C   UNL A   1      42.293  33.882  35.084  1.00  0.00     0.037 A 
ATOM     62  C   UNL A   1      42.235  29.768  29.383  1.00  0.00     0.037 A 
ATOM     63  C   UNL A   1      42.955  34.680  34.076  1.00  0.00     0.049 A 
ATOM     64  C   UNL A   1      43.369  30.480  30.018  1.00  0.00     0.074 A 
ATOM     65  C   UNL A   1      42.744  35.918  33.502  1.00  0.00     0.029 A 
ATOM     66  N   UNL A   1      43.788  34.000  33.227  1.00  0.00    -0.354 N 
ATOM     67  N   UNL A   1      43.830  31.623  29.604  1.00  0.00    -0.248 NA
ATOM     68  C   UNL A   1      43.700  30.131  31.389  1.00  0.00     0.031 C 
ATOM     69  C   UNL A   1      43.137  35.773  32.136  1.00  0.00     0.029 A 
ATOM     70  C   UNL A   1      43.647  34.487  31.958  1.00  0.00     0.049 A 
ATOM     71  H   UNL A   1      44.395  33.272  33.491  1.00  0.00     0.167 HD
ATOM     72  C   UNL A   1      44.068  32.338  30.766  1.00  0.00     0.074 A 
ATOM     73  C   UNL A   1      44.082  31.332  31.828  1.00  0.00     0.031 C 
ATOM     74  C   UNL A   1      43.919  33.696  30.779  1.00  0.00     0.037 A 
BRANCH  61  75
ATOM     75  C   UNL A   1      43.066  32.979  36.027  1.00  0.00     0.057 A 
ATOM     76  C   UNL A   1      43.867  33.575  37.016  1.00  0.00     0.134 A 
ATOM     77  C   UNL A   1      43.314  31.605  35.813  1.00  0.00     0.134 A 
ATOM     78  F   UNL A   1      43.751  34.882  37.298  1.00  0.00    -0.206 F 
ATOM     79  C   UNL A   1      44.887  32.880  37.678  1.00  0.00     0.040 A 
ATOM     80  C   UNL A   1      44.293  30.890  36.506  1.00  0.00     0.040 A 
ATOM     81  F   UNL A   1      42.710  30.892  34.858  1.00  0.00    -0.206 F 
ATOM     82  C   UNL A   1      45.107  31.533  37.419  1.00  0.00     0.006 A 
ENDBRANCH  61  75
BRANCH  62  83
ATOM     83  C   UNL A   1      42.384  28.364  28.920  1.00  0.00     0.057 A 
ATOM     84  C   UNL A   1      42.768  28.074  27.598  1.00  0.00     0.134 A 
ATOM     85  C   UNL A   1      42.465  27.295  29.827  1.00  0.00     0.134 A 
ATOM     86  F   UNL A   1      42.765  29.033  26.660  1.00  0.00    -0.206 F 
ATOM     87  C   UNL A   1      43.243  26.812  27.213  1.00  0.00     0.040 A 
ATOM     88  C   UNL A   1      42.932  26.029  29.454  1.00  0.00     0.040 A 
ATOM     89  F   UNL A   1      42.188  27.466  31.126  1.00  0.00    -0.206 F 
ATOM     90  C   UNL A   1      43.342  25.787  28.149  1.00  0.00     0.006 A 
ENDBRANCH  62  83
BRANCH  74  91
ATOM     91  C   UNL A   1      43.866  34.401  29.449  1.00  0.00     0.057 A 
ATOM     92  C   UNL A   1      42.691  34.743  28.760  1.00  0.00     0.134 A 
ATOM     93  C   UNL A   1      45.073  34.825  28.884  1.00  0.00     0.134 A 
ATOM     94  F   UNL A   1      41.480  34.468  29.266  1.00  0.00    -0.206 F 
ATOM     95  C   UNL A   1      42.727  35.424  27.537  1.00  0.00     0.040 A 
ATOM     96  C   UNL A   1      45.121  35.539  27.686  1.00  0.00     0.040 A 
ATOM     97  F   UNL A   1      46.236  34.578  29.509  1.00  0.00    -0.206 F 
ATOM     98  C   UNL A   1      43.946  35.826  26.998  1.00  0.00     0.006 A 
ENDBRANCH  74  91
ENDBRANCH  48  49
ENDBRANCH  41  43
ENDBRANCH  40  41
ENDBRANCH  39  40
ENDBRANCH  38  39
ENDBRANCH  37  38
ENDBRANCH  36  37
ENDBRANCH  35  36
ENDBRANCH   1  35
TORSDOF 22
ENDMDL
MODEL 3
REMARK VINA RESULT:     -10.9      2.797      5.237
REMARK SMILES O=C1NC(=O)/C(=C/c2ccc(OCc3cn(-c4ccc(C(=O)OCCOCCOCCOC(=O)c5ccc(-c6c7nc(c(-c8c(F)cccc8F)c8ccc([nH]8)c(-c8c(F)cccc8F)c8nc(c(-c9c(F)cccc9F)c9ccc6[nH]9)C=C8)C=C7)cc5)cc4)nn3)cc2)S1
REMARK SMILES IDX 26 1 25 2 24 3 23 4 21 5 22 6 20 7 17 8 18 9 90 10 19 11
REMARK SMILES IDX 89 12 16 13 14 14 15 15 92 16 91 17 13 18 12 19 11 20 8 21
REMARK SMILES IDX 9 22 94 23 10 24 93 25 7 26 1 27 2 28 3 29 95 30 4 31 6 33
REMARK SMILES IDX 5 34 27 35 28 36 29 37 30 38 31 39 32 40 33 41 34 42 35 43
REMARK SMILES IDX 36 44 88 45 37 46 87 47 38 48 39 49 40 50 81 51 41 52 86 53
REMARK SMILES IDX 80 54 82 55 42 56 85 57 79 58 78 59 43 61 69 62 52 63 68 64
REMARK SMILES IDX 53 65 56 66 67 67 83 68 54 69 55 70 66 72 84 73 57 74 44 75
REMARK SMILES IDX 45 76 50 77 46 78 47 79 49 80 51 81 48 82 70 83 71 84 76 85
REMARK SMILES IDX 72 86 73 87 75 88 77 89 74 90 58 91 59 92 64 93 60 94 61 95
REMARK SMILES IDX 63 96 65 97 62 98
REMARK H PARENT 3 32 82 60 56 71
REMARK Flexibility Score: inf
ROOT
ATOM      1  O   UNL A   1      31.945  26.514  23.254  1.00  0.00    -0.376 OA
ENDROOT
BRANCH   1   2
ATOM      2  C   UNL A   1      31.870  25.446  22.326  1.00  0.00     0.202 C 
BRANCH   2   3
ATOM      3  C   UNL A   1      32.750  24.177  22.305  1.00  0.00     0.261 C 
BRANCH   3   4
ATOM      4  O   UNL A   1      33.969  24.183  23.046  1.00  0.00    -0.460 OA
BRANCH   4   5
ATOM      5  C   UNL A   1      33.949  23.479  24.201  1.00  0.00     0.338 C 
ATOM      6  O   UNL A   1      32.976  22.987  24.745  1.00  0.00    -0.246 OA
BRANCH   5   7
ATOM      7  C   UNL A   1      35.334  23.205  24.633  1.00  0.00     0.060 A 
ATOM      8  C   UNL A   1      37.871  22.499  25.518  1.00  0.00     0.066 A 
ATOM      9  C   UNL A   1      37.233  21.710  24.551  1.00  0.00     0.029 A 
ATOM     10  C   UNL A   1      37.287  23.692  25.965  1.00  0.00     0.029 A 
ATOM     11  C   UNL A   1      35.945  22.044  24.143  1.00  0.00     0.018 A 
ATOM     12  C   UNL A   1      36.025  24.063  25.494  1.00  0.00     0.018 A 
BRANCH   8  13
ATOM     13  N   UNL A   1      39.052  22.004  26.113  1.00  0.00    -0.220 N 
ATOM     14  C   UNL A   1      40.998  21.069  26.424  1.00  0.00     0.120 A 
ATOM     15  C   UNL A   1      39.852  20.979  25.661  1.00  0.00     0.144 A 
ATOM     16  N   UNL A   1      40.840  22.088  27.326  1.00  0.00    -0.131 NA
ATOM     17  N   UNL A   1      39.666  22.657  27.123  1.00  0.00    -0.062 NA
BRANCH  14  18
ATOM     18  C   UNL A   1      42.306  20.358  26.298  1.00  0.00     0.289 C 
BRANCH  18  19
ATOM     19  O   UNL A   1      43.102  20.731  25.162  1.00  0.00    -0.487 OA
BRANCH  19  20
ATOM     20  C   UNL A   1      44.007  21.745  25.315  1.00  0.00     0.119 A 
ATOM     21  C   UNL A   1      46.125  23.588  25.427  1.00  0.00    -0.024 A 
ATOM     22  C   UNL A   1      45.743  23.032  24.204  1.00  0.00     0.012 A 
ATOM     23  C   UNL A   1      45.379  23.291  26.571  1.00  0.00     0.012 A 
ATOM     24  C   UNL A   1      44.691  22.110  24.152  1.00  0.00     0.047 A 
ATOM     25  C   UNL A   1      44.311  22.396  26.508  1.00  0.00     0.047 A 
BRANCH  21  26
ATOM     26  C   UNL A   1      47.278  24.487  25.518  1.00  0.00     0.029 C 
ATOM     27  O   UNL A   1      46.399  29.392  24.809  1.00  0.00    -0.261 OA
ATOM     28  C   UNL A   1      46.836  28.279  25.008  1.00  0.00     0.290 C 
ATOM     29  N   UNL A   1      48.147  27.955  25.168  1.00  0.00    -0.282 N 
ATOM     30  S   UNL A   1      45.857  26.830  25.131  1.00  0.00    -0.022 SA
ATOM     31  C   UNL A   1      48.467  26.649  25.382  1.00  0.00     0.265 C 
ATOM     32  H   UNL A   1      48.847  28.647  25.130  1.00  0.00     0.174 HD
ATOM     33  C   UNL A   1      47.235  25.819  25.373  1.00  0.00     0.083 C 
ATOM     34  O   UNL A   1      49.602  26.228  25.539  1.00  0.00    -0.268 OA
ENDBRANCH  21  26
ENDBRANCH  19  20
ENDBRANCH  18  19
ENDBRANCH  14  18
ENDBRANCH   8  13
ENDBRANCH   5   7
ENDBRANCH   4   5
ENDBRANCH   3   4
ENDBRANCH   2   3
ENDBRANCH   1   2
BRANCH   1  35
ATOM     35  C   UNL A   1      30.903  27.451  23.378  1.00  0.00     0.188 C 
BRANCH  35  36
ATOM     36  C   UNL A   1      31.306  28.936  23.453  1.00  0.00     0.188 C 
BRANCH  36  37
ATOM     37  O   UNL A   1      32.086  29.426  24.527  1.00  0.00    -0.376 OA
BRANCH  37  38
ATOM     38  C   UNL A   1      31.516  29.892  25.738  1.00  0.00     0.202 C 
BRANCH  38  39
ATOM     39  C   UNL A   1      31.630  31.319  26.271  1.00  0.00     0.261 C 
BRANCH  39  40
ATOM     40  O   UNL A   1      32.573  31.549  27.298  1.00  0.00    -0.460 OA
BRANCH  40  41
ATOM     41  C   UNL A   1      32.676  32.849  27.639  1.00  0.00     0.338 C 
ATOM     42  O   UNL A   1      31.935  33.763  27.315  1.00  0.00    -0.246 OA
BRANCH  41  43
ATOM     43  C   UNL A   1      33.933  33.051  28.352  1.00  0.00     0.060 A 
ATOM     44  C   UNL A   1      34.952  33.714  27.667  1.00  0.00     0.016 A 
ATOM     45  C   UNL A   1      34.171  32.289  29.503  1.00  0.00     0.016 A 
ATOM     46  C   UNL A   1      36.253  33.431  28.016  1.00  0.00     0.010 A 
ATOM     47  C   UNL A   1      35.469  31.990  29.834  1.00  0.00     0.010 A 
ATOM     48  C   UNL A   1      36.490  32.493  29.032  1.00  0.00    -0.014 A 
BRANCH  48  49
ATOM     49  C   UNL A   1      37.864  32.185  29.373  1.00  0.00     0.031 A 
ATOM     50  C   UNL A   1      38.185  30.785  29.020  1.00  0.00     0.074 A 
ATOM     51  C   UNL A   1      38.731  33.104  29.845  1.00  0.00     0.049 A 
ATOM     52  N   UNL A   1      38.378  29.809  29.839  1.00  0.00    -0.248 NA
ATOM     53  C   UNL A   1      38.036  30.367  27.613  1.00  0.00     0.031 C 
ATOM     54  C   UNL A   1      38.512  34.546  29.994  1.00  0.00     0.029 A 
ATOM     55  N   UNL A   1      40.038  32.961  30.212  1.00  0.00    -0.354 N 
ATOM     56  C   UNL A   1      38.658  28.713  29.032  1.00  0.00     0.074 A 
ATOM     57  C   UNL A   1      38.192  29.045  27.716  1.00  0.00     0.031 C 
ATOM     58  C   UNL A   1      39.700  35.165  30.191  1.00  0.00     0.029 A 
ATOM     59  C   UNL A   1      40.743  34.163  30.310  1.00  0.00     0.049 A 
ATOM     60  H   UNL A   1      40.449  32.085  30.391  1.00  0.00     0.167 HD
ATOM     61  C   UNL A   1      39.587  27.808  29.439  1.00  0.00     0.037 A 
ATOM     62  C   UNL A   1      42.092  34.303  30.421  1.00  0.00     0.037 A 
ATOM     63  C   UNL A   1      39.780  27.890  30.869  1.00  0.00     0.049 A 
ATOM     64  C   UNL A   1      42.628  33.006  30.898  1.00  0.00     0.074 A 
ATOM     65  C   UNL A   1      38.976  27.754  31.984  1.00  0.00     0.029 A 
ATOM     66  N   UNL A   1      40.898  28.565  31.284  1.00  0.00    -0.354 N 
ATOM     67  N   UNL A   1      42.430  32.536  32.095  1.00  0.00    -0.248 NA
ATOM     68  C   UNL A   1      43.009  32.025  29.895  1.00  0.00     0.031 C 
ATOM     69  C   UNL A   1      39.470  28.708  32.925  1.00  0.00     0.029 A 
ATOM     70  C   UNL A   1      40.598  29.321  32.381  1.00  0.00     0.049 A 
ATOM     71  H   UNL A   1      41.783  28.512  30.856  1.00  0.00     0.167 HD
ATOM     72  C   UNL A   1      42.176  31.189  31.897  1.00  0.00     0.074 A 
ATOM     73  C   UNL A   1      42.660  30.912  30.544  1.00  0.00     0.031 C 
ATOM     74  C   UNL A   1      41.323  30.522  32.730  1.00  0.00     0.037 A 
BRANCH  61  75
ATOM     75  C   UNL A   1      40.662  27.270  28.514  1.00  0.00     0.057 A 
ATOM     76  C   UNL A   1      40.857  25.879  28.454  1.00  0.00     0.134 A 
ATOM     77  C   UNL A   1      41.702  28.039  27.945  1.00  0.00     0.134 A 
ATOM     78  F   UNL A   1      39.958  25.037  28.984  1.00  0.00    -0.206 F 
ATOM     79  C   UNL A   1      42.029  25.306  27.945  1.00  0.00     0.040 A 
ATOM     80  C   UNL A   1      42.850  27.475  27.386  1.00  0.00     0.040 A 
ATOM     81  F   UNL A   1      41.730  29.374  27.984  1.00  0.00    -0.206 F 
ATOM     82  C   UNL A   1      43.034  26.105  27.414  1.00  0.00     0.006 A 
ENDBRANCH  61  75
BRANCH  62  83
ATOM     83  C   UNL A   1      42.998  35.334  29.852  1.00  0.00     0.057 A 
ATOM     84  C   UNL A   1      44.065  35.858  30.604  1.00  0.00     0.134 A 
ATOM     85  C   UNL A   1      43.039  35.596  28.473  1.00  0.00     0.134 A 
ATOM     86  F   UNL A   1      44.144  35.633  31.924  1.00  0.00    -0.206 F 
ATOM     87  C   UNL A   1      45.126  36.560  30.016  1.00  0.00     0.040 A 
ATOM     88  C   UNL A   1      44.090  36.301  27.873  1.00  0.00     0.040 A 
ATOM     89  F   UNL A   1      42.113  35.095  27.644  1.00  0.00    -0.206 F 
ATOM     90  C   UNL A   1      45.148  36.770  28.641  1.00  0.00     0.006 A 
ENDBRANCH  62  83
BRANCH  74  91
ATOM     91  C   UNL A   1      40.985  31.176  34.044  1.00  0.00     0.057 A 
ATOM     92  C   UNL A   1      41.749  31.078  35.217  1.00  0.00     0.134 A 
ATOM     93  C   UNL A   1      39.867  32.016  34.088  1.00  0.00     0.134 A 
ATOM     94  F   UNL A   1      42.891  30.378  35.251  1.00  0.00    -0.206 F 
ATOM     95  C   UNL A   1      41.378  31.741  36.394  1.00  0.00     0.040 A 
ATOM     96  C   UNL A   1      39.508  32.713  35.242  1.00  0.00     0.040 A 
ATOM     97  F   UNL A   1      39.114  32.198  32.990  1.00  0.00    -0.206 F 
ATOM     98  C   UNL A   1      40.255  32.564  36.407  1.00  0.00     0.006 A 
ENDBRANCH  74  91
ENDBRANCH  48  49
ENDBRANCH  41  43
ENDBRANCH  40  41
ENDBRANCH  39  40
ENDBRANCH  38  39
ENDBRANCH  37  38
ENDBRANCH  36  37
ENDBRANCH  35  36
ENDBRANCH   1  35
TORSDOF 22
ENDMDL
