MODEL 1
REMARK VINA RESULT:      -8.3      0.000      0.000
REMARK SMILES C[C@H](O)[C@H](NC(=O)COCC[NH3+])C(=O)OCCOCCOCCOC(=O)c1ccc(-c2c3nc(c(-c4c(F)cccc4F)c4ccc([nH]4)c(-c4c(F)cccc4F)c4nc(c(-c5c(F)cccc5F)c5ccc2[nH]5)C=C4)C=C3)cc1
REMARK SMILES IDX 17 1 16 2 15 3 13 4 14 5 4 6 2 7 1 8 3 9 5 11 6 12 7 14 8 15
REMARK SMILES IDX 9 16 10 17 11 18 12 19 18 23 19 24 20 25 21 26 22 27 23 28
REMARK SMILES IDX 24 29 25 30 26 31 27 32 28 33 80 34 29 35 79 36 30 37 31 38
REMARK SMILES IDX 32 39 73 40 33 41 78 42 72 43 74 44 34 45 77 46 71 47 70 48
REMARK SMILES IDX 35 50 61 51 44 52 60 53 45 54 48 55 59 56 75 57 46 58 47 59
REMARK SMILES IDX 58 61 76 62 49 63 36 64 37 65 42 66 38 67 39 68 41 69 43 70
REMARK SMILES IDX 40 71 62 72 63 73 68 74 64 75 65 76 67 77 69 78 66 79 50 80
REMARK SMILES IDX 51 81 56 82 52 83 53 84 55 85 57 86 54 87
REMARK H PARENT 3 10 5 13 12 20 12 21 12 22 74 49 48 60
REMARK Flexibility Score: inf
ROOT
ATOM      1  C   UNL A   1      33.624  29.190  26.112  1.00  0.00     0.202 C 
ENDROOT
BRANCH   1   2
ATOM      2  C   UNL A   1      33.824  27.699  26.372  1.00  0.00     0.261 C 
BRANCH   2   3
ATOM      3  O   UNL A   1      33.061  26.840  25.493  1.00  0.00    -0.462 OA
BRANCH   3   4
ATOM      4  C   UNL A   1      33.593  25.603  25.287  1.00  0.00     0.331 C 
ATOM      5  O   UNL A   1      34.787  25.396  25.086  1.00  0.00    -0.250 OA
BRANCH   4   6
ATOM      6  C   UNL A   1      32.544  24.497  25.064  1.00  0.00     0.221 C 
BRANCH   6   7
ATOM      7  C   UNL A   1      32.418  24.390  23.506  1.00  0.00     0.145 C 
ATOM      8  C   UNL A   1      32.982  23.086  22.928  1.00  0.00     0.041 C 
BRANCH   7   9
ATOM      9  O   UNL A   1      33.121  25.494  22.900  1.00  0.00    -0.391 OA
ATOM     10  H   UNL A   1      33.954  25.645  23.371  1.00  0.00     0.211 HD
ENDBRANCH   7   9
ENDBRANCH   6   7
BRANCH   6  11
ATOM     11  N   UNL A   1      31.156  24.458  25.580  1.00  0.00    -0.339 N 
ATOM     12  C   UNL A   1      30.169  25.390  25.503  1.00  0.00     0.246 C 
ATOM     13  H   UNL A   1      30.911  23.630  26.051  1.00  0.00     0.164 HD
ATOM     14  O   UNL A   1      29.525  25.642  26.522  1.00  0.00    -0.272 OA
BRANCH  12  15
ATOM     15  C   UNL A   1      29.811  25.992  24.159  1.00  0.00     0.260 C 
BRANCH  15  16
ATOM     16  O   UNL A   1      30.036  27.386  24.032  1.00  0.00    -0.366 OA
BRANCH  16  17
ATOM     17  C   UNL A   1      30.613  27.729  22.761  1.00  0.00     0.222 C 
BRANCH  17  18
ATOM     18  C   UNL A   1      31.735  28.778  22.891  1.00  0.00     0.287 C 
BRANCH  18  19
ATOM     19  N   UNL A   1      32.940  28.462  22.122  1.00  0.00    -0.356 N 
ATOM     20  H   UNL A   1      33.689  28.191  22.760  1.00  0.00     0.344 HD
ATOM     21  H   UNL A   1      33.228  29.282  21.589  1.00  0.00     0.344 HD
ATOM     22  H   UNL A   1      32.743  27.692  21.482  1.00  0.00     0.344 HD
ENDBRANCH  18  19
ENDBRANCH  17  18
ENDBRANCH  16  17
ENDBRANCH  15  16
ENDBRANCH  12  15
ENDBRANCH   6  11
ENDBRANCH   4   6
ENDBRANCH   3   4
ENDBRANCH   2   3
ENDBRANCH   1   2
BRANCH   1  23
ATOM     23  O   UNL A   1      33.913  30.020  27.230  1.00  0.00    -0.376 OA
BRANCH  23  24
ATOM     24  C   UNL A   1      33.163  31.223  27.339  1.00  0.00     0.188 C 
BRANCH  24  25
ATOM     25  C   UNL A   1      33.876  32.390  28.037  1.00  0.00     0.188 C 
BRANCH  25  26
ATOM     26  O   UNL A   1      33.188  33.634  28.101  1.00  0.00    -0.376 OA
BRANCH  26  27
ATOM     27  C   UNL A   1      33.931  34.755  28.577  1.00  0.00     0.202 C 
BRANCH  27  28
ATOM     28  C   UNL A   1      33.082  35.788  29.317  1.00  0.00     0.261 C 
BRANCH  28  29
ATOM     29  O   UNL A   1      32.450  35.172  30.454  1.00  0.00    -0.460 OA
BRANCH  29  30
ATOM     30  C   UNL A   1      32.704  35.774  31.635  1.00  0.00     0.338 C 
ATOM     31  O   UNL A   1      32.156  36.758  32.097  1.00  0.00    -0.246 OA
BRANCH  30  32
ATOM     32  C   UNL A   1      33.798  35.074  32.324  1.00  0.00     0.060 A 
ATOM     33  C   UNL A   1      35.107  35.569  32.283  1.00  0.00     0.016 A 
ATOM     34  C   UNL A   1      33.527  33.831  32.891  1.00  0.00     0.016 A 
ATOM     35  C   UNL A   1      36.163  34.781  32.755  1.00  0.00     0.010 A 
ATOM     36  C   UNL A   1      34.577  33.066  33.396  1.00  0.00     0.010 A 
ATOM     37  C   UNL A   1      35.906  33.517  33.302  1.00  0.00    -0.014 A 
BRANCH  37  38
ATOM     38  C   UNL A   1      36.982  32.605  33.767  1.00  0.00     0.031 A 
ATOM     39  C   UNL A   1      37.682  32.889  35.067  1.00  0.00     0.074 A 
ATOM     40  C   UNL A   1      37.417  31.609  32.975  1.00  0.00     0.049 A 
ATOM     41  N   UNL A   1      38.844  32.469  35.496  1.00  0.00    -0.248 NA
ATOM     42  C   UNL A   1      36.978  33.780  36.003  1.00  0.00     0.031 C 
ATOM     43  C   UNL A   1      36.796  31.191  31.720  1.00  0.00     0.029 A 
ATOM     44  N   UNL A   1      38.526  30.806  33.089  1.00  0.00    -0.354 N 
ATOM     45  C   UNL A   1      39.032  33.075  36.732  1.00  0.00     0.074 A 
ATOM     46  C   UNL A   1      37.859  33.887  36.987  1.00  0.00     0.031 C 
ATOM     47  C   UNL A   1      37.554  30.238  31.156  1.00  0.00     0.029 A 
ATOM     48  C   UNL A   1      38.747  30.033  31.975  1.00  0.00     0.049 A 
ATOM     49  H   UNL A   1      39.103  30.787  33.887  1.00  0.00     0.167 HD
ATOM     50  C   UNL A   1      40.094  32.972  37.567  1.00  0.00     0.037 A 
ATOM     51  C   UNL A   1      39.818  29.301  31.618  1.00  0.00     0.037 A 
ATOM     52  C   UNL A   1      41.252  32.154  37.305  1.00  0.00     0.049 A 
ATOM     53  C   UNL A   1      41.021  29.261  32.517  1.00  0.00     0.074 A 
ATOM     54  C   UNL A   1      42.378  31.971  38.090  1.00  0.00     0.029 A 
ATOM     55  N   UNL A   1      41.431  31.384  36.166  1.00  0.00    -0.354 N 
ATOM     56  N   UNL A   1      41.216  29.864  33.665  1.00  0.00    -0.248 NA
ATOM     57  C   UNL A   1      42.162  28.454  32.062  1.00  0.00     0.031 C 
ATOM     58  C   UNL A   1      43.255  31.122  37.405  1.00  0.00     0.029 A 
ATOM     59  C   UNL A   1      42.657  30.742  36.215  1.00  0.00     0.049 A 
ATOM     60  H   UNL A   1      40.781  31.306  35.430  1.00  0.00     0.167 HD
ATOM     61  C   UNL A   1      42.491  29.497  34.077  1.00  0.00     0.074 A 
ATOM     62  C   UNL A   1      43.018  28.609  33.061  1.00  0.00     0.031 C 
ATOM     63  C   UNL A   1      43.166  29.864  35.193  1.00  0.00     0.037 A 
BRANCH  50  64
ATOM     64  C   UNL A   1      40.077  33.795  38.823  1.00  0.00     0.057 A 
ATOM     65  C   UNL A   1      39.430  33.362  39.988  1.00  0.00     0.134 A 
ATOM     66  C   UNL A   1      40.752  35.022  38.878  1.00  0.00     0.134 A 
ATOM     67  F   UNL A   1      38.756  32.202  40.000  1.00  0.00    -0.206 F 
ATOM     68  C   UNL A   1      39.440  34.129  41.155  1.00  0.00     0.040 A 
ATOM     69  C   UNL A   1      40.788  35.786  40.045  1.00  0.00     0.040 A 
ATOM     70  F   UNL A   1      41.397  35.492  37.799  1.00  0.00    -0.206 F 
ATOM     71  C   UNL A   1      40.125  35.342  41.188  1.00  0.00     0.006 A 
ENDBRANCH  50  64
BRANCH  51  72
ATOM     72  C   UNL A   1      39.820  28.593  30.314  1.00  0.00     0.057 A 
ATOM     73  C   UNL A   1      40.436  29.153  29.190  1.00  0.00     0.134 A 
ATOM     74  C   UNL A   1      39.217  27.338  30.163  1.00  0.00     0.134 A 
ATOM     75  F   UNL A   1      41.004  30.365  29.267  1.00  0.00    -0.206 F 
ATOM     76  C   UNL A   1      40.450  28.493  27.961  1.00  0.00     0.040 A 
ATOM     77  C   UNL A   1      39.247  26.654  28.946  1.00  0.00     0.040 A 
ATOM     78  F   UNL A   1      38.609  26.748  31.202  1.00  0.00    -0.206 F 
ATOM     79  C   UNL A   1      39.863  27.235  27.839  1.00  0.00     0.006 A 
ENDBRANCH  51  72
BRANCH  63  80
ATOM     80  C   UNL A   1      44.535  29.280  35.385  1.00  0.00     0.057 A 
ATOM     81  C   UNL A   1      44.729  28.056  36.038  1.00  0.00     0.134 A 
ATOM     82  C   UNL A   1      45.667  29.939  34.891  1.00  0.00     0.134 A 
ATOM     83  F   UNL A   1      43.686  27.384  36.547  1.00  0.00    -0.206 F 
ATOM     84  C   UNL A   1      46.005  27.519  36.211  1.00  0.00     0.040 A 
ATOM     85  C   UNL A   1      46.946  29.402  35.039  1.00  0.00     0.040 A 
ATOM     86  F   UNL A   1      45.548  31.112  34.250  1.00  0.00    -0.206 F 
ATOM     87  C   UNL A   1      47.118  28.190  35.706  1.00  0.00     0.006 A 
ENDBRANCH  63  80
ENDBRANCH  37  38
ENDBRANCH  30  32
ENDBRANCH  29  30
ENDBRANCH  28  29
ENDBRANCH  27  28
ENDBRANCH  26  27
ENDBRANCH  25  26
ENDBRANCH  24  25
ENDBRANCH  23  24
ENDBRANCH   1  23
TORSDOF 25
ENDMDL
MODEL 2
REMARK VINA RESULT:      -8.1      5.843     10.371
REMARK SMILES C[C@H](O)[C@H](NC(=O)COCC[NH3+])C(=O)OCCOCCOCCOC(=O)c1ccc(-c2c3nc(c(-c4c(F)cccc4F)c4ccc([nH]4)c(-c4c(F)cccc4F)c4nc(c(-c5c(F)cccc5F)c5ccc2[nH]5)C=C4)C=C3)cc1
REMARK SMILES IDX 17 1 16 2 15 3 13 4 14 5 4 6 2 7 1 8 3 9 5 11 6 12 7 14 8 15
REMARK SMILES IDX 9 16 10 17 11 18 12 19 18 23 19 24 20 25 21 26 22 27 23 28
REMARK SMILES IDX 24 29 25 30 26 31 27 32 28 33 80 34 29 35 79 36 30 37 31 38
REMARK SMILES IDX 32 39 73 40 33 41 78 42 72 43 74 44 34 45 77 46 71 47 70 48
REMARK SMILES IDX 35 50 61 51 44 52 60 53 45 54 48 55 59 56 75 57 46 58 47 59
REMARK SMILES IDX 58 61 76 62 49 63 36 64 37 65 42 66 38 67 39 68 41 69 43 70
REMARK SMILES IDX 40 71 62 72 63 73 68 74 64 75 65 76 67 77 69 78 66 79 50 80
REMARK SMILES IDX 51 81 56 82 52 83 53 84 55 85 57 86 54 87
REMARK H PARENT 3 10 5 13 12 20 12 21 12 22 74 49 48 60
REMARK Flexibility Score: inf
ROOT
ATOM      1  C   UNL A   1      33.280  36.705  31.372  1.00  0.00     0.202 C 
ENDROOT
BRANCH   1   2
ATOM      2  C   UNL A   1      32.838  35.583  30.435  1.00  0.00     0.261 C 
BRANCH   2   3
ATOM      3  O   UNL A   1      33.882  35.104  29.554  1.00  0.00    -0.462 OA
BRANCH   3   4
ATOM      4  C   UNL A   1      33.494  34.152  28.661  1.00  0.00     0.331 C 
ATOM      5  O   UNL A   1      32.500  34.250  27.944  1.00  0.00    -0.250 OA
BRANCH   4   6
ATOM      6  C   UNL A   1      34.248  32.816  28.800  1.00  0.00     0.221 C 
BRANCH   6   7
ATOM      7  C   UNL A   1      35.561  33.190  29.569  1.00  0.00     0.145 C 
ATOM      8  C   UNL A   1      36.804  33.264  28.671  1.00  0.00     0.041 C 
BRANCH   7   9
ATOM      9  O   UNL A   1      35.803  32.206  30.595  1.00  0.00    -0.391 OA
ATOM     10  H   UNL A   1      35.571  32.577  31.460  1.00  0.00     0.211 HD
ENDBRANCH   7   9
ENDBRANCH   6   7
BRANCH   6  11
ATOM     11  N   UNL A   1      34.669  31.905  27.712  1.00  0.00    -0.339 N 
ATOM     12  C   UNL A   1      34.215  30.666  27.385  1.00  0.00     0.246 C 
ATOM     13  H   UNL A   1      35.389  32.250  27.137  1.00  0.00     0.164 HD
ATOM     14  O   UNL A   1      35.043  29.786  27.148  1.00  0.00    -0.272 OA
BRANCH  12  15
ATOM     15  C   UNL A   1      32.727  30.437  27.202  1.00  0.00     0.260 C 
BRANCH  15  16
ATOM     16  O   UNL A   1      32.370  29.252  26.511  1.00  0.00    -0.366 OA
BRANCH  16  17
ATOM     17  C   UNL A   1      31.819  29.527  25.212  1.00  0.00     0.222 C 
BRANCH  17  18
ATOM     18  C   UNL A   1      32.824  29.247  24.078  1.00  0.00     0.287 C 
BRANCH  18  19
ATOM     19  N   UNL A   1      34.064  28.608  24.523  1.00  0.00    -0.356 N 
ATOM     20  H   UNL A   1      33.928  28.214  25.454  1.00  0.00     0.344 HD
ATOM     21  H   UNL A   1      34.812  29.302  24.553  1.00  0.00     0.344 HD
ATOM     22  H   UNL A   1      34.316  27.864  23.872  1.00  0.00     0.344 HD
ENDBRANCH  18  19
ENDBRANCH  17  18
ENDBRANCH  16  17
ENDBRANCH  15  16
ENDBRANCH  12  15
ENDBRANCH   6  11
ENDBRANCH   4   6
ENDBRANCH   3   4
ENDBRANCH   2   3
ENDBRANCH   1   2
BRANCH   1  23
ATOM     23  O   UNL A   1      33.489  36.292  32.716  1.00  0.00    -0.376 OA
BRANCH  23  24
ATOM     24  C   UNL A   1      34.771  35.762  33.027  1.00  0.00     0.188 C 
BRANCH  24  25
ATOM     25  C   UNL A   1      34.819  34.249  33.289  1.00  0.00     0.188 C 
BRANCH  25  26
ATOM     26  O   UNL A   1      35.733  33.785  34.277  1.00  0.00    -0.376 OA
BRANCH  26  27
ATOM     27  C   UNL A   1      36.937  33.183  33.805  1.00  0.00     0.202 C 
BRANCH  27  28
ATOM     28  C   UNL A   1      37.350  31.936  34.585  1.00  0.00     0.261 C 
BRANCH  28  29
ATOM     29  O   UNL A   1      38.409  31.255  33.886  1.00  0.00    -0.460 OA
BRANCH  29  30
ATOM     30  C   UNL A   1      38.024  30.626  32.755  1.00  0.00     0.338 C 
ATOM     31  O   UNL A   1      36.927  30.164  32.503  1.00  0.00    -0.246 OA
BRANCH  30  32
ATOM     32  C   UNL A   1      39.158  30.544  31.823  1.00  0.00     0.060 A 
ATOM     33  C   UNL A   1      38.976  30.747  30.450  1.00  0.00     0.016 A 
ATOM     34  C   UNL A   1      40.386  30.113  32.320  1.00  0.00     0.016 A 
ATOM     35  C   UNL A   1      40.016  30.452  29.560  1.00  0.00     0.010 A 
ATOM     36  C   UNL A   1      41.430  29.856  31.434  1.00  0.00     0.010 A 
ATOM     37  C   UNL A   1      41.246  29.990  30.046  1.00  0.00    -0.014 A 
BRANCH  37  38
ATOM     38  C   UNL A   1      42.370  29.602  29.157  1.00  0.00     0.031 A 
ATOM     39  C   UNL A   1      42.467  28.187  28.659  1.00  0.00     0.074 A 
ATOM     40  C   UNL A   1      43.365  30.471  28.904  1.00  0.00     0.049 A 
ATOM     41  N   UNL A   1      43.500  27.539  28.187  1.00  0.00    -0.248 NA
ATOM     42  C   UNL A   1      41.229  27.394  28.714  1.00  0.00     0.031 C 
ATOM     43  C   UNL A   1      43.372  31.884  29.277  1.00  0.00     0.029 A 
ATOM     44  N   UNL A   1      44.592  30.269  28.318  1.00  0.00    -0.354 N 
ATOM     45  C   UNL A   1      43.052  26.250  27.927  1.00  0.00     0.074 A 
ATOM     46  C   UNL A   1      41.649  26.210  28.289  1.00  0.00     0.031 C 
ATOM     47  C   UNL A   1      44.562  32.413  28.951  1.00  0.00     0.029 A 
ATOM     48  C   UNL A   1      45.420  31.361  28.413  1.00  0.00     0.049 A 
ATOM     49  H   UNL A   1      44.850  29.428  27.875  1.00  0.00     0.167 HD
ATOM     50  C   UNL A   1      43.753  25.195  27.446  1.00  0.00     0.037 A 
ATOM     51  C   UNL A   1      46.738  31.481  28.168  1.00  0.00     0.037 A 
ATOM     52  C   UNL A   1      45.147  25.249  27.083  1.00  0.00     0.049 A 
ATOM     53  C   UNL A   1      47.519  30.282  27.711  1.00  0.00     0.074 A 
ATOM     54  C   UNL A   1      45.950  24.242  26.577  1.00  0.00     0.029 A 
ATOM     55  N   UNL A   1      45.946  26.378  27.193  1.00  0.00    -0.354 N 
ATOM     56  N   UNL A   1      47.106  29.056  27.503  1.00  0.00    -0.248 NA
ATOM     57  C   UNL A   1      48.956  30.480  27.473  1.00  0.00     0.031 C 
ATOM     58  C   UNL A   1      47.244  24.751  26.418  1.00  0.00     0.029 A 
ATOM     59  C   UNL A   1      47.237  26.086  26.785  1.00  0.00     0.049 A 
ATOM     60  H   UNL A   1      45.639  27.257  27.513  1.00  0.00     0.167 HD
ATOM     61  C   UNL A   1      48.224  28.340  27.095  1.00  0.00     0.074 A 
ATOM     62  C   UNL A   1      49.332  29.274  27.072  1.00  0.00     0.031 C 
ATOM     63  C   UNL A   1      48.327  27.028  26.771  1.00  0.00     0.037 A 
BRANCH  50  64
ATOM     64  C   UNL A   1      43.039  23.880  27.324  1.00  0.00     0.057 A 
ATOM     65  C   UNL A   1      42.861  23.026  28.420  1.00  0.00     0.134 A 
ATOM     66  C   UNL A   1      42.489  23.481  26.098  1.00  0.00     0.134 A 
ATOM     67  F   UNL A   1      43.373  23.342  29.618  1.00  0.00    -0.206 F 
ATOM     68  C   UNL A   1      42.177  21.814  28.296  1.00  0.00     0.040 A 
ATOM     69  C   UNL A   1      41.784  22.284  25.967  1.00  0.00     0.040 A 
ATOM     70  F   UNL A   1      42.618  24.255  25.010  1.00  0.00    -0.206 F 
ATOM     71  C   UNL A   1      41.631  21.443  27.068  1.00  0.00     0.006 A 
ENDBRANCH  50  64
BRANCH  51  72
ATOM     72  C   UNL A   1      47.412  32.782  28.407  1.00  0.00     0.057 A 
ATOM     73  C   UNL A   1      47.533  33.729  27.386  1.00  0.00     0.134 A 
ATOM     74  C   UNL A   1      47.940  33.111  29.662  1.00  0.00     0.134 A 
ATOM     75  F   UNL A   1      47.071  33.458  26.157  1.00  0.00    -0.206 F 
ATOM     76  C   UNL A   1      48.158  34.959  27.602  1.00  0.00     0.040 A 
ATOM     77  C   UNL A   1      48.544  34.347  29.899  1.00  0.00     0.040 A 
ATOM     78  F   UNL A   1      47.857  32.244  30.681  1.00  0.00    -0.206 F 
ATOM     79  C   UNL A   1      48.657  35.274  28.864  1.00  0.00     0.006 A 
ENDBRANCH  51  72
BRANCH  63  80
ATOM     80  C   UNL A   1      49.676  26.537  26.337  1.00  0.00     0.057 A 
ATOM     81  C   UNL A   1      50.536  25.869  27.218  1.00  0.00     0.134 A 
ATOM     82  C   UNL A   1      50.111  26.715  25.018  1.00  0.00     0.134 A 
ATOM     83  F   UNL A   1      50.184  25.681  28.499  1.00  0.00    -0.206 F 
ATOM     84  C   UNL A   1      51.789  25.413  26.807  1.00  0.00     0.040 A 
ATOM     85  C   UNL A   1      51.352  26.246  24.589  1.00  0.00     0.040 A 
ATOM     86  F   UNL A   1      49.331  27.342  24.123  1.00  0.00    -0.206 F 
ATOM     87  C   UNL A   1      52.198  25.597  25.487  1.00  0.00     0.006 A 
ENDBRANCH  63  80
ENDBRANCH  37  38
ENDBRANCH  30  32
ENDBRANCH  29  30
ENDBRANCH  28  29
ENDBRANCH  27  28
ENDBRANCH  26  27
ENDBRANCH  25  26
ENDBRANCH  24  25
ENDBRANCH  23  24
ENDBRANCH   1  23
TORSDOF 25
ENDMDL
MODEL 3
REMARK VINA RESULT:      -8.0      5.749      9.954
REMARK SMILES C[C@H](O)[C@H](NC(=O)COCC[NH3+])C(=O)OCCOCCOCCOC(=O)c1ccc(-c2c3nc(c(-c4c(F)cccc4F)c4ccc([nH]4)c(-c4c(F)cccc4F)c4nc(c(-c5c(F)cccc5F)c5ccc2[nH]5)C=C4)C=C3)cc1
REMARK SMILES IDX 17 1 16 2 15 3 13 4 14 5 4 6 2 7 1 8 3 9 5 11 6 12 7 14 8 15
REMARK SMILES IDX 9 16 10 17 11 18 12 19 18 23 19 24 20 25 21 26 22 27 23 28
REMARK SMILES IDX 24 29 25 30 26 31 27 32 28 33 80 34 29 35 79 36 30 37 31 38
REMARK SMILES IDX 32 39 73 40 33 41 78 42 72 43 74 44 34 45 77 46 71 47 70 48
REMARK SMILES IDX 35 50 61 51 44 52 60 53 45 54 48 55 59 56 75 57 46 58 47 59
REMARK SMILES IDX 58 61 76 62 49 63 36 64 37 65 42 66 38 67 39 68 41 69 43 70
REMARK SMILES IDX 40 71 62 72 63 73 68 74 64 75 65 76 67 77 69 78 66 79 50 80
REMARK SMILES IDX 51 81 56 82 52 83 53 84 55 85 57 86 54 87
REMARK H PARENT 3 10 5 13 12 20 12 21 12 22 74 49 48 60
REMARK Flexibility Score: inf
ROOT
ATOM      1  C   UNL A   1      33.717  29.708  27.241  1.00  0.00     0.202 C 
ENDROOT
BRANCH   1   2
ATOM      2  C   UNL A   1      33.382  29.439  25.776  1.00  0.00     0.261 C 
BRANCH   2   3
ATOM      3  O   UNL A   1      33.940  28.209  25.259  1.00  0.00    -0.462 OA
BRANCH   3   4
ATOM      4  C   UNL A   1      33.026  27.279  24.866  1.00  0.00     0.331 C 
ATOM      5  O   UNL A   1      32.101  26.886  25.574  1.00  0.00    -0.250 OA
BRANCH   4   6
ATOM      6  C   UNL A   1      33.387  26.557  23.554  1.00  0.00     0.221 C 
BRANCH   6   7
ATOM      7  C   UNL A   1      32.668  27.393  22.441  1.00  0.00     0.145 C 
ATOM      8  C   UNL A   1      31.226  26.947  22.167  1.00  0.00     0.041 C 
BRANCH   7   9
ATOM      9  O   UNL A   1      33.416  27.283  21.212  1.00  0.00    -0.391 OA
ATOM     10  H   UNL A   1      34.164  27.898  21.233  1.00  0.00     0.211 HD
ENDBRANCH   7   9
ENDBRANCH   6   7
BRANCH   6  11
ATOM     11  N   UNL A   1      33.138  25.139  23.211  1.00  0.00    -0.339 N 
ATOM     12  C   UNL A   1      34.015  24.149  22.898  1.00  0.00     0.246 C 
ATOM     13  H   UNL A   1      32.191  24.872  23.209  1.00  0.00     0.164 HD
ATOM     14  O   UNL A   1      33.766  23.435  21.926  1.00  0.00    -0.272 OA
BRANCH  12  15
ATOM     15  C   UNL A   1      35.194  23.875  23.811  1.00  0.00     0.260 C 
BRANCH  15  16
ATOM     16  O   UNL A   1      35.029  22.799  24.720  1.00  0.00    -0.366 OA
BRANCH  16  17
ATOM     17  C   UNL A   1      35.889  21.691  24.411  1.00  0.00     0.222 C 
BRANCH  17  18
ATOM     18  C   UNL A   1      35.756  20.544  25.431  1.00  0.00     0.287 C 
BRANCH  18  19
ATOM     19  N   UNL A   1      35.149  19.327  24.887  1.00  0.00    -0.356 N 
ATOM     20  H   UNL A   1      34.604  18.864  25.614  1.00  0.00     0.344 HD
ATOM     21  H   UNL A   1      35.883  18.699  24.559  1.00  0.00     0.344 HD
ATOM     22  H   UNL A   1      34.539  19.572  24.107  1.00  0.00     0.344 HD
ENDBRANCH  18  19
ENDBRANCH  17  18
ENDBRANCH  16  17
ENDBRANCH  15  16
ENDBRANCH  12  15
ENDBRANCH   6  11
ENDBRANCH   4   6
ENDBRANCH   3   4
ENDBRANCH   2   3
ENDBRANCH   1   2
BRANCH   1  23
ATOM     23  O   UNL A   1      33.320  30.992  27.704  1.00  0.00    -0.376 OA
BRANCH  23  24
ATOM     24  C   UNL A   1      34.352  31.957  27.864  1.00  0.00     0.188 C 
BRANCH  24  25
ATOM     25  C   UNL A   1      35.413  31.625  28.924  1.00  0.00     0.188 C 
BRANCH  25  26
ATOM     26  O   UNL A   1      35.035  31.749  30.291  1.00  0.00    -0.376 OA
BRANCH  26  27
ATOM     27  C   UNL A   1      35.963  32.399  31.157  1.00  0.00     0.202 C 
BRANCH  27  28
ATOM     28  C   UNL A   1      36.515  31.496  32.259  1.00  0.00     0.261 C 
BRANCH  28  29
ATOM     29  O   UNL A   1      36.275  30.116  31.922  1.00  0.00    -0.460 OA
BRANCH  29  30
ATOM     30  C   UNL A   1      37.216  29.256  32.365  1.00  0.00     0.338 C 
ATOM     31  O   UNL A   1      37.166  28.553  33.357  1.00  0.00    -0.246 OA
BRANCH  30  32
ATOM     32  C   UNL A   1      38.382  29.290  31.470  1.00  0.00     0.060 A 
ATOM     33  C   UNL A   1      38.225  29.479  30.092  1.00  0.00     0.016 A 
ATOM     34  C   UNL A   1      39.630  28.982  32.006  1.00  0.00     0.016 A 
ATOM     35  C   UNL A   1      39.316  29.292  29.235  1.00  0.00     0.010 A 
ATOM     36  C   UNL A   1      40.723  28.833  31.153  1.00  0.00     0.010 A 
ATOM     37  C   UNL A   1      40.570  28.953  29.760  1.00  0.00    -0.014 A 
BRANCH  37  38
ATOM     38  C   UNL A   1      41.755  28.682  28.907  1.00  0.00     0.031 A 
ATOM     39  C   UNL A   1      41.998  27.290  28.397  1.00  0.00     0.074 A 
ATOM     40  C   UNL A   1      42.674  29.642  28.699  1.00  0.00     0.049 A 
ATOM     41  N   UNL A   1      43.102  26.745  27.955  1.00  0.00    -0.248 NA
ATOM     42  C   UNL A   1      40.837  26.386  28.400  1.00  0.00     0.031 C 
ATOM     43  C   UNL A   1      42.539  31.044  29.089  1.00  0.00     0.029 A 
ATOM     44  N   UNL A   1      43.934  29.561  28.156  1.00  0.00    -0.354 N 
ATOM     45  C   UNL A   1      42.782  25.424  27.665  1.00  0.00     0.074 A 
ATOM     46  C   UNL A   1      41.378  25.252  27.976  1.00  0.00     0.031 C 
ATOM     47  C   UNL A   1      43.686  31.684  28.812  1.00  0.00     0.029 A 
ATOM     48  C   UNL A   1      44.655  30.722  28.293  1.00  0.00     0.049 A 
ATOM     49  H   UNL A   1      44.283  28.753  27.712  1.00  0.00     0.167 HD
ATOM     50  C   UNL A   1      43.594  24.445  27.197  1.00  0.00     0.037 A 
ATOM     51  C   UNL A   1      45.963  30.966  28.095  1.00  0.00     0.037 A 
ATOM     52  C   UNL A   1      44.989  24.631  26.885  1.00  0.00     0.049 A 
ATOM     53  C   UNL A   1      46.867  29.850  27.653  1.00  0.00     0.074 A 
ATOM     54  C   UNL A   1      45.897  23.708  26.396  1.00  0.00     0.029 A 
ATOM     55  N   UNL A   1      45.676  25.826  27.036  1.00  0.00    -0.354 N 
ATOM     56  N   UNL A   1      46.575  28.594  27.417  1.00  0.00    -0.248 NA
ATOM     57  C   UNL A   1      48.287  30.181  27.469  1.00  0.00     0.031 C 
ATOM     58  C   UNL A   1      47.144  24.335  26.289  1.00  0.00     0.029 A 
ATOM     59  C   UNL A   1      47.002  25.659  26.670  1.00  0.00     0.049 A 
ATOM     60  H   UNL A   1      45.280  26.669  27.355  1.00  0.00     0.167 HD
ATOM     61  C   UNL A   1      47.767  27.989  27.041  1.00  0.00     0.074 A 
ATOM     62  C   UNL A   1      48.785  29.020  27.068  1.00  0.00     0.031 C 
ATOM     63  C   UNL A   1      48.001  26.697  26.706  1.00  0.00     0.037 A 
BRANCH  50  64
ATOM     64  C   UNL A   1      43.008  23.072  27.035  1.00  0.00     0.057 A 
ATOM     65  C   UNL A   1      42.724  22.250  28.133  1.00  0.00     0.134 A 
ATOM     66  C   UNL A   1      42.688  22.582  25.762  1.00  0.00     0.134 A 
ATOM     67  F   UNL A   1      43.016  22.653  29.378  1.00  0.00    -0.206 F 
ATOM     68  C   UNL A   1      42.160  20.983  27.968  1.00  0.00     0.040 A 
ATOM     69  C   UNL A   1      42.103  21.327  25.586  1.00  0.00     0.040 A 
ATOM     70  F   UNL A   1      42.928  23.320  24.668  1.00  0.00    -0.206 F 
ATOM     71  C   UNL A   1      41.843  20.520  26.693  1.00  0.00     0.006 A 
ENDBRANCH  50  64
BRANCH  51  72
ATOM     72  C   UNL A   1      46.507  32.319  28.373  1.00  0.00     0.057 A 
ATOM     73  C   UNL A   1      47.101  32.617  29.604  1.00  0.00     0.134 A 
ATOM     74  C   UNL A   1      46.454  33.339  27.415  1.00  0.00     0.134 A 
ATOM     75  F   UNL A   1      47.154  31.689  30.570  1.00  0.00    -0.206 F 
ATOM     76  C   UNL A   1      47.621  33.884  29.874  1.00  0.00     0.040 A 
ATOM     77  C   UNL A   1      46.995  34.602  27.662  1.00  0.00     0.040 A 
ATOM     78  F   UNL A   1      45.896  33.116  26.217  1.00  0.00    -0.206 F 
ATOM     79  C   UNL A   1      47.578  34.878  28.898  1.00  0.00     0.006 A 
ENDBRANCH  51  72
BRANCH  63  80
ATOM     80  C   UNL A   1      49.404  26.337  26.315  1.00  0.00     0.057 A 
ATOM     81  C   UNL A   1      49.916  26.640  25.047  1.00  0.00     0.134 A 
ATOM     82  C   UNL A   1      50.257  25.700  27.224  1.00  0.00     0.134 A 
ATOM     83  F   UNL A   1      49.143  27.235  24.127  1.00  0.00    -0.206 F 
ATOM     84  C   UNL A   1      51.222  26.303  24.691  1.00  0.00     0.040 A 
ATOM     85  C   UNL A   1      51.572  25.377  26.887  1.00  0.00     0.040 A 
ATOM     86  F   UNL A   1      49.829  25.388  28.457  1.00  0.00    -0.206 F 
ATOM     87  C   UNL A   1      52.056  25.674  25.614  1.00  0.00     0.006 A 
ENDBRANCH  63  80
ENDBRANCH  37  38
ENDBRANCH  30  32
ENDBRANCH  29  30
ENDBRANCH  28  29
ENDBRANCH  27  28
ENDBRANCH  26  27
ENDBRANCH  25  26
ENDBRANCH  24  25
ENDBRANCH  23  24
ENDBRANCH   1  23
TORSDOF 25
ENDMDL
