MODEL 1
REMARK VINA RESULT:     -10.6      0.000      0.000
REMARK SMILES NC(=O)[C@@H]1CCCCN1c1cncc(C(=O)OCCOCCOCCOC(=O)c2ccc(-c3c4nc(c(-c5c(F)cccc5F)c5ccc([nH]5)c(-c5c(F)cccc5F)c5nc(c(-c6c(F)cccc6F)c6ccc3[nH]6)C=C5)C=C4)cc2)n1
REMARK SMILES IDX 21 1 20 2 19 3 18 4 17 5 15 6 16 7 14 8 10 9 11 10 83 11
REMARK SMILES IDX 12 12 13 13 9 14 4 15 5 16 6 17 8 18 7 19 2 20 1 21 3 24
REMARK SMILES IDX 22 25 23 26 24 27 25 28 26 29 27 30 28 31 29 32 30 33 82 34
REMARK SMILES IDX 31 35 81 36 32 37 33 38 34 39 75 40 35 41 80 42 74 43 76 44
REMARK SMILES IDX 36 45 79 46 73 47 72 48 37 50 63 51 46 52 62 53 47 54 50 55
REMARK SMILES IDX 61 56 77 57 48 58 49 59 60 61 78 62 51 63 38 64 39 65 44 66
REMARK SMILES IDX 40 67 41 68 43 69 45 70 42 71 64 72 65 73 70 74 66 75 67 76
REMARK SMILES IDX 69 77 71 78 68 79 52 80 53 81 58 82 54 83 55 84 57 85 59 86
REMARK SMILES IDX 56 87
REMARK H PARENT 1 22 1 23 76 49 50 60
REMARK Flexibility Score: inf
ROOT
ATOM      1  C   UNL A   1      39.953  21.346  26.355  1.00  0.00     0.188 C 
ENDROOT
BRANCH   1   2
ATOM      2  O   UNL A   1      38.713  21.798  25.820  1.00  0.00    -0.376 OA
BRANCH   2   3
ATOM      3  C   UNL A   1      38.321  23.156  25.978  1.00  0.00     0.202 C 
BRANCH   3   4
ATOM      4  C   UNL A   1      36.915  23.580  25.533  1.00  0.00     0.261 C 
BRANCH   4   5
ATOM      5  O   UNL A   1      35.902  23.422  26.540  1.00  0.00    -0.458 OA
BRANCH   5   6
ATOM      6  C   UNL A   1      34.824  22.673  26.180  1.00  0.00     0.358 C 
ATOM      7  O   UNL A   1      34.817  21.474  25.951  1.00  0.00    -0.244 OA
BRANCH   6   8
ATOM      8  C   UNL A   1      33.584  23.465  26.323  1.00  0.00     0.169 A 
ATOM      9  C   UNL A   1      32.387  25.420  26.058  1.00  0.00     0.148 A 
ATOM     10  C   UNL A   1      31.354  24.813  26.791  1.00  0.00     0.157 A 
ATOM     11  N   UNL A   1      33.546  24.748  25.869  1.00  0.00    -0.220 NA
ATOM     12  N   UNL A   1      31.400  23.550  27.293  1.00  0.00    -0.258 NA
ATOM     13  C   UNL A   1      32.532  22.876  27.005  1.00  0.00     0.147 A 
BRANCH   9  14
ATOM     14  N   UNL A   1      32.244  26.666  25.495  1.00  0.00    -0.343 N 
ATOM     15  C   UNL A   1      31.605  26.868  24.177  1.00  0.00     0.172 C 
ATOM     16  C   UNL A   1      32.625  27.522  23.240  1.00  0.00     0.035 C 
ATOM     17  C   UNL A   1      33.125  28.836  23.846  1.00  0.00     0.004 C 
ATOM     18  C   UNL A   1      32.708  27.875  26.166  1.00  0.00     0.119 C 
ATOM     19  C   UNL A   1      33.690  28.618  25.253  1.00  0.00     0.022 C 
BRANCH  15  20
ATOM     20  C   UNL A   1      30.860  25.652  23.582  1.00  0.00     0.240 C 
ATOM     21  N   UNL A   1      29.522  25.538  23.828  1.00  0.00    -0.368 N 
ATOM     22  H   UNL A   1      29.017  24.775  23.463  1.00  0.00     0.159 HD
ATOM     23  H   UNL A   1      29.060  26.220  24.369  1.00  0.00     0.159 HD
ATOM     24  O   UNL A   1      31.423  24.800  22.894  1.00  0.00    -0.273 OA
ENDBRANCH  15  20
ENDBRANCH   9  14
ENDBRANCH   6   8
ENDBRANCH   5   6
ENDBRANCH   4   5
ENDBRANCH   3   4
ENDBRANCH   2   3
ENDBRANCH   1   2
BRANCH   1  25
ATOM     25  C   UNL A   1      40.410  19.887  26.140  1.00  0.00     0.188 C 
BRANCH  25  26
ATOM     26  O   UNL A   1      41.805  19.718  26.199  1.00  0.00    -0.376 OA
BRANCH  26  27
ATOM     27  C   UNL A   1      42.648  20.822  26.459  1.00  0.00     0.202 C 
BRANCH  27  28
ATOM     28  C   UNL A   1      43.447  21.565  25.371  1.00  0.00     0.261 C 
BRANCH  28  29
ATOM     29  O   UNL A   1      42.935  22.807  24.890  1.00  0.00    -0.460 OA
BRANCH  29  30
ATOM     30  C   UNL A   1      43.744  23.883  24.976  1.00  0.00     0.338 C 
ATOM     31  O   UNL A   1      44.759  24.103  24.320  1.00  0.00    -0.246 OA
BRANCH  30  32
ATOM     32  C   UNL A   1      43.133  24.847  25.906  1.00  0.00     0.060 A 
ATOM     33  C   UNL A   1      43.695  26.122  26.029  1.00  0.00     0.016 A 
ATOM     34  C   UNL A   1      42.017  24.488  26.665  1.00  0.00     0.016 A 
ATOM     35  C   UNL A   1      43.158  27.037  26.937  1.00  0.00     0.010 A 
ATOM     36  C   UNL A   1      41.487  25.396  27.585  1.00  0.00     0.010 A 
ATOM     37  C   UNL A   1      42.074  26.666  27.746  1.00  0.00    -0.014 A 
BRANCH  37  38
ATOM     38  C   UNL A   1      41.648  27.539  28.866  1.00  0.00     0.031 A 
ATOM     39  C   UNL A   1      42.388  27.453  30.172  1.00  0.00     0.074 A 
ATOM     40  C   UNL A   1      40.616  28.392  28.732  1.00  0.00     0.049 A 
ATOM     41  N   UNL A   1      42.158  28.072  31.301  1.00  0.00    -0.248 NA
ATOM     42  C   UNL A   1      43.543  26.541  30.208  1.00  0.00     0.031 C 
ATOM     43  C   UNL A   1      39.837  28.591  27.512  1.00  0.00     0.029 A 
ATOM     44  N   UNL A   1      40.043  29.243  29.644  1.00  0.00    -0.354 N 
ATOM     45  C   UNL A   1      43.131  27.620  32.183  1.00  0.00     0.074 A 
ATOM     46  C   UNL A   1      43.939  26.656  31.466  1.00  0.00     0.031 C 
ATOM     47  C   UNL A   1      38.870  29.495  27.757  1.00  0.00     0.029 A 
ATOM     48  C   UNL A   1      38.949  29.914  29.156  1.00  0.00     0.049 A 
ATOM     49  H   UNL A   1      40.383  29.360  30.560  1.00  0.00     0.167 HD
ATOM     50  C   UNL A   1      43.339  27.981  33.471  1.00  0.00     0.037 A 
ATOM     51  C   UNL A   1      38.094  30.752  29.775  1.00  0.00     0.037 A 
ATOM     52  C   UNL A   1      42.537  28.937  34.186  1.00  0.00     0.049 A 
ATOM     53  C   UNL A   1      38.307  31.088  31.229  1.00  0.00     0.074 A 
ATOM     54  C   UNL A   1      42.686  29.388  35.485  1.00  0.00     0.029 A 
ATOM     55  N   UNL A   1      41.427  29.582  33.662  1.00  0.00    -0.354 N 
ATOM     56  N   UNL A   1      39.253  30.685  32.043  1.00  0.00    -0.248 NA
ATOM     57  C   UNL A   1      37.332  31.999  31.850  1.00  0.00     0.031 C 
ATOM     58  C   UNL A   1      41.636  30.269  35.765  1.00  0.00     0.029 A 
ATOM     59  C   UNL A   1      40.864  30.406  34.622  1.00  0.00     0.049 A 
ATOM     60  H   UNL A   1      41.087  29.470  32.745  1.00  0.00     0.167 HD
ATOM     61  C   UNL A   1      39.006  31.314  33.258  1.00  0.00     0.074 A 
ATOM     62  C   UNL A   1      37.827  32.133  33.073  1.00  0.00     0.031 C 
ATOM     63  C   UNL A   1      39.695  31.224  34.422  1.00  0.00     0.037 A 
BRANCH  50  64
ATOM     64  C   UNL A   1      44.467  27.313  34.201  1.00  0.00     0.057 A 
ATOM     65  C   UNL A   1      44.295  26.101  34.882  1.00  0.00     0.134 A 
ATOM     66  C   UNL A   1      45.750  27.875  34.195  1.00  0.00     0.134 A 
ATOM     67  F   UNL A   1      43.087  25.519  34.939  1.00  0.00    -0.206 F 
ATOM     68  C   UNL A   1      45.354  25.481  35.546  1.00  0.00     0.040 A 
ATOM     69  C   UNL A   1      46.822  27.252  34.835  1.00  0.00     0.040 A 
ATOM     70  F   UNL A   1      45.984  29.032  33.558  1.00  0.00    -0.206 F 
ATOM     71  C   UNL A   1      46.624  26.053  35.519  1.00  0.00     0.006 A 
ENDBRANCH  50  64
BRANCH  51  72
ATOM     72  C   UNL A   1      36.942  31.323  29.034  1.00  0.00     0.057 A 
ATOM     73  C   UNL A   1      36.943  32.654  28.602  1.00  0.00     0.134 A 
ATOM     74  C   UNL A   1      35.798  30.560  28.770  1.00  0.00     0.134 A 
ATOM     75  F   UNL A   1      37.998  33.443  28.851  1.00  0.00    -0.206 F 
ATOM     76  C   UNL A   1      35.842  33.211  27.948  1.00  0.00     0.040 A 
ATOM     77  C   UNL A   1      34.700  31.097  28.096  1.00  0.00     0.040 A 
ATOM     78  F   UNL A   1      35.732  29.279  29.163  1.00  0.00    -0.206 F 
ATOM     79  C   UNL A   1      34.718  32.429  27.689  1.00  0.00     0.006 A 
ENDBRANCH  51  72
BRANCH  63  80
ATOM     80  C   UNL A   1      39.218  32.058  35.575  1.00  0.00     0.057 A 
ATOM     81  C   UNL A   1      38.387  31.537  36.574  1.00  0.00     0.134 A 
ATOM     82  C   UNL A   1      39.636  33.389  35.711  1.00  0.00     0.134 A 
ATOM     83  F   UNL A   1      37.942  30.274  36.497  1.00  0.00    -0.206 F 
ATOM     84  C   UNL A   1      37.971  32.316  37.656  1.00  0.00     0.040 A 
ATOM     85  C   UNL A   1      39.249  34.169  36.803  1.00  0.00     0.040 A 
ATOM     86  F   UNL A   1      40.443  33.947  34.796  1.00  0.00    -0.206 F 
ATOM     87  C   UNL A   1      38.408  33.633  37.777  1.00  0.00     0.006 A 
ENDBRANCH  63  80
ENDBRANCH  37  38
ENDBRANCH  30  32
ENDBRANCH  29  30
ENDBRANCH  28  29
ENDBRANCH  27  28
ENDBRANCH  26  27
ENDBRANCH  25  26
ENDBRANCH   1  25
TORSDOF 19
ENDMDL
MODEL 2
REMARK VINA RESULT:     -10.3      2.833      8.190
REMARK SMILES NC(=O)[C@@H]1CCCCN1c1cncc(C(=O)OCCOCCOCCOC(=O)c2ccc(-c3c4nc(c(-c5c(F)cccc5F)c5ccc([nH]5)c(-c5c(F)cccc5F)c5nc(c(-c6c(F)cccc6F)c6ccc3[nH]6)C=C5)C=C4)cc2)n1
REMARK SMILES IDX 21 1 20 2 19 3 18 4 17 5 15 6 16 7 14 8 10 9 11 10 83 11
REMARK SMILES IDX 12 12 13 13 9 14 4 15 5 16 6 17 8 18 7 19 2 20 1 21 3 24
REMARK SMILES IDX 22 25 23 26 24 27 25 28 26 29 27 30 28 31 29 32 30 33 82 34
REMARK SMILES IDX 31 35 81 36 32 37 33 38 34 39 75 40 35 41 80 42 74 43 76 44
REMARK SMILES IDX 36 45 79 46 73 47 72 48 37 50 63 51 46 52 62 53 47 54 50 55
REMARK SMILES IDX 61 56 77 57 48 58 49 59 60 61 78 62 51 63 38 64 39 65 44 66
REMARK SMILES IDX 40 67 41 68 43 69 45 70 42 71 64 72 65 73 70 74 66 75 67 76
REMARK SMILES IDX 69 77 71 78 68 79 52 80 53 81 58 82 54 83 55 84 57 85 59 86
REMARK SMILES IDX 56 87
REMARK H PARENT 1 22 1 23 76 49 50 60
REMARK Flexibility Score: inf
ROOT
ATOM      1  C   UNL A   1      34.242  28.922  26.612  1.00  0.00     0.188 C 
ENDROOT
BRANCH   1   2
ATOM      2  O   UNL A   1      33.734  27.610  26.387  1.00  0.00    -0.376 OA
BRANCH   2   3
ATOM      3  C   UNL A   1      32.559  27.425  25.609  1.00  0.00     0.202 C 
BRANCH   3   4
ATOM      4  C   UNL A   1      31.382  26.647  26.213  1.00  0.00     0.261 C 
BRANCH   4   5
ATOM      5  O   UNL A   1      31.762  25.470  26.944  1.00  0.00    -0.458 OA
BRANCH   5   6
ATOM      6  C   UNL A   1      31.086  24.333  26.624  1.00  0.00     0.358 C 
ATOM      7  O   UNL A   1      30.055  23.932  27.141  1.00  0.00    -0.244 OA
BRANCH   6   8
ATOM      8  C   UNL A   1      31.642  23.741  25.389  1.00  0.00     0.169 A 
ATOM      9  C   UNL A   1      33.399  22.876  24.170  1.00  0.00     0.148 A 
ATOM     10  C   UNL A   1      32.535  22.846  23.064  1.00  0.00     0.157 A 
ATOM     11  N   UNL A   1      32.955  23.386  25.342  1.00  0.00    -0.220 NA
ATOM     12  N   UNL A   1      31.235  23.244  23.086  1.00  0.00    -0.258 NA
ATOM     13  C   UNL A   1      30.799  23.658  24.293  1.00  0.00     0.147 A 
BRANCH   9  14
ATOM     14  N   UNL A   1      34.676  22.370  24.109  1.00  0.00    -0.343 N 
ATOM     15  C   UNL A   1      35.042  21.074  24.717  1.00  0.00     0.172 C 
ATOM     16  C   UNL A   1      36.127  21.321  25.770  1.00  0.00     0.035 C 
ATOM     17  C   UNL A   1      37.331  22.016  25.127  1.00  0.00     0.004 C 
ATOM     18  C   UNL A   1      35.757  23.080  23.433  1.00  0.00     0.119 C 
ATOM     19  C   UNL A   1      36.911  23.305  24.416  1.00  0.00     0.022 C 
BRANCH  15  20
ATOM     20  C   UNL A   1      33.870  20.181  25.187  1.00  0.00     0.240 C 
ATOM     21  N   UNL A   1      33.444  20.312  26.477  1.00  0.00    -0.368 N 
ATOM     22  H   UNL A   1      32.699  19.759  26.808  1.00  0.00     0.159 HD
ATOM     23  H   UNL A   1      33.879  20.961  27.077  1.00  0.00     0.159 HD
ATOM     24  O   UNL A   1      33.311  19.376  24.443  1.00  0.00    -0.273 OA
ENDBRANCH  15  20
ENDBRANCH   9  14
ENDBRANCH   6   8
ENDBRANCH   5   6
ENDBRANCH   4   5
ENDBRANCH   3   4
ENDBRANCH   2   3
ENDBRANCH   1   2
BRANCH   1  25
ATOM     25  C   UNL A   1      33.382  29.977  27.340  1.00  0.00     0.188 C 
BRANCH  25  26
ATOM     26  O   UNL A   1      32.439  30.608  26.508  1.00  0.00    -0.376 OA
BRANCH  26  27
ATOM     27  C   UNL A   1      31.822  31.813  26.912  1.00  0.00     0.202 C 
BRANCH  27  28
ATOM     28  C   UNL A   1      32.550  33.170  26.971  1.00  0.00     0.261 C 
BRANCH  28  29
ATOM     29  O   UNL A   1      32.305  34.017  28.094  1.00  0.00    -0.460 OA
BRANCH  29  30
ATOM     30  C   UNL A   1      33.336  34.765  28.540  1.00  0.00     0.338 C 
ATOM     31  O   UNL A   1      33.347  35.979  28.723  1.00  0.00    -0.246 OA
BRANCH  30  32
ATOM     32  C   UNL A   1      34.435  33.859  28.915  1.00  0.00     0.060 A 
ATOM     33  C   UNL A   1      34.151  32.735  29.698  1.00  0.00     0.016 A 
ATOM     34  C   UNL A   1      35.743  34.129  28.509  1.00  0.00     0.016 A 
ATOM     35  C   UNL A   1      35.185  31.888  30.102  1.00  0.00     0.010 A 
ATOM     36  C   UNL A   1      36.781  33.291  28.926  1.00  0.00     0.010 A 
ATOM     37  C   UNL A   1      36.510  32.182  29.749  1.00  0.00    -0.014 A 
BRANCH  37  38
ATOM     38  C   UNL A   1      37.629  31.427  30.362  1.00  0.00     0.031 A 
ATOM     39  C   UNL A   1      37.994  31.709  31.793  1.00  0.00     0.074 A 
ATOM     40  C   UNL A   1      38.317  30.508  29.660  1.00  0.00     0.049 A 
ATOM     41  N   UNL A   1      38.967  31.218  32.516  1.00  0.00    -0.248 NA
ATOM     42  C   UNL A   1      37.147  32.681  32.502  1.00  0.00     0.031 C 
ATOM     43  C   UNL A   1      38.045  30.123  28.277  1.00  0.00     0.029 A 
ATOM     44  N   UNL A   1      39.398  29.741  30.020  1.00  0.00    -0.354 N 
ATOM     45  C   UNL A   1      38.855  31.825  33.760  1.00  0.00     0.074 A 
ATOM     46  C   UNL A   1      37.735  32.739  33.687  1.00  0.00     0.031 C 
ATOM     47  C   UNL A   1      38.950  29.202  27.897  1.00  0.00     0.029 A 
ATOM     48  C   UNL A   1      39.879  28.958  29.000  1.00  0.00     0.049 A 
ATOM     49  H   UNL A   1      39.790  29.754  30.923  1.00  0.00     0.167 HD
ATOM     50  C   UNL A   1      39.611  31.632  34.867  1.00  0.00     0.037 A 
ATOM     51  C   UNL A   1      40.959  28.155  28.956  1.00  0.00     0.037 A 
ATOM     52  C   UNL A   1      40.725  30.725  34.941  1.00  0.00     0.049 A 
ATOM     53  C   UNL A   1      41.825  28.006  30.182  1.00  0.00     0.074 A 
ATOM     54  C   UNL A   1      41.534  30.442  36.026  1.00  0.00     0.029 A 
ATOM     55  N   UNL A   1      41.192  29.962  33.882  1.00  0.00    -0.354 N 
ATOM     56  N   UNL A   1      41.689  28.555  31.364  1.00  0.00    -0.248 NA
ATOM     57  C   UNL A   1      42.996  27.124  30.064  1.00  0.00     0.031 C 
ATOM     58  C   UNL A   1      42.524  29.543  35.611  1.00  0.00     0.029 A 
ATOM     59  C   UNL A   1      42.296  29.229  34.280  1.00  0.00     0.049 A 
ATOM     60  H   UNL A   1      40.797  29.944  32.980  1.00  0.00     0.167 HD
ATOM     61  C   UNL A   1      42.733  28.063  32.138  1.00  0.00     0.074 A 
ATOM     62  C   UNL A   1      43.491  27.164  31.294  1.00  0.00     0.031 C 
ATOM     63  C   UNL A   1      43.036  28.329  33.432  1.00  0.00     0.037 A 
BRANCH  50  64
ATOM     64  C   UNL A   1      39.273  32.443  36.083  1.00  0.00     0.057 A 
ATOM     65  C   UNL A   1      38.378  31.981  37.056  1.00  0.00     0.134 A 
ATOM     66  C   UNL A   1      39.876  33.689  36.298  1.00  0.00     0.134 A 
ATOM     67  F   UNL A   1      37.754  30.802  36.902  1.00  0.00    -0.206 F 
ATOM     68  C   UNL A   1      38.080  32.737  38.191  1.00  0.00     0.040 A 
ATOM     69  C   UNL A   1      39.605  34.442  37.440  1.00  0.00     0.040 A 
ATOM     70  F   UNL A   1      40.745  34.188  35.406  1.00  0.00    -0.206 F 
ATOM     71  C   UNL A   1      38.700  33.970  38.389  1.00  0.00     0.006 A 
ENDBRANCH  50  64
BRANCH  51  72
ATOM     72  C   UNL A   1      41.303  27.436  27.704  1.00  0.00     0.057 A 
ATOM     73  C   UNL A   1      41.010  26.077  27.541  1.00  0.00     0.134 A 
ATOM     74  C   UNL A   1      41.964  28.084  26.653  1.00  0.00     0.134 A 
ATOM     75  F   UNL A   1      40.404  25.396  28.524  1.00  0.00    -0.206 F 
ATOM     76  C   UNL A   1      41.375  25.384  26.385  1.00  0.00     0.040 A 
ATOM     77  C   UNL A   1      42.312  27.410  25.482  1.00  0.00     0.040 A 
ATOM     78  F   UNL A   1      42.277  29.385  26.748  1.00  0.00    -0.206 F 
ATOM     79  C   UNL A   1      42.025  26.053  25.349  1.00  0.00     0.006 A 
ENDBRANCH  51  72
BRANCH  63  80
ATOM     80  C   UNL A   1      44.214  27.614  34.029  1.00  0.00     0.057 A 
ATOM     81  C   UNL A   1      45.497  28.173  34.034  1.00  0.00     0.134 A 
ATOM     82  C   UNL A   1      44.049  26.367  34.648  1.00  0.00     0.134 A 
ATOM     83  F   UNL A   1      45.724  29.359  33.448  1.00  0.00    -0.206 F 
ATOM     84  C   UNL A   1      46.580  27.509  34.615  1.00  0.00     0.040 A 
ATOM     85  C   UNL A   1      45.118  25.707  35.256  1.00  0.00     0.040 A 
ATOM     86  F   UNL A   1      42.843  25.781  34.689  1.00  0.00    -0.206 F 
ATOM     87  C   UNL A   1      46.390  26.276  35.235  1.00  0.00     0.006 A 
ENDBRANCH  63  80
ENDBRANCH  37  38
ENDBRANCH  30  32
ENDBRANCH  29  30
ENDBRANCH  28  29
ENDBRANCH  27  28
ENDBRANCH  26  27
ENDBRANCH  25  26
ENDBRANCH   1  25
TORSDOF 19
ENDMDL
MODEL 3
REMARK VINA RESULT:     -10.0      4.707      9.839
REMARK SMILES NC(=O)[C@@H]1CCCCN1c1cncc(C(=O)OCCOCCOCCOC(=O)c2ccc(-c3c4nc(c(-c5c(F)cccc5F)c5ccc([nH]5)c(-c5c(F)cccc5F)c5nc(c(-c6c(F)cccc6F)c6ccc3[nH]6)C=C5)C=C4)cc2)n1
REMARK SMILES IDX 21 1 20 2 19 3 18 4 17 5 15 6 16 7 14 8 10 9 11 10 83 11
REMARK SMILES IDX 12 12 13 13 9 14 4 15 5 16 6 17 8 18 7 19 2 20 1 21 3 24
REMARK SMILES IDX 22 25 23 26 24 27 25 28 26 29 27 30 28 31 29 32 30 33 82 34
REMARK SMILES IDX 31 35 81 36 32 37 33 38 34 39 75 40 35 41 80 42 74 43 76 44
REMARK SMILES IDX 36 45 79 46 73 47 72 48 37 50 63 51 46 52 62 53 47 54 50 55
REMARK SMILES IDX 61 56 77 57 48 58 49 59 60 61 78 62 51 63 38 64 39 65 44 66
REMARK SMILES IDX 40 67 41 68 43 69 45 70 42 71 64 72 65 73 70 74 66 75 67 76
REMARK SMILES IDX 69 77 71 78 68 79 52 80 53 81 58 82 54 83 55 84 57 85 59 86
REMARK SMILES IDX 56 87
REMARK H PARENT 1 22 1 23 76 49 50 60
REMARK Flexibility Score: inf
ROOT
ATOM      1  C   UNL A   1      34.818  32.893  28.029  1.00  0.00     0.188 C 
ENDROOT
BRANCH   1   2
ATOM      2  O   UNL A   1      33.617  32.131  27.946  1.00  0.00    -0.376 OA
BRANCH   2   3
ATOM      3  C   UNL A   1      33.613  30.878  27.275  1.00  0.00     0.202 C 
BRANCH   3   4
ATOM      4  C   UNL A   1      32.268  30.224  26.929  1.00  0.00     0.261 C 
BRANCH   4   5
ATOM      5  O   UNL A   1      32.320  29.315  25.818  1.00  0.00    -0.458 OA
BRANCH   5   6
ATOM      6  C   UNL A   1      32.847  28.088  26.084  1.00  0.00     0.358 C 
ATOM      7  O   UNL A   1      33.718  27.834  26.901  1.00  0.00    -0.244 OA
BRANCH   6   8
ATOM      8  C   UNL A   1      32.057  27.038  25.408  1.00  0.00     0.169 A 
ATOM      9  C   UNL A   1      31.849  24.924  24.507  1.00  0.00     0.148 A 
ATOM     10  C   UNL A   1      30.580  25.313  24.048  1.00  0.00     0.157 A 
ATOM     11  N   UNL A   1      32.622  25.826  25.154  1.00  0.00    -0.220 NA
ATOM     12  N   UNL A   1      30.024  26.536  24.252  1.00  0.00    -0.258 NA
ATOM     13  C   UNL A   1      30.784  27.379  24.981  1.00  0.00     0.147 A 
BRANCH   9  14
ATOM     14  N   UNL A   1      32.317  23.641  24.351  1.00  0.00    -0.343 N 
ATOM     15  C   UNL A   1      32.153  22.607  25.395  1.00  0.00     0.172 C 
ATOM     16  C   UNL A   1      33.543  22.130  25.827  1.00  0.00     0.035 C 
ATOM     17  C   UNL A   1      34.315  21.605  24.613  1.00  0.00     0.004 C 
ATOM     18  C   UNL A   1      33.004  23.211  23.138  1.00  0.00     0.119 C 
ATOM     19  C   UNL A   1      34.385  22.657  23.504  1.00  0.00     0.022 C 
BRANCH  15  20
ATOM     20  C   UNL A   1      31.193  22.953  26.557  1.00  0.00     0.240 C 
ATOM     21  N   UNL A   1      29.895  22.543  26.457  1.00  0.00    -0.368 N 
ATOM     22  H   UNL A   1      29.257  22.746  27.180  1.00  0.00     0.159 HD
ATOM     23  H   UNL A   1      29.595  22.043  25.663  1.00  0.00     0.159 HD
ATOM     24  O   UNL A   1      31.559  23.567  27.559  1.00  0.00    -0.273 OA
ENDBRANCH  15  20
ENDBRANCH   9  14
ENDBRANCH   6   8
ENDBRANCH   5   6
ENDBRANCH   4   5
ENDBRANCH   3   4
ENDBRANCH   2   3
ENDBRANCH   1   2
BRANCH   1  25
ATOM     25  C   UNL A   1      34.762  34.402  28.351  1.00  0.00     0.188 C 
BRANCH  25  26
ATOM     26  O   UNL A   1      34.002  34.708  29.494  1.00  0.00    -0.376 OA
BRANCH  26  27
ATOM     27  C   UNL A   1      34.241  34.032  30.713  1.00  0.00     0.202 C 
BRANCH  27  28
ATOM     28  C   UNL A   1      35.058  34.626  31.876  1.00  0.00     0.261 C 
BRANCH  28  29
ATOM     29  O   UNL A   1      36.353  34.085  32.135  1.00  0.00    -0.460 OA
BRANCH  29  30
ATOM     30  C   UNL A   1      36.408  32.855  32.687  1.00  0.00     0.338 C 
ATOM     31  O   UNL A   1      35.672  32.399  33.558  1.00  0.00    -0.246 OA
BRANCH  30  32
ATOM     32  C   UNL A   1      37.426  32.071  31.968  1.00  0.00     0.060 A 
ATOM     33  C   UNL A   1      38.389  31.371  32.703  1.00  0.00     0.016 A 
ATOM     34  C   UNL A   1      37.439  32.040  30.572  1.00  0.00     0.016 A 
ATOM     35  C   UNL A   1      39.389  30.658  32.040  1.00  0.00     0.010 A 
ATOM     36  C   UNL A   1      38.449  31.339  29.907  1.00  0.00     0.010 A 
ATOM     37  C   UNL A   1      39.446  30.668  30.639  1.00  0.00    -0.014 A 
BRANCH  37  38
ATOM     38  C   UNL A   1      40.628  30.112  29.937  1.00  0.00     0.031 A 
ATOM     39  C   UNL A   1      41.792  31.020  29.650  1.00  0.00     0.074 A 
ATOM     40  C   UNL A   1      40.669  28.823  29.555  1.00  0.00     0.049 A 
ATOM     41  N   UNL A   1      42.900  30.772  29.001  1.00  0.00    -0.248 NA
ATOM     42  C   UNL A   1      41.687  32.396  30.162  1.00  0.00     0.031 C 
ATOM     43  C   UNL A   1      39.621  27.835  29.798  1.00  0.00     0.029 A 
ATOM     44  N   UNL A   1      41.634  28.130  28.866  1.00  0.00    -0.354 N 
ATOM     45  C   UNL A   1      43.621  31.959  29.019  1.00  0.00     0.074 A 
ATOM     46  C   UNL A   1      42.814  32.934  29.721  1.00  0.00     0.031 C 
ATOM     47  C   UNL A   1      39.992  26.664  29.249  1.00  0.00     0.029 A 
ATOM     48  C   UNL A   1      41.288  26.830  28.593  1.00  0.00     0.049 A 
ATOM     49  H   UNL A   1      42.492  28.529  28.594  1.00  0.00     0.167 HD
ATOM     50  C   UNL A   1      44.847  32.212  28.505  1.00  0.00     0.037 A 
ATOM     51  C   UNL A   1      41.933  25.891  27.875  1.00  0.00     0.037 A 
ATOM     52  C   UNL A   1      45.649  31.245  27.806  1.00  0.00     0.049 A 
ATOM     53  C   UNL A   1      43.269  26.216  27.256  1.00  0.00     0.074 A 
ATOM     54  C   UNL A   1      46.917  31.400  27.272  1.00  0.00     0.029 A 
ATOM     55  N   UNL A   1      45.257  29.943  27.534  1.00  0.00    -0.354 N 
ATOM     56  N   UNL A   1      43.959  27.330  27.311  1.00  0.00    -0.248 NA
ATOM     57  C   UNL A   1      43.915  25.151  26.474  1.00  0.00     0.031 C 
ATOM     58  C   UNL A   1      47.271  30.206  26.633  1.00  0.00     0.029 A 
ATOM     59  C   UNL A   1      46.245  29.292  26.815  1.00  0.00     0.049 A 
ATOM     60  H   UNL A   1      44.401  29.541  27.810  1.00  0.00     0.167 HD
ATOM     61  C   UNL A   1      45.129  27.090  26.602  1.00  0.00     0.074 A 
ATOM     62  C   UNL A   1      45.062  25.723  26.131  1.00  0.00     0.031 C 
ATOM     63  C   UNL A   1      46.169  27.927  26.362  1.00  0.00     0.037 A 
BRANCH  50  64
ATOM     64  C   UNL A   1      45.384  33.605  28.656  1.00  0.00     0.057 A 
ATOM     65  C   UNL A   1      45.119  34.608  27.715  1.00  0.00     0.134 A 
ATOM     66  C   UNL A   1      46.150  33.955  29.776  1.00  0.00     0.134 A 
ATOM     67  F   UNL A   1      44.405  34.333  26.612  1.00  0.00    -0.206 F 
ATOM     68  C   UNL A   1      45.612  35.904  27.872  1.00  0.00     0.040 A 
ATOM     69  C   UNL A   1      46.627  35.253  29.956  1.00  0.00     0.040 A 
ATOM     70  F   UNL A   1      46.437  33.042  30.717  1.00  0.00    -0.206 F 
ATOM     71  C   UNL A   1      46.364  36.231  28.999  1.00  0.00     0.006 A 
ENDBRANCH  50  64
BRANCH  51  72
ATOM     72  C   UNL A   1      41.323  24.551  27.681  1.00  0.00     0.057 A 
ATOM     73  C   UNL A   1      41.782  23.434  28.388  1.00  0.00     0.134 A 
ATOM     74  C   UNL A   1      40.289  24.351  26.759  1.00  0.00     0.134 A 
ATOM     75  F   UNL A   1      42.789  23.557  29.264  1.00  0.00    -0.206 F 
ATOM     76  C   UNL A   1      41.245  22.163  28.174  1.00  0.00     0.040 A 
ATOM     77  C   UNL A   1      39.726  23.091  26.553  1.00  0.00     0.040 A 
ATOM     78  F   UNL A   1      39.807  25.381  26.046  1.00  0.00    -0.206 F 
ATOM     79  C   UNL A   1      40.210  21.990  27.256  1.00  0.00     0.006 A 
ENDBRANCH  51  72
BRANCH  63  80
ATOM     80  C   UNL A   1      47.335  27.380  25.590  1.00  0.00     0.057 A 
ATOM     81  C   UNL A   1      47.449  27.542  24.205  1.00  0.00     0.134 A 
ATOM     82  C   UNL A   1      48.380  26.721  26.253  1.00  0.00     0.134 A 
ATOM     83  F   UNL A   1      46.478  28.153  23.509  1.00  0.00    -0.206 F 
ATOM     84  C   UNL A   1      48.552  27.050  23.501  1.00  0.00     0.040 A 
ATOM     85  C   UNL A   1      49.499  26.250  25.565  1.00  0.00     0.040 A 
ATOM     86  F   UNL A   1      48.339  26.543  27.582  1.00  0.00    -0.206 F 
ATOM     87  C   UNL A   1      49.584  26.410  24.183  1.00  0.00     0.006 A 
ENDBRANCH  63  80
ENDBRANCH  37  38
ENDBRANCH  30  32
ENDBRANCH  29  30
ENDBRANCH  28  29
ENDBRANCH  27  28
ENDBRANCH  26  27
ENDBRANCH  25  26
ENDBRANCH   1  25
TORSDOF 19
ENDMDL
