MODEL 1
REMARK VINA RESULT:     -11.8      0.000      0.000
REMARK SMILES O=C1CCCC2=C1[C@H](c1ccc([N+](=O)[O-])cc1)CC(=O)N2c1ccccc1C(=O)OCCOCCOCCOC(=O)c1ccc(-c2c3nc(c(-c4c(F)cccc4F)c4ccc([nH]4)c(-c4c(F)cccc4F)c4nc(c(-c5c(F)cccc5F)c5ccc2[nH]5)C=C4)C=C3)cc1
REMARK SMILES IDX 34 1 33 2 32 3 31 4 30 5 28 6 29 7 27 8 22 9 23 10 24 11
REMARK SMILES IDX 26 12 25 13 21 14 1 15 2 16 3 17 7 18 4 19 6 20 8 21 5 22
REMARK SMILES IDX 18 23 19 24 20 25 9 26 10 27 17 28 11 29 16 30 12 31 13 32
REMARK SMILES IDX 14 33 15 34 35 35 36 36 37 37 38 38 39 39 40 40 41 41 42 42
REMARK SMILES IDX 43 43 95 44 44 45 94 46 45 47 46 48 47 49 88 50 48 51 93 52
REMARK SMILES IDX 87 53 89 54 49 55 92 56 86 57 85 58 50 60 76 61 59 62 75 63
REMARK SMILES IDX 60 64 63 65 74 66 90 67 61 68 62 69 73 71 91 72 64 73 51 74
REMARK SMILES IDX 52 75 57 76 53 77 54 78 56 79 58 80 55 81 77 82 78 83 83 84
REMARK SMILES IDX 79 85 80 86 82 87 84 88 81 89 65 90 66 91 71 92 67 93 68 94
REMARK SMILES IDX 70 95 72 96 69 97
REMARK H PARENT 89 59 63 70
REMARK Flexibility Score: inf
ROOT
ATOM      1  C   UNL A   1      35.527  32.074  28.500  1.00  0.00     0.188 C 
ENDROOT
BRANCH   1   2
ATOM      2  O   UNL A   1      35.338  31.246  27.354  1.00  0.00    -0.376 OA
BRANCH   2   3
ATOM      3  C   UNL A   1      35.257  29.851  27.621  1.00  0.00     0.202 C 
BRANCH   3   4
ATOM      4  C   UNL A   1      33.944  29.163  27.233  1.00  0.00     0.261 C 
BRANCH   4   5
ATOM      5  O   UNL A   1      33.852  28.742  25.863  1.00  0.00    -0.460 OA
BRANCH   5   6
ATOM      6  C   UNL A   1      33.409  27.500  25.591  1.00  0.00     0.340 C 
ATOM      7  O   UNL A   1      33.771  26.476  26.147  1.00  0.00    -0.246 OA
BRANCH   6   8
ATOM      8  C   UNL A   1      32.344  27.550  24.545  1.00  0.00     0.084 A 
ATOM      9  C   UNL A   1      31.965  26.484  23.692  1.00  0.00     0.063 A 
ATOM     10  C   UNL A   1      31.006  26.761  22.690  1.00  0.00     0.027 A 
ATOM     11  C   UNL A   1      30.452  28.032  22.520  1.00  0.00     0.002 A 
ATOM     12  C   UNL A   1      31.767  28.828  24.366  1.00  0.00     0.018 A 
ATOM     13  C   UNL A   1      30.834  29.068  23.358  1.00  0.00     0.001 A 
BRANCH   9  14
ATOM     14  N   UNL A   1      32.496  25.130  23.733  1.00  0.00    -0.284 N 
ATOM     15  O   UNL A   1      32.576  20.794  25.627  1.00  0.00    -0.294 OA
ATOM     16  C   UNL A   1      32.360  21.993  25.773  1.00  0.00     0.161 C 
ATOM     17  C   UNL A   1      31.640  22.534  26.973  1.00  0.00     0.081 C 
ATOM     18  C   UNL A   1      32.812  22.994  24.765  1.00  0.00     0.023 C 
ATOM     19  C   UNL A   1      30.424  23.257  26.442  1.00  0.00     0.015 C 
ATOM     20  C   UNL A   1      32.103  24.143  24.663  1.00  0.00     0.033 C 
ATOM     21  C   UNL A   1      33.931  22.586  23.830  1.00  0.00     0.064 C 
ATOM     22  C   UNL A   1      30.828  24.375  25.478  1.00  0.00     0.055 C 
ATOM     23  C   UNL A   1      33.731  23.356  22.527  1.00  0.00     0.114 C 
ATOM     24  C   UNL A   1      33.488  24.830  22.761  1.00  0.00     0.232 C 
ATOM     25  O   UNL A   1      34.055  25.658  22.043  1.00  0.00    -0.274 OA
BRANCH  21  26
ATOM     26  C   UNL A   1      35.347  22.597  24.430  1.00  0.00    -0.039 A 
ATOM     27  C   UNL A   1      36.208  21.488  24.378  1.00  0.00     0.011 A 
ATOM     28  C   UNL A   1      35.778  23.703  25.195  1.00  0.00     0.011 A 
ATOM     29  C   UNL A   1      37.442  21.488  25.049  1.00  0.00     0.086 A 
ATOM     30  C   UNL A   1      37.028  23.735  25.824  1.00  0.00     0.086 A 
ATOM     31  C   UNL A   1      37.864  22.624  25.738  1.00  0.00     0.269 A 
BRANCH  31  32
ATOM     32  N   UNL A   1      39.192  22.658  26.357  1.00  0.00     0.062 N 
ATOM     33  O   UNL A   1      39.927  21.672  26.200  1.00  0.00    -0.258 OA
ATOM     34  O   UNL A   1      39.509  23.675  26.990  1.00  0.00    -0.258 OA
ENDBRANCH  31  32
ENDBRANCH  21  26
ENDBRANCH   9  14
ENDBRANCH   6   8
ENDBRANCH   5   6
ENDBRANCH   4   5
ENDBRANCH   3   4
ENDBRANCH   2   3
ENDBRANCH   1   2
BRANCH   1  35
ATOM     35  C   UNL A   1      35.279  33.560  28.190  1.00  0.00     0.188 C 
BRANCH  35  36
ATOM     36  O   UNL A   1      34.436  34.172  29.159  1.00  0.00    -0.376 OA
BRANCH  36  37
ATOM     37  C   UNL A   1      33.927  35.446  28.783  1.00  0.00     0.202 C 
BRANCH  37  38
ATOM     38  C   UNL A   1      32.902  36.085  29.725  1.00  0.00     0.261 C 
BRANCH  38  39
ATOM     39  O   UNL A   1      32.502  35.285  30.846  1.00  0.00    -0.460 OA
BRANCH  39  40
ATOM     40  C   UNL A   1      32.750  35.747  32.091  1.00  0.00     0.338 C 
ATOM     41  O   UNL A   1      32.051  36.472  32.773  1.00  0.00    -0.246 OA
BRANCH  40  42
ATOM     42  C   UNL A   1      33.945  35.021  32.569  1.00  0.00     0.060 A 
ATOM     43  C   UNL A   1      35.204  35.629  32.468  1.00  0.00     0.016 A 
ATOM     44  C   UNL A   1      33.805  33.775  33.186  1.00  0.00     0.016 A 
ATOM     45  C   UNL A   1      36.332  34.972  32.963  1.00  0.00     0.010 A 
ATOM     46  C   UNL A   1      34.933  33.114  33.666  1.00  0.00     0.010 A 
ATOM     47  C   UNL A   1      36.204  33.696  33.530  1.00  0.00    -0.014 A 
BRANCH  47  48
ATOM     48  C   UNL A   1      37.402  32.863  33.775  1.00  0.00     0.031 A 
ATOM     49  C   UNL A   1      38.197  33.131  35.022  1.00  0.00     0.074 A 
ATOM     50  C   UNL A   1      37.798  31.916  32.906  1.00  0.00     0.049 A 
ATOM     51  N   UNL A   1      39.314  32.587  35.431  1.00  0.00    -0.248 NA
ATOM     52  C   UNL A   1      37.661  34.163  35.926  1.00  0.00     0.031 C 
ATOM     53  C   UNL A   1      37.103  31.549  31.674  1.00  0.00     0.029 A 
ATOM     54  N   UNL A   1      38.900  31.099  32.931  1.00  0.00    -0.354 N 
ATOM     55  C   UNL A   1      39.614  33.213  36.633  1.00  0.00     0.074 A 
ATOM     56  C   UNL A   1      38.582  34.196  36.875  1.00  0.00     0.031 C 
ATOM     57  C   UNL A   1      37.803  30.581  31.054  1.00  0.00     0.029 A 
ATOM     58  C   UNL A   1      39.005  30.284  31.831  1.00  0.00     0.049 A 
ATOM     59  H   UNL A   1      39.552  31.097  33.668  1.00  0.00     0.167 HD
ATOM     60  C   UNL A   1      40.656  32.988  37.466  1.00  0.00     0.037 A 
ATOM     61  C   UNL A   1      39.975  29.413  31.489  1.00  0.00     0.037 A 
ATOM     62  C   UNL A   1      41.688  32.019  37.224  1.00  0.00     0.049 A 
ATOM     63  C   UNL A   1      41.164  29.231  32.398  1.00  0.00     0.074 A 
ATOM     64  C   UNL A   1      42.768  31.690  38.023  1.00  0.00     0.029 A 
ATOM     65  N   UNL A   1      41.774  31.231  36.086  1.00  0.00    -0.354 N 
ATOM     66  N   UNL A   1      41.415  29.789  33.558  1.00  0.00    -0.248 NA
ATOM     67  C   UNL A   1      42.207  28.297  31.946  1.00  0.00     0.031 C 
ATOM     68  C   UNL A   1      43.536  30.737  37.346  1.00  0.00     0.029 A 
ATOM     69  C   UNL A   1      42.907  30.438  36.147  1.00  0.00     0.049 A 
ATOM     70  H   UNL A   1      41.127  31.236  35.344  1.00  0.00     0.167 HD
ATOM     71  C   UNL A   1      42.623  29.252  33.988  1.00  0.00     0.074 A 
ATOM     72  C   UNL A   1      43.052  28.319  32.967  1.00  0.00     0.031 C 
ATOM     73  C   UNL A   1      43.312  29.505  35.128  1.00  0.00     0.037 A 
BRANCH  60  74
ATOM     74  C   UNL A   1      40.736  33.830  38.703  1.00  0.00     0.057 A 
ATOM     75  C   UNL A   1      40.048  33.491  39.875  1.00  0.00     0.134 A 
ATOM     76  C   UNL A   1      41.511  34.996  38.720  1.00  0.00     0.134 A 
ATOM     77  F   UNL A   1      39.271  32.397  39.915  1.00  0.00    -0.206 F 
ATOM     78  C   UNL A   1      40.110  34.294  41.015  1.00  0.00     0.040 A 
ATOM     79  C   UNL A   1      41.600  35.795  39.861  1.00  0.00     0.040 A 
ATOM     80  F   UNL A   1      42.192  35.379  37.629  1.00  0.00    -0.206 F 
ATOM     81  C   UNL A   1      40.892  35.448  41.011  1.00  0.00     0.006 A 
ENDBRANCH  60  74
BRANCH  61  82
ATOM     82  C   UNL A   1      39.875  28.637  30.227  1.00  0.00     0.057 A 
ATOM     83  C   UNL A   1      39.209  27.407  30.189  1.00  0.00     0.134 A 
ATOM     84  C   UNL A   1      40.469  29.085  29.042  1.00  0.00     0.134 A 
ATOM     85  F   UNL A   1      38.643  26.911  31.300  1.00  0.00    -0.206 F 
ATOM     86  C   UNL A   1      39.152  26.641  29.022  1.00  0.00     0.040 A 
ATOM     87  C   UNL A   1      40.401  28.340  27.863  1.00  0.00     0.040 A 
ATOM     88  F   UNL A   1      41.126  30.254  29.014  1.00  0.00    -0.206 F 
ATOM     89  C   UNL A   1      39.746  27.111  27.854  1.00  0.00     0.006 A 
ENDBRANCH  61  82
BRANCH  73  90
ATOM     90  C   UNL A   1      44.580  28.733  35.355  1.00  0.00     0.057 A 
ATOM     91  C   UNL A   1      45.823  29.210  34.925  1.00  0.00     0.134 A 
ATOM     92  C   UNL A   1      44.557  27.523  36.060  1.00  0.00     0.134 A 
ATOM     93  F   UNL A   1      45.911  30.356  34.235  1.00  0.00    -0.206 F 
ATOM     94  C   UNL A   1      47.000  28.500  35.172  1.00  0.00     0.040 A 
ATOM     95  C   UNL A   1      45.729  26.817  36.336  1.00  0.00     0.040 A 
ATOM     96  F   UNL A   1      43.398  27.017  36.509  1.00  0.00    -0.206 F 
ATOM     97  C   UNL A   1      46.954  27.303  35.887  1.00  0.00     0.006 A 
ENDBRANCH  73  90
ENDBRANCH  47  48
ENDBRANCH  40  42
ENDBRANCH  39  40
ENDBRANCH  38  39
ENDBRANCH  37  38
ENDBRANCH  36  37
ENDBRANCH  35  36
ENDBRANCH   1  35
TORSDOF 20
ENDMDL
MODEL 2
REMARK VINA RESULT:     -11.7      2.213      8.804
REMARK SMILES O=C1CCCC2=C1[C@H](c1ccc([N+](=O)[O-])cc1)CC(=O)N2c1ccccc1C(=O)OCCOCCOCCOC(=O)c1ccc(-c2c3nc(c(-c4c(F)cccc4F)c4ccc([nH]4)c(-c4c(F)cccc4F)c4nc(c(-c5c(F)cccc5F)c5ccc2[nH]5)C=C4)C=C3)cc1
REMARK SMILES IDX 34 1 33 2 32 3 31 4 30 5 28 6 29 7 27 8 22 9 23 10 24 11
REMARK SMILES IDX 26 12 25 13 21 14 1 15 2 16 3 17 7 18 4 19 6 20 8 21 5 22
REMARK SMILES IDX 18 23 19 24 20 25 9 26 10 27 17 28 11 29 16 30 12 31 13 32
REMARK SMILES IDX 14 33 15 34 35 35 36 36 37 37 38 38 39 39 40 40 41 41 42 42
REMARK SMILES IDX 43 43 95 44 44 45 94 46 45 47 46 48 47 49 88 50 48 51 93 52
REMARK SMILES IDX 87 53 89 54 49 55 92 56 86 57 85 58 50 60 76 61 59 62 75 63
REMARK SMILES IDX 60 64 63 65 74 66 90 67 61 68 62 69 73 71 91 72 64 73 51 74
REMARK SMILES IDX 52 75 57 76 53 77 54 78 56 79 58 80 55 81 77 82 78 83 83 84
REMARK SMILES IDX 79 85 80 86 82 87 84 88 81 89 65 90 66 91 71 92 67 93 68 94
REMARK SMILES IDX 70 95 72 96 69 97
REMARK H PARENT 89 59 63 70
REMARK Flexibility Score: inf
ROOT
ATOM      1  C   UNL A   1      40.445  20.537  26.528  1.00  0.00     0.188 C 
ENDROOT
BRANCH   1   2
ATOM      2  O   UNL A   1      39.810  21.801  26.341  1.00  0.00    -0.376 OA
BRANCH   2   3
ATOM      3  C   UNL A   1      38.521  21.747  25.742  1.00  0.00     0.202 C 
BRANCH   3   4
ATOM      4  C   UNL A   1      37.750  23.070  25.674  1.00  0.00     0.261 C 
BRANCH   4   5
ATOM      5  O   UNL A   1      36.618  23.079  24.791  1.00  0.00    -0.460 OA
BRANCH   5   6
ATOM      6  C   UNL A   1      35.426  23.488  25.263  1.00  0.00     0.340 C 
ATOM      7  O   UNL A   1      35.197  24.570  25.779  1.00  0.00    -0.246 OA
BRANCH   6   8
ATOM      8  C   UNL A   1      34.384  22.449  25.007  1.00  0.00     0.084 A 
ATOM      9  C   UNL A   1      32.997  22.684  24.841  1.00  0.00     0.063 A 
ATOM     10  C   UNL A   1      32.156  21.554  24.714  1.00  0.00     0.027 A 
ATOM     11  C   UNL A   1      32.649  20.248  24.761  1.00  0.00     0.002 A 
ATOM     12  C   UNL A   1      34.869  21.122  25.044  1.00  0.00     0.018 A 
ATOM     13  C   UNL A   1      34.008  20.031  24.928  1.00  0.00     0.001 A 
BRANCH   9  14
ATOM     14  N   UNL A   1      32.351  23.987  24.819  1.00  0.00    -0.284 N 
ATOM     15  O   UNL A   1      31.116  27.932  22.516  1.00  0.00    -0.294 OA
ATOM     16  C   UNL A   1      31.896  26.992  22.632  1.00  0.00     0.161 C 
ATOM     17  C   UNL A   1      32.905  26.658  21.574  1.00  0.00     0.081 C 
ATOM     18  C   UNL A   1      31.894  26.125  23.844  1.00  0.00     0.023 C 
ATOM     19  C   UNL A   1      32.608  25.240  21.144  1.00  0.00     0.015 C 
ATOM     20  C   UNL A   1      32.320  24.847  23.699  1.00  0.00     0.033 C 
ATOM     21  C   UNL A   1      31.275  26.690  25.105  1.00  0.00     0.064 C 
ATOM     22  C   UNL A   1      32.698  24.277  22.330  1.00  0.00     0.055 C 
ATOM     23  C   UNL A   1      30.729  25.510  25.905  1.00  0.00     0.114 C 
ATOM     24  C   UNL A   1      31.734  24.388  26.035  1.00  0.00     0.232 C 
ATOM     25  O   UNL A   1      31.874  23.824  27.123  1.00  0.00    -0.274 OA
BRANCH  21  26
ATOM     26  C   UNL A   1      32.131  27.711  25.875  1.00  0.00    -0.039 A 
ATOM     27  C   UNL A   1      31.670  28.995  26.209  1.00  0.00     0.011 A 
ATOM     28  C   UNL A   1      33.486  27.429  26.149  1.00  0.00     0.011 A 
ATOM     29  C   UNL A   1      32.519  29.948  26.796  1.00  0.00     0.086 A 
ATOM     30  C   UNL A   1      34.329  28.351  26.780  1.00  0.00     0.086 A 
ATOM     31  C   UNL A   1      33.834  29.610  27.114  1.00  0.00     0.269 A 
BRANCH  31  32
ATOM     32  N   UNL A   1      34.693  30.572  27.812  1.00  0.00     0.062 N 
ATOM     33  O   UNL A   1      35.115  30.258  28.935  1.00  0.00    -0.258 OA
ATOM     34  O   UNL A   1      34.958  31.636  27.235  1.00  0.00    -0.258 OA
ENDBRANCH  31  32
ENDBRANCH  21  26
ENDBRANCH   9  14
ENDBRANCH   6   8
ENDBRANCH   5   6
ENDBRANCH   4   5
ENDBRANCH   3   4
ENDBRANCH   2   3
ENDBRANCH   1   2
BRANCH   1  35
ATOM     35  C   UNL A   1      41.967  20.616  26.319  1.00  0.00     0.188 C 
BRANCH  35  36
ATOM     36  O   UNL A   1      42.318  21.575  25.327  1.00  0.00    -0.376 OA
BRANCH  36  37
ATOM     37  C   UNL A   1      43.323  22.500  25.724  1.00  0.00     0.202 C 
BRANCH  37  38
ATOM     38  C   UNL A   1      42.959  23.476  26.847  1.00  0.00     0.261 C 
BRANCH  38  39
ATOM     39  O   UNL A   1      41.773  24.254  26.635  1.00  0.00    -0.460 OA
BRANCH  39  40
ATOM     40  C   UNL A   1      41.898  25.495  26.118  1.00  0.00     0.338 C 
ATOM     41  O   UNL A   1      42.092  25.806  24.958  1.00  0.00    -0.246 OA
BRANCH  40  42
ATOM     42  C   UNL A   1      41.530  26.432  27.200  1.00  0.00     0.060 A 
ATOM     43  C   UNL A   1      42.131  27.697  27.247  1.00  0.00     0.016 A 
ATOM     44  C   UNL A   1      40.537  26.082  28.118  1.00  0.00     0.016 A 
ATOM     45  C   UNL A   1      41.753  28.608  28.236  1.00  0.00     0.010 A 
ATOM     46  C   UNL A   1      40.170  26.985  29.113  1.00  0.00     0.010 A 
ATOM     47  C   UNL A   1      40.798  28.240  29.195  1.00  0.00    -0.014 A 
BRANCH  47  48
ATOM     48  C   UNL A   1      40.611  29.056  30.415  1.00  0.00     0.031 A 
ATOM     49  C   UNL A   1      39.525  30.095  30.400  1.00  0.00     0.074 A 
ATOM     50  C   UNL A   1      41.397  28.907  31.495  1.00  0.00     0.049 A 
ATOM     51  N   UNL A   1      39.202  30.974  31.313  1.00  0.00    -0.248 NA
ATOM     52  C   UNL A   1      38.696  30.154  29.184  1.00  0.00     0.031 C 
ATOM     53  C   UNL A   1      42.468  27.924  31.639  1.00  0.00     0.029 A 
ATOM     54  N   UNL A   1      41.415  29.604  32.677  1.00  0.00    -0.354 N 
ATOM     55  C   UNL A   1      38.140  31.692  30.779  1.00  0.00     0.074 A 
ATOM     56  C   UNL A   1      37.891  31.167  29.455  1.00  0.00     0.031 C 
ATOM     57  C   UNL A   1      43.048  28.087  32.842  1.00  0.00     0.029 A 
ATOM     58  C   UNL A   1      42.407  29.202  33.538  1.00  0.00     0.049 A 
ATOM     59  H   UNL A   1      40.777  30.324  32.888  1.00  0.00     0.167 HD
ATOM     60  C   UNL A   1      37.431  32.696  31.341  1.00  0.00     0.037 A 
ATOM     61  C   UNL A   1      42.760  29.695  34.741  1.00  0.00     0.037 A 
ATOM     62  C   UNL A   1      37.683  33.227  32.652  1.00  0.00     0.049 A 
ATOM     63  C   UNL A   1      42.002  30.863  35.317  1.00  0.00     0.074 A 
ATOM     64  C   UNL A   1      37.000  34.222  33.327  1.00  0.00     0.029 A 
ATOM     65  N   UNL A   1      38.713  32.811  33.482  1.00  0.00    -0.354 N 
ATOM     66  N   UNL A   1      40.967  31.503  34.828  1.00  0.00    -0.248 NA
ATOM     67  C   UNL A   1      42.466  31.380  36.613  1.00  0.00     0.031 C 
ATOM     68  C   UNL A   1      37.645  34.442  34.548  1.00  0.00     0.029 A 
ATOM     69  C   UNL A   1      38.702  33.551  34.653  1.00  0.00     0.049 A 
ATOM     70  H   UNL A   1      39.356  32.097  33.271  1.00  0.00     0.167 HD
ATOM     71  C   UNL A   1      40.636  32.472  35.769  1.00  0.00     0.074 A 
ATOM     72  C   UNL A   1      41.577  32.333  36.860  1.00  0.00     0.031 C 
ATOM     73  C   UNL A   1      39.639  33.391  35.734  1.00  0.00     0.037 A 
BRANCH  60  74
ATOM     74  C   UNL A   1      36.334  33.302  30.519  1.00  0.00     0.057 A 
ATOM     75  C   UNL A   1      36.601  34.164  29.448  1.00  0.00     0.134 A 
ATOM     76  C   UNL A   1      34.992  33.018  30.804  1.00  0.00     0.134 A 
ATOM     77  F   UNL A   1      37.866  34.492  29.139  1.00  0.00    -0.206 F 
ATOM     78  C   UNL A   1      35.572  34.741  28.703  1.00  0.00     0.040 A 
ATOM     79  C   UNL A   1      33.956  33.570  30.051  1.00  0.00     0.040 A 
ATOM     80  F   UNL A   1      34.669  32.203  31.819  1.00  0.00    -0.206 F 
ATOM     81  C   UNL A   1      34.244  34.440  29.001  1.00  0.00     0.006 A 
ENDBRANCH  60  74
BRANCH  61  82
ATOM     82  C   UNL A   1      43.889  29.093  35.495  1.00  0.00     0.057 A 
ATOM     83  C   UNL A   1      45.205  29.519  35.284  1.00  0.00     0.134 A 
ATOM     84  C   UNL A   1      43.686  28.058  36.415  1.00  0.00     0.134 A 
ATOM     85  F   UNL A   1      45.466  30.489  34.394  1.00  0.00    -0.206 F 
ATOM     86  C   UNL A   1      46.282  28.926  35.947  1.00  0.00     0.040 A 
ATOM     87  C   UNL A   1      44.751  27.471  37.101  1.00  0.00     0.040 A 
ATOM     88  F   UNL A   1      42.450  27.601  36.659  1.00  0.00    -0.206 F 
ATOM     89  C   UNL A   1      46.055  27.902  36.862  1.00  0.00     0.006 A 
ENDBRANCH  61  82
BRANCH  73  90
ATOM     90  C   UNL A   1      39.487  34.290  36.926  1.00  0.00     0.057 A 
ATOM     91  C   UNL A   1      38.852  33.863  38.098  1.00  0.00     0.134 A 
ATOM     92  C   UNL A   1      40.032  35.580  36.916  1.00  0.00     0.134 A 
ATOM     93  F   UNL A   1      38.299  32.644  38.168  1.00  0.00    -0.206 F 
ATOM     94  C   UNL A   1      38.747  34.698  39.214  1.00  0.00     0.040 A 
ATOM     95  C   UNL A   1      39.956  36.413  38.033  1.00  0.00     0.040 A 
ATOM     96  F   UNL A   1      40.664  36.045  35.827  1.00  0.00    -0.206 F 
ATOM     97  C   UNL A   1      39.307  35.974  39.184  1.00  0.00     0.006 A 
ENDBRANCH  73  90
ENDBRANCH  47  48
ENDBRANCH  40  42
ENDBRANCH  39  40
ENDBRANCH  38  39
ENDBRANCH  37  38
ENDBRANCH  36  37
ENDBRANCH  35  36
ENDBRANCH   1  35
TORSDOF 20
ENDMDL
MODEL 3
REMARK VINA RESULT:     -11.4      5.744     11.641
REMARK SMILES O=C1CCCC2=C1[C@H](c1ccc([N+](=O)[O-])cc1)CC(=O)N2c1ccccc1C(=O)OCCOCCOCCOC(=O)c1ccc(-c2c3nc(c(-c4c(F)cccc4F)c4ccc([nH]4)c(-c4c(F)cccc4F)c4nc(c(-c5c(F)cccc5F)c5ccc2[nH]5)C=C4)C=C3)cc1
REMARK SMILES IDX 34 1 33 2 32 3 31 4 30 5 28 6 29 7 27 8 22 9 23 10 24 11
REMARK SMILES IDX 26 12 25 13 21 14 1 15 2 16 3 17 7 18 4 19 6 20 8 21 5 22
REMARK SMILES IDX 18 23 19 24 20 25 9 26 10 27 17 28 11 29 16 30 12 31 13 32
REMARK SMILES IDX 14 33 15 34 35 35 36 36 37 37 38 38 39 39 40 40 41 41 42 42
REMARK SMILES IDX 43 43 95 44 44 45 94 46 45 47 46 48 47 49 88 50 48 51 93 52
REMARK SMILES IDX 87 53 89 54 49 55 92 56 86 57 85 58 50 60 76 61 59 62 75 63
REMARK SMILES IDX 60 64 63 65 74 66 90 67 61 68 62 69 73 71 91 72 64 73 51 74
REMARK SMILES IDX 52 75 57 76 53 77 54 78 56 79 58 80 55 81 77 82 78 83 83 84
REMARK SMILES IDX 79 85 80 86 82 87 84 88 81 89 65 90 66 91 71 92 67 93 68 94
REMARK SMILES IDX 70 95 72 96 69 97
REMARK H PARENT 89 59 63 70
REMARK Flexibility Score: inf
ROOT
ATOM      1  C   UNL A   1      40.101  21.069  26.505  1.00  0.00     0.188 C 
ENDROOT
BRANCH   1   2
ATOM      2  O   UNL A   1      39.358  22.205  26.946  1.00  0.00    -0.376 OA
BRANCH   2   3
ATOM      3  C   UNL A   1      38.890  23.060  25.911  1.00  0.00     0.202 C 
BRANCH   3   4
ATOM      4  C   UNL A   1      37.537  23.739  26.153  1.00  0.00     0.261 C 
BRANCH   4   5
ATOM      5  O   UNL A   1      36.426  23.167  25.447  1.00  0.00    -0.460 OA
BRANCH   5   6
ATOM      6  C   UNL A   1      35.213  23.736  25.570  1.00  0.00     0.340 C 
ATOM      7  O   UNL A   1      34.998  24.914  25.803  1.00  0.00    -0.246 OA
BRANCH   6   8
ATOM      8  C   UNL A   1      34.141  22.728  25.312  1.00  0.00     0.084 A 
ATOM      9  C   UNL A   1      32.772  23.009  25.083  1.00  0.00     0.063 A 
ATOM     10  C   UNL A   1      31.892  21.908  24.966  1.00  0.00     0.027 A 
ATOM     11  C   UNL A   1      32.331  20.587  25.082  1.00  0.00     0.002 A 
ATOM     12  C   UNL A   1      34.571  21.386  25.419  1.00  0.00     0.018 A 
ATOM     13  C   UNL A   1      33.672  20.325  25.311  1.00  0.00     0.001 A 
BRANCH   9  14
ATOM     14  N   UNL A   1      32.178  24.334  24.987  1.00  0.00    -0.284 N 
ATOM     15  O   UNL A   1      31.231  28.249  22.503  1.00  0.00    -0.294 OA
ATOM     16  C   UNL A   1      31.966  27.285  22.691  1.00  0.00     0.161 C 
ATOM     17  C   UNL A   1      33.020  26.880  21.704  1.00  0.00     0.081 C 
ATOM     18  C   UNL A   1      31.862  26.456  23.926  1.00  0.00     0.023 C 
ATOM     19  C   UNL A   1      32.694  25.462  21.298  1.00  0.00     0.015 C 
ATOM     20  C   UNL A   1      32.245  25.159  23.842  1.00  0.00     0.033 C 
ATOM     21  C   UNL A   1      31.194  27.082  25.132  1.00  0.00     0.064 C 
ATOM     22  C   UNL A   1      32.678  24.533  22.515  1.00  0.00     0.055 C 
ATOM     23  C   UNL A   1      30.558  25.949  25.932  1.00  0.00     0.114 C 
ATOM     24  C   UNL A   1      31.509  24.794  26.153  1.00  0.00     0.232 C 
ATOM     25  O   UNL A   1      31.565  24.260  27.263  1.00  0.00    -0.274 OA
BRANCH  21  26
ATOM     26  C   UNL A   1      32.043  28.094  25.920  1.00  0.00    -0.039 A 
ATOM     27  C   UNL A   1      31.544  29.332  26.358  1.00  0.00     0.011 A 
ATOM     28  C   UNL A   1      33.423  27.861  26.107  1.00  0.00     0.011 A 
ATOM     29  C   UNL A   1      32.381  30.286  26.960  1.00  0.00     0.086 A 
ATOM     30  C   UNL A   1      34.256  28.782  26.752  1.00  0.00     0.086 A 
ATOM     31  C   UNL A   1      33.725  29.993  27.189  1.00  0.00     0.269 A 
BRANCH  31  32
ATOM     32  N   UNL A   1      34.575  30.950  27.903  1.00  0.00     0.062 N 
ATOM     33  O   UNL A   1      34.078  32.042  28.216  1.00  0.00    -0.258 OA
ATOM     34  O   UNL A   1      35.737  30.608  28.164  1.00  0.00    -0.258 OA
ENDBRANCH  31  32
ENDBRANCH  21  26
ENDBRANCH   9  14
ENDBRANCH   6   8
ENDBRANCH   5   6
ENDBRANCH   4   5
ENDBRANCH   3   4
ENDBRANCH   2   3
ENDBRANCH   1   2
BRANCH   1  35
ATOM     35  C   UNL A   1      41.584  21.403  26.269  1.00  0.00     0.188 C 
BRANCH  35  36
ATOM     36  O   UNL A   1      42.437  20.326  26.640  1.00  0.00    -0.376 OA
BRANCH  36  37
ATOM     37  C   UNL A   1      42.396  19.206  25.763  1.00  0.00     0.202 C 
BRANCH  37  38
ATOM     38  C   UNL A   1      43.653  18.334  25.699  1.00  0.00     0.261 C 
BRANCH  38  39
ATOM     39  O   UNL A   1      44.859  19.006  25.312  1.00  0.00    -0.460 OA
BRANCH  39  40
ATOM     40  C   UNL A   1      44.855  19.741  24.179  1.00  0.00     0.338 C 
ATOM     41  O   UNL A   1      44.528  19.391  23.061  1.00  0.00    -0.246 OA
BRANCH  40  42
ATOM     42  C   UNL A   1      45.114  21.136  24.593  1.00  0.00     0.060 A 
ATOM     43  C   UNL A   1      45.664  21.385  25.859  1.00  0.00     0.016 A 
ATOM     44  C   UNL A   1      44.884  22.184  23.699  1.00  0.00     0.016 A 
ATOM     45  C   UNL A   1      45.960  22.696  26.239  1.00  0.00     0.010 A 
ATOM     46  C   UNL A   1      45.165  23.493  24.084  1.00  0.00     0.010 A 
ATOM     47  C   UNL A   1      45.676  23.757  25.367  1.00  0.00    -0.014 A 
BRANCH  47  48
ATOM     48  C   UNL A   1      45.690  25.153  25.857  1.00  0.00     0.031 A 
ATOM     49  C   UNL A   1      47.005  25.881  25.856  1.00  0.00     0.074 A 
ATOM     50  C   UNL A   1      44.580  25.753  26.322  1.00  0.00     0.049 A 
ATOM     51  N   UNL A   1      47.293  27.080  26.290  1.00  0.00    -0.248 NA
ATOM     52  C   UNL A   1      48.153  25.149  25.294  1.00  0.00     0.031 C 
ATOM     53  C   UNL A   1      43.245  25.161  26.358  1.00  0.00     0.029 A 
ATOM     54  N   UNL A   1      44.412  27.000  26.868  1.00  0.00    -0.354 N 
ATOM     55  C   UNL A   1      48.652  27.243  26.060  1.00  0.00     0.074 A 
ATOM     56  C   UNL A   1      49.138  26.013  25.474  1.00  0.00     0.031 C 
ATOM     57  C   UNL A   1      42.392  26.045  26.907  1.00  0.00     0.029 A 
ATOM     58  C   UNL A   1      43.128  27.251  27.286  1.00  0.00     0.049 A 
ATOM     59  H   UNL A   1      45.143  27.654  26.952  1.00  0.00     0.167 HD
ATOM     60  C   UNL A   1      49.428  28.322  26.309  1.00  0.00     0.037 A 
ATOM     61  C   UNL A   1      42.618  28.326  27.917  1.00  0.00     0.037 A 
ATOM     62  C   UNL A   1      48.951  29.541  26.900  1.00  0.00     0.049 A 
ATOM     63  C   UNL A   1      43.518  29.488  28.251  1.00  0.00     0.074 A 
ATOM     64  C   UNL A   1      49.650  30.705  27.163  1.00  0.00     0.029 A 
ATOM     65  N   UNL A   1      47.650  29.746  27.333  1.00  0.00    -0.354 N 
ATOM     66  N   UNL A   1      44.791  29.655  27.983  1.00  0.00    -0.248 NA
ATOM     67  C   UNL A   1      42.909  30.611  28.978  1.00  0.00     0.031 C 
ATOM     68  C   UNL A   1      48.784  31.598  27.800  1.00  0.00     0.029 A 
ATOM     69  C   UNL A   1      47.533  31.008  27.891  1.00  0.00     0.049 A 
ATOM     70  H   UNL A   1      46.919  29.091  27.258  1.00  0.00     0.167 HD
ATOM     71  C   UNL A   1      45.125  30.910  28.478  1.00  0.00     0.074 A 
ATOM     72  C   UNL A   1      43.920  31.465  29.058  1.00  0.00     0.031 C 
ATOM     73  C   UNL A   1      46.322  31.549  28.451  1.00  0.00     0.037 A 
BRANCH  60  74
ATOM     74  C   UNL A   1      50.883  28.210  25.965  1.00  0.00     0.057 A 
ATOM     75  C   UNL A   1      51.345  28.352  24.650  1.00  0.00     0.134 A 
ATOM     76  C   UNL A   1      51.833  27.959  26.963  1.00  0.00     0.134 A 
ATOM     77  F   UNL A   1      50.482  28.572  23.646  1.00  0.00    -0.206 F 
ATOM     78  C   UNL A   1      52.699  28.223  24.336  1.00  0.00     0.040 A 
ATOM     79  C   UNL A   1      53.191  27.853  26.664  1.00  0.00     0.040 A 
ATOM     80  F   UNL A   1      51.455  27.811  28.242  1.00  0.00    -0.206 F 
ATOM     81  C   UNL A   1      53.627  27.978  25.346  1.00  0.00     0.006 A 
ENDBRANCH  60  74
BRANCH  61  82
ATOM     82  C   UNL A   1      41.179  28.368  28.283  1.00  0.00     0.057 A 
ATOM     83  C   UNL A   1      40.223  28.863  27.389  1.00  0.00     0.134 A 
ATOM     84  C   UNL A   1      40.731  27.949  29.541  1.00  0.00     0.134 A 
ATOM     85  F   UNL A   1      40.596  29.306  26.179  1.00  0.00    -0.206 F 
ATOM     86  C   UNL A   1      38.875  28.958  27.738  1.00  0.00     0.040 A 
ATOM     87  C   UNL A   1      39.382  28.017  29.895  1.00  0.00     0.040 A 
ATOM     88  F   UNL A   1      41.597  27.468  30.444  1.00  0.00    -0.206 F 
ATOM     89  C   UNL A   1      38.451  28.529  28.994  1.00  0.00     0.006 A 
ENDBRANCH  61  82
BRANCH  73  90
ATOM     90  C   UNL A   1      46.379  32.934  29.025  1.00  0.00     0.057 A 
ATOM     91  C   UNL A   1      46.002  34.059  28.282  1.00  0.00     0.134 A 
ATOM     92  C   UNL A   1      46.764  33.136  30.357  1.00  0.00     0.134 A 
ATOM     93  F   UNL A   1      45.635  33.936  26.998  1.00  0.00    -0.206 F 
ATOM     94  C   UNL A   1      46.027  35.340  28.838  1.00  0.00     0.040 A 
ATOM     95  C   UNL A   1      46.767  34.407  30.932  1.00  0.00     0.040 A 
ATOM     96  F   UNL A   1      47.125  32.097  31.126  1.00  0.00    -0.206 F 
ATOM     97  C   UNL A   1      46.403  35.514  30.170  1.00  0.00     0.006 A 
ENDBRANCH  73  90
ENDBRANCH  47  48
ENDBRANCH  40  42
ENDBRANCH  39  40
ENDBRANCH  38  39
ENDBRANCH  37  38
ENDBRANCH  36  37
ENDBRANCH  35  36
ENDBRANCH   1  35
TORSDOF 20
ENDMDL
