MODEL 1
REMARK VINA RESULT:     -10.6      0.000      0.000
REMARK SMILES Cc1cnn(C2(C(=O)OCCOCCOCCOC(=O)c3ccc(-c4c5nc(c(-c6c(F)cccc6F)c6ccc([nH]6)c(-c6c(F)cccc6F)c6nc(c(-c7c(F)cccc7F)c7ccc4[nH]7)C=C6)C=C5)cc3)CCN(C(=O)c3cc4ccccc4[nH]3)CC2)c1
REMARK SMILES IDX 14 1 13 2 12 3 11 4 10 5 9 6 7 7 8 8 6 9 75 10 90 11 76 12
REMARK SMILES IDX 89 13 77 14 78 15 79 16 5 17 1 18 2 19 3 20 91 21 4 22 80 23
REMARK SMILES IDX 81 24 88 25 82 26 87 27 83 29 86 30 84 31 85 32 15 33 16 34
REMARK SMILES IDX 17 35 18 36 19 37 20 38 21 39 22 40 74 41 23 42 73 43 24 44
REMARK SMILES IDX 25 45 26 46 67 47 27 48 72 49 66 50 68 51 28 52 71 53 65 54
REMARK SMILES IDX 64 55 29 57 55 58 38 59 54 60 39 61 42 62 53 63 69 64 40 65
REMARK SMILES IDX 41 66 52 68 70 69 43 70 30 71 31 72 36 73 32 74 33 75 35 76
REMARK SMILES IDX 37 77 34 78 56 79 57 80 62 81 58 82 59 83 61 84 63 85 60 86
REMARK SMILES IDX 44 87 45 88 50 89 46 90 47 91 49 92 51 93 48 94
REMARK H PARENT 88 28 68 56 42 67
REMARK Flexibility Score: inf
ROOT
ATOM      1  C   UNL A   1      34.878  21.178  24.780  1.00  0.00     0.188 C 
ENDROOT
BRANCH   1   2
ATOM      2  C   UNL A   1      34.053  21.812  25.903  1.00  0.00     0.188 C 
BRANCH   2   3
ATOM      3  O   UNL A   1      32.657  21.667  25.844  1.00  0.00    -0.376 OA
BRANCH   3   4
ATOM      4  C   UNL A   1      31.883  22.830  25.594  1.00  0.00     0.202 C 
BRANCH   4   5
ATOM      5  C   UNL A   1      31.205  23.676  26.699  1.00  0.00     0.261 C 
BRANCH   5   6
ATOM      6  O   UNL A   1      31.707  25.012  26.920  1.00  0.00    -0.461 OA
BRANCH   6   7
ATOM      7  C   UNL A   1      30.980  26.032  26.373  1.00  0.00     0.334 C 
ATOM      8  O   UNL A   1      29.752  25.994  26.295  1.00  0.00    -0.249 OA
BRANCH   7   9
ATOM      9  C   UNL A   1      31.823  27.185  25.750  1.00  0.00     0.163 C 
ATOM     10  C   UNL A   1      31.336  28.620  26.065  1.00  0.00     0.064 C 
ATOM     11  C   UNL A   1      33.170  26.932  26.460  1.00  0.00     0.064 C 
ATOM     12  C   UNL A   1      32.404  29.698  25.924  1.00  0.00     0.123 C 
ATOM     13  C   UNL A   1      34.188  28.040  26.356  1.00  0.00     0.123 C 
ATOM     14  N   UNL A   1      33.616  29.352  26.639  1.00  0.00    -0.337 N 
ATOM     15  C   UNL A   1      34.180  30.291  27.508  1.00  0.00     0.270 C 
ATOM     16  O   UNL A   1      33.557  31.272  27.907  1.00  0.00    -0.267 OA
BRANCH   9  17
ATOM     17  N   UNL A   1      31.911  26.981  24.285  1.00  0.00    -0.255 N 
ATOM     18  C   UNL A   1      32.869  25.418  21.111  1.00  0.00     0.048 C 
ATOM     19  C   UNL A   1      32.366  26.218  22.250  1.00  0.00    -0.013 A 
ATOM     20  C   UNL A   1      31.507  27.330  22.225  1.00  0.00     0.138 A 
ATOM     21  C   UNL A   1      32.646  26.054  23.589  1.00  0.00     0.113 A 
ATOM     22  N   UNL A   1      31.291  27.836  23.440  1.00  0.00    -0.180 NA
ENDBRANCH   9  17
BRANCH  15  23
ATOM     23  C   UNL A   1      35.521  30.023  27.966  1.00  0.00     0.105 A 
ATOM     24  C   UNL A   1      36.729  30.067  27.292  1.00  0.00     0.042 A 
ATOM     25  N   UNL A   1      35.807  29.637  29.255  1.00  0.00    -0.351 N 
ATOM     26  C   UNL A   1      37.678  29.375  28.077  1.00  0.00     0.000 A 
ATOM     27  C   UNL A   1      37.099  29.169  29.328  1.00  0.00     0.046 A 
ATOM     28  H   UNL A   1      35.181  29.688  30.012  1.00  0.00     0.167 HD
ATOM     29  C   UNL A   1      38.970  28.884  27.826  1.00  0.00     0.010 A 
ATOM     30  C   UNL A   1      37.789  28.566  30.382  1.00  0.00     0.026 A 
ATOM     31  C   UNL A   1      39.655  28.230  28.853  1.00  0.00     0.001 A 
ATOM     32  C   UNL A   1      39.081  28.100  30.117  1.00  0.00     0.002 A 
ENDBRANCH  15  23
ENDBRANCH   7   9
ENDBRANCH   6   7
ENDBRANCH   5   6
ENDBRANCH   4   5
ENDBRANCH   3   4
ENDBRANCH   2   3
ENDBRANCH   1   2
BRANCH   1  33
ATOM     33  O   UNL A   1      36.022  20.363  24.979  1.00  0.00    -0.376 OA
BRANCH  33  34
ATOM     34  C   UNL A   1      37.373  20.774  24.806  1.00  0.00     0.202 C 
BRANCH  34  35
ATOM     35  C   UNL A   1      38.248  21.343  25.920  1.00  0.00     0.261 C 
BRANCH  35  36
ATOM     36  O   UNL A   1      39.591  21.528  25.559  1.00  0.00    -0.460 OA
BRANCH  36  37
ATOM     37  C   UNL A   1      40.437  21.564  26.606  1.00  0.00     0.338 C 
ATOM     38  O   UNL A   1      40.440  20.845  27.598  1.00  0.00    -0.246 OA
BRANCH  37  39
ATOM     39  C   UNL A   1      41.396  22.638  26.342  1.00  0.00     0.060 A 
ATOM     40  C   UNL A   1      42.664  22.263  25.907  1.00  0.00     0.016 A 
ATOM     41  C   UNL A   1      41.102  23.937  26.785  1.00  0.00     0.016 A 
ATOM     42  C   UNL A   1      43.709  23.072  26.266  1.00  0.00     0.010 A 
ATOM     43  C   UNL A   1      42.143  24.736  27.155  1.00  0.00     0.010 A 
ATOM     44  C   UNL A   1      43.423  24.217  27.018  1.00  0.00    -0.014 A 
BRANCH  44  45
ATOM     45  C   UNL A   1      44.511  24.902  27.662  1.00  0.00     0.031 A 
ATOM     46  C   UNL A   1      44.442  24.769  29.123  1.00  0.00     0.074 A 
ATOM     47  C   UNL A   1      45.477  25.526  26.960  1.00  0.00     0.049 A 
ATOM     48  N   UNL A   1      44.049  25.671  29.955  1.00  0.00    -0.248 NA
ATOM     49  C   UNL A   1      44.581  23.423  29.701  1.00  0.00     0.031 C 
ATOM     50  C   UNL A   1      45.731  25.502  25.516  1.00  0.00     0.029 A 
ATOM     51  N   UNL A   1      46.505  26.278  27.435  1.00  0.00    -0.354 N 
ATOM     52  C   UNL A   1      44.137  25.070  31.200  1.00  0.00     0.074 A 
ATOM     53  C   UNL A   1      44.233  23.654  30.968  1.00  0.00     0.031 C 
ATOM     54  C   UNL A   1      46.961  26.012  25.268  1.00  0.00     0.029 A 
ATOM     55  C   UNL A   1      47.515  26.527  26.507  1.00  0.00     0.049 A 
ATOM     56  H   UNL A   1      46.534  26.618  28.358  1.00  0.00     0.167 HD
ATOM     57  C   UNL A   1      44.440  25.815  32.294  1.00  0.00     0.037 A 
ATOM     58  C   UNL A   1      48.730  27.060  26.799  1.00  0.00     0.037 A 
ATOM     59  C   UNL A   1      44.241  27.220  32.039  1.00  0.00     0.049 A 
ATOM     60  C   UNL A   1      48.593  27.769  28.100  1.00  0.00     0.074 A 
ATOM     61  C   UNL A   1      43.153  28.001  31.702  1.00  0.00     0.029 A 
ATOM     62  N   UNL A   1      45.354  27.959  31.716  1.00  0.00    -0.354 N 
ATOM     63  N   UNL A   1      47.878  28.849  28.256  1.00  0.00    -0.248 NA
ATOM     64  C   UNL A   1      48.832  26.998  29.311  1.00  0.00     0.031 C 
ATOM     65  C   UNL A   1      43.659  28.971  30.787  1.00  0.00     0.029 A 
ATOM     66  C   UNL A   1      45.036  28.783  30.669  1.00  0.00     0.049 A 
ATOM     67  H   UNL A   1      46.231  27.904  32.162  1.00  0.00     0.167 HD
ATOM     68  C   UNL A   1      47.213  28.660  29.459  1.00  0.00     0.074 A 
ATOM     69  C   UNL A   1      47.893  27.533  30.097  1.00  0.00     0.031 C 
ATOM     70  C   UNL A   1      45.994  29.233  29.682  1.00  0.00     0.037 A 
BRANCH  57  71
ATOM     71  C   UNL A   1      45.312  25.312  33.411  1.00  0.00     0.057 A 
ATOM     72  C   UNL A   1      44.785  25.258  34.709  1.00  0.00     0.134 A 
ATOM     73  C   UNL A   1      46.713  25.162  33.319  1.00  0.00     0.134 A 
ATOM     74  F   UNL A   1      43.470  25.416  34.923  1.00  0.00    -0.206 F 
ATOM     75  C   UNL A   1      45.599  25.122  35.838  1.00  0.00     0.040 A 
ATOM     76  C   UNL A   1      47.528  24.969  34.435  1.00  0.00     0.040 A 
ATOM     77  F   UNL A   1      47.383  25.298  32.169  1.00  0.00    -0.206 F 
ATOM     78  C   UNL A   1      46.976  24.980  35.703  1.00  0.00     0.006 A 
ENDBRANCH  57  71
BRANCH  58  79
ATOM     79  C   UNL A   1      50.057  26.695  26.248  1.00  0.00     0.057 A 
ATOM     80  C   UNL A   1      50.870  27.651  25.618  1.00  0.00     0.134 A 
ATOM     81  C   UNL A   1      50.688  25.487  26.591  1.00  0.00     0.134 A 
ATOM     82  F   UNL A   1      50.374  28.854  25.290  1.00  0.00    -0.206 F 
ATOM     83  C   UNL A   1      52.233  27.432  25.372  1.00  0.00     0.040 A 
ATOM     84  C   UNL A   1      52.047  25.253  26.348  1.00  0.00     0.040 A 
ATOM     85  F   UNL A   1      50.031  24.530  27.262  1.00  0.00    -0.206 F 
ATOM     86  C   UNL A   1      52.829  26.233  25.750  1.00  0.00     0.006 A 
ENDBRANCH  58  79
BRANCH  70  87
ATOM     87  C   UNL A   1      45.518  30.272  28.701  1.00  0.00     0.057 A 
ATOM     88  C   UNL A   1      44.714  30.001  27.583  1.00  0.00     0.134 A 
ATOM     89  C   UNL A   1      45.767  31.618  28.986  1.00  0.00     0.134 A 
ATOM     90  F   UNL A   1      44.342  28.750  27.282  1.00  0.00    -0.206 F 
ATOM     91  C   UNL A   1      44.216  31.023  26.767  1.00  0.00     0.040 A 
ATOM     92  C   UNL A   1      45.249  32.648  28.201  1.00  0.00     0.040 A 
ATOM     93  F   UNL A   1      46.484  31.956  30.070  1.00  0.00    -0.206 F 
ATOM     94  C   UNL A   1      44.478  32.354  27.080  1.00  0.00     0.006 A 
ENDBRANCH  70  87
ENDBRANCH  44  45
ENDBRANCH  37  39
ENDBRANCH  36  37
ENDBRANCH  35  36
ENDBRANCH  34  35
ENDBRANCH  33  34
ENDBRANCH   1  33
TORSDOF 19
ENDMDL
MODEL 2
REMARK VINA RESULT:     -10.5      5.140      9.180
REMARK SMILES Cc1cnn(C2(C(=O)OCCOCCOCCOC(=O)c3ccc(-c4c5nc(c(-c6c(F)cccc6F)c6ccc([nH]6)c(-c6c(F)cccc6F)c6nc(c(-c7c(F)cccc7F)c7ccc4[nH]7)C=C6)C=C5)cc3)CCN(C(=O)c3cc4ccccc4[nH]3)CC2)c1
REMARK SMILES IDX 14 1 13 2 12 3 11 4 10 5 9 6 7 7 8 8 6 9 75 10 90 11 76 12
REMARK SMILES IDX 89 13 77 14 78 15 79 16 5 17 1 18 2 19 3 20 91 21 4 22 80 23
REMARK SMILES IDX 81 24 88 25 82 26 87 27 83 29 86 30 84 31 85 32 15 33 16 34
REMARK SMILES IDX 17 35 18 36 19 37 20 38 21 39 22 40 74 41 23 42 73 43 24 44
REMARK SMILES IDX 25 45 26 46 67 47 27 48 72 49 66 50 68 51 28 52 71 53 65 54
REMARK SMILES IDX 64 55 29 57 55 58 38 59 54 60 39 61 42 62 53 63 69 64 40 65
REMARK SMILES IDX 41 66 52 68 70 69 43 70 30 71 31 72 36 73 32 74 33 75 35 76
REMARK SMILES IDX 37 77 34 78 56 79 57 80 62 81 58 82 59 83 61 84 63 85 60 86
REMARK SMILES IDX 44 87 45 88 50 89 46 90 47 91 49 92 51 93 48 94
REMARK H PARENT 88 28 68 56 42 67
REMARK Flexibility Score: inf
ROOT
ATOM      1  C   UNL A   1      32.610  35.421  29.956  1.00  0.00     0.188 C 
ENDROOT
BRANCH   1   2
ATOM      2  C   UNL A   1      33.514  36.160  30.944  1.00  0.00     0.188 C 
BRANCH   2   3
ATOM      3  O   UNL A   1      34.405  35.390  31.710  1.00  0.00    -0.376 OA
BRANCH   3   4
ATOM      4  C   UNL A   1      33.952  34.131  32.182  1.00  0.00     0.202 C 
BRANCH   4   5
ATOM      5  C   UNL A   1      34.879  33.041  32.774  1.00  0.00     0.261 C 
BRANCH   5   6
ATOM      6  O   UNL A   1      36.230  33.422  33.111  1.00  0.00    -0.461 OA
BRANCH   6   7
ATOM      7  C   UNL A   1      37.124  32.403  33.279  1.00  0.00     0.334 C 
ATOM      8  O   UNL A   1      36.774  31.224  33.327  1.00  0.00    -0.249 OA
BRANCH   7   9
ATOM      9  C   UNL A   1      38.596  32.849  33.527  1.00  0.00     0.163 C 
ATOM     10  C   UNL A   1      39.683  31.799  33.193  1.00  0.00     0.064 C 
ATOM     11  C   UNL A   1      38.684  34.018  32.523  1.00  0.00     0.064 C 
ATOM     12  C   UNL A   1      41.067  32.380  32.927  1.00  0.00     0.123 C 
ATOM     13  C   UNL A   1      40.071  34.535  32.232  1.00  0.00     0.123 C 
ATOM     14  N   UNL A   1      41.022  33.462  31.964  1.00  0.00    -0.337 N 
ATOM     15  C   UNL A   1      41.903  33.436  30.879  1.00  0.00     0.270 C 
ATOM     16  O   UNL A   1      42.509  32.420  30.549  1.00  0.00    -0.267 OA
BRANCH   9  17
ATOM     17  N   UNL A   1      38.734  33.302  34.932  1.00  0.00    -0.255 N 
ATOM     18  C   UNL A   1      38.941  33.073  38.583  1.00  0.00     0.048 C 
ATOM     19  C   UNL A   1      38.883  33.411  37.144  1.00  0.00    -0.013 A 
ATOM     20  C   UNL A   1      39.063  34.664  36.534  1.00  0.00     0.138 A 
ATOM     21  C   UNL A   1      38.623  32.568  36.086  1.00  0.00     0.113 A 
ATOM     22  N   UNL A   1      38.901  34.615  35.211  1.00  0.00    -0.180 NA
ENDBRANCH   9  17
BRANCH  15  23
ATOM     23  C   UNL A   1      42.025  34.656  30.118  1.00  0.00     0.105 A 
ATOM     24  C   UNL A   1      41.301  35.116  29.032  1.00  0.00     0.042 A 
ATOM     25  N   UNL A   1      42.975  35.613  30.387  1.00  0.00    -0.351 N 
ATOM     26  C   UNL A   1      42.040  36.167  28.444  1.00  0.00     0.000 A 
ATOM     27  C   UNL A   1      43.051  36.505  29.341  1.00  0.00     0.046 A 
ATOM     28  H   UNL A   1      43.521  35.654  31.205  1.00  0.00     0.167 HD
ATOM     29  C   UNL A   1      41.952  36.844  27.217  1.00  0.00     0.010 A 
ATOM     30  C   UNL A   1      43.937  37.558  29.108  1.00  0.00     0.026 A 
ATOM     31  C   UNL A   1      42.864  37.867  26.943  1.00  0.00     0.001 A 
ATOM     32  C   UNL A   1      43.823  38.233  27.888  1.00  0.00     0.002 A 
ENDBRANCH  15  23
ENDBRANCH   7   9
ENDBRANCH   6   7
ENDBRANCH   5   6
ENDBRANCH   4   5
ENDBRANCH   3   4
ENDBRANCH   2   3
ENDBRANCH   1   2
BRANCH   1  33
ATOM     33  O   UNL A   1      32.968  35.094  28.622  1.00  0.00    -0.376 OA
BRANCH  33  34
ATOM     34  C   UNL A   1      33.640  33.910  28.211  1.00  0.00     0.202 C 
BRANCH  34  35
ATOM     35  C   UNL A   1      35.129  33.647  28.428  1.00  0.00     0.261 C 
BRANCH  35  36
ATOM     36  O   UNL A   1      35.404  32.560  29.271  1.00  0.00    -0.460 OA
BRANCH  36  37
ATOM     37  C   UNL A   1      36.023  31.535  28.654  1.00  0.00     0.338 C 
ATOM     38  O   UNL A   1      35.809  31.090  27.533  1.00  0.00    -0.246 OA
BRANCH  37  39
ATOM     39  C   UNL A   1      37.043  31.035  29.577  1.00  0.00     0.060 A 
ATOM     40  C   UNL A   1      38.265  31.702  29.594  1.00  0.00     0.016 A 
ATOM     41  C   UNL A   1      36.855  29.783  30.184  1.00  0.00     0.016 A 
ATOM     42  C   UNL A   1      39.375  30.956  29.888  1.00  0.00     0.010 A 
ATOM     43  C   UNL A   1      37.962  29.037  30.462  1.00  0.00     0.010 A 
ATOM     44  C   UNL A   1      39.197  29.596  30.167  1.00  0.00    -0.014 A 
BRANCH  44  45
ATOM     45  C   UNL A   1      40.354  28.742  30.170  1.00  0.00     0.031 A 
ATOM     46  C   UNL A   1      40.927  28.617  31.517  1.00  0.00     0.074 A 
ATOM     47  C   UNL A   1      40.781  28.114  29.058  1.00  0.00     0.049 A 
ATOM     48  N   UNL A   1      41.987  29.205  31.954  1.00  0.00    -0.248 NA
ATOM     49  C   UNL A   1      40.108  27.980  32.560  1.00  0.00     0.031 C 
ATOM     50  C   UNL A   1      40.130  28.011  27.748  1.00  0.00     0.029 A 
ATOM     51  N   UNL A   1      41.898  27.356  28.901  1.00  0.00    -0.354 N 
ATOM     52  C   UNL A   1      42.103  28.799  33.273  1.00  0.00     0.074 A 
ATOM     53  C   UNL A   1      40.824  28.259  33.650  1.00  0.00     0.031 C 
ATOM     54  C   UNL A   1      40.747  27.053  27.015  1.00  0.00     0.029 A 
ATOM     55  C   UNL A   1      41.914  26.585  27.740  1.00  0.00     0.049 A 
ATOM     56  H   UNL A   1      42.635  27.351  29.553  1.00  0.00     0.167 HD
ATOM     57  C   UNL A   1      43.330  28.657  33.835  1.00  0.00     0.037 A 
ATOM     58  C   UNL A   1      42.805  25.595  27.471  1.00  0.00     0.037 A 
ATOM     59  C   UNL A   1      44.339  29.338  33.063  1.00  0.00     0.049 A 
ATOM     60  C   UNL A   1      43.992  25.832  28.336  1.00  0.00     0.074 A 
ATOM     61  C   UNL A   1      44.562  30.652  32.702  1.00  0.00     0.029 A 
ATOM     62  N   UNL A   1      45.082  28.574  32.196  1.00  0.00    -0.354 N 
ATOM     63  N   UNL A   1      44.797  26.848  28.187  1.00  0.00    -0.248 NA
ATOM     64  C   UNL A   1      43.986  25.230  29.661  1.00  0.00     0.031 C 
ATOM     65  C   UNL A   1      45.064  30.593  31.368  1.00  0.00     0.029 A 
ATOM     66  C   UNL A   1      45.193  29.252  31.009  1.00  0.00     0.049 A 
ATOM     67  H   UNL A   1      45.469  27.690  32.394  1.00  0.00     0.167 HD
ATOM     68  C   UNL A   1      45.051  27.289  29.477  1.00  0.00     0.074 A 
ATOM     69  C   UNL A   1      44.579  26.212  30.347  1.00  0.00     0.031 C 
ATOM     70  C   UNL A   1      45.335  28.601  29.725  1.00  0.00     0.037 A 
BRANCH  57  71
ATOM     71  C   UNL A   1      43.662  27.561  34.810  1.00  0.00     0.057 A 
ATOM     72  C   UNL A   1      43.567  26.227  34.386  1.00  0.00     0.134 A 
ATOM     73  C   UNL A   1      43.783  27.746  36.204  1.00  0.00     0.134 A 
ATOM     74  F   UNL A   1      43.420  25.929  33.086  1.00  0.00    -0.206 F 
ATOM     75  C   UNL A   1      43.535  25.160  35.289  1.00  0.00     0.040 A 
ATOM     76  C   UNL A   1      43.809  26.685  37.109  1.00  0.00     0.040 A 
ATOM     77  F   UNL A   1      43.774  28.955  36.778  1.00  0.00    -0.206 F 
ATOM     78  C   UNL A   1      43.653  25.387  36.655  1.00  0.00     0.006 A 
ENDBRANCH  57  71
BRANCH  58  79
ATOM     79  C   UNL A   1      42.564  24.283  26.823  1.00  0.00     0.057 A 
ATOM     80  C   UNL A   1      43.100  23.989  25.559  1.00  0.00     0.134 A 
ATOM     81  C   UNL A   1      42.067  23.187  27.547  1.00  0.00     0.134 A 
ATOM     82  F   UNL A   1      43.641  24.960  24.807  1.00  0.00    -0.206 F 
ATOM     83  C   UNL A   1      43.165  22.681  25.058  1.00  0.00     0.040 A 
ATOM     84  C   UNL A   1      42.123  21.875  27.058  1.00  0.00     0.040 A 
ATOM     85  F   UNL A   1      41.599  23.336  28.794  1.00  0.00    -0.206 F 
ATOM     86  C   UNL A   1      42.687  21.616  25.816  1.00  0.00     0.006 A 
ENDBRANCH  58  79
BRANCH  70  87
ATOM     87  C   UNL A   1      45.618  29.491  28.544  1.00  0.00     0.057 A 
ATOM     88  C   UNL A   1      44.645  30.229  27.851  1.00  0.00     0.134 A 
ATOM     89  C   UNL A   1      46.951  29.720  28.189  1.00  0.00     0.134 A 
ATOM     90  F   UNL A   1      43.349  30.150  28.182  1.00  0.00    -0.206 F 
ATOM     91  C   UNL A   1      44.984  31.121  26.828  1.00  0.00     0.040 A 
ATOM     92  C   UNL A   1      47.306  30.632  27.193  1.00  0.00     0.040 A 
ATOM     93  F   UNL A   1      47.940  29.091  28.843  1.00  0.00    -0.206 F 
ATOM     94  C   UNL A   1      46.320  31.330  26.501  1.00  0.00     0.006 A 
ENDBRANCH  70  87
ENDBRANCH  44  45
ENDBRANCH  37  39
ENDBRANCH  36  37
ENDBRANCH  35  36
ENDBRANCH  34  35
ENDBRANCH  33  34
ENDBRANCH   1  33
TORSDOF 19
ENDMDL
MODEL 3
REMARK VINA RESULT:     -10.4      3.128      7.019
REMARK SMILES Cc1cnn(C2(C(=O)OCCOCCOCCOC(=O)c3ccc(-c4c5nc(c(-c6c(F)cccc6F)c6ccc([nH]6)c(-c6c(F)cccc6F)c6nc(c(-c7c(F)cccc7F)c7ccc4[nH]7)C=C6)C=C5)cc3)CCN(C(=O)c3cc4ccccc4[nH]3)CC2)c1
REMARK SMILES IDX 14 1 13 2 12 3 11 4 10 5 9 6 7 7 8 8 6 9 75 10 90 11 76 12
REMARK SMILES IDX 89 13 77 14 78 15 79 16 5 17 1 18 2 19 3 20 91 21 4 22 80 23
REMARK SMILES IDX 81 24 88 25 82 26 87 27 83 29 86 30 84 31 85 32 15 33 16 34
REMARK SMILES IDX 17 35 18 36 19 37 20 38 21 39 22 40 74 41 23 42 73 43 24 44
REMARK SMILES IDX 25 45 26 46 67 47 27 48 72 49 66 50 68 51 28 52 71 53 65 54
REMARK SMILES IDX 64 55 29 57 55 58 38 59 54 60 39 61 42 62 53 63 69 64 40 65
REMARK SMILES IDX 41 66 52 68 70 69 43 70 30 71 31 72 36 73 32 74 33 75 35 76
REMARK SMILES IDX 37 77 34 78 56 79 57 80 62 81 58 82 59 83 61 84 63 85 60 86
REMARK SMILES IDX 44 87 45 88 50 89 46 90 47 91 49 92 51 93 48 94
REMARK H PARENT 88 28 68 56 42 67
REMARK Flexibility Score: inf
ROOT
ATOM      1  C   UNL A   1      33.899  26.934  24.488  1.00  0.00     0.188 C 
ENDROOT
BRANCH   1   2
ATOM      2  C   UNL A   1      34.389  25.699  25.248  1.00  0.00     0.188 C 
BRANCH   2   3
ATOM      3  O   UNL A   1      35.011  24.684  24.503  1.00  0.00    -0.376 OA
BRANCH   3   4
ATOM      4  C   UNL A   1      36.175  24.083  25.048  1.00  0.00     0.202 C 
BRANCH   4   5
ATOM      5  C   UNL A   1      36.188  23.221  26.334  1.00  0.00     0.261 C 
BRANCH   5   6
ATOM      6  O   UNL A   1      35.084  22.314  26.541  1.00  0.00    -0.461 OA
BRANCH   6   7
ATOM      7  C   UNL A   1      34.662  21.610  25.449  1.00  0.00     0.334 C 
ATOM      8  O   UNL A   1      35.450  21.101  24.652  1.00  0.00    -0.249 OA
BRANCH   7   9
ATOM      9  C   UNL A   1      33.121  21.604  25.221  1.00  0.00     0.163 C 
ATOM     10  C   UNL A   1      32.254  21.838  26.482  1.00  0.00     0.064 C 
ATOM     11  C   UNL A   1      32.995  22.820  24.278  1.00  0.00     0.064 C 
ATOM     12  C   UNL A   1      30.846  22.349  26.198  1.00  0.00     0.123 C 
ATOM     13  C   UNL A   1      31.597  23.344  24.062  1.00  0.00     0.123 C 
ATOM     14  N   UNL A   1      30.858  23.494  25.310  1.00  0.00    -0.337 N 
ATOM     15  C   UNL A   1      30.140  24.638  25.673  1.00  0.00     0.270 C 
ATOM     16  O   UNL A   1      29.738  24.824  26.819  1.00  0.00    -0.267 OA
BRANCH   9  17
ATOM     17  N   UNL A   1      32.735  20.336  24.559  1.00  0.00    -0.255 N 
ATOM     18  C   UNL A   1      31.995  18.000  21.834  1.00  0.00     0.048 C 
ATOM     19  C   UNL A   1      32.237  18.752  23.085  1.00  0.00    -0.013 A 
ATOM     20  C   UNL A   1      32.210  18.279  24.408  1.00  0.00     0.138 A 
ATOM     21  C   UNL A   1      32.528  20.092  23.224  1.00  0.00     0.113 A 
ATOM     22  N   UNL A   1      32.436  19.244  25.299  1.00  0.00    -0.180 NA
ENDBRANCH   9  17
BRANCH  15  23
ATOM     23  C   UNL A   1      29.941  25.629  24.644  1.00  0.00     0.105 A 
ATOM     24  C   UNL A   1      30.845  26.226  23.783  1.00  0.00     0.042 A 
ATOM     25  N   UNL A   1      28.712  26.176  24.360  1.00  0.00    -0.351 N 
ATOM     26  C   UNL A   1      30.219  27.369  23.236  1.00  0.00     0.000 A 
ATOM     27  C   UNL A   1      28.866  27.285  23.560  1.00  0.00     0.046 A 
ATOM     28  H   UNL A   1      27.850  25.826  24.682  1.00  0.00     0.167 HD
ATOM     29  C   UNL A   1      30.688  28.479  22.516  1.00  0.00     0.010 A 
ATOM     30  C   UNL A   1      27.931  28.223  23.119  1.00  0.00     0.026 A 
ATOM     31  C   UNL A   1      29.775  29.456  22.112  1.00  0.00     0.001 A 
ATOM     32  C   UNL A   1      28.415  29.313  22.387  1.00  0.00     0.002 A 
ENDBRANCH  15  23
ENDBRANCH   7   9
ENDBRANCH   6   7
ENDBRANCH   5   6
ENDBRANCH   4   5
ENDBRANCH   3   4
ENDBRANCH   2   3
ENDBRANCH   1   2
BRANCH   1  33
ATOM     33  O   UNL A   1      33.742  28.224  25.059  1.00  0.00    -0.376 OA
BRANCH  33  34
ATOM     34  C   UNL A   1      33.972  28.561  26.421  1.00  0.00     0.202 C 
BRANCH  34  35
ATOM     35  C   UNL A   1      35.013  29.575  26.892  1.00  0.00     0.261 C 
BRANCH  35  36
ATOM     36  O   UNL A   1      34.570  30.419  27.921  1.00  0.00    -0.460 OA
BRANCH  36  37
ATOM     37  C   UNL A   1      35.357  31.493  28.122  1.00  0.00     0.338 C 
ATOM     38  O   UNL A   1      35.250  32.610  27.628  1.00  0.00    -0.246 OA
BRANCH  37  39
ATOM     39  C   UNL A   1      36.392  31.091  29.076  1.00  0.00     0.060 A 
ATOM     40  C   UNL A   1      37.561  31.847  29.100  1.00  0.00     0.016 A 
ATOM     41  C   UNL A   1      36.285  29.843  29.710  1.00  0.00     0.016 A 
ATOM     42  C   UNL A   1      38.717  31.194  29.433  1.00  0.00     0.010 A 
ATOM     43  C   UNL A   1      37.438  29.188  30.027  1.00  0.00     0.010 A 
ATOM     44  C   UNL A   1      38.634  29.831  29.741  1.00  0.00    -0.014 A 
BRANCH  44  45
ATOM     45  C   UNL A   1      39.851  29.065  29.787  1.00  0.00     0.031 A 
ATOM     46  C   UNL A   1      40.342  28.920  31.164  1.00  0.00     0.074 A 
ATOM     47  C   UNL A   1      40.397  28.525  28.681  1.00  0.00     0.049 A 
ATOM     48  N   UNL A   1      41.324  29.563  31.697  1.00  0.00    -0.248 NA
ATOM     49  C   UNL A   1      39.509  28.174  32.120  1.00  0.00     0.031 C 
ATOM     50  C   UNL A   1      39.842  28.436  27.326  1.00  0.00     0.029 A 
ATOM     51  N   UNL A   1      41.576  27.860  28.568  1.00  0.00    -0.354 N 
ATOM     52  C   UNL A   1      41.384  29.104  33.002  1.00  0.00     0.074 A 
ATOM     53  C   UNL A   1      40.129  28.453  33.268  1.00  0.00     0.031 C 
ATOM     54  C   UNL A   1      40.577  27.563  26.597  1.00  0.00     0.029 A 
ATOM     55  C   UNL A   1      41.727  27.148  27.380  1.00  0.00     0.049 A 
ATOM     56  H   UNL A   1      42.268  27.879  29.269  1.00  0.00     0.167 HD
ATOM     57  C   UNL A   1      42.579  29.026  33.641  1.00  0.00     0.037 A 
ATOM     58  C   UNL A   1      42.707  26.242  27.130  1.00  0.00     0.037 A 
ATOM     59  C   UNL A   1      43.581  29.816  32.969  1.00  0.00     0.049 A 
ATOM     60  C   UNL A   1      43.814  26.524  28.084  1.00  0.00     0.074 A 
ATOM     61  C   UNL A   1      43.725  31.159  32.681  1.00  0.00     0.029 A 
ATOM     62  N   UNL A   1      44.436  29.151  32.123  1.00  0.00    -0.354 N 
ATOM     63  N   UNL A   1      44.546  27.602  28.033  1.00  0.00    -0.248 NA
ATOM     64  C   UNL A   1      43.768  25.861  29.379  1.00  0.00     0.031 C 
ATOM     65  C   UNL A   1      44.316  31.201  31.383  1.00  0.00     0.029 A 
ATOM     66  C   UNL A   1      44.571  29.891  30.977  1.00  0.00     0.049 A 
ATOM     67  H   UNL A   1      44.876  28.290  32.309  1.00  0.00     0.167 HD
ATOM     68  C   UNL A   1      44.681  27.999  29.356  1.00  0.00     0.074 A 
ATOM     69  C   UNL A   1      44.238  26.850  30.145  1.00  0.00     0.031 C 
ATOM     70  C   UNL A   1      44.846  29.316  29.679  1.00  0.00     0.037 A 
BRANCH  57  71
ATOM     71  C   UNL A   1      42.931  27.912  34.588  1.00  0.00     0.057 A 
ATOM     72  C   UNL A   1      43.094  26.616  34.077  1.00  0.00     0.134 A 
ATOM     73  C   UNL A   1      42.828  28.001  35.993  1.00  0.00     0.134 A 
ATOM     74  F   UNL A   1      43.175  26.404  32.755  1.00  0.00    -0.206 F 
ATOM     75  C   UNL A   1      43.094  25.486  34.901  1.00  0.00     0.040 A 
ATOM     76  C   UNL A   1      42.885  26.885  36.827  1.00  0.00     0.040 A 
ATOM     77  F   UNL A   1      42.561  29.148  36.629  1.00  0.00    -0.206 F 
ATOM     78  C   UNL A   1      42.987  25.618  36.281  1.00  0.00     0.006 A 
ENDBRANCH  57  71
BRANCH  58  79
ATOM     79  C   UNL A   1      42.611  24.948  26.411  1.00  0.00     0.057 A 
ATOM     80  C   UNL A   1      43.496  24.629  25.369  1.00  0.00     0.134 A 
ATOM     81  C   UNL A   1      41.857  23.878  26.923  1.00  0.00     0.134 A 
ATOM     82  F   UNL A   1      44.293  25.571  24.842  1.00  0.00    -0.206 F 
ATOM     83  C   UNL A   1      43.645  23.321  24.886  1.00  0.00     0.040 A 
ATOM     84  C   UNL A   1      41.994  22.568  26.448  1.00  0.00     0.040 A 
ATOM     85  F   UNL A   1      41.034  24.049  27.967  1.00  0.00    -0.206 F 
ATOM     86  C   UNL A   1      42.901  22.282  25.435  1.00  0.00     0.006 A 
ENDBRANCH  58  79
BRANCH  70  87
ATOM     87  C   UNL A   1      45.136  30.280  28.559  1.00  0.00     0.057 A 
ATOM     88  C   UNL A   1      46.408  30.496  28.004  1.00  0.00     0.134 A 
ATOM     89  C   UNL A   1      44.058  30.903  27.923  1.00  0.00     0.134 A 
ATOM     90  F   UNL A   1      47.490  29.869  28.484  1.00  0.00    -0.206 F 
ATOM     91  C   UNL A   1      46.597  31.326  26.893  1.00  0.00     0.040 A 
ATOM     92  C   UNL A   1      44.228  31.706  26.794  1.00  0.00     0.040 A 
ATOM     93  F   UNL A   1      42.807  30.700  28.364  1.00  0.00    -0.206 F 
ATOM     94  C   UNL A   1      45.502  31.929  26.280  1.00  0.00     0.006 A 
ENDBRANCH  70  87
ENDBRANCH  44  45
ENDBRANCH  37  39
ENDBRANCH  36  37
ENDBRANCH  35  36
ENDBRANCH  34  35
ENDBRANCH  33  34
ENDBRANCH   1  33
TORSDOF 19
ENDMDL
