MODEL 1
REMARK VINA RESULT:     -10.4      0.000      0.000
REMARK SMILES C[C@@H](CCC(=O)OCCOCCOCCOC(=O)c1ccc(-c2c3nc(c(-c4c(F)cccc4F)c4ccc([nH]4)c(-c4c(F)cccc4F)c4nc(c(-c5c(F)cccc5F)c5ccc2[nH]5)C=C4)C=C3)cc1)NC(=O)Nc1ccc(Cl)c(Br)c1
REMARK SMILES IDX 11 1 10 2 9 3 8 4 7 5 5 6 6 7 4 8 3 9 2 10 1 11 73 12 74 13
REMARK SMILES IDX 75 15 76 16 77 18 78 19 84 20 79 21 82 22 80 23 83 24 81 25
REMARK SMILES IDX 12 26 13 27 14 28 15 29 16 30 17 31 18 32 19 33 20 34 72 35
REMARK SMILES IDX 21 36 71 37 22 38 23 39 24 40 65 41 25 42 70 43 64 44 66 45
REMARK SMILES IDX 26 46 69 47 63 48 62 49 27 51 53 52 36 53 52 54 37 55 40 56
REMARK SMILES IDX 51 57 67 58 38 59 39 60 50 62 68 63 41 64 28 65 29 66 34 67
REMARK SMILES IDX 30 68 31 69 33 70 35 71 32 72 54 73 55 74 60 75 56 76 57 77
REMARK SMILES IDX 59 78 61 79 58 80 42 81 43 82 48 83 44 84 45 85 47 86 49 87
REMARK SMILES IDX 46 88
REMARK H PARENT 73 14 76 17 66 50 40 61
REMARK Flexibility Score: inf
ROOT
ATOM      1  C   UNL A   1      33.651  35.411  30.126  1.00  0.00     0.188 C 
ENDROOT
BRANCH   1   2
ATOM      2  O   UNL A   1      33.263  34.200  29.494  1.00  0.00    -0.376 OA
BRANCH   2   3
ATOM      3  C   UNL A   1      34.338  33.411  28.972  1.00  0.00     0.202 C 
BRANCH   3   4
ATOM      4  C   UNL A   1      33.907  32.426  27.876  1.00  0.00     0.261 C 
BRANCH   4   5
ATOM      5  O   UNL A   1      34.117  31.063  28.315  1.00  0.00    -0.463 OA
BRANCH   5   6
ATOM      6  C   UNL A   1      34.135  30.096  27.367  1.00  0.00     0.305 C 
ATOM      7  O   UNL A   1      35.151  29.620  26.875  1.00  0.00    -0.252 OA
BRANCH   6   8
ATOM      8  C   UNL A   1      32.751  29.611  26.972  1.00  0.00     0.125 C 
BRANCH   8   9
ATOM      9  C   UNL A   1      32.127  30.069  25.646  1.00  0.00     0.036 C 
BRANCH   9  10
ATOM     10  C   UNL A   1      32.278  29.158  24.413  1.00  0.00     0.081 C 
ATOM     11  C   UNL A   1      33.647  29.240  23.746  1.00  0.00     0.031 C 
BRANCH  10  12
ATOM     12  N   UNL A   1      31.206  29.430  23.456  1.00  0.00    -0.335 N 
ATOM     13  C   UNL A   1      30.695  28.813  22.377  1.00  0.00     0.319 C 
ATOM     14  H   UNL A   1      30.743  30.277  23.652  1.00  0.00     0.165 HD
ATOM     15  O   UNL A   1      29.973  29.478  21.625  1.00  0.00    -0.248 OA
ATOM     16  N   UNL A   1      31.029  27.561  22.001  1.00  0.00    -0.308 N 
ATOM     17  H   UNL A   1      30.813  27.353  21.064  1.00  0.00     0.171 HD
BRANCH  16  18
ATOM     18  C   UNL A   1      31.622  26.508  22.697  1.00  0.00     0.044 A 
ATOM     19  C   UNL A   1      32.900  26.123  22.293  1.00  0.00     0.028 A 
ATOM     20  C   UNL A   1      31.011  25.881  23.784  1.00  0.00     0.043 A 
ATOM     21  C   UNL A   1      33.637  25.241  23.081  1.00  0.00     0.024 A 
ATOM     22  C   UNL A   1      31.746  24.988  24.571  1.00  0.00     0.038 A 
ATOM     23  C   UNL A   1      33.075  24.697  24.240  1.00  0.00     0.055 A 
ATOM     24  Br  UNL A   1      30.895  24.276  26.113  1.00  0.00    -0.049 Br
ATOM     25  Cl  UNL A   1      34.096  23.716  25.229  1.00  0.00    -0.083 Cl
ENDBRANCH  16  18
ENDBRANCH  10  12
ENDBRANCH   9  10
ENDBRANCH   8   9
ENDBRANCH   6   8
ENDBRANCH   5   6
ENDBRANCH   4   5
ENDBRANCH   3   4
ENDBRANCH   2   3
ENDBRANCH   1   2
BRANCH   1  26
ATOM     26  C   UNL A   1      33.002  35.668  31.473  1.00  0.00     0.188 C 
BRANCH  26  27
ATOM     27  O   UNL A   1      33.861  36.183  32.485  1.00  0.00    -0.376 OA
BRANCH  27  28
ATOM     28  C   UNL A   1      34.804  35.219  32.970  1.00  0.00     0.202 C 
BRANCH  28  29
ATOM     29  C   UNL A   1      34.190  33.827  33.203  1.00  0.00     0.261 C 
BRANCH  29  30
ATOM     30  O   UNL A   1      34.961  32.797  32.558  1.00  0.00    -0.460 OA
BRANCH  30  31
ATOM     31  C   UNL A   1      36.059  32.388  33.249  1.00  0.00     0.338 C 
ATOM     32  O   UNL A   1      36.276  32.542  34.434  1.00  0.00    -0.246 OA
BRANCH  31  33
ATOM     33  C   UNL A   1      36.896  31.514  32.382  1.00  0.00     0.060 A 
ATOM     34  C   UNL A   1      37.870  30.725  33.016  1.00  0.00     0.016 A 
ATOM     35  C   UNL A   1      36.724  31.428  30.998  1.00  0.00     0.016 A 
ATOM     36  C   UNL A   1      38.728  29.923  32.267  1.00  0.00     0.010 A 
ATOM     37  C   UNL A   1      37.589  30.629  30.242  1.00  0.00     0.010 A 
ATOM     38  C   UNL A   1      38.636  29.930  30.872  1.00  0.00    -0.014 A 
BRANCH  38  39
ATOM     39  C   UNL A   1      39.811  29.485  30.082  1.00  0.00     0.031 A 
ATOM     40  C   UNL A   1      40.923  30.482  29.878  1.00  0.00     0.074 A 
ATOM     41  C   UNL A   1      39.931  28.230  29.616  1.00  0.00     0.049 A 
ATOM     42  N   UNL A   1      42.057  30.353  29.237  1.00  0.00    -0.248 NA
ATOM     43  C   UNL A   1      40.724  31.813  30.477  1.00  0.00     0.031 C 
ATOM     44  C   UNL A   1      38.950  27.161  29.789  1.00  0.00     0.029 A 
ATOM     45  N   UNL A   1      40.946  27.646  28.899  1.00  0.00    -0.354 N 
ATOM     46  C   UNL A   1      42.690  31.585  29.345  1.00  0.00     0.074 A 
ATOM     47  C   UNL A   1      41.803  32.461  30.073  1.00  0.00     0.031 C 
ATOM     48  C   UNL A   1      39.412  26.047  29.192  1.00  0.00     0.029 A 
ATOM     49  C   UNL A   1      40.707  26.333  28.576  1.00  0.00     0.049 A 
ATOM     50  H   UNL A   1      41.767  28.124  28.642  1.00  0.00     0.167 HD
ATOM     51  C   UNL A   1      43.910  31.954  28.891  1.00  0.00     0.037 A 
ATOM     52  C   UNL A   1      41.452  25.470  27.856  1.00  0.00     0.037 A 
ATOM     53  C   UNL A   1      44.798  31.079  28.176  1.00  0.00     0.049 A 
ATOM     54  C   UNL A   1      42.783  25.922  27.309  1.00  0.00     0.074 A 
ATOM     55  C   UNL A   1      46.063  31.347  27.687  1.00  0.00     0.029 A 
ATOM     56  N   UNL A   1      44.506  29.765  27.841  1.00  0.00    -0.354 N 
ATOM     57  N   UNL A   1      43.386  27.080  27.436  1.00  0.00    -0.248 NA
ATOM     58  C   UNL A   1      43.544  24.937  26.526  1.00  0.00     0.031 C 
ATOM     59  C   UNL A   1      46.514  30.211  27.006  1.00  0.00     0.029 A 
ATOM     60  C   UNL A   1      45.559  29.215  27.132  1.00  0.00     0.049 A 
ATOM     61  H   UNL A   1      43.674  29.294  28.075  1.00  0.00     0.167 HD
ATOM     62  C   UNL A   1      44.612  26.948  26.793  1.00  0.00     0.074 A 
ATOM     63  C   UNL A   1      44.668  25.595  26.282  1.00  0.00     0.031 C 
ATOM     64  C   UNL A   1      45.607  27.859  26.646  1.00  0.00     0.037 A 
BRANCH  51  65
ATOM     65  C   UNL A   1      44.332  33.376  29.128  1.00  0.00     0.057 A 
ATOM     66  C   UNL A   1      44.078  34.396  28.199  1.00  0.00     0.134 A 
ATOM     67  C   UNL A   1      45.002  33.730  30.305  1.00  0.00     0.134 A 
ATOM     68  F   UNL A   1      43.461  34.123  27.040  1.00  0.00    -0.206 F 
ATOM     69  C   UNL A   1      44.501  35.708  28.423  1.00  0.00     0.040 A 
ATOM     70  C   UNL A   1      45.400  35.044  30.554  1.00  0.00     0.040 A 
ATOM     71  F   UNL A   1      45.278  32.804  31.237  1.00  0.00    -0.206 F 
ATOM     72  C   UNL A   1      45.158  36.036  29.607  1.00  0.00     0.006 A 
ENDBRANCH  51  65
BRANCH  52  73
ATOM     73  C   UNL A   1      40.971  24.085  27.614  1.00  0.00     0.057 A 
ATOM     74  C   UNL A   1      41.553  22.990  28.265  1.00  0.00     0.134 A 
ATOM     75  C   UNL A   1      39.946  23.817  26.699  1.00  0.00     0.134 A 
ATOM     76  F   UNL A   1      42.557  23.177  29.134  1.00  0.00    -0.206 F 
ATOM     77  C   UNL A   1      41.150  21.680  27.998  1.00  0.00     0.040 A 
ATOM     78  C   UNL A   1      39.513  22.514  26.444  1.00  0.00     0.040 A 
ATOM     79  F   UNL A   1      39.348  24.820  26.040  1.00  0.00    -0.206 F 
ATOM     80  C   UNL A   1      40.123  21.440  27.088  1.00  0.00     0.006 A 
ENDBRANCH  52  73
BRANCH  64  81
ATOM     81  C   UNL A   1      46.868  27.403  25.967  1.00  0.00     0.057 A 
ATOM     82  C   UNL A   1      47.070  27.539  24.589  1.00  0.00     0.134 A 
ATOM     83  C   UNL A   1      47.910  26.844  26.720  1.00  0.00     0.134 A 
ATOM     84  F   UNL A   1      46.111  28.061  23.808  1.00  0.00    -0.206 F 
ATOM     85  C   UNL A   1      48.246  27.100  23.976  1.00  0.00     0.040 A 
ATOM     86  C   UNL A   1      49.104  26.434  26.124  1.00  0.00     0.040 A 
ATOM     87  F   UNL A   1      47.792  26.698  28.048  1.00  0.00    -0.206 F 
ATOM     88  C   UNL A   1      49.269  26.550  24.747  1.00  0.00     0.006 A 
ENDBRANCH  64  81
ENDBRANCH  38  39
ENDBRANCH  31  33
ENDBRANCH  30  31
ENDBRANCH  29  30
ENDBRANCH  28  29
ENDBRANCH  27  28
ENDBRANCH  26  27
ENDBRANCH   1  26
TORSDOF 21
ENDMDL
MODEL 2
REMARK VINA RESULT:      -9.8      1.526      6.395
REMARK SMILES C[C@@H](CCC(=O)OCCOCCOCCOC(=O)c1ccc(-c2c3nc(c(-c4c(F)cccc4F)c4ccc([nH]4)c(-c4c(F)cccc4F)c4nc(c(-c5c(F)cccc5F)c5ccc2[nH]5)C=C4)C=C3)cc1)NC(=O)Nc1ccc(Cl)c(Br)c1
REMARK SMILES IDX 11 1 10 2 9 3 8 4 7 5 5 6 6 7 4 8 3 9 2 10 1 11 73 12 74 13
REMARK SMILES IDX 75 15 76 16 77 18 78 19 84 20 79 21 82 22 80 23 83 24 81 25
REMARK SMILES IDX 12 26 13 27 14 28 15 29 16 30 17 31 18 32 19 33 20 34 72 35
REMARK SMILES IDX 21 36 71 37 22 38 23 39 24 40 65 41 25 42 70 43 64 44 66 45
REMARK SMILES IDX 26 46 69 47 63 48 62 49 27 51 53 52 36 53 52 54 37 55 40 56
REMARK SMILES IDX 51 57 67 58 38 59 39 60 50 62 68 63 41 64 28 65 29 66 34 67
REMARK SMILES IDX 30 68 31 69 33 70 35 71 32 72 54 73 55 74 60 75 56 76 57 77
REMARK SMILES IDX 59 78 61 79 58 80 42 81 43 82 48 83 44 84 45 85 47 86 49 87
REMARK SMILES IDX 46 88
REMARK H PARENT 73 14 76 17 66 50 40 61
REMARK Flexibility Score: inf
ROOT
ATOM      1  C   UNL A   1      34.375  33.948  28.517  1.00  0.00     0.188 C 
ENDROOT
BRANCH   1   2
ATOM      2  O   UNL A   1      33.466  32.996  27.984  1.00  0.00    -0.376 OA
BRANCH   2   3
ATOM      3  C   UNL A   1      33.953  31.652  27.924  1.00  0.00     0.202 C 
BRANCH   3   4
ATOM      4  C   UNL A   1      33.288  30.800  26.834  1.00  0.00     0.261 C 
BRANCH   4   5
ATOM      5  O   UNL A   1      33.720  29.423  26.938  1.00  0.00    -0.463 OA
BRANCH   5   6
ATOM      6  C   UNL A   1      32.761  28.473  27.054  1.00  0.00     0.305 C 
ATOM      7  O   UNL A   1      31.691  28.629  27.630  1.00  0.00    -0.252 OA
BRANCH   6   8
ATOM      8  C   UNL A   1      33.118  27.167  26.366  1.00  0.00     0.125 C 
BRANCH   8   9
ATOM      9  C   UNL A   1      33.673  27.179  24.935  1.00  0.00     0.036 C 
BRANCH   9  10
ATOM     10  C   UNL A   1      32.807  26.580  23.810  1.00  0.00     0.081 C 
ATOM     11  C   UNL A   1      33.314  26.891  22.405  1.00  0.00     0.031 C 
BRANCH  10  12
ATOM     12  N   UNL A   1      31.415  26.997  23.974  1.00  0.00    -0.335 N 
ATOM     13  C   UNL A   1      30.241  26.380  24.193  1.00  0.00     0.319 C 
ATOM     14  H   UNL A   1      31.312  27.974  23.907  1.00  0.00     0.165 HD
ATOM     15  O   UNL A   1      29.207  27.024  23.985  1.00  0.00    -0.248 OA
ATOM     16  N   UNL A   1      30.128  25.070  24.496  1.00  0.00    -0.308 N 
ATOM     17  H   UNL A   1      29.229  24.700  24.345  1.00  0.00     0.171 HD
BRANCH  16  18
ATOM     18  C   UNL A   1      31.050  24.146  24.987  1.00  0.00     0.044 A 
ATOM     19  C   UNL A   1      31.516  24.346  26.286  1.00  0.00     0.028 A 
ATOM     20  C   UNL A   1      31.468  23.034  24.255  1.00  0.00     0.043 A 
ATOM     21  C   UNL A   1      32.255  23.346  26.916  1.00  0.00     0.024 A 
ATOM     22  C   UNL A   1      32.217  22.033  24.882  1.00  0.00     0.038 A 
ATOM     23  C   UNL A   1      32.579  22.173  26.228  1.00  0.00     0.055 A 
ATOM     24  Br  UNL A   1      32.636  20.484  23.864  1.00  0.00    -0.049 Br
ATOM     25  Cl  UNL A   1      33.384  20.930  27.117  1.00  0.00    -0.083 Cl
ENDBRANCH  16  18
ENDBRANCH  10  12
ENDBRANCH   9  10
ENDBRANCH   8   9
ENDBRANCH   6   8
ENDBRANCH   5   6
ENDBRANCH   4   5
ENDBRANCH   3   4
ENDBRANCH   2   3
ENDBRANCH   1   2
BRANCH   1  26
ATOM     26  C   UNL A   1      33.821  34.808  29.638  1.00  0.00     0.188 C 
BRANCH  26  27
ATOM     27  O   UNL A   1      33.667  34.161  30.896  1.00  0.00    -0.376 OA
BRANCH  27  28
ATOM     28  C   UNL A   1      34.179  34.929  31.992  1.00  0.00     0.202 C 
BRANCH  28  29
ATOM     29  C   UNL A   1      35.532  34.417  32.519  1.00  0.00     0.261 C 
BRANCH  29  30
ATOM     30  O   UNL A   1      35.908  33.179  31.888  1.00  0.00    -0.460 OA
BRANCH  30  31
ATOM     31  C   UNL A   1      36.589  32.316  32.688  1.00  0.00     0.338 C 
ATOM     32  O   UNL A   1      36.369  32.074  33.858  1.00  0.00    -0.246 OA
BRANCH  31  33
ATOM     33  C   UNL A   1      37.540  31.519  31.865  1.00  0.00     0.060 A 
ATOM     34  C   UNL A   1      38.540  30.807  32.548  1.00  0.00     0.016 A 
ATOM     35  C   UNL A   1      37.449  31.429  30.473  1.00  0.00     0.016 A 
ATOM     36  C   UNL A   1      39.499  30.083  31.843  1.00  0.00     0.010 A 
ATOM     37  C   UNL A   1      38.416  30.709  29.762  1.00  0.00     0.010 A 
ATOM     38  C   UNL A   1      39.482  30.093  30.445  1.00  0.00    -0.014 A 
BRANCH  38  39
ATOM     39  C   UNL A   1      40.729  29.752  29.718  1.00  0.00     0.031 A 
ATOM     40  C   UNL A   1      40.835  28.362  29.143  1.00  0.00     0.074 A 
ATOM     41  C   UNL A   1      41.709  30.648  29.511  1.00  0.00     0.049 A 
ATOM     42  N   UNL A   1      41.806  27.809  28.462  1.00  0.00    -0.248 NA
ATOM     43  C   UNL A   1      39.684  27.472  29.373  1.00  0.00     0.031 C 
ATOM     44  C   UNL A   1      41.705  32.035  29.972  1.00  0.00     0.029 A 
ATOM     45  N   UNL A   1      42.904  30.515  28.847  1.00  0.00    -0.354 N 
ATOM     46  C   UNL A   1      41.387  26.510  28.201  1.00  0.00     0.074 A 
ATOM     47  C   UNL A   1      40.098  26.341  28.829  1.00  0.00     0.031 C 
ATOM     48  C   UNL A   1      42.847  32.627  29.576  1.00  0.00     0.029 A 
ATOM     49  C   UNL A   1      43.670  31.655  28.858  1.00  0.00     0.049 A 
ATOM     50  H   UNL A   1      43.183  29.681  28.405  1.00  0.00     0.167 HD
ATOM     51  C   UNL A   1      42.012  25.544  27.489  1.00  0.00     0.037 A 
ATOM     52  C   UNL A   1      44.898  31.876  28.349  1.00  0.00     0.037 A 
ATOM     53  C   UNL A   1      43.291  25.716  26.855  1.00  0.00     0.049 A 
ATOM     54  C   UNL A   1      45.603  30.765  27.610  1.00  0.00     0.074 A 
ATOM     55  C   UNL A   1      44.005  24.807  26.096  1.00  0.00     0.029 A 
ATOM     56  N   UNL A   1      44.049  26.875  26.916  1.00  0.00    -0.354 N 
ATOM     57  N   UNL A   1      45.190  29.549  27.346  1.00  0.00    -0.248 NA
ATOM     58  C   UNL A   1      46.943  31.067  27.086  1.00  0.00     0.031 C 
ATOM     59  C   UNL A   1      45.223  25.400  25.744  1.00  0.00     0.029 A 
ATOM     60  C   UNL A   1      45.235  26.699  26.225  1.00  0.00     0.049 A 
ATOM     61  H   UNL A   1      43.782  27.702  27.380  1.00  0.00     0.167 HD
ATOM     62  C   UNL A   1      46.195  28.958  26.588  1.00  0.00     0.074 A 
ATOM     63  C   UNL A   1      47.235  29.953  26.431  1.00  0.00     0.031 C 
ATOM     64  C   UNL A   1      46.251  27.708  26.062  1.00  0.00     0.037 A 
BRANCH  51  65
ATOM     65  C   UNL A   1      41.333  24.208  27.395  1.00  0.00     0.057 A 
ATOM     66  C   UNL A   1      41.761  23.097  28.135  1.00  0.00     0.134 A 
ATOM     67  C   UNL A   1      40.230  24.033  26.551  1.00  0.00     0.134 A 
ATOM     68  F   UNL A   1      42.826  23.188  28.946  1.00  0.00    -0.206 F 
ATOM     69  C   UNL A   1      41.134  21.855  28.016  1.00  0.00     0.040 A 
ATOM     70  C   UNL A   1      39.575  22.805  26.448  1.00  0.00     0.040 A 
ATOM     71  F   UNL A   1      39.767  25.054  25.813  1.00  0.00    -0.206 F 
ATOM     72  C   UNL A   1      40.033  21.708  27.175  1.00  0.00     0.006 A 
ENDBRANCH  51  65
BRANCH  52  73
ATOM     73  C   UNL A   1      45.547  33.203  28.505  1.00  0.00     0.057 A 
ATOM     74  C   UNL A   1      45.382  34.210  27.546  1.00  0.00     0.134 A 
ATOM     75  C   UNL A   1      46.377  33.487  29.596  1.00  0.00     0.134 A 
ATOM     76  F   UNL A   1      44.620  33.993  26.464  1.00  0.00    -0.206 F 
ATOM     77  C   UNL A   1      46.037  35.439  27.652  1.00  0.00     0.040 A 
ATOM     78  C   UNL A   1      47.016  34.722  29.730  1.00  0.00     0.040 A 
ATOM     79  F   UNL A   1      46.580  32.566  30.549  1.00  0.00    -0.206 F 
ATOM     80  C   UNL A   1      46.853  35.699  28.750  1.00  0.00     0.006 A 
ENDBRANCH  52  73
BRANCH  64  81
ATOM     81  C   UNL A   1      47.441  27.370  25.207  1.00  0.00     0.057 A 
ATOM     82  C   UNL A   1      47.495  27.672  23.842  1.00  0.00     0.134 A 
ATOM     83  C   UNL A   1      48.565  26.755  25.777  1.00  0.00     0.134 A 
ATOM     84  F   UNL A   1      46.451  28.255  23.231  1.00  0.00    -0.206 F 
ATOM     85  C   UNL A   1      48.606  27.340  23.063  1.00  0.00     0.040 A 
ATOM     86  C   UNL A   1      49.695  26.450  25.017  1.00  0.00     0.040 A 
ATOM     87  F   UNL A   1      48.589  26.452  27.083  1.00  0.00    -0.206 F 
ATOM     88  C   UNL A   1      49.713  26.732  23.654  1.00  0.00     0.006 A 
ENDBRANCH  64  81
ENDBRANCH  38  39
ENDBRANCH  31  33
ENDBRANCH  30  31
ENDBRANCH  29  30
ENDBRANCH  28  29
ENDBRANCH  27  28
ENDBRANCH  26  27
ENDBRANCH   1  26
TORSDOF 21
ENDMDL
MODEL 3
REMARK VINA RESULT:      -9.8      1.944      2.800
REMARK SMILES C[C@@H](CCC(=O)OCCOCCOCCOC(=O)c1ccc(-c2c3nc(c(-c4c(F)cccc4F)c4ccc([nH]4)c(-c4c(F)cccc4F)c4nc(c(-c5c(F)cccc5F)c5ccc2[nH]5)C=C4)C=C3)cc1)NC(=O)Nc1ccc(Cl)c(Br)c1
REMARK SMILES IDX 11 1 10 2 9 3 8 4 7 5 5 6 6 7 4 8 3 9 2 10 1 11 73 12 74 13
REMARK SMILES IDX 75 15 76 16 77 18 78 19 84 20 79 21 82 22 80 23 83 24 81 25
REMARK SMILES IDX 12 26 13 27 14 28 15 29 16 30 17 31 18 32 19 33 20 34 72 35
REMARK SMILES IDX 21 36 71 37 22 38 23 39 24 40 65 41 25 42 70 43 64 44 66 45
REMARK SMILES IDX 26 46 69 47 63 48 62 49 27 51 53 52 36 53 52 54 37 55 40 56
REMARK SMILES IDX 51 57 67 58 38 59 39 60 50 62 68 63 41 64 28 65 29 66 34 67
REMARK SMILES IDX 30 68 31 69 33 70 35 71 32 72 54 73 55 74 60 75 56 76 57 77
REMARK SMILES IDX 59 78 61 79 58 80 42 81 43 82 48 83 44 84 45 85 47 86 49 87
REMARK SMILES IDX 46 88
REMARK H PARENT 73 14 76 17 66 50 40 61
REMARK Flexibility Score: inf
ROOT
ATOM      1  C   UNL A   1      35.275  33.062  28.577  1.00  0.00     0.188 C 
ENDROOT
BRANCH   1   2
ATOM      2  O   UNL A   1      34.471  32.495  27.554  1.00  0.00    -0.376 OA
BRANCH   2   3
ATOM      3  C   UNL A   1      33.671  31.377  27.953  1.00  0.00     0.202 C 
BRANCH   3   4
ATOM      4  C   UNL A   1      33.678  30.219  26.945  1.00  0.00     0.261 C 
BRANCH   4   5
ATOM      5  O   UNL A   1      33.564  28.952  27.634  1.00  0.00    -0.463 OA
BRANCH   5   6
ATOM      6  C   UNL A   1      32.490  28.178  27.347  1.00  0.00     0.305 C 
ATOM      7  O   UNL A   1      31.457  28.147  28.005  1.00  0.00    -0.252 OA
BRANCH   6   8
ATOM      8  C   UNL A   1      32.663  27.347  26.088  1.00  0.00     0.125 C 
BRANCH   8   9
ATOM      9  C   UNL A   1      32.464  25.826  26.138  1.00  0.00     0.036 C 
BRANCH   9  10
ATOM     10  C   UNL A   1      31.148  25.241  25.589  1.00  0.00     0.081 C 
ATOM     11  C   UNL A   1      30.218  26.282  24.973  1.00  0.00     0.031 C 
BRANCH  10  12
ATOM     12  N   UNL A   1      30.468  24.476  26.633  1.00  0.00    -0.335 N 
ATOM     13  C   UNL A   1      30.267  23.173  26.901  1.00  0.00     0.319 C 
ATOM     14  H   UNL A   1      30.054  25.060  27.309  1.00  0.00     0.165 HD
ATOM     15  O   UNL A   1      29.388  22.886  27.720  1.00  0.00    -0.248 OA
ATOM     16  N   UNL A   1      30.873  22.170  26.234  1.00  0.00    -0.308 N 
ATOM     17  H   UNL A   1      30.427  21.298  26.330  1.00  0.00     0.171 HD
BRANCH  16  18
ATOM     18  C   UNL A   1      32.016  22.140  25.435  1.00  0.00     0.044 A 
ATOM     19  C   UNL A   1      31.848  22.423  24.080  1.00  0.00     0.028 A 
ATOM     20  C   UNL A   1      33.290  21.891  25.947  1.00  0.00     0.043 A 
ATOM     21  C   UNL A   1      32.966  22.634  23.275  1.00  0.00     0.024 A 
ATOM     22  C   UNL A   1      34.414  22.092  25.139  1.00  0.00     0.038 A 
ATOM     23  C   UNL A   1      34.252  22.502  23.809  1.00  0.00     0.055 A 
ATOM     24  Br  UNL A   1      36.121  21.865  25.940  1.00  0.00    -0.049 Br
ATOM     25  Cl  UNL A   1      35.581  22.905  22.783  1.00  0.00    -0.083 Cl
ENDBRANCH  16  18
ENDBRANCH  10  12
ENDBRANCH   9  10
ENDBRANCH   8   9
ENDBRANCH   6   8
ENDBRANCH   5   6
ENDBRANCH   4   5
ENDBRANCH   3   4
ENDBRANCH   2   3
ENDBRANCH   1   2
BRANCH   1  26
ATOM     26  C   UNL A   1      34.726  34.335  29.195  1.00  0.00     0.188 C 
BRANCH  26  27
ATOM     27  O   UNL A   1      34.033  34.175  30.428  1.00  0.00    -0.376 OA
BRANCH  27  28
ATOM     28  C   UNL A   1      34.715  34.769  31.539  1.00  0.00     0.202 C 
BRANCH  28  29
ATOM     29  C   UNL A   1      36.202  34.382  31.623  1.00  0.00     0.261 C 
BRANCH  29  30
ATOM     30  O   UNL A   1      36.452  33.492  32.727  1.00  0.00    -0.460 OA
BRANCH  30  31
ATOM     31  C   UNL A   1      35.886  32.262  32.607  1.00  0.00     0.338 C 
ATOM     32  O   UNL A   1      34.738  31.956  32.861  1.00  0.00    -0.246 OA
BRANCH  31  33
ATOM     33  C   UNL A   1      36.826  31.348  31.900  1.00  0.00     0.060 A 
ATOM     34  C   UNL A   1      37.923  30.864  32.632  1.00  0.00     0.016 A 
ATOM     35  C   UNL A   1      36.635  30.937  30.578  1.00  0.00     0.016 A 
ATOM     36  C   UNL A   1      38.874  30.048  32.022  1.00  0.00     0.010 A 
ATOM     37  C   UNL A   1      37.593  30.125  29.961  1.00  0.00     0.010 A 
ATOM     38  C   UNL A   1      38.749  29.737  30.665  1.00  0.00    -0.014 A 
BRANCH  38  39
ATOM     39  C   UNL A   1      39.958  29.303  29.923  1.00  0.00     0.031 A 
ATOM     40  C   UNL A   1      41.068  30.310  29.763  1.00  0.00     0.074 A 
ATOM     41  C   UNL A   1      40.108  28.049  29.463  1.00  0.00     0.049 A 
ATOM     42  N   UNL A   1      42.228  30.191  29.169  1.00  0.00    -0.248 NA
ATOM     43  C   UNL A   1      40.833  31.639  30.353  1.00  0.00     0.031 C 
ATOM     44  C   UNL A   1      39.131  26.971  29.597  1.00  0.00     0.029 A 
ATOM     45  N   UNL A   1      41.156  27.474  28.788  1.00  0.00    -0.354 N 
ATOM     46  C   UNL A   1      42.845  31.429  29.301  1.00  0.00     0.074 A 
ATOM     47  C   UNL A   1      41.922  32.296  29.993  1.00  0.00     0.031 C 
ATOM     48  C   UNL A   1      39.626  25.861  29.020  1.00  0.00     0.029 A 
ATOM     49  C   UNL A   1      40.942  26.159  28.455  1.00  0.00     0.049 A 
ATOM     50  H   UNL A   1      41.982  27.960  28.563  1.00  0.00     0.167 HD
ATOM     51  C   UNL A   1      44.079  31.809  28.896  1.00  0.00     0.037 A 
ATOM     52  C   UNL A   1      41.723  25.303  27.766  1.00  0.00     0.037 A 
ATOM     53  C   UNL A   1      45.003  30.942  28.217  1.00  0.00     0.049 A 
ATOM     54  C   UNL A   1      43.071  25.767  27.272  1.00  0.00     0.074 A 
ATOM     55  C   UNL A   1      46.284  31.221  27.779  1.00  0.00     0.029 A 
ATOM     56  N   UNL A   1      44.737  29.626  27.872  1.00  0.00    -0.354 N 
ATOM     57  N   UNL A   1      43.657  26.930  27.424  1.00  0.00    -0.248 NA
ATOM     58  C   UNL A   1      43.871  24.789  26.521  1.00  0.00     0.031 C 
ATOM     59  C   UNL A   1      46.772  30.089  27.117  1.00  0.00     0.029 A 
ATOM     60  C   UNL A   1      45.822  29.085  27.206  1.00  0.00     0.049 A 
ATOM     61  H   UNL A   1      43.899  29.146  28.072  1.00  0.00     0.167 HD
ATOM     62  C   UNL A   1      44.909  26.809  26.830  1.00  0.00     0.074 A 
ATOM     63  C   UNL A   1      44.998  25.456  26.322  1.00  0.00     0.031 C 
ATOM     64  C   UNL A   1      45.901  27.729  26.722  1.00  0.00     0.037 A 
BRANCH  51  65
ATOM     65  C   UNL A   1      44.479  33.235  29.148  1.00  0.00     0.057 A 
ATOM     66  C   UNL A   1      44.340  34.233  28.174  1.00  0.00     0.134 A 
ATOM     67  C   UNL A   1      45.008  33.613  30.388  1.00  0.00     0.134 A 
ATOM     68  F   UNL A   1      43.862  33.936  26.957  1.00  0.00    -0.206 F 
ATOM     69  C   UNL A   1      44.741  35.549  28.416  1.00  0.00     0.040 A 
ATOM     70  C   UNL A   1      45.381  34.931  30.652  1.00  0.00     0.040 A 
ATOM     71  F   UNL A   1      45.168  32.708  31.366  1.00  0.00    -0.206 F 
ATOM     72  C   UNL A   1      45.257  35.903  29.661  1.00  0.00     0.006 A 
ENDBRANCH  51  65
BRANCH  52  73
ATOM     73  C   UNL A   1      41.265  23.913  27.506  1.00  0.00     0.057 A 
ATOM     74  C   UNL A   1      40.261  23.643  26.567  1.00  0.00     0.134 A 
ATOM     75  C   UNL A   1      41.790  22.826  28.213  1.00  0.00     0.134 A 
ATOM     76  F   UNL A   1      39.698  24.644  25.874  1.00  0.00    -0.206 F 
ATOM     77  C   UNL A   1      39.781  22.349  26.359  1.00  0.00     0.040 A 
ATOM     78  C   UNL A   1      41.339  21.522  27.995  1.00  0.00     0.040 A 
ATOM     79  F   UNL A   1      42.752  23.015  29.129  1.00  0.00    -0.206 F 
ATOM     80  C   UNL A   1      40.324  21.282  27.071  1.00  0.00     0.006 A 
ENDBRANCH  52  73
BRANCH  64  81
ATOM     81  C   UNL A   1      47.192  27.285  26.094  1.00  0.00     0.057 A 
ATOM     82  C   UNL A   1      48.221  26.688  26.832  1.00  0.00     0.134 A 
ATOM     83  C   UNL A   1      47.392  27.434  24.714  1.00  0.00     0.134 A 
ATOM     84  F   UNL A   1      48.098  26.520  28.158  1.00  0.00    -0.206 F 
ATOM     85  C   UNL A   1      49.417  26.292  26.230  1.00  0.00     0.040 A 
ATOM     86  C   UNL A   1      48.568  27.010  24.095  1.00  0.00     0.040 A 
ATOM     87  F   UNL A   1      46.442  27.983  23.942  1.00  0.00    -0.206 F 
ATOM     88  C   UNL A   1      49.590  26.448  24.856  1.00  0.00     0.006 A 
ENDBRANCH  64  81
ENDBRANCH  38  39
ENDBRANCH  31  33
ENDBRANCH  30  31
ENDBRANCH  29  30
ENDBRANCH  28  29
ENDBRANCH  27  28
ENDBRANCH  26  27
ENDBRANCH   1  26
TORSDOF 21
ENDMDL
