MODEL 1
REMARK VINA RESULT:     -10.3      0.000      0.000
REMARK SMILES O=C(OCCOCCOCCOC(=O)c1ccc(-n2cc(CSc3nc4ccccc4c(=O)n3-c3ccc(Br)cc3)nn2)cc1)c1ccc(-c2c3nc(c(-c4c(F)cccc4F)c4ccc([nH]4)c(-c4c(F)cccc4F)c4nc(c(-c5c(F)cccc5F)c5ccc2[nH]5)C=C4)C=C3)cc1
REMARK SMILES IDX 9 1 8 2 7 3 6 4 5 5 4 6 3 7 2 8 1 9 46 10 47 11 99 12 48 13
REMARK SMILES IDX 98 14 49 15 50 16 51 17 92 18 52 19 97 20 91 21 93 22 53 23
REMARK SMILES IDX 96 24 90 25 89 26 54 28 80 29 63 30 79 31 64 32 67 33 78 34
REMARK SMILES IDX 94 35 65 36 66 37 77 39 95 40 68 41 55 42 56 43 61 44 57 45
REMARK SMILES IDX 58 46 60 47 62 48 59 49 81 50 82 51 87 52 83 53 84 54 86 55
REMARK SMILES IDX 88 56 85 57 69 58 70 59 75 60 71 61 72 62 74 63 76 64 73 65
REMARK SMILES IDX 10 66 11 67 12 68 13 69 14 70 15 71 16 72 45 73 17 74 44 75
REMARK SMILES IDX 18 76 19 77 20 78 43 79 21 80 42 81 22 82 23 83 24 84 25 85
REMARK SMILES IDX 34 86 26 87 32 88 27 89 31 90 33 91 28 92 30 93 29 94 35 95
REMARK SMILES IDX 36 96 41 97 37 98 40 99 38 100 39 101
REMARK H PARENT 93 27 67 38
REMARK Flexibility Score: inf
ROOT
ATOM      1  O   UNL A   1      30.410  25.900  26.556  1.00  0.00    -0.376 OA
ENDROOT
BRANCH   1   2
ATOM      2  C   UNL A   1      31.341  26.966  26.425  1.00  0.00     0.188 C 
BRANCH   2   3
ATOM      3  C   UNL A   1      31.463  28.038  27.527  1.00  0.00     0.188 C 
BRANCH   3   4
ATOM      4  O   UNL A   1      32.694  28.745  27.507  1.00  0.00    -0.376 OA
BRANCH   4   5
ATOM      5  C   UNL A   1      32.627  30.074  27.027  1.00  0.00     0.202 C 
BRANCH   5   6
ATOM      6  C   UNL A   1      33.845  30.915  27.407  1.00  0.00     0.261 C 
BRANCH   6   7
ATOM      7  O   UNL A   1      33.651  31.835  28.499  1.00  0.00    -0.460 OA
BRANCH   7   8
ATOM      8  C   UNL A   1      34.517  32.613  29.172  1.00  0.00     0.338 C 
ATOM      9  O   UNL A   1      34.324  33.825  29.230  1.00  0.00    -0.246 OA
BRANCH   8  10
ATOM     10  C   UNL A   1      35.811  32.099  29.685  1.00  0.00     0.060 A 
ATOM     11  C   UNL A   1      36.002  31.554  30.953  1.00  0.00     0.016 A 
ATOM     12  C   UNL A   1      36.925  32.283  28.843  1.00  0.00     0.016 A 
ATOM     13  C   UNL A   1      37.286  31.253  31.395  1.00  0.00     0.010 A 
ATOM     14  C   UNL A   1      38.212  31.999  29.287  1.00  0.00     0.010 A 
ATOM     15  C   UNL A   1      38.393  31.541  30.591  1.00  0.00    -0.014 A 
BRANCH  15  16
ATOM     16  C   UNL A   1      39.706  31.503  31.233  1.00  0.00     0.031 A 
ATOM     17  C   UNL A   1      40.261  32.757  31.812  1.00  0.00     0.074 A 
ATOM     18  C   UNL A   1      40.415  30.359  31.314  1.00  0.00     0.049 A 
ATOM     19  N   UNL A   1      41.362  33.367  31.499  1.00  0.00    -0.248 NA
ATOM     20  C   UNL A   1      39.492  33.414  32.876  1.00  0.00     0.031 C 
ATOM     21  C   UNL A   1      39.953  28.991  31.060  1.00  0.00     0.029 A 
ATOM     22  N   UNL A   1      41.703  30.184  31.732  1.00  0.00    -0.354 N 
ATOM     23  C   UNL A   1      41.517  34.391  32.433  1.00  0.00     0.074 A 
ATOM     24  C   UNL A   1      40.301  34.422  33.208  1.00  0.00     0.031 C 
ATOM     25  C   UNL A   1      40.874  28.119  31.526  1.00  0.00     0.029 A 
ATOM     26  C   UNL A   1      42.036  28.863  31.977  1.00  0.00     0.049 A 
ATOM     27  H   UNL A   1      42.336  30.928  31.849  1.00  0.00     0.167 HD
ATOM     28  C   UNL A   1      42.697  35.048  32.617  1.00  0.00     0.037 A 
ATOM     29  C   UNL A   1      43.162  28.403  32.568  1.00  0.00     0.037 A 
ATOM     30  C   UNL A   1      43.586  34.911  31.498  1.00  0.00     0.049 A 
ATOM     31  C   UNL A   1      44.205  29.448  32.465  1.00  0.00     0.074 A 
ATOM     32  C   UNL A   1      43.538  35.251  30.161  1.00  0.00     0.029 A 
ATOM     33  N   UNL A   1      44.691  34.111  31.631  1.00  0.00    -0.354 N 
ATOM     34  N   UNL A   1      44.802  29.797  31.359  1.00  0.00    -0.248 NA
ATOM     35  C   UNL A   1      44.358  30.377  33.574  1.00  0.00     0.031 C 
ATOM     36  C   UNL A   1      44.321  34.263  29.494  1.00  0.00     0.029 A 
ATOM     37  C   UNL A   1      44.789  33.386  30.472  1.00  0.00     0.049 A 
ATOM     38  H   UNL A   1      45.297  34.066  32.406  1.00  0.00     0.167 HD
ATOM     39  C   UNL A   1      45.061  31.150  31.506  1.00  0.00     0.074 A 
ATOM     40  C   UNL A   1      44.883  31.419  32.928  1.00  0.00     0.031 C 
ATOM     41  C   UNL A   1      45.124  31.982  30.426  1.00  0.00     0.037 A 
BRANCH  28  42
ATOM     42  C   UNL A   1      43.162  35.606  33.939  1.00  0.00     0.057 A 
ATOM     43  C   UNL A   1      43.396  34.745  35.028  1.00  0.00     0.134 A 
ATOM     44  C   UNL A   1      43.120  36.978  34.256  1.00  0.00     0.134 A 
ATOM     45  F   UNL A   1      43.421  33.414  34.862  1.00  0.00    -0.206 F 
ATOM     46  C   UNL A   1      43.536  35.214  36.340  1.00  0.00     0.040 A 
ATOM     47  C   UNL A   1      43.309  37.460  35.554  1.00  0.00     0.040 A 
ATOM     48  F   UNL A   1      42.801  37.904  33.343  1.00  0.00    -0.206 F 
ATOM     49  C   UNL A   1      43.493  36.577  36.608  1.00  0.00     0.006 A 
ENDBRANCH  28  42
BRANCH  29  50
ATOM     50  C   UNL A   1      43.294  27.215  33.434  1.00  0.00     0.057 A 
ATOM     51  C   UNL A   1      42.544  27.072  34.606  1.00  0.00     0.134 A 
ATOM     52  C   UNL A   1      43.995  26.072  33.002  1.00  0.00     0.134 A 
ATOM     53  F   UNL A   1      41.801  28.088  35.066  1.00  0.00    -0.206 F 
ATOM     54  C   UNL A   1      42.494  25.862  35.310  1.00  0.00     0.040 A 
ATOM     55  C   UNL A   1      43.964  24.864  33.701  1.00  0.00     0.040 A 
ATOM     56  F   UNL A   1      44.668  26.070  31.842  1.00  0.00    -0.206 F 
ATOM     57  C   UNL A   1      43.202  24.752  34.856  1.00  0.00     0.006 A 
ENDBRANCH  29  50
BRANCH  41  58
ATOM     58  C   UNL A   1      45.214  31.359  29.064  1.00  0.00     0.057 A 
ATOM     59  C   UNL A   1      46.430  31.013  28.456  1.00  0.00     0.134 A 
ATOM     60  C   UNL A   1      44.041  30.945  28.423  1.00  0.00     0.134 A 
ATOM     61  F   UNL A   1      47.599  31.274  29.055  1.00  0.00    -0.206 F 
ATOM     62  C   UNL A   1      46.473  30.326  27.241  1.00  0.00     0.040 A 
ATOM     63  C   UNL A   1      44.072  30.231  27.222  1.00  0.00     0.040 A 
ATOM     64  F   UNL A   1      42.843  31.183  28.981  1.00  0.00    -0.206 F 
ATOM     65  C   UNL A   1      45.291  29.927  26.622  1.00  0.00     0.006 A 
ENDBRANCH  41  58
ENDBRANCH  15  16
ENDBRANCH   8  10
ENDBRANCH   7   8
ENDBRANCH   6   7
ENDBRANCH   5   6
ENDBRANCH   4   5
ENDBRANCH   3   4
ENDBRANCH   2   3
ENDBRANCH   1   2
BRANCH   1  66
ATOM     66  C   UNL A   1      30.806  24.576  26.234  1.00  0.00     0.202 C 
BRANCH  66  67
ATOM     67  C   UNL A   1      31.682  24.384  24.994  1.00  0.00     0.261 C 
BRANCH  67  68
ATOM     68  O   UNL A   1      32.651  23.331  25.127  1.00  0.00    -0.460 OA
BRANCH  68  69
ATOM     69  C   UNL A   1      32.971  22.689  23.978  1.00  0.00     0.338 C 
ATOM     70  O   UNL A   1      32.292  22.559  22.979  1.00  0.00    -0.246 OA
BRANCH  69  71
ATOM     71  C   UNL A   1      34.353  22.184  24.057  1.00  0.00     0.060 A 
ATOM     72  C   UNL A   1      34.633  21.098  24.897  1.00  0.00     0.018 A 
ATOM     73  C   UNL A   1      35.382  22.891  23.439  1.00  0.00     0.018 A 
ATOM     74  C   UNL A   1      35.953  20.732  25.153  1.00  0.00     0.029 A 
ATOM     75  C   UNL A   1      36.705  22.574  23.751  1.00  0.00     0.029 A 
ATOM     76  C   UNL A   1      36.984  21.527  24.650  1.00  0.00     0.066 A 
BRANCH  76  77
ATOM     77  N   UNL A   1      38.269  21.396  25.223  1.00  0.00    -0.220 N 
ATOM     78  C   UNL A   1      39.007  22.398  25.798  1.00  0.00     0.141 A 
ATOM     79  N   UNL A   1      38.867  20.204  25.460  1.00  0.00    -0.062 NA
ATOM     80  C   UNL A   1      39.987  21.749  26.518  1.00  0.00     0.093 A 
ATOM     81  N   UNL A   1      39.925  20.414  26.235  1.00  0.00    -0.134 NA
BRANCH  80  82
ATOM     82  C   UNL A   1      41.054  22.345  27.344  1.00  0.00     0.138 C 
BRANCH  82  83
ATOM     83  S   UNL A   1      42.381  23.319  26.640  1.00  0.00    -0.081 SA
BRANCH  83  84
ATOM     84  C   UNL A   1      42.027  25.029  26.654  1.00  0.00     0.176 A 
ATOM     85  N   UNL A   1      40.853  25.267  27.162  1.00  0.00    -0.223 NA
ATOM     86  N   UNL A   1      42.882  26.050  26.241  1.00  0.00    -0.255 N 
ATOM     87  C   UNL A   1      40.416  26.590  27.259  1.00  0.00     0.079 A 
ATOM     88  C   UNL A   1      42.221  27.192  25.761  1.00  0.00     0.266 A 
ATOM     89  C   UNL A   1      39.345  26.930  28.087  1.00  0.00     0.029 A 
ATOM     90  C   UNL A   1      41.008  27.581  26.493  1.00  0.00     0.066 A 
ATOM     91  O   UNL A   1      42.547  27.875  24.792  1.00  0.00    -0.268 OA
ATOM     92  C   UNL A   1      38.858  28.243  28.112  1.00  0.00     0.002 A 
ATOM     93  C   UNL A   1      40.512  28.890  26.478  1.00  0.00     0.016 A 
ATOM     94  C   UNL A   1      39.429  29.217  27.292  1.00  0.00     0.001 A 
BRANCH  86  95
ATOM     95  C   UNL A   1      44.338  26.042  26.254  1.00  0.00     0.051 A 
ATOM     96  C   UNL A   1      45.055  26.432  27.406  1.00  0.00     0.028 A 
ATOM     97  C   UNL A   1      45.127  25.586  25.187  1.00  0.00     0.028 A 
ATOM     98  C   UNL A   1      46.451  26.536  27.430  1.00  0.00     0.018 A 
ATOM     99  C   UNL A   1      46.526  25.721  25.184  1.00  0.00     0.018 A 
ATOM    100  C   UNL A   1      47.179  26.228  26.296  1.00  0.00     0.018 A 
ATOM    101  Br  UNL A   1      49.045  26.495  26.266  1.00  0.00    -0.051 Br
ENDBRANCH  86  95
ENDBRANCH  83  84
ENDBRANCH  82  83
ENDBRANCH  80  82
ENDBRANCH  76  77
ENDBRANCH  69  71
ENDBRANCH  68  69
ENDBRANCH  67  68
ENDBRANCH  66  67
ENDBRANCH   1  66
TORSDOF 22
ENDMDL
MODEL 2
REMARK VINA RESULT:      -9.9      3.909      9.096
REMARK SMILES O=C(OCCOCCOCCOC(=O)c1ccc(-n2cc(CSc3nc4ccccc4c(=O)n3-c3ccc(Br)cc3)nn2)cc1)c1ccc(-c2c3nc(c(-c4c(F)cccc4F)c4ccc([nH]4)c(-c4c(F)cccc4F)c4nc(c(-c5c(F)cccc5F)c5ccc2[nH]5)C=C4)C=C3)cc1
REMARK SMILES IDX 9 1 8 2 7 3 6 4 5 5 4 6 3 7 2 8 1 9 46 10 47 11 99 12 48 13
REMARK SMILES IDX 98 14 49 15 50 16 51 17 92 18 52 19 97 20 91 21 93 22 53 23
REMARK SMILES IDX 96 24 90 25 89 26 54 28 80 29 63 30 79 31 64 32 67 33 78 34
REMARK SMILES IDX 94 35 65 36 66 37 77 39 95 40 68 41 55 42 56 43 61 44 57 45
REMARK SMILES IDX 58 46 60 47 62 48 59 49 81 50 82 51 87 52 83 53 84 54 86 55
REMARK SMILES IDX 88 56 85 57 69 58 70 59 75 60 71 61 72 62 74 63 76 64 73 65
REMARK SMILES IDX 10 66 11 67 12 68 13 69 14 70 15 71 16 72 45 73 17 74 44 75
REMARK SMILES IDX 18 76 19 77 20 78 43 79 21 80 42 81 22 82 23 83 24 84 25 85
REMARK SMILES IDX 34 86 26 87 32 88 27 89 31 90 33 91 28 92 30 93 29 94 35 95
REMARK SMILES IDX 36 96 41 97 37 98 40 99 38 100 39 101
REMARK H PARENT 93 27 67 38
REMARK Flexibility Score: inf
ROOT
ATOM      1  O   UNL A   1      42.224  20.982  27.677  1.00  0.00    -0.376 OA
ENDROOT
BRANCH   1   2
ATOM      2  C   UNL A   1      42.186  19.675  27.121  1.00  0.00     0.188 C 
BRANCH   2   3
ATOM      3  C   UNL A   1      42.701  19.417  25.691  1.00  0.00     0.188 C 
BRANCH   3   4
ATOM      4  O   UNL A   1      43.310  20.548  25.087  1.00  0.00    -0.376 OA
BRANCH   4   5
ATOM      5  C   UNL A   1      44.696  20.698  25.329  1.00  0.00     0.202 C 
BRANCH   5   6
ATOM      6  C   UNL A   1      45.070  22.082  25.857  1.00  0.00     0.261 C 
BRANCH   6   7
ATOM      7  O   UNL A   1      43.974  23.004  26.022  1.00  0.00    -0.460 OA
BRANCH   7   8
ATOM      8  C   UNL A   1      43.749  24.223  25.500  1.00  0.00     0.338 C 
ATOM      9  O   UNL A   1      44.234  24.514  24.410  1.00  0.00    -0.246 OA
BRANCH   8  10
ATOM     10  C   UNL A   1      43.104  25.310  26.276  1.00  0.00     0.060 A 
ATOM     11  C   UNL A   1      42.212  26.241  25.746  1.00  0.00     0.016 A 
ATOM     12  C   UNL A   1      43.522  25.445  27.615  1.00  0.00     0.016 A 
ATOM     13  C   UNL A   1      41.790  27.318  26.519  1.00  0.00     0.010 A 
ATOM     14  C   UNL A   1      43.115  26.530  28.384  1.00  0.00     0.010 A 
ATOM     15  C   UNL A   1      42.296  27.500  27.810  1.00  0.00    -0.014 A 
BRANCH  15  16
ATOM     16  C   UNL A   1      42.068  28.803  28.433  1.00  0.00     0.031 A 
ATOM     17  C   UNL A   1      43.090  29.871  28.264  1.00  0.00     0.074 A 
ATOM     18  C   UNL A   1      40.952  29.053  29.148  1.00  0.00     0.049 A 
ATOM     19  N   UNL A   1      43.767  30.488  29.183  1.00  0.00    -0.248 NA
ATOM     20  C   UNL A   1      43.398  30.309  26.897  1.00  0.00     0.031 C 
ATOM     21  C   UNL A   1      39.724  28.256  29.213  1.00  0.00     0.029 A 
ATOM     22  N   UNL A   1      40.661  30.143  29.916  1.00  0.00    -0.354 N 
ATOM     23  C   UNL A   1      44.464  31.507  28.535  1.00  0.00     0.074 A 
ATOM     24  C   UNL A   1      44.260  31.303  27.122  1.00  0.00     0.031 C 
ATOM     25  C   UNL A   1      38.753  28.986  29.803  1.00  0.00     0.029 A 
ATOM     26  C   UNL A   1      39.328  30.233  30.277  1.00  0.00     0.049 A 
ATOM     27  H   UNL A   1      41.336  30.806  30.188  1.00  0.00     0.167 HD
ATOM     28  C   UNL A   1      45.036  32.548  29.202  1.00  0.00     0.037 A 
ATOM     29  C   UNL A   1      38.713  31.281  30.869  1.00  0.00     0.037 A 
ATOM     30  C   UNL A   1      45.242  32.267  30.595  1.00  0.00     0.049 A 
ATOM     31  C   UNL A   1      39.741  32.114  31.532  1.00  0.00     0.074 A 
ATOM     32  C   UNL A   1      45.967  31.334  31.309  1.00  0.00     0.029 A 
ATOM     33  N   UNL A   1      44.439  32.887  31.517  1.00  0.00    -0.354 N 
ATOM     34  N   UNL A   1      40.405  31.766  32.598  1.00  0.00    -0.248 NA
ATOM     35  C   UNL A   1      40.294  33.238  30.792  1.00  0.00     0.031 C 
ATOM     36  C   UNL A   1      45.225  31.120  32.507  1.00  0.00     0.029 A 
ATOM     37  C   UNL A   1      44.095  31.934  32.439  1.00  0.00     0.049 A 
ATOM     38  H   UNL A   1      44.164  33.833  31.517  1.00  0.00     0.167 HD
ATOM     39  C   UNL A   1      41.652  32.351  32.447  1.00  0.00     0.074 A 
ATOM     40  C   UNL A   1      41.482  33.341  31.390  1.00  0.00     0.031 C 
ATOM     41  C   UNL A   1      42.770  31.791  32.995  1.00  0.00     0.037 A 
BRANCH  28  42
ATOM     42  C   UNL A   1      45.172  33.943  28.644  1.00  0.00     0.057 A 
ATOM     43  C   UNL A   1      46.431  34.571  28.608  1.00  0.00     0.134 A 
ATOM     44  C   UNL A   1      44.072  34.789  28.402  1.00  0.00     0.134 A 
ATOM     45  F   UNL A   1      47.553  33.880  28.860  1.00  0.00    -0.206 F 
ATOM     46  C   UNL A   1      46.579  35.946  28.386  1.00  0.00     0.040 A 
ATOM     47  C   UNL A   1      44.212  36.153  28.130  1.00  0.00     0.040 A 
ATOM     48  F   UNL A   1      42.810  34.354  28.510  1.00  0.00    -0.206 F 
ATOM     49  C   UNL A   1      45.467  36.743  28.146  1.00  0.00     0.006 A 
ENDBRANCH  28  42
BRANCH  29  50
ATOM     50  C   UNL A   1      37.319  31.726  30.671  1.00  0.00     0.057 A 
ATOM     51  C   UNL A   1      36.346  31.563  31.663  1.00  0.00     0.134 A 
ATOM     52  C   UNL A   1      36.963  32.542  29.580  1.00  0.00     0.134 A 
ATOM     53  F   UNL A   1      36.611  30.848  32.765  1.00  0.00    -0.206 F 
ATOM     54  C   UNL A   1      35.089  32.177  31.576  1.00  0.00     0.040 A 
ATOM     55  C   UNL A   1      35.710  33.149  29.475  1.00  0.00     0.040 A 
ATOM     56  F   UNL A   1      37.850  32.842  28.620  1.00  0.00    -0.206 F 
ATOM     57  C   UNL A   1      34.770  32.976  30.481  1.00  0.00     0.006 A 
ENDBRANCH  29  50
BRANCH  41  58
ATOM     58  C   UNL A   1      42.584  30.708  34.016  1.00  0.00     0.057 A 
ATOM     59  C   UNL A   1      42.492  30.957  35.393  1.00  0.00     0.134 A 
ATOM     60  C   UNL A   1      42.325  29.401  33.586  1.00  0.00     0.134 A 
ATOM     61  F   UNL A   1      42.618  32.199  35.879  1.00  0.00    -0.206 F 
ATOM     62  C   UNL A   1      42.200  29.940  36.305  1.00  0.00     0.040 A 
ATOM     63  C   UNL A   1      42.002  28.382  34.486  1.00  0.00     0.040 A 
ATOM     64  F   UNL A   1      42.330  29.105  32.277  1.00  0.00    -0.206 F 
ATOM     65  C   UNL A   1      41.947  28.648  35.852  1.00  0.00     0.006 A 
ENDBRANCH  41  58
ENDBRANCH  15  16
ENDBRANCH   8  10
ENDBRANCH   7   8
ENDBRANCH   6   7
ENDBRANCH   5   6
ENDBRANCH   4   5
ENDBRANCH   3   4
ENDBRANCH   2   3
ENDBRANCH   1   2
BRANCH   1  66
ATOM     66  C   UNL A   1      41.017  21.708  27.853  1.00  0.00     0.202 C 
BRANCH  66  67
ATOM     67  C   UNL A   1      39.907  21.492  26.820  1.00  0.00     0.261 C 
BRANCH  67  68
ATOM     68  O   UNL A   1      39.688  22.623  25.961  1.00  0.00    -0.460 OA
BRANCH  68  69
ATOM     69  C   UNL A   1      38.674  23.442  26.329  1.00  0.00     0.338 C 
ATOM     70  O   UNL A   1      38.732  24.446  27.009  1.00  0.00    -0.246 OA
BRANCH  69  71
ATOM     71  C   UNL A   1      37.415  22.982  25.717  1.00  0.00     0.060 A 
ATOM     72  C   UNL A   1      37.147  23.313  24.382  1.00  0.00     0.018 A 
ATOM     73  C   UNL A   1      36.442  22.379  26.512  1.00  0.00     0.018 A 
ATOM     74  C   UNL A   1      35.885  23.076  23.841  1.00  0.00     0.029 A 
ATOM     75  C   UNL A   1      35.156  22.208  25.995  1.00  0.00     0.029 A 
ATOM     76  C   UNL A   1      34.869  22.606  24.676  1.00  0.00     0.066 A 
BRANCH  76  77
ATOM     77  N   UNL A   1      33.531  22.742  24.242  1.00  0.00    -0.220 N 
ATOM     78  C   UNL A   1      32.561  23.511  24.831  1.00  0.00     0.141 A 
ATOM     79  N   UNL A   1      33.077  22.278  23.053  1.00  0.00    -0.062 NA
ATOM     80  C   UNL A   1      31.566  23.616  23.882  1.00  0.00     0.093 A 
ATOM     81  N   UNL A   1      31.872  22.793  22.836  1.00  0.00    -0.134 NA
BRANCH  80  82
ATOM     82  C   UNL A   1      30.288  24.345  23.982  1.00  0.00     0.138 C 
BRANCH  82  83
ATOM     83  S   UNL A   1      30.073  25.762  25.057  1.00  0.00    -0.081 SA
BRANCH  83  84
ATOM     84  C   UNL A   1      30.123  27.271  24.181  1.00  0.00     0.176 A 
ATOM     85  N   UNL A   1      28.991  27.512  23.586  1.00  0.00    -0.223 NA
ATOM     86  N   UNL A   1      31.191  28.166  24.143  1.00  0.00    -0.255 N 
ATOM     87  C   UNL A   1      28.855  28.690  22.847  1.00  0.00     0.079 A 
ATOM     88  C   UNL A   1      31.263  28.922  22.963  1.00  0.00     0.266 A 
ATOM     89  C   UNL A   1      27.594  29.162  22.480  1.00  0.00     0.029 A 
ATOM     90  C   UNL A   1      29.978  29.382  22.420  1.00  0.00     0.066 A 
ATOM     91  O   UNL A   1      32.283  29.216  22.341  1.00  0.00    -0.268 OA
ATOM     92  C   UNL A   1      27.472  30.295  21.666  1.00  0.00     0.002 A 
ATOM     93  C   UNL A   1      29.875  30.495  21.577  1.00  0.00     0.016 A 
ATOM     94  C   UNL A   1      28.613  30.949  21.198  1.00  0.00     0.001 A 
BRANCH  86  95
ATOM     95  C   UNL A   1      32.202  28.377  25.168  1.00  0.00     0.051 A 
ATOM     96  C   UNL A   1      31.914  29.130  26.328  1.00  0.00     0.028 A 
ATOM     97  C   UNL A   1      33.484  27.805  25.134  1.00  0.00     0.028 A 
ATOM     98  C   UNL A   1      32.883  29.443  27.288  1.00  0.00     0.018 A 
ATOM     99  C   UNL A   1      34.477  28.142  26.069  1.00  0.00     0.018 A 
ATOM    100  C   UNL A   1      34.178  28.988  27.126  1.00  0.00     0.018 A 
ATOM    101  Br  UNL A   1      35.526  29.515  28.334  1.00  0.00    -0.051 Br
ENDBRANCH  86  95
ENDBRANCH  83  84
ENDBRANCH  82  83
ENDBRANCH  80  82
ENDBRANCH  76  77
ENDBRANCH  69  71
ENDBRANCH  68  69
ENDBRANCH  67  68
ENDBRANCH  66  67
ENDBRANCH   1  66
TORSDOF 22
ENDMDL
MODEL 3
REMARK VINA RESULT:      -9.8      4.297      9.392
REMARK SMILES O=C(OCCOCCOCCOC(=O)c1ccc(-n2cc(CSc3nc4ccccc4c(=O)n3-c3ccc(Br)cc3)nn2)cc1)c1ccc(-c2c3nc(c(-c4c(F)cccc4F)c4ccc([nH]4)c(-c4c(F)cccc4F)c4nc(c(-c5c(F)cccc5F)c5ccc2[nH]5)C=C4)C=C3)cc1
REMARK SMILES IDX 9 1 8 2 7 3 6 4 5 5 4 6 3 7 2 8 1 9 46 10 47 11 99 12 48 13
REMARK SMILES IDX 98 14 49 15 50 16 51 17 92 18 52 19 97 20 91 21 93 22 53 23
REMARK SMILES IDX 96 24 90 25 89 26 54 28 80 29 63 30 79 31 64 32 67 33 78 34
REMARK SMILES IDX 94 35 65 36 66 37 77 39 95 40 68 41 55 42 56 43 61 44 57 45
REMARK SMILES IDX 58 46 60 47 62 48 59 49 81 50 82 51 87 52 83 53 84 54 86 55
REMARK SMILES IDX 88 56 85 57 69 58 70 59 75 60 71 61 72 62 74 63 76 64 73 65
REMARK SMILES IDX 10 66 11 67 12 68 13 69 14 70 15 71 16 72 45 73 17 74 44 75
REMARK SMILES IDX 18 76 19 77 20 78 43 79 21 80 42 81 22 82 23 83 24 84 25 85
REMARK SMILES IDX 34 86 26 87 32 88 27 89 31 90 33 91 28 92 30 93 29 94 35 95
REMARK SMILES IDX 36 96 41 97 37 98 40 99 38 100 39 101
REMARK H PARENT 93 27 67 38
REMARK Flexibility Score: inf
ROOT
ATOM      1  O   UNL A   1      36.881  34.323  34.557  1.00  0.00    -0.376 OA
ENDROOT
BRANCH   1   2
ATOM      2  C   UNL A   1      35.752  34.546  33.723  1.00  0.00     0.188 C 
BRANCH   2   3
ATOM      3  C   UNL A   1      35.905  34.564  32.189  1.00  0.00     0.188 C 
BRANCH   3   4
ATOM      4  O   UNL A   1      35.511  33.355  31.557  1.00  0.00    -0.376 OA
BRANCH   4   5
ATOM      5  C   UNL A   1      34.433  33.463  30.648  1.00  0.00     0.202 C 
BRANCH   5   6
ATOM      6  C   UNL A   1      34.869  33.858  29.238  1.00  0.00     0.261 C 
BRANCH   6   7
ATOM      7  O   UNL A   1      34.663  32.861  28.218  1.00  0.00    -0.460 OA
BRANCH   7   8
ATOM      8  C   UNL A   1      34.992  31.558  28.167  1.00  0.00     0.338 C 
ATOM      9  O   UNL A   1      34.166  30.739  27.771  1.00  0.00    -0.246 OA
BRANCH   8  10
ATOM     10  C   UNL A   1      36.248  31.034  28.759  1.00  0.00     0.060 A 
ATOM     11  C   UNL A   1      37.502  31.621  28.604  1.00  0.00     0.016 A 
ATOM     12  C   UNL A   1      36.145  29.802  29.433  1.00  0.00     0.016 A 
ATOM     13  C   UNL A   1      38.640  30.961  29.061  1.00  0.00     0.010 A 
ATOM     14  C   UNL A   1      37.281  29.133  29.877  1.00  0.00     0.010 A 
ATOM     15  C   UNL A   1      38.535  29.690  29.632  1.00  0.00    -0.014 A 
BRANCH  15  16
ATOM     16  C   UNL A   1      39.774  28.930  29.789  1.00  0.00     0.031 A 
ATOM     17  C   UNL A   1      40.386  28.821  31.141  1.00  0.00     0.074 A 
ATOM     18  C   UNL A   1      40.365  28.326  28.738  1.00  0.00     0.049 A 
ATOM     19  N   UNL A   1      41.562  29.211  31.525  1.00  0.00    -0.248 NA
ATOM     20  C   UNL A   1      39.585  28.197  32.203  1.00  0.00     0.031 C 
ATOM     21  C   UNL A   1      39.805  28.083  27.405  1.00  0.00     0.029 A 
ATOM     22  N   UNL A   1      41.587  27.721  28.681  1.00  0.00    -0.354 N 
ATOM     23  C   UNL A   1      41.723  28.737  32.826  1.00  0.00     0.074 A 
ATOM     24  C   UNL A   1      40.449  28.188  33.220  1.00  0.00     0.031 C 
ATOM     25  C   UNL A   1      40.596  27.208  26.747  1.00  0.00     0.029 A 
ATOM     26  C   UNL A   1      41.775  26.944  27.552  1.00  0.00     0.049 A 
ATOM     27  H   UNL A   1      42.273  27.827  29.381  1.00  0.00     0.167 HD
ATOM     28  C   UNL A   1      42.936  28.681  33.445  1.00  0.00     0.037 A 
ATOM     29  C   UNL A   1      42.795  26.090  27.311  1.00  0.00     0.037 A 
ATOM     30  C   UNL A   1      43.908  29.543  32.834  1.00  0.00     0.049 A 
ATOM     31  C   UNL A   1      43.934  26.464  28.178  1.00  0.00     0.074 A 
ATOM     32  C   UNL A   1      44.015  30.903  32.618  1.00  0.00     0.029 A 
ATOM     33  N   UNL A   1      44.919  28.978  32.100  1.00  0.00    -0.354 N 
ATOM     34  N   UNL A   1      44.659  27.538  28.031  1.00  0.00    -0.248 NA
ATOM     35  C   UNL A   1      44.068  25.793  29.462  1.00  0.00     0.031 C 
ATOM     36  C   UNL A   1      44.762  31.034  31.411  1.00  0.00     0.029 A 
ATOM     37  C   UNL A   1      45.056  29.743  30.972  1.00  0.00     0.049 A 
ATOM     38  H   UNL A   1      45.444  28.180  32.337  1.00  0.00     0.167 HD
ATOM     39  C   UNL A   1      45.026  27.898  29.318  1.00  0.00     0.074 A 
ATOM     40  C   UNL A   1      44.744  26.725  30.137  1.00  0.00     0.031 C 
ATOM     41  C   UNL A   1      45.264  29.200  29.650  1.00  0.00     0.037 A 
BRANCH  28  42
ATOM     42  C   UNL A   1      43.326  27.635  34.458  1.00  0.00     0.057 A 
ATOM     43  C   UNL A   1      43.527  26.300  34.056  1.00  0.00     0.134 A 
ATOM     44  C   UNL A   1      43.240  27.836  35.850  1.00  0.00     0.134 A 
ATOM     45  F   UNL A   1      43.589  25.974  32.756  1.00  0.00    -0.206 F 
ATOM     46  C   UNL A   1      43.596  25.242  34.971  1.00  0.00     0.040 A 
ATOM     47  C   UNL A   1      43.357  26.793  36.773  1.00  0.00     0.040 A 
ATOM     48  F   UNL A   1      42.944  29.033  36.373  1.00  0.00    -0.206 F 
ATOM     49  C   UNL A   1      43.511  25.486  36.336  1.00  0.00     0.006 A 
ENDBRANCH  28  42
BRANCH  29  50
ATOM     50  C   UNL A   1      42.738  24.821  26.557  1.00  0.00     0.057 A 
ATOM     51  C   UNL A   1      43.466  24.632  25.377  1.00  0.00     0.134 A 
ATOM     52  C   UNL A   1      42.143  23.671  27.111  1.00  0.00     0.134 A 
ATOM     53  F   UNL A   1      44.113  25.658  24.806  1.00  0.00    -0.206 F 
ATOM     54  C   UNL A   1      43.596  23.371  24.781  1.00  0.00     0.040 A 
ATOM     55  C   UNL A   1      42.254  22.411  26.520  1.00  0.00     0.040 A 
ATOM     56  F   UNL A   1      41.502  23.721  28.288  1.00  0.00    -0.206 F 
ATOM     57  C   UNL A   1      42.991  22.255  25.355  1.00  0.00     0.006 A 
ENDBRANCH  29  50
BRANCH  41  58
ATOM     58  C   UNL A   1      45.422  30.192  28.535  1.00  0.00     0.057 A 
ATOM     59  C   UNL A   1      44.337  30.816  27.903  1.00  0.00     0.134 A 
ATOM     60  C   UNL A   1      46.702  30.651  28.205  1.00  0.00     0.134 A 
ATOM     61  F   UNL A   1      43.076  30.514  28.239  1.00  0.00    -0.206 F 
ATOM     62  C   UNL A   1      44.522  31.823  26.952  1.00  0.00     0.040 A 
ATOM     63  C   UNL A   1      46.899  31.677  27.278  1.00  0.00     0.040 A 
ATOM     64  F   UNL A   1      47.783  30.144  28.820  1.00  0.00    -0.206 F 
ATOM     65  C   UNL A   1      45.806  32.261  26.640  1.00  0.00     0.006 A 
ENDBRANCH  41  58
ENDBRANCH  15  16
ENDBRANCH   8  10
ENDBRANCH   7   8
ENDBRANCH   6   7
ENDBRANCH   5   6
ENDBRANCH   4   5
ENDBRANCH   3   4
ENDBRANCH   2   3
ENDBRANCH   1   2
BRANCH   1  66
ATOM     66  C   UNL A   1      36.700  33.780  35.856  1.00  0.00     0.202 C 
BRANCH  66  67
ATOM     67  C   UNL A   1      37.801  32.865  36.397  1.00  0.00     0.261 C 
BRANCH  67  68
ATOM     68  O   UNL A   1      37.645  31.486  36.021  1.00  0.00    -0.460 OA
BRANCH  68  69
ATOM     69  C   UNL A   1      38.783  30.855  35.647  1.00  0.00     0.338 C 
ATOM     70  O   UNL A   1      39.370  29.964  36.226  1.00  0.00    -0.246 OA
BRANCH  69  71
ATOM     71  C   UNL A   1      39.226  31.361  34.336  1.00  0.00     0.060 A 
ATOM     72  C   UNL A   1      40.503  31.925  34.221  1.00  0.00     0.018 A 
ATOM     73  C   UNL A   1      38.318  31.431  33.281  1.00  0.00     0.018 A 
ATOM     74  C   UNL A   1      40.871  32.597  33.057  1.00  0.00     0.029 A 
ATOM     75  C   UNL A   1      38.656  32.166  32.143  1.00  0.00     0.029 A 
ATOM     76  C   UNL A   1      39.914  32.791  32.058  1.00  0.00     0.066 A 
BRANCH  76  77
ATOM     77  N   UNL A   1      40.158  33.786  31.085  1.00  0.00    -0.220 N 
ATOM     78  C   UNL A   1      41.384  34.170  30.607  1.00  0.00     0.141 A 
ATOM     79  N   UNL A   1      39.184  34.361  30.339  1.00  0.00    -0.062 NA
ATOM     80  C   UNL A   1      41.111  34.875  29.454  1.00  0.00     0.093 A 
ATOM     81  N   UNL A   1      39.760  35.041  29.354  1.00  0.00    -0.134 NA
BRANCH  80  82
ATOM     82  C   UNL A   1      42.068  35.509  28.528  1.00  0.00     0.138 C 
BRANCH  82  83
ATOM     83  S   UNL A   1      42.447  37.259  28.590  1.00  0.00    -0.081 SA
BRANCH  83  84
ATOM     84  C   UNL A   1      43.958  37.638  27.801  1.00  0.00     0.176 A 
ATOM     85  N   UNL A   1      43.859  38.715  27.078  1.00  0.00    -0.223 NA
ATOM     86  N   UNL A   1      45.157  36.942  27.944  1.00  0.00    -0.255 N 
ATOM     87  C   UNL A   1      44.985  39.167  26.385  1.00  0.00     0.079 A 
ATOM     88  C   UNL A   1      45.997  37.010  26.820  1.00  0.00     0.266 A 
ATOM     89  C   UNL A   1      45.040  40.468  25.882  1.00  0.00     0.029 A 
ATOM     90  C   UNL A   1      46.047  38.311  26.140  1.00  0.00     0.066 A 
ATOM     91  O   UNL A   1      46.668  36.094  26.350  1.00  0.00    -0.268 OA
ATOM     92  C   UNL A   1      46.134  40.885  25.115  1.00  0.00     0.002 A 
ATOM     93  C   UNL A   1      47.132  38.699  25.345  1.00  0.00     0.016 A 
ATOM     94  C   UNL A   1      47.170  39.994  24.830  1.00  0.00     0.001 A 
BRANCH  86  95
ATOM     95  C   UNL A   1      45.603  36.177  29.100  1.00  0.00     0.051 A 
ATOM     96  C   UNL A   1      46.103  36.825  30.250  1.00  0.00     0.028 A 
ATOM     97  C   UNL A   1      45.503  34.781  29.200  1.00  0.00     0.028 A 
ATOM     98  C   UNL A   1      46.635  36.128  31.341  1.00  0.00     0.018 A 
ATOM     99  C   UNL A   1      46.067  34.067  30.271  1.00  0.00     0.018 A 
ATOM    100  C   UNL A   1      46.661  34.746  31.323  1.00  0.00     0.018 A 
ATOM    101  Br  UNL A   1      47.498  33.795  32.719  1.00  0.00    -0.051 Br
ENDBRANCH  86  95
ENDBRANCH  83  84
ENDBRANCH  82  83
ENDBRANCH  80  82
ENDBRANCH  76  77
ENDBRANCH  69  71
ENDBRANCH  68  69
ENDBRANCH  67  68
ENDBRANCH  66  67
ENDBRANCH   1  66
TORSDOF 22
ENDMDL
