MODEL 1
REMARK VINA RESULT:     -11.2      0.000      0.000
REMARK SMILES Cc1nc(CCNc2nccc(-c3cc(C(=O)OCCOCCOCCOC(=O)c4ccc(-c5c6nc(c(-c7c(F)cccc7F)c7ccc([nH]7)c(-c7c(F)cccc7F)c7nc(c(-c8c(F)cccc8F)c8ccc5[nH]8)C=C7)C=C6)cc4)ccn3)n2)cc(=O)[nH]1
REMARK SMILES IDX 21 1 20 2 19 3 18 4 16 5 17 6 15 7 13 8 14 9 86 10 85 11
REMARK SMILES IDX 84 12 12 13 8 14 9 15 87 16 10 17 11 18 7 19 6 21 5 22 4 23
REMARK SMILES IDX 1 24 2 25 3 26 91 27 89 28 88 30 90 31 22 32 23 33 24 34
REMARK SMILES IDX 25 35 26 36 27 37 28 38 29 39 30 40 31 41 83 42 32 43 82 44
REMARK SMILES IDX 33 45 34 46 35 47 76 48 36 49 81 50 75 51 77 52 37 53 80 54
REMARK SMILES IDX 74 55 73 56 38 58 64 59 47 60 63 61 48 62 51 63 62 64 78 65
REMARK SMILES IDX 49 66 50 67 61 69 79 70 52 71 39 72 40 73 45 74 41 75 42 76
REMARK SMILES IDX 44 77 46 78 43 79 65 80 66 81 71 82 67 83 68 84 70 85 72 86
REMARK SMILES IDX 69 87 53 88 54 89 59 90 55 91 56 92 58 93 60 94 57 95
REMARK H PARENT 7 20 91 29 77 57 51 68
REMARK Flexibility Score: inf
ROOT
ATOM      1  O   UNL A   1      32.567  26.216  25.008  1.00  0.00    -0.376 OA
ENDROOT
BRANCH   1   2
ATOM      2  C   UNL A   1      33.639  26.281  24.078  1.00  0.00     0.202 C 
BRANCH   2   3
ATOM      3  C   UNL A   1      33.478  25.735  22.648  1.00  0.00     0.261 C 
BRANCH   3   4
ATOM      4  O   UNL A   1      33.897  24.375  22.458  1.00  0.00    -0.460 OA
BRANCH   4   5
ATOM      5  C   UNL A   1      33.178  23.438  23.120  1.00  0.00     0.338 C 
ATOM      6  O   UNL A   1      31.985  23.197  23.003  1.00  0.00    -0.246 OA
BRANCH   5   7
ATOM      7  C   UNL A   1      34.098  22.569  23.883  1.00  0.00     0.063 A 
ATOM      8  C   UNL A   1      36.208  22.090  24.904  1.00  0.00     0.090 A 
ATOM      9  C   UNL A   1      35.389  22.981  24.217  1.00  0.00     0.046 A 
ATOM     10  N   UNL A   1      35.791  20.830  25.204  1.00  0.00    -0.255 NA
ATOM     11  C   UNL A   1      34.542  20.456  24.859  1.00  0.00     0.112 A 
ATOM     12  C   UNL A   1      33.655  21.291  24.220  1.00  0.00     0.036 A 
BRANCH   8  13
ATOM     13  C   UNL A   1      37.514  22.488  25.473  1.00  0.00     0.094 A 
ATOM     14  C   UNL A   1      39.484  21.820  26.451  1.00  0.00     0.223 A 
ATOM     15  N   UNL A   1      39.766  23.058  26.879  1.00  0.00    -0.222 NA
ATOM     16  N   UNL A   1      38.411  21.503  25.722  1.00  0.00    -0.211 NA
ATOM     17  C   UNL A   1      38.904  24.029  26.545  1.00  0.00     0.117 A 
ATOM     18  C   UNL A   1      37.747  23.799  25.849  1.00  0.00     0.051 A 
BRANCH  14  19
ATOM     19  N   UNL A   1      40.328  20.844  26.909  1.00  0.00    -0.354 N 
ATOM     20  H   UNL A   1      40.398  20.682  27.878  1.00  0.00     0.163 HD
BRANCH  19  21
ATOM     21  C   UNL A   1      41.122  20.045  25.997  1.00  0.00     0.122 C 
BRANCH  21  22
ATOM     22  C   UNL A   1      42.544  19.810  26.548  1.00  0.00     0.077 C 
BRANCH  22  23
ATOM     23  C   UNL A   1      43.650  20.040  25.529  1.00  0.00     0.050 A 
ATOM     24  C   UNL A   1      45.877  22.840  24.622  1.00  0.00     0.087 C 
ATOM     25  C   UNL A   1      45.163  21.521  24.671  1.00  0.00     0.105 A 
ATOM     26  N   UNL A   1      44.213  21.298  25.522  1.00  0.00    -0.240 NA
ATOM     27  N   UNL A   1      45.597  20.597  23.763  1.00  0.00    -0.311 N 
ATOM     28  C   UNL A   1      45.083  19.339  23.716  1.00  0.00     0.251 A 
ATOM     29  H   UNL A   1      46.302  20.849  23.123  1.00  0.00     0.171 HD
ATOM     30  C   UNL A   1      44.066  19.043  24.732  1.00  0.00     0.095 A 
ATOM     31  O   UNL A   1      45.426  18.506  22.886  1.00  0.00    -0.270 OA
ENDBRANCH  22  23
ENDBRANCH  21  22
ENDBRANCH  19  21
ENDBRANCH  14  19
ENDBRANCH   8  13
ENDBRANCH   5   7
ENDBRANCH   4   5
ENDBRANCH   3   4
ENDBRANCH   2   3
ENDBRANCH   1   2
BRANCH   1  32
ATOM     32  C   UNL A   1      31.824  27.384  25.330  1.00  0.00     0.188 C 
BRANCH  32  33
ATOM     33  C   UNL A   1      32.311  28.773  24.865  1.00  0.00     0.188 C 
BRANCH  33  34
ATOM     34  O   UNL A   1      32.396  29.724  25.899  1.00  0.00    -0.376 OA
BRANCH  34  35
ATOM     35  C   UNL A   1      31.462  30.789  25.934  1.00  0.00     0.202 C 
BRANCH  35  36
ATOM     36  C   UNL A   1      31.584  32.028  26.849  1.00  0.00     0.261 C 
BRANCH  36  37
ATOM     37  O   UNL A   1      32.709  32.898  26.676  1.00  0.00    -0.460 OA
BRANCH  37  38
ATOM     38  C   UNL A   1      33.173  33.527  27.780  1.00  0.00     0.338 C 
ATOM     39  O   UNL A   1      32.618  34.406  28.420  1.00  0.00    -0.246 OA
BRANCH  38  40
ATOM     40  C   UNL A   1      34.422  32.863  28.202  1.00  0.00     0.060 A 
ATOM     41  C   UNL A   1      34.406  31.487  28.470  1.00  0.00     0.016 A 
ATOM     42  C   UNL A   1      35.598  33.600  28.351  1.00  0.00     0.016 A 
ATOM     43  C   UNL A   1      35.568  30.848  28.910  1.00  0.00     0.010 A 
ATOM     44  C   UNL A   1      36.755  32.962  28.810  1.00  0.00     0.010 A 
ATOM     45  C   UNL A   1      36.741  31.588  29.117  1.00  0.00    -0.014 A 
BRANCH  45  46
ATOM     46  C   UNL A   1      37.900  30.970  29.807  1.00  0.00     0.031 A 
ATOM     47  C   UNL A   1      38.147  31.311  31.251  1.00  0.00     0.074 A 
ATOM     48  C   UNL A   1      38.725  30.122  29.167  1.00  0.00     0.049 A 
ATOM     49  N   UNL A   1      39.132  30.956  32.035  1.00  0.00    -0.248 NA
ATOM     50  C   UNL A   1      37.145  32.176  31.895  1.00  0.00     0.031 C 
ATOM     51  C   UNL A   1      38.577  29.680  27.783  1.00  0.00     0.029 A 
ATOM     52  N   UNL A   1      39.863  29.488  29.604  1.00  0.00    -0.354 N 
ATOM     53  C   UNL A   1      38.875  31.559  33.260  1.00  0.00     0.074 A 
ATOM     54  C   UNL A   1      37.659  32.328  33.107  1.00  0.00     0.031 C 
ATOM     55  C   UNL A   1      39.598  28.859  27.478  1.00  0.00     0.029 A 
ATOM     56  C   UNL A   1      40.488  28.746  28.632  1.00  0.00     0.049 A 
ATOM     57  H   UNL A   1      40.199  29.560  30.526  1.00  0.00     0.167 HD
ATOM     58  C   UNL A   1      39.584  31.475  34.411  1.00  0.00     0.037 A 
ATOM     59  C   UNL A   1      41.657  28.078  28.664  1.00  0.00     0.037 A 
ATOM     60  C   UNL A   1      40.797  30.713  34.562  1.00  0.00     0.049 A 
ATOM     61  C   UNL A   1      42.471  28.064  29.933  1.00  0.00     0.074 A 
ATOM     62  C   UNL A   1      41.577  30.552  35.693  1.00  0.00     0.029 A 
ATOM     63  N   UNL A   1      41.411  29.997  33.546  1.00  0.00    -0.354 N 
ATOM     64  N   UNL A   1      42.207  28.615  31.094  1.00  0.00    -0.248 NA
ATOM     65  C   UNL A   1      43.747  27.334  29.896  1.00  0.00     0.031 C 
ATOM     66  C   UNL A   1      42.694  29.786  35.347  1.00  0.00     0.029 A 
ATOM     67  C   UNL A   1      42.577  29.415  34.018  1.00  0.00     0.049 A 
ATOM     68  H   UNL A   1      41.070  29.914  32.627  1.00  0.00     0.167 HD
ATOM     69  C   UNL A   1      43.263  28.268  31.931  1.00  0.00     0.074 A 
ATOM     70  C   UNL A   1      44.165  27.451  31.148  1.00  0.00     0.031 C 
ATOM     71  C   UNL A   1      43.465  28.595  33.231  1.00  0.00     0.037 A 
BRANCH  58  72
ATOM     72  C   UNL A   1      39.080  32.253  35.593  1.00  0.00     0.057 A 
ATOM     73  C   UNL A   1      38.254  31.674  36.567  1.00  0.00     0.134 A 
ATOM     74  C   UNL A   1      39.450  33.592  35.774  1.00  0.00     0.134 A 
ATOM     75  F   UNL A   1      37.851  30.400  36.446  1.00  0.00    -0.206 F 
ATOM     76  C   UNL A   1      37.795  32.407  37.663  1.00  0.00     0.040 A 
ATOM     77  C   UNL A   1      39.022  34.325  36.882  1.00  0.00     0.040 A 
ATOM     78  F   UNL A   1      40.243  34.205  34.883  1.00  0.00    -0.206 F 
ATOM     79  C   UNL A   1      38.186  33.734  37.827  1.00  0.00     0.006 A 
ENDBRANCH  58  72
BRANCH  59  80
ATOM     80  C   UNL A   1      42.149  27.374  27.451  1.00  0.00     0.057 A 
ATOM     81  C   UNL A   1      42.034  25.986  27.318  1.00  0.00     0.134 A 
ATOM     82  C   UNL A   1      42.777  28.068  26.409  1.00  0.00     0.134 A 
ATOM     83  F   UNL A   1      41.466  25.259  28.294  1.00  0.00    -0.206 F 
ATOM     84  C   UNL A   1      42.541  25.310  26.207  1.00  0.00     0.040 A 
ATOM     85  C   UNL A   1      43.264  27.410  25.278  1.00  0.00     0.040 A 
ATOM     86  F   UNL A   1      42.924  29.400  26.474  1.00  0.00    -0.206 F 
ATOM     87  C   UNL A   1      43.154  26.025  25.179  1.00  0.00     0.006 A 
ENDBRANCH  59  80
BRANCH  71  88
ATOM     88  C   UNL A   1      44.682  28.032  33.910  1.00  0.00     0.057 A 
ATOM     89  C   UNL A   1      45.896  28.728  33.961  1.00  0.00     0.134 A 
ATOM     90  C   UNL A   1      44.623  26.791  34.559  1.00  0.00     0.134 A 
ATOM     91  F   UNL A   1      46.025  29.917  33.352  1.00  0.00    -0.206 F 
ATOM     92  C   UNL A   1      47.014  28.200  34.611  1.00  0.00     0.040 A 
ATOM     93  C   UNL A   1      45.724  26.267  35.238  1.00  0.00     0.040 A 
ATOM     94  F   UNL A   1      43.489  26.074  34.559  1.00  0.00    -0.206 F 
ATOM     95  C   UNL A   1      46.928  26.969  35.258  1.00  0.00     0.006 A 
ENDBRANCH  71  88
ENDBRANCH  45  46
ENDBRANCH  38  40
ENDBRANCH  37  38
ENDBRANCH  36  37
ENDBRANCH  35  36
ENDBRANCH  34  35
ENDBRANCH  33  34
ENDBRANCH  32  33
ENDBRANCH   1  32
TORSDOF 22
ENDMDL
MODEL 2
REMARK VINA RESULT:     -10.8      0.549      5.899
REMARK SMILES Cc1nc(CCNc2nccc(-c3cc(C(=O)OCCOCCOCCOC(=O)c4ccc(-c5c6nc(c(-c7c(F)cccc7F)c7ccc([nH]7)c(-c7c(F)cccc7F)c7nc(c(-c8c(F)cccc8F)c8ccc5[nH]8)C=C7)C=C6)cc4)ccn3)n2)cc(=O)[nH]1
REMARK SMILES IDX 21 1 20 2 19 3 18 4 16 5 17 6 15 7 13 8 14 9 86 10 85 11
REMARK SMILES IDX 84 12 12 13 8 14 9 15 87 16 10 17 11 18 7 19 6 21 5 22 4 23
REMARK SMILES IDX 1 24 2 25 3 26 91 27 89 28 88 30 90 31 22 32 23 33 24 34
REMARK SMILES IDX 25 35 26 36 27 37 28 38 29 39 30 40 31 41 83 42 32 43 82 44
REMARK SMILES IDX 33 45 34 46 35 47 76 48 36 49 81 50 75 51 77 52 37 53 80 54
REMARK SMILES IDX 74 55 73 56 38 58 64 59 47 60 63 61 48 62 51 63 62 64 78 65
REMARK SMILES IDX 49 66 50 67 61 69 79 70 52 71 39 72 40 73 45 74 41 75 42 76
REMARK SMILES IDX 44 77 46 78 43 79 65 80 66 81 71 82 67 83 68 84 70 85 72 86
REMARK SMILES IDX 69 87 53 88 54 89 59 90 55 91 56 92 58 93 60 94 57 95
REMARK H PARENT 7 20 91 29 77 57 51 68
REMARK Flexibility Score: inf
ROOT
ATOM      1  O   UNL A   1      31.687  26.166  24.688  1.00  0.00    -0.376 OA
ENDROOT
BRANCH   1   2
ATOM      2  C   UNL A   1      33.021  26.152  24.198  1.00  0.00     0.202 C 
BRANCH   2   3
ATOM      3  C   UNL A   1      33.318  25.824  22.724  1.00  0.00     0.261 C 
BRANCH   3   4
ATOM      4  O   UNL A   1      33.855  24.515  22.481  1.00  0.00    -0.460 OA
BRANCH   4   5
ATOM      5  C   UNL A   1      33.092  23.476  22.897  1.00  0.00     0.338 C 
ATOM      6  O   UNL A   1      31.956  23.201  22.539  1.00  0.00    -0.246 OA
BRANCH   5   7
ATOM      7  C   UNL A   1      33.916  22.564  23.716  1.00  0.00     0.063 A 
ATOM      8  C   UNL A   1      35.967  21.928  24.773  1.00  0.00     0.090 A 
ATOM      9  C   UNL A   1      35.245  22.857  24.029  1.00  0.00     0.046 A 
ATOM     10  N   UNL A   1      35.419  20.739  25.148  1.00  0.00    -0.255 NA
ATOM     11  C   UNL A   1      34.137  20.480  24.821  1.00  0.00     0.112 A 
ATOM     12  C   UNL A   1      33.342  21.363  24.128  1.00  0.00     0.036 A 
BRANCH   8  13
ATOM     13  C   UNL A   1      37.308  22.220  25.323  1.00  0.00     0.094 A 
ATOM     14  C   UNL A   1      39.286  21.388  26.147  1.00  0.00     0.223 A 
ATOM     15  N   UNL A   1      39.634  22.566  26.681  1.00  0.00    -0.222 NA
ATOM     16  N   UNL A   1      38.173  21.183  25.437  1.00  0.00    -0.211 NA
ATOM     17  C   UNL A   1      38.800  23.597  26.478  1.00  0.00     0.117 A 
ATOM     18  C   UNL A   1      37.609  23.479  25.812  1.00  0.00     0.051 A 
BRANCH  14  19
ATOM     19  N   UNL A   1      40.106  20.341  26.473  1.00  0.00    -0.354 N 
ATOM     20  H   UNL A   1      39.848  19.735  27.206  1.00  0.00     0.163 HD
BRANCH  19  21
ATOM     21  C   UNL A   1      41.348  20.108  25.764  1.00  0.00     0.122 C 
BRANCH  21  22
ATOM     22  C   UNL A   1      42.496  20.959  26.344  1.00  0.00     0.077 C 
BRANCH  22  23
ATOM     23  C   UNL A   1      43.812  20.819  25.595  1.00  0.00     0.050 A 
ATOM     24  C   UNL A   1      46.367  23.131  24.270  1.00  0.00     0.087 C 
ATOM     25  C   UNL A   1      45.573  21.908  24.629  1.00  0.00     0.105 A 
ATOM     26  N   UNL A   1      44.446  21.997  25.260  1.00  0.00    -0.240 NA
ATOM     27  N   UNL A   1      46.134  20.723  24.245  1.00  0.00    -0.311 N 
ATOM     28  C   UNL A   1      45.560  19.527  24.542  1.00  0.00     0.251 A 
ATOM     29  H   UNL A   1      46.978  20.736  23.738  1.00  0.00     0.171 HD
ATOM     30  C   UNL A   1      44.327  19.607  25.334  1.00  0.00     0.095 A 
ATOM     31  O   UNL A   1      46.022  18.454  24.175  1.00  0.00    -0.270 OA
ENDBRANCH  22  23
ENDBRANCH  21  22
ENDBRANCH  19  21
ENDBRANCH  14  19
ENDBRANCH   8  13
ENDBRANCH   5   7
ENDBRANCH   4   5
ENDBRANCH   3   4
ENDBRANCH   2   3
ENDBRANCH   1   2
BRANCH   1  32
ATOM     32  C   UNL A   1      31.054  27.397  25.012  1.00  0.00     0.188 C 
BRANCH  32  33
ATOM     33  C   UNL A   1      31.704  28.739  24.611  1.00  0.00     0.188 C 
BRANCH  33  34
ATOM     34  O   UNL A   1      31.907  29.619  25.690  1.00  0.00    -0.376 OA
BRANCH  34  35
ATOM     35  C   UNL A   1      31.169  30.827  25.742  1.00  0.00     0.202 C 
BRANCH  35  36
ATOM     36  C   UNL A   1      31.477  31.998  26.702  1.00  0.00     0.261 C 
BRANCH  36  37
ATOM     37  O   UNL A   1      32.733  32.674  26.575  1.00  0.00    -0.460 OA
BRANCH  37  38
ATOM     38  C   UNL A   1      33.136  33.422  27.628  1.00  0.00     0.338 C 
ATOM     39  O   UNL A   1      32.532  34.343  28.156  1.00  0.00    -0.246 OA
BRANCH  38  40
ATOM     40  C   UNL A   1      34.384  32.842  28.161  1.00  0.00     0.060 A 
ATOM     41  C   UNL A   1      34.390  31.503  28.579  1.00  0.00     0.016 A 
ATOM     42  C   UNL A   1      35.537  33.621  28.265  1.00  0.00     0.016 A 
ATOM     43  C   UNL A   1      35.550  30.947  29.123  1.00  0.00     0.010 A 
ATOM     44  C   UNL A   1      36.692  33.067  28.829  1.00  0.00     0.010 A 
ATOM     45  C   UNL A   1      36.697  31.736  29.284  1.00  0.00    -0.014 A 
BRANCH  45  46
ATOM     46  C   UNL A   1      37.846  31.228  30.075  1.00  0.00     0.031 A 
ATOM     47  C   UNL A   1      38.812  30.280  29.418  1.00  0.00     0.074 A 
ATOM     48  C   UNL A   1      38.034  31.598  31.354  1.00  0.00     0.049 A 
ATOM     49  N   UNL A   1      39.840  29.651  29.929  1.00  0.00    -0.248 NA
ATOM     50  C   UNL A   1      38.581  30.000  27.992  1.00  0.00     0.031 C 
ATOM     51  C   UNL A   1      37.196  32.536  32.095  1.00  0.00     0.029 A 
ATOM     52  N   UNL A   1      38.992  31.211  32.261  1.00  0.00    -0.354 N 
ATOM     53  C   UNL A   1      40.372  28.896  28.890  1.00  0.00     0.074 A 
ATOM     54  C   UNL A   1      39.536  29.120  27.731  1.00  0.00     0.031 C 
ATOM     55  C   UNL A   1      37.666  32.641  33.351  1.00  0.00     0.029 A 
ATOM     56  C   UNL A   1      38.815  31.752  33.511  1.00  0.00     0.049 A 
ATOM     57  H   UNL A   1      39.733  30.605  32.035  1.00  0.00     0.167 HD
ATOM     58  C   UNL A   1      41.463  28.093  28.900  1.00  0.00     0.037 A 
ATOM     59  C   UNL A   1      39.488  31.530  34.658  1.00  0.00     0.037 A 
ATOM     60  C   UNL A   1      42.292  27.866  30.055  1.00  0.00     0.049 A 
ATOM     61  C   UNL A   1      40.650  30.569  34.664  1.00  0.00     0.074 A 
ATOM     62  C   UNL A   1      43.429  27.084  30.159  1.00  0.00     0.029 A 
ATOM     63  N   UNL A   1      42.064  28.411  31.309  1.00  0.00    -0.354 N 
ATOM     64  N   UNL A   1      41.163  29.881  33.672  1.00  0.00    -0.248 NA
ATOM     65  C   UNL A   1      41.329  30.356  35.951  1.00  0.00     0.031 C 
ATOM     66  C   UNL A   1      43.856  27.109  31.490  1.00  0.00     0.029 A 
ATOM     67  C   UNL A   1      43.024  27.958  32.201  1.00  0.00     0.049 A 
ATOM     68  H   UNL A   1      41.331  29.027  31.534  1.00  0.00     0.167 HD
ATOM     69  C   UNL A   1      42.241  29.184  34.207  1.00  0.00     0.074 A 
ATOM     70  C   UNL A   1      42.315  29.541  35.608  1.00  0.00     0.031 C 
ATOM     71  C   UNL A   1      43.094  28.328  33.593  1.00  0.00     0.037 A 
BRANCH  58  72
ATOM     72  C   UNL A   1      41.805  27.375  27.626  1.00  0.00     0.057 A 
ATOM     73  C   UNL A   1      42.476  28.011  26.571  1.00  0.00     0.134 A 
ATOM     74  C   UNL A   1      41.486  26.021  27.463  1.00  0.00     0.134 A 
ATOM     75  F   UNL A   1      42.798  29.311  26.656  1.00  0.00    -0.206 F 
ATOM     76  C   UNL A   1      42.792  27.332  25.393  1.00  0.00     0.040 A 
ATOM     77  C   UNL A   1      41.824  25.325  26.302  1.00  0.00     0.040 A 
ATOM     78  F   UNL A   1      40.849  25.351  28.435  1.00  0.00    -0.206 F 
ATOM     79  C   UNL A   1      42.473  25.982  25.260  1.00  0.00     0.006 A 
ENDBRANCH  58  72
BRANCH  59  80
ATOM     80  C   UNL A   1      39.074  32.214  35.910  1.00  0.00     0.057 A 
ATOM     81  C   UNL A   1      39.525  33.503  36.218  1.00  0.00     0.134 A 
ATOM     82  C   UNL A   1      38.246  31.583  36.847  1.00  0.00     0.134 A 
ATOM     83  F   UNL A   1      40.342  34.151  35.375  1.00  0.00    -0.206 F 
ATOM     84  C   UNL A   1      39.185  34.132  37.417  1.00  0.00     0.040 A 
ATOM     85  C   UNL A   1      37.874  32.210  38.037  1.00  0.00     0.040 A 
ATOM     86  F   UNL A   1      37.782  30.346  36.617  1.00  0.00    -0.206 F 
ATOM     87  C   UNL A   1      38.352  33.487  38.329  1.00  0.00     0.006 A 
ENDBRANCH  59  80
BRANCH  71  88
ATOM     88  C   UNL A   1      44.214  27.752  34.415  1.00  0.00     0.057 A 
ATOM     89  C   UNL A   1      45.423  28.433  34.609  1.00  0.00     0.134 A 
ATOM     90  C   UNL A   1      44.061  26.516  35.056  1.00  0.00     0.134 A 
ATOM     91  F   UNL A   1      45.639  29.617  34.015  1.00  0.00    -0.206 F 
ATOM     92  C   UNL A   1      46.447  27.895  35.390  1.00  0.00     0.040 A 
ATOM     93  C   UNL A   1      45.066  25.981  35.865  1.00  0.00     0.040 A 
ATOM     94  F   UNL A   1      42.926  25.813  34.923  1.00  0.00    -0.206 F 
ATOM     95  C   UNL A   1      46.267  26.668  36.027  1.00  0.00     0.006 A 
ENDBRANCH  71  88
ENDBRANCH  45  46
ENDBRANCH  38  40
ENDBRANCH  37  38
ENDBRANCH  36  37
ENDBRANCH  35  36
ENDBRANCH  34  35
ENDBRANCH  33  34
ENDBRANCH  32  33
ENDBRANCH   1  32
TORSDOF 22
ENDMDL
MODEL 3
REMARK VINA RESULT:     -10.0      4.597     10.852
REMARK SMILES Cc1nc(CCNc2nccc(-c3cc(C(=O)OCCOCCOCCOC(=O)c4ccc(-c5c6nc(c(-c7c(F)cccc7F)c7ccc([nH]7)c(-c7c(F)cccc7F)c7nc(c(-c8c(F)cccc8F)c8ccc5[nH]8)C=C7)C=C6)cc4)ccn3)n2)cc(=O)[nH]1
REMARK SMILES IDX 21 1 20 2 19 3 18 4 16 5 17 6 15 7 13 8 14 9 86 10 85 11
REMARK SMILES IDX 84 12 12 13 8 14 9 15 87 16 10 17 11 18 7 19 6 21 5 22 4 23
REMARK SMILES IDX 1 24 2 25 3 26 91 27 89 28 88 30 90 31 22 32 23 33 24 34
REMARK SMILES IDX 25 35 26 36 27 37 28 38 29 39 30 40 31 41 83 42 32 43 82 44
REMARK SMILES IDX 33 45 34 46 35 47 76 48 36 49 81 50 75 51 77 52 37 53 80 54
REMARK SMILES IDX 74 55 73 56 38 58 64 59 47 60 63 61 48 62 51 63 62 64 78 65
REMARK SMILES IDX 49 66 50 67 61 69 79 70 52 71 39 72 40 73 45 74 41 75 42 76
REMARK SMILES IDX 44 77 46 78 43 79 65 80 66 81 71 82 67 83 68 84 70 85 72 86
REMARK SMILES IDX 69 87 53 88 54 89 59 90 55 91 56 92 58 93 60 94 57 95
REMARK H PARENT 7 20 91 29 77 57 51 68
REMARK Flexibility Score: inf
ROOT
ATOM      1  O   UNL A   1      44.089  23.265  28.727  1.00  0.00    -0.376 OA
ENDROOT
BRANCH   1   2
ATOM      2  C   UNL A   1      42.759  23.571  29.125  1.00  0.00     0.202 C 
BRANCH   2   3
ATOM      3  C   UNL A   1      41.574  23.325  28.174  1.00  0.00     0.261 C 
BRANCH   3   4
ATOM      4  O   UNL A   1      40.704  24.448  27.972  1.00  0.00    -0.460 OA
BRANCH   4   5
ATOM      5  C   UNL A   1      41.153  25.398  27.118  1.00  0.00     0.338 C 
ATOM      6  O   UNL A   1      41.834  25.233  26.116  1.00  0.00    -0.246 OA
BRANCH   5   7
ATOM      7  C   UNL A   1      40.518  26.690  27.450  1.00  0.00     0.063 A 
ATOM      8  C   UNL A   1      39.054  28.063  28.752  1.00  0.00     0.090 A 
ATOM      9  C   UNL A   1      39.641  26.822  28.528  1.00  0.00     0.046 A 
ATOM     10  N   UNL A   1      39.281  29.116  27.920  1.00  0.00    -0.255 NA
ATOM     11  C   UNL A   1      40.124  28.956  26.879  1.00  0.00     0.112 A 
ATOM     12  C   UNL A   1      40.780  27.776  26.616  1.00  0.00     0.036 A 
BRANCH   8  13
ATOM     13  C   UNL A   1      38.269  28.363  29.969  1.00  0.00     0.094 A 
ATOM     14  C   UNL A   1      36.749  29.745  31.001  1.00  0.00     0.223 A 
ATOM     15  N   UNL A   1      37.049  29.272  32.218  1.00  0.00    -0.222 NA
ATOM     16  N   UNL A   1      37.295  29.299  29.866  1.00  0.00    -0.211 NA
ATOM     17  C   UNL A   1      37.955  28.285  32.283  1.00  0.00     0.117 A 
ATOM     18  C   UNL A   1      38.611  27.796  31.184  1.00  0.00     0.051 A 
BRANCH  14  19
ATOM     19  N   UNL A   1      35.907  30.824  30.993  1.00  0.00    -0.354 N 
ATOM     20  H   UNL A   1      35.167  30.864  31.640  1.00  0.00     0.163 HD
BRANCH  19  21
ATOM     21  C   UNL A   1      36.082  31.910  30.048  1.00  0.00     0.122 C 
BRANCH  21  22
ATOM     22  C   UNL A   1      34.735  32.346  29.437  1.00  0.00     0.077 C 
BRANCH  22  23
ATOM     23  C   UNL A   1      34.260  33.715  29.896  1.00  0.00     0.050 A 
ATOM     24  C   UNL A   1      34.416  35.661  33.030  1.00  0.00     0.087 C 
ATOM     25  C   UNL A   1      34.132  35.198  31.630  1.00  0.00     0.105 A 
ATOM     26  N   UNL A   1      34.518  34.034  31.213  1.00  0.00    -0.240 NA
ATOM     27  N   UNL A   1      33.453  36.094  30.853  1.00  0.00    -0.311 N 
ATOM     28  C   UNL A   1      33.165  35.841  29.549  1.00  0.00     0.251 A 
ATOM     29  H   UNL A   1      33.162  36.947  31.250  1.00  0.00     0.171 HD
ATOM     30  C   UNL A   1      33.672  34.562  29.036  1.00  0.00     0.095 A 
ATOM     31  O   UNL A   1      32.523  36.609  28.844  1.00  0.00    -0.270 OA
ENDBRANCH  22  23
ENDBRANCH  21  22
ENDBRANCH  19  21
ENDBRANCH  14  19
ENDBRANCH   8  13
ENDBRANCH   5   7
ENDBRANCH   4   5
ENDBRANCH   3   4
ENDBRANCH   2   3
ENDBRANCH   1   2
BRANCH   1  32
ATOM     32  C   UNL A   1      44.656  23.887  27.581  1.00  0.00     0.188 C 
BRANCH  32  33
ATOM     33  C   UNL A   1      45.304  23.035  26.469  1.00  0.00     0.188 C 
BRANCH  33  34
ATOM     34  O   UNL A   1      46.660  23.332  26.239  1.00  0.00    -0.376 OA
BRANCH  34  35
ATOM     35  C   UNL A   1      47.247  24.433  26.910  1.00  0.00     0.202 C 
BRANCH  35  36
ATOM     36  C   UNL A   1      48.487  25.204  26.404  1.00  0.00     0.261 C 
BRANCH  36  37
ATOM     37  O   UNL A   1      48.297  26.493  25.810  1.00  0.00    -0.460 OA
BRANCH  37  38
ATOM     38  C   UNL A   1      47.073  26.759  25.300  1.00  0.00     0.338 C 
ATOM     39  O   UNL A   1      46.595  26.332  24.261  1.00  0.00    -0.246 OA
BRANCH  38  40
ATOM     40  C   UNL A   1      46.315  27.542  26.296  1.00  0.00     0.060 A 
ATOM     41  C   UNL A   1      47.007  28.419  27.144  1.00  0.00     0.016 A 
ATOM     42  C   UNL A   1      44.931  27.398  26.404  1.00  0.00     0.016 A 
ATOM     43  C   UNL A   1      46.313  29.139  28.119  1.00  0.00     0.010 A 
ATOM     44  C   UNL A   1      44.242  28.105  27.394  1.00  0.00     0.010 A 
ATOM     45  C   UNL A   1      44.932  28.960  28.274  1.00  0.00    -0.014 A 
BRANCH  45  46
ATOM     46  C   UNL A   1      44.233  29.531  29.452  1.00  0.00     0.031 A 
ATOM     47  C   UNL A   1      43.855  30.987  29.431  1.00  0.00     0.074 A 
ATOM     48  C   UNL A   1      43.937  28.777  30.525  1.00  0.00     0.049 A 
ATOM     49  N   UNL A   1      43.310  31.721  30.368  1.00  0.00    -0.248 NA
ATOM     50  C   UNL A   1      44.137  31.715  28.183  1.00  0.00     0.031 C 
ATOM     51  C   UNL A   1      44.213  27.349  30.657  1.00  0.00     0.029 A 
ATOM     52  N   UNL A   1      43.345  29.118  31.717  1.00  0.00    -0.354 N 
ATOM     53  C   UNL A   1      43.192  32.996  29.827  1.00  0.00     0.074 A 
ATOM     54  C   UNL A   1      43.749  32.943  28.493  1.00  0.00     0.031 C 
ATOM     55  C   UNL A   1      43.807  26.938  31.872  1.00  0.00     0.029 A 
ATOM     56  C   UNL A   1      43.275  28.080  32.614  1.00  0.00     0.049 A 
ATOM     57  H   UNL A   1      43.006  30.021  31.911  1.00  0.00     0.167 HD
ATOM     58  C   UNL A   1      42.660  34.108  30.388  1.00  0.00     0.037 A 
ATOM     59  C   UNL A   1      42.856  28.063  33.895  1.00  0.00     0.037 A 
ATOM     60  C   UNL A   1      42.109  34.160  31.717  1.00  0.00     0.049 A 
ATOM     61  C   UNL A   1      42.343  29.333  34.526  1.00  0.00     0.074 A 
ATOM     62  C   UNL A   1      41.531  35.236  32.368  1.00  0.00     0.029 A 
ATOM     63  N   UNL A   1      42.081  33.094  32.603  1.00  0.00    -0.354 N 
ATOM     64  N   UNL A   1      42.209  30.526  33.998  1.00  0.00    -0.248 NA
ATOM     65  C   UNL A   1      41.920  29.251  35.932  1.00  0.00     0.031 C 
ATOM     66  C   UNL A   1      41.206  34.837  33.668  1.00  0.00     0.029 A 
ATOM     67  C   UNL A   1      41.521  33.495  33.806  1.00  0.00     0.049 A 
ATOM     68  H   UNL A   1      42.409  32.187  32.408  1.00  0.00     0.167 HD
ATOM     69  C   UNL A   1      41.656  31.325  34.994  1.00  0.00     0.074 A 
ATOM     70  C   UNL A   1      41.470  30.478  36.153  1.00  0.00     0.031 C 
ATOM     71  C   UNL A   1      41.331  32.640  34.951  1.00  0.00     0.037 A 
BRANCH  58  72
ATOM     72  C   UNL A   1      42.676  35.369  29.573  1.00  0.00     0.057 A 
ATOM     73  C   UNL A   1      43.775  36.240  29.573  1.00  0.00     0.134 A 
ATOM     74  C   UNL A   1      41.590  35.702  28.754  1.00  0.00     0.134 A 
ATOM     75  F   UNL A   1      44.843  35.987  30.346  1.00  0.00    -0.206 F 
ATOM     76  C   UNL A   1      43.781  37.407  28.807  1.00  0.00     0.040 A 
ATOM     77  C   UNL A   1      41.597  36.851  27.962  1.00  0.00     0.040 A 
ATOM     78  F   UNL A   1      40.508  34.910  28.703  1.00  0.00    -0.206 F 
ATOM     79  C   UNL A   1      42.692  37.711  27.993  1.00  0.00     0.006 A 
ENDBRANCH  58  72
BRANCH  59  80
ATOM     80  C   UNL A   1      42.917  26.805  34.684  1.00  0.00     0.057 A 
ATOM     81  C   UNL A   1      41.776  26.024  34.896  1.00  0.00     0.134 A 
ATOM     82  C   UNL A   1      44.111  26.371  35.274  1.00  0.00     0.134 A 
ATOM     83  F   UNL A   1      40.595  26.399  34.381  1.00  0.00    -0.206 F 
ATOM     84  C   UNL A   1      41.812  24.870  35.681  1.00  0.00     0.040 A 
ATOM     85  C   UNL A   1      44.170  25.204  36.037  1.00  0.00     0.040 A 
ATOM     86  F   UNL A   1      45.242  27.075  35.113  1.00  0.00    -0.206 F 
ATOM     87  C   UNL A   1      43.015  24.454  36.250  1.00  0.00     0.006 A 
ENDBRANCH  59  80
BRANCH  71  88
ATOM     88  C   UNL A   1      40.693  33.239  36.174  1.00  0.00     0.057 A 
ATOM     89  C   UNL A   1      41.449  33.797  37.212  1.00  0.00     0.134 A 
ATOM     90  C   UNL A   1      39.298  33.296  36.291  1.00  0.00     0.134 A 
ATOM     91  F   UNL A   1      42.790  33.768  37.169  1.00  0.00    -0.206 F 
ATOM     92  C   UNL A   1      40.843  34.367  38.333  1.00  0.00     0.040 A 
ATOM     93  C   UNL A   1      38.679  33.891  37.392  1.00  0.00     0.040 A 
ATOM     94  F   UNL A   1      38.510  32.791  35.329  1.00  0.00    -0.206 F 
ATOM     95  C   UNL A   1      39.453  34.421  38.422  1.00  0.00     0.006 A 
ENDBRANCH  71  88
ENDBRANCH  45  46
ENDBRANCH  38  40
ENDBRANCH  37  38
ENDBRANCH  36  37
ENDBRANCH  35  36
ENDBRANCH  34  35
ENDBRANCH  33  34
ENDBRANCH  32  33
ENDBRANCH   1  32
TORSDOF 22
ENDMDL
