MODEL 1
REMARK VINA RESULT:     -10.4      0.000      0.000
REMARK SMILES COc1cc(N)ccc1SCc1ccc(C(=O)OCCOCCOCCOC(=O)c2ccc(-c3c4nc(c(-c5c(F)cccc5F)c5ccc([nH]5)c(-c5c(F)cccc5F)c5nc(c(-c6c(F)cccc6F)c6ccc3[nH]6)C=C5)C=C4)cc2)s1
REMARK SMILES IDX 22 1 21 2 20 3 19 4 18 5 16 6 17 7 15 8 12 9 13 10 84 11
REMARK SMILES IDX 14 12 11 13 10 14 9 15 3 16 4 17 5 18 8 19 7 20 2 21 1 22
REMARK SMILES IDX 6 23 23 26 24 27 25 28 26 29 27 30 28 31 29 32 30 33 31 34
REMARK SMILES IDX 83 35 32 36 82 37 33 38 34 39 35 40 76 41 36 42 81 43 75 44
REMARK SMILES IDX 77 45 37 46 80 47 74 48 73 49 38 51 64 52 47 53 63 54 48 55
REMARK SMILES IDX 51 56 62 57 78 58 49 59 50 60 61 62 79 63 52 64 39 65 40 66
REMARK SMILES IDX 45 67 41 68 42 69 44 70 46 71 43 72 65 73 66 74 71 75 67 76
REMARK SMILES IDX 68 77 70 78 72 79 69 80 53 81 54 82 59 83 55 84 56 85 58 86
REMARK SMILES IDX 60 87 57 88
REMARK H PARENT 6 24 6 25 77 50 51 61
REMARK Flexibility Score: inf
ROOT
ATOM      1  C   UNL A   1      39.295  22.194  26.450  1.00  0.00     0.188 C 
ENDROOT
BRANCH   1   2
ATOM      2  O   UNL A   1      38.125  22.256  25.640  1.00  0.00    -0.376 OA
BRANCH   2   3
ATOM      3  C   UNL A   1      37.766  21.125  24.852  1.00  0.00     0.202 C 
BRANCH   3   4
ATOM      4  C   UNL A   1      36.500  20.383  25.278  1.00  0.00     0.261 C 
BRANCH   4   5
ATOM      5  O   UNL A   1      35.394  20.709  24.420  1.00  0.00    -0.459 OA
BRANCH   5   6
ATOM      6  C   UNL A   1      34.166  20.370  24.907  1.00  0.00     0.348 C 
ATOM      7  O   UNL A   1      33.669  19.256  24.829  1.00  0.00    -0.245 OA
BRANCH   6   8
ATOM      8  C   UNL A   1      33.603  21.490  25.629  1.00  0.00     0.112 A 
ATOM      9  C   UNL A   1      32.800  23.789  26.116  1.00  0.00     0.016 A 
ATOM     10  C   UNL A   1      32.818  22.976  27.239  1.00  0.00     0.017 A 
ATOM     11  S   UNL A   1      33.195  22.875  24.728  1.00  0.00    -0.132 S 
ATOM     12  C   UNL A   1      33.267  21.646  26.958  1.00  0.00     0.028 A 
BRANCH   9  13
ATOM     13  C   UNL A   1      32.561  25.281  26.081  1.00  0.00     0.121 C 
BRANCH  13  14
ATOM     14  S   UNL A   1      30.849  25.895  26.006  1.00  0.00    -0.117 SA
BRANCH  14  15
ATOM     15  C   UNL A   1      30.828  27.277  24.847  1.00  0.00     0.050 A 
ATOM     16  C   UNL A   1      31.631  28.435  24.842  1.00  0.00     0.134 A 
ATOM     17  C   UNL A   1      31.568  29.318  23.747  1.00  0.00     0.073 A 
ATOM     18  C   UNL A   1      30.711  29.091  22.669  1.00  0.00     0.035 A 
ATOM     19  C   UNL A   1      29.893  27.120  23.809  1.00  0.00     0.021 A 
ATOM     20  C   UNL A   1      29.817  28.032  22.752  1.00  0.00     0.027 A 
BRANCH  16  21
ATOM     21  O   UNL A   1      32.430  28.677  25.930  1.00  0.00    -0.496 OA
ATOM     22  C   UNL A   1      31.787  29.064  27.141  1.00  0.00     0.278 C 
ENDBRANCH  16  21
BRANCH  18  23
ATOM     23  N   UNL A   1      30.651  29.987  21.612  1.00  0.00    -0.399 N 
ATOM     24  H   UNL A   1      31.293  30.731  21.561  1.00  0.00     0.156 HD
ATOM     25  H   UNL A   1      29.966  29.879  20.913  1.00  0.00     0.156 HD
ENDBRANCH  18  23
ENDBRANCH  14  15
ENDBRANCH  13  14
ENDBRANCH   9  13
ENDBRANCH   6   8
ENDBRANCH   5   6
ENDBRANCH   4   5
ENDBRANCH   3   4
ENDBRANCH   2   3
ENDBRANCH   1   2
BRANCH   1  26
ATOM     26  C   UNL A   1      40.218  20.967  26.335  1.00  0.00     0.188 C 
BRANCH  26  27
ATOM     27  O   UNL A   1      41.535  21.195  26.821  1.00  0.00    -0.376 OA
BRANCH  27  28
ATOM     28  C   UNL A   1      42.579  20.568  26.089  1.00  0.00     0.202 C 
BRANCH  28  29
ATOM     29  C   UNL A   1      43.492  21.575  25.387  1.00  0.00     0.261 C 
BRANCH  29  30
ATOM     30  O   UNL A   1      42.859  22.824  25.060  1.00  0.00    -0.460 OA
BRANCH  30  31
ATOM     31  C   UNL A   1      43.644  23.924  25.066  1.00  0.00     0.338 C 
ATOM     32  O   UNL A   1      44.610  24.148  24.360  1.00  0.00    -0.246 OA
BRANCH  31  33
ATOM     33  C   UNL A   1      43.050  24.897  26.001  1.00  0.00     0.060 A 
ATOM     34  C   UNL A   1      43.587  26.188  26.072  1.00  0.00     0.016 A 
ATOM     35  C   UNL A   1      41.979  24.524  26.816  1.00  0.00     0.016 A 
ATOM     36  C   UNL A   1      43.065  27.104  26.987  1.00  0.00     0.010 A 
ATOM     37  C   UNL A   1      41.470  25.436  27.740  1.00  0.00     0.010 A 
ATOM     38  C   UNL A   1      42.027  26.721  27.849  1.00  0.00    -0.014 A 
BRANCH  38  39
ATOM     39  C   UNL A   1      41.613  27.599  28.968  1.00  0.00     0.031 A 
ATOM     40  C   UNL A   1      42.363  27.518  30.266  1.00  0.00     0.074 A 
ATOM     41  C   UNL A   1      40.562  28.427  28.846  1.00  0.00     0.049 A 
ATOM     42  N   UNL A   1      42.144  28.147  31.392  1.00  0.00    -0.248 NA
ATOM     43  C   UNL A   1      43.510  26.596  30.302  1.00  0.00     0.031 C 
ATOM     44  C   UNL A   1      39.752  28.595  27.643  1.00  0.00     0.029 A 
ATOM     45  N   UNL A   1      39.989  29.273  29.762  1.00  0.00    -0.354 N 
ATOM     46  C   UNL A   1      43.120  27.695  32.271  1.00  0.00     0.074 A 
ATOM     47  C   UNL A   1      43.920  26.725  31.555  1.00  0.00     0.031 C 
ATOM     48  C   UNL A   1      38.772  29.481  27.900  1.00  0.00     0.029 A 
ATOM     49  C   UNL A   1      38.886  29.936  29.286  1.00  0.00     0.049 A 
ATOM     50  H   UNL A   1      40.336  29.392  30.677  1.00  0.00     0.167 HD
ATOM     51  C   UNL A   1      43.335  28.059  33.556  1.00  0.00     0.037 A 
ATOM     52  C   UNL A   1      38.063  30.806  29.902  1.00  0.00     0.037 A 
ATOM     53  C   UNL A   1      42.538  29.013  34.278  1.00  0.00     0.049 A 
ATOM     54  C   UNL A   1      38.302  31.168  31.344  1.00  0.00     0.074 A 
ATOM     55  C   UNL A   1      42.692  29.457  35.580  1.00  0.00     0.029 A 
ATOM     56  N   UNL A   1      41.430  29.666  33.759  1.00  0.00    -0.354 N 
ATOM     57  N   UNL A   1      39.251  30.766  32.152  1.00  0.00    -0.248 NA
ATOM     58  C   UNL A   1      37.346  32.102  31.959  1.00  0.00     0.031 C 
ATOM     59  C   UNL A   1      41.654  30.355  35.861  1.00  0.00     0.029 A 
ATOM     60  C   UNL A   1      40.878  30.494  34.721  1.00  0.00     0.049 A 
ATOM     61  H   UNL A   1      41.088  29.556  32.843  1.00  0.00     0.167 HD
ATOM     62  C   UNL A   1      39.019  31.409  33.363  1.00  0.00     0.074 A 
ATOM     63  C   UNL A   1      37.847  32.237  33.179  1.00  0.00     0.031 C 
ATOM     64  C   UNL A   1      39.714  31.317  34.523  1.00  0.00     0.037 A 
BRANCH  51  65
ATOM     65  C   UNL A   1      44.474  27.398  34.271  1.00  0.00     0.057 A 
ATOM     66  C   UNL A   1      45.747  27.979  34.315  1.00  0.00     0.134 A 
ATOM     67  C   UNL A   1      44.291  26.180  34.935  1.00  0.00     0.134 A 
ATOM     68  F   UNL A   1      45.988  29.138  33.683  1.00  0.00    -0.206 F 
ATOM     69  C   UNL A   1      46.806  27.360  34.981  1.00  0.00     0.040 A 
ATOM     70  C   UNL A   1      45.337  25.560  35.619  1.00  0.00     0.040 A 
ATOM     71  F   UNL A   1      43.093  25.574  34.929  1.00  0.00    -0.206 F 
ATOM     72  C   UNL A   1      46.600  26.149  35.639  1.00  0.00     0.006 A 
ENDBRANCH  51  65
BRANCH  52  73
ATOM     73  C   UNL A   1      36.932  31.409  29.158  1.00  0.00     0.057 A 
ATOM     74  C   UNL A   1      35.782  30.665  28.873  1.00  0.00     0.134 A 
ATOM     75  C   UNL A   1      36.979  32.730  28.698  1.00  0.00     0.134 A 
ATOM     76  F   UNL A   1      35.690  29.388  29.271  1.00  0.00    -0.206 F 
ATOM     77  C   UNL A   1      34.721  31.208  28.146  1.00  0.00     0.040 A 
ATOM     78  C   UNL A   1      35.918  33.293  27.987  1.00  0.00     0.040 A 
ATOM     79  F   UNL A   1      38.055  33.492  28.938  1.00  0.00    -0.206 F 
ATOM     80  C   UNL A   1      34.786  32.528  27.705  1.00  0.00     0.006 A 
ENDBRANCH  52  73
BRANCH  64  81
ATOM     81  C   UNL A   1      39.240  32.148  35.678  1.00  0.00     0.057 A 
ATOM     82  C   UNL A   1      38.367  31.634  36.644  1.00  0.00     0.134 A 
ATOM     83  C   UNL A   1      39.700  33.459  35.851  1.00  0.00     0.134 A 
ATOM     84  F   UNL A   1      37.881  30.388  36.527  1.00  0.00    -0.206 F 
ATOM     85  C   UNL A   1      37.957  32.400  37.736  1.00  0.00     0.040 A 
ATOM     86  C   UNL A   1      39.313  34.228  36.948  1.00  0.00     0.040 A 
ATOM     87  F   UNL A   1      40.545  34.006  34.963  1.00  0.00    -0.206 F 
ATOM     88  C   UNL A   1      38.436  33.700  37.893  1.00  0.00     0.006 A 
ENDBRANCH  64  81
ENDBRANCH  38  39
ENDBRANCH  31  33
ENDBRANCH  30  31
ENDBRANCH  29  30
ENDBRANCH  28  29
ENDBRANCH  27  28
ENDBRANCH  26  27
ENDBRANCH   1  26
TORSDOF 22
ENDMDL
MODEL 2
REMARK VINA RESULT:     -10.0      4.519     10.171
REMARK SMILES COc1cc(N)ccc1SCc1ccc(C(=O)OCCOCCOCCOC(=O)c2ccc(-c3c4nc(c(-c5c(F)cccc5F)c5ccc([nH]5)c(-c5c(F)cccc5F)c5nc(c(-c6c(F)cccc6F)c6ccc3[nH]6)C=C5)C=C4)cc2)s1
REMARK SMILES IDX 22 1 21 2 20 3 19 4 18 5 16 6 17 7 15 8 12 9 13 10 84 11
REMARK SMILES IDX 14 12 11 13 10 14 9 15 3 16 4 17 5 18 8 19 7 20 2 21 1 22
REMARK SMILES IDX 6 23 23 26 24 27 25 28 26 29 27 30 28 31 29 32 30 33 31 34
REMARK SMILES IDX 83 35 32 36 82 37 33 38 34 39 35 40 76 41 36 42 81 43 75 44
REMARK SMILES IDX 77 45 37 46 80 47 74 48 73 49 38 51 64 52 47 53 63 54 48 55
REMARK SMILES IDX 51 56 62 57 78 58 49 59 50 60 61 62 79 63 52 64 39 65 40 66
REMARK SMILES IDX 45 67 41 68 42 69 44 70 46 71 43 72 65 73 66 74 71 75 67 76
REMARK SMILES IDX 68 77 70 78 72 79 69 80 53 81 54 82 59 83 55 84 56 85 58 86
REMARK SMILES IDX 60 87 57 88
REMARK H PARENT 6 24 6 25 77 50 51 61
REMARK Flexibility Score: inf
ROOT
ATOM      1  C   UNL A   1      33.047  33.874  28.110  1.00  0.00     0.188 C 
ENDROOT
BRANCH   1   2
ATOM      2  O   UNL A   1      33.982  33.093  27.370  1.00  0.00    -0.376 OA
BRANCH   2   3
ATOM      3  C   UNL A   1      34.579  31.957  27.988  1.00  0.00     0.202 C 
BRANCH   3   4
ATOM      4  C   UNL A   1      34.253  30.602  27.360  1.00  0.00     0.261 C 
BRANCH   4   5
ATOM      5  O   UNL A   1      32.896  30.216  27.633  1.00  0.00    -0.459 OA
BRANCH   5   6
ATOM      6  C   UNL A   1      32.120  30.016  26.530  1.00  0.00     0.348 C 
ATOM      7  O   UNL A   1      31.764  30.895  25.758  1.00  0.00    -0.245 OA
BRANCH   6   8
ATOM      8  C   UNL A   1      31.887  28.599  26.350  1.00  0.00     0.112 A 
ATOM      9  C   UNL A   1      31.688  26.387  25.237  1.00  0.00     0.016 A 
ATOM     10  C   UNL A   1      31.242  26.372  26.551  1.00  0.00     0.017 A 
ATOM     11  S   UNL A   1      32.377  27.907  24.874  1.00  0.00    -0.132 S 
ATOM     12  C   UNL A   1      31.370  27.642  27.198  1.00  0.00     0.028 A 
BRANCH   9  13
ATOM     13  C   UNL A   1      31.532  25.286  24.215  1.00  0.00     0.121 C 
BRANCH  13  14
ATOM     14  S   UNL A   1      31.109  23.610  24.787  1.00  0.00    -0.117 SA
BRANCH  14  15
ATOM     15  C   UNL A   1      32.650  22.808  25.272  1.00  0.00     0.050 A 
ATOM     16  C   UNL A   1      32.999  21.445  25.187  1.00  0.00     0.134 A 
ATOM     17  C   UNL A   1      34.320  21.048  25.467  1.00  0.00     0.073 A 
ATOM     18  C   UNL A   1      35.297  21.968  25.851  1.00  0.00     0.035 A 
ATOM     19  C   UNL A   1      33.615  23.704  25.765  1.00  0.00     0.021 A 
ATOM     20  C   UNL A   1      34.910  23.282  26.078  1.00  0.00     0.027 A 
BRANCH  16  21
ATOM     21  O   UNL A   1      32.020  20.542  24.862  1.00  0.00    -0.496 OA
ATOM     22  C   UNL A   1      32.312  19.602  23.832  1.00  0.00     0.278 C 
ENDBRANCH  16  21
BRANCH  18  23
ATOM     23  N   UNL A   1      36.587  21.550  26.142  1.00  0.00    -0.399 N 
ATOM     24  H   UNL A   1      36.746  20.925  26.886  1.00  0.00     0.156 HD
ATOM     25  H   UNL A   1      37.345  21.879  25.606  1.00  0.00     0.156 HD
ENDBRANCH  18  23
ENDBRANCH  14  15
ENDBRANCH  13  14
ENDBRANCH   9  13
ENDBRANCH   6   8
ENDBRANCH   5   6
ENDBRANCH   4   5
ENDBRANCH   3   4
ENDBRANCH   2   3
ENDBRANCH   1   2
BRANCH   1  26
ATOM     26  C   UNL A   1      33.575  34.930  29.099  1.00  0.00     0.188 C 
BRANCH  26  27
ATOM     27  O   UNL A   1      32.857  34.972  30.326  1.00  0.00    -0.376 OA
BRANCH  27  28
ATOM     28  C   UNL A   1      33.649  34.935  31.505  1.00  0.00     0.202 C 
BRANCH  28  29
ATOM     29  C   UNL A   1      34.984  34.216  31.294  1.00  0.00     0.261 C 
BRANCH  29  30
ATOM     30  O   UNL A   1      34.971  32.823  31.648  1.00  0.00    -0.460 OA
BRANCH  30  31
ATOM     31  C   UNL A   1      35.843  32.430  32.602  1.00  0.00     0.338 C 
ATOM     32  O   UNL A   1      35.728  32.552  33.808  1.00  0.00    -0.246 OA
BRANCH  31  33
ATOM     33  C   UNL A   1      36.932  31.688  31.939  1.00  0.00     0.060 A 
ATOM     34  C   UNL A   1      37.951  31.131  32.721  1.00  0.00     0.016 A 
ATOM     35  C   UNL A   1      36.952  31.563  30.548  1.00  0.00     0.016 A 
ATOM     36  C   UNL A   1      39.013  30.468  32.103  1.00  0.00     0.010 A 
ATOM     37  C   UNL A   1      38.021  30.914  29.932  1.00  0.00     0.010 A 
ATOM     38  C   UNL A   1      39.069  30.386  30.703  1.00  0.00    -0.014 A 
BRANCH  38  39
ATOM     39  C   UNL A   1      40.288  29.886  30.027  1.00  0.00     0.031 A 
ATOM     40  C   UNL A   1      41.428  30.836  29.794  1.00  0.00     0.074 A 
ATOM     41  C   UNL A   1      40.366  28.618  29.588  1.00  0.00     0.049 A 
ATOM     42  N   UNL A   1      42.563  30.635  29.176  1.00  0.00    -0.248 NA
ATOM     43  C   UNL A   1      41.261  32.199  30.323  1.00  0.00     0.031 C 
ATOM     44  C   UNL A   1      39.330  27.602  29.748  1.00  0.00     0.029 A 
ATOM     45  N   UNL A   1      41.367  27.978  28.902  1.00  0.00    -0.354 N 
ATOM     46  C   UNL A   1      43.243  31.844  29.237  1.00  0.00     0.074 A 
ATOM     47  C   UNL A   1      42.386  32.779  29.934  1.00  0.00     0.031 C 
ATOM     48  C   UNL A   1      39.743  26.465  29.160  1.00  0.00     0.029 A 
ATOM     49  C   UNL A   1      41.069  26.678  28.579  1.00  0.00     0.049 A 
ATOM     50  H   UNL A   1      42.218  28.411  28.662  1.00  0.00     0.167 HD
ATOM     51  C   UNL A   1      44.473  32.148  28.760  1.00  0.00     0.037 A 
ATOM     52  C   UNL A   1      41.785  25.768  27.892  1.00  0.00     0.037 A 
ATOM     53  C   UNL A   1      45.326  31.229  28.057  1.00  0.00     0.049 A 
ATOM     54  C   UNL A   1      43.135  26.141  27.340  1.00  0.00     0.074 A 
ATOM     55  C   UNL A   1      46.596  31.444  27.552  1.00  0.00     0.029 A 
ATOM     56  N   UNL A   1      44.988  29.919  27.753  1.00  0.00    -0.354 N 
ATOM     57  N   UNL A   1      43.785  27.274  27.439  1.00  0.00    -0.248 NA
ATOM     58  C   UNL A   1      43.848  25.106  26.575  1.00  0.00     0.031 C 
ATOM     59  C   UNL A   1      47.015  30.272  26.911  1.00  0.00     0.029 A 
ATOM     60  C   UNL A   1      46.018  29.319  27.048  1.00  0.00     0.049 A 
ATOM     61  H   UNL A   1      44.142  29.481  28.001  1.00  0.00     0.167 HD
ATOM     62  C   UNL A   1      44.987  27.085  26.766  1.00  0.00     0.074 A 
ATOM     63  C   UNL A   1      44.982  25.723  26.274  1.00  0.00     0.031 C 
ATOM     64  C   UNL A   1      46.001  27.962  26.570  1.00  0.00     0.037 A 
BRANCH  51  65
ATOM     65  C   UNL A   1      44.958  33.550  28.970  1.00  0.00     0.057 A 
ATOM     66  C   UNL A   1      44.679  34.568  28.049  1.00  0.00     0.134 A 
ATOM     67  C   UNL A   1      45.693  33.889  30.111  1.00  0.00     0.134 A 
ATOM     68  F   UNL A   1      43.992  34.301  26.928  1.00  0.00    -0.206 F 
ATOM     69  C   UNL A   1      45.133  35.872  28.247  1.00  0.00     0.040 A 
ATOM     70  C   UNL A   1      46.137  35.194  30.330  1.00  0.00     0.040 A 
ATOM     71  F   UNL A   1      45.992  32.958  31.031  1.00  0.00    -0.206 F 
ATOM     72  C   UNL A   1      45.860  36.189  29.394  1.00  0.00     0.006 A 
ENDBRANCH  51  65
BRANCH  52  73
ATOM     73  C   UNL A   1      41.246  24.402  27.686  1.00  0.00     0.057 A 
ATOM     74  C   UNL A   1      41.733  23.319  28.425  1.00  0.00     0.134 A 
ATOM     75  C   UNL A   1      40.251  24.143  26.736  1.00  0.00     0.134 A 
ATOM     76  F   UNL A   1      42.700  23.505  29.334  1.00  0.00    -0.206 F 
ATOM     77  C   UNL A   1      41.258  22.023  28.221  1.00  0.00     0.040 A 
ATOM     78  C   UNL A   1      39.754  22.855  26.534  1.00  0.00     0.040 A 
ATOM     79  F   UNL A   1      39.748  25.140  25.995  1.00  0.00    -0.206 F 
ATOM     80  C   UNL A   1      40.262  21.789  27.276  1.00  0.00     0.006 A 
ENDBRANCH  52  73
BRANCH  64  81
ATOM     81  C   UNL A   1      47.199  27.473  25.812  1.00  0.00     0.057 A 
ATOM     82  C   UNL A   1      47.306  27.632  24.425  1.00  0.00     0.134 A 
ATOM     83  C   UNL A   1      48.277  26.881  26.483  1.00  0.00     0.134 A 
ATOM     84  F   UNL A   1      46.302  28.180  23.724  1.00  0.00    -0.206 F 
ATOM     85  C   UNL A   1      48.439  27.206  23.730  1.00  0.00     0.040 A 
ATOM     86  C   UNL A   1      49.422  26.470  25.802  1.00  0.00     0.040 A 
ATOM     87  F   UNL A   1      48.238  26.708  27.813  1.00  0.00    -0.206 F 
ATOM     88  C   UNL A   1      49.504  26.629  24.420  1.00  0.00     0.006 A 
ENDBRANCH  64  81
ENDBRANCH  38  39
ENDBRANCH  31  33
ENDBRANCH  30  31
ENDBRANCH  29  30
ENDBRANCH  28  29
ENDBRANCH  27  28
ENDBRANCH  26  27
ENDBRANCH   1  26
TORSDOF 22
ENDMDL
MODEL 3
REMARK VINA RESULT:     -10.0      4.071      8.322
REMARK SMILES COc1cc(N)ccc1SCc1ccc(C(=O)OCCOCCOCCOC(=O)c2ccc(-c3c4nc(c(-c5c(F)cccc5F)c5ccc([nH]5)c(-c5c(F)cccc5F)c5nc(c(-c6c(F)cccc6F)c6ccc3[nH]6)C=C5)C=C4)cc2)s1
REMARK SMILES IDX 22 1 21 2 20 3 19 4 18 5 16 6 17 7 15 8 12 9 13 10 84 11
REMARK SMILES IDX 14 12 11 13 10 14 9 15 3 16 4 17 5 18 8 19 7 20 2 21 1 22
REMARK SMILES IDX 6 23 23 26 24 27 25 28 26 29 27 30 28 31 29 32 30 33 31 34
REMARK SMILES IDX 83 35 32 36 82 37 33 38 34 39 35 40 76 41 36 42 81 43 75 44
REMARK SMILES IDX 77 45 37 46 80 47 74 48 73 49 38 51 64 52 47 53 63 54 48 55
REMARK SMILES IDX 51 56 62 57 78 58 49 59 50 60 61 62 79 63 52 64 39 65 40 66
REMARK SMILES IDX 45 67 41 68 42 69 44 70 46 71 43 72 65 73 66 74 71 75 67 76
REMARK SMILES IDX 68 77 70 78 72 79 69 80 53 81 54 82 59 83 55 84 56 85 58 86
REMARK SMILES IDX 60 87 57 88
REMARK H PARENT 6 24 6 25 77 50 51 61
REMARK Flexibility Score: inf
ROOT
ATOM      1  C   UNL A   1      33.145  23.836  22.269  1.00  0.00     0.188 C 
ENDROOT
BRANCH   1   2
ATOM      2  O   UNL A   1      33.720  25.035  21.756  1.00  0.00    -0.376 OA
BRANCH   2   3
ATOM      3  C   UNL A   1      32.907  26.200  21.641  1.00  0.00     0.202 C 
BRANCH   3   4
ATOM      4  C   UNL A   1      33.344  27.408  22.468  1.00  0.00     0.261 C 
BRANCH   4   5
ATOM      5  O   UNL A   1      33.438  27.076  23.863  1.00  0.00    -0.459 OA
BRANCH   5   6
ATOM      6  C   UNL A   1      32.410  27.530  24.636  1.00  0.00     0.348 C 
ATOM      7  O   UNL A   1      31.245  27.177  24.524  1.00  0.00    -0.245 OA
BRANCH   6   8
ATOM      8  C   UNL A   1      32.927  28.392  25.675  1.00  0.00     0.112 A 
ATOM      9  C   UNL A   1      33.253  30.406  27.093  1.00  0.00     0.016 A 
ATOM     10  C   UNL A   1      34.181  29.408  27.353  1.00  0.00     0.017 A 
ATOM     11  S   UNL A   1      32.088  29.842  25.978  1.00  0.00    -0.132 S 
ATOM     12  C   UNL A   1      33.986  28.241  26.547  1.00  0.00     0.028 A 
BRANCH   9  13
ATOM     13  C   UNL A   1      33.273  31.822  27.620  1.00  0.00     0.121 C 
BRANCH  13  14
ATOM     14  S   UNL A   1      34.614  32.320  28.746  1.00  0.00    -0.117 SA
BRANCH  14  15
ATOM     15  C   UNL A   1      34.101  33.857  29.539  1.00  0.00     0.050 A 
ATOM     16  C   UNL A   1      34.056  34.167  30.913  1.00  0.00     0.134 A 
ATOM     17  C   UNL A   1      33.782  35.488  31.317  1.00  0.00     0.073 A 
ATOM     18  C   UNL A   1      33.530  36.501  30.391  1.00  0.00     0.035 A 
ATOM     19  C   UNL A   1      33.738  34.862  28.625  1.00  0.00     0.021 A 
ATOM     20  C   UNL A   1      33.428  36.156  29.050  1.00  0.00     0.027 A 
BRANCH  16  21
ATOM     21  O   UNL A   1      34.252  33.154  31.815  1.00  0.00    -0.496 OA
ATOM     22  C   UNL A   1      34.006  33.444  33.188  1.00  0.00     0.278 C 
ENDBRANCH  16  21
BRANCH  18  23
ATOM     23  N   UNL A   1      33.241  37.790  30.814  1.00  0.00    -0.399 N 
ATOM     24  H   UNL A   1      33.300  38.542  30.181  1.00  0.00     0.156 HD
ATOM     25  H   UNL A   1      32.977  37.955  31.749  1.00  0.00     0.156 HD
ENDBRANCH  18  23
ENDBRANCH  14  15
ENDBRANCH  13  14
ENDBRANCH   9  13
ENDBRANCH   6   8
ENDBRANCH   5   6
ENDBRANCH   4   5
ENDBRANCH   3   4
ENDBRANCH   2   3
ENDBRANCH   1   2
BRANCH   1  26
ATOM     26  C   UNL A   1      34.013  22.905  23.135  1.00  0.00     0.188 C 
BRANCH  26  27
ATOM     27  O   UNL A   1      35.222  23.503  23.583  1.00  0.00    -0.376 OA
BRANCH  27  28
ATOM     28  C   UNL A   1      36.388  22.700  23.465  1.00  0.00     0.202 C 
BRANCH  28  29
ATOM     29  C   UNL A   1      36.387  21.516  24.435  1.00  0.00     0.261 C 
BRANCH  29  30
ATOM     30  O   UNL A   1      37.018  21.783  25.699  1.00  0.00    -0.460 OA
BRANCH  30  31
ATOM     31  C   UNL A   1      38.317  21.432  25.817  1.00  0.00     0.338 C 
ATOM     32  O   UNL A   1      38.852  20.420  25.402  1.00  0.00    -0.246 OA
BRANCH  31  33
ATOM     33  C   UNL A   1      39.036  22.563  26.431  1.00  0.00     0.060 A 
ATOM     34  C   UNL A   1      38.572  23.865  26.211  1.00  0.00     0.016 A 
ATOM     35  C   UNL A   1      40.176  22.333  27.206  1.00  0.00     0.016 A 
ATOM     36  C   UNL A   1      39.271  24.948  26.747  1.00  0.00     0.010 A 
ATOM     37  C   UNL A   1      40.882  23.417  27.728  1.00  0.00     0.010 A 
ATOM     38  C   UNL A   1      40.449  24.730  27.480  1.00  0.00    -0.014 A 
BRANCH  38  39
ATOM     39  C   UNL A   1      41.318  25.866  27.864  1.00  0.00     0.031 A 
ATOM     40  C   UNL A   1      40.760  26.932  28.762  1.00  0.00     0.074 A 
ATOM     41  C   UNL A   1      42.571  25.971  27.390  1.00  0.00     0.049 A 
ATOM     42  N   UNL A   1      41.316  28.040  29.181  1.00  0.00    -0.248 NA
ATOM     43  C   UNL A   1      39.385  26.726  29.246  1.00  0.00     0.031 C 
ATOM     44  C   UNL A   1      43.226  25.008  26.510  1.00  0.00     0.029 A 
ATOM     45  N   UNL A   1      43.510  26.954  27.576  1.00  0.00    -0.354 N 
ATOM     46  C   UNL A   1      40.361  28.664  29.973  1.00  0.00     0.074 A 
ATOM     47  C   UNL A   1      39.183  27.823  29.960  1.00  0.00     0.031 C 
ATOM     48  C   UNL A   1      44.460  25.456  26.218  1.00  0.00     0.029 A 
ATOM     49  C   UNL A   1      44.677  26.739  26.887  1.00  0.00     0.049 A 
ATOM     50  H   UNL A   1      43.360  27.741  28.149  1.00  0.00     0.167 HD
ATOM     51  C   UNL A   1      40.457  29.829  30.654  1.00  0.00     0.037 A 
ATOM     52  C   UNL A   1      45.788  27.495  26.805  1.00  0.00     0.037 A 
ATOM     53  C   UNL A   1      41.619  30.676  30.662  1.00  0.00     0.049 A 
ATOM     54  C   UNL A   1      45.858  28.805  27.543  1.00  0.00     0.074 A 
ATOM     55  C   UNL A   1      41.813  31.868  31.338  1.00  0.00     0.029 A 
ATOM     56  N   UNL A   1      42.782  30.421  29.954  1.00  0.00    -0.354 N 
ATOM     57  N   UNL A   1      44.964  29.365  28.321  1.00  0.00    -0.248 NA
ATOM     58  C   UNL A   1      47.091  29.591  27.385  1.00  0.00     0.031 C 
ATOM     59  C   UNL A   1      43.084  32.354  31.011  1.00  0.00     0.029 A 
ATOM     60  C   UNL A   1      43.692  31.445  30.159  1.00  0.00     0.049 A 
ATOM     61  H   UNL A   1      42.938  29.630  29.389  1.00  0.00     0.167 HD
ATOM     62  C   UNL A   1      45.532  30.557  28.758  1.00  0.00     0.074 A 
ATOM     63  C   UNL A   1      46.852  30.633  28.168  1.00  0.00     0.031 C 
ATOM     64  C   UNL A   1      45.004  31.504  29.571  1.00  0.00     0.037 A 
BRANCH  51  65
ATOM     65  C   UNL A   1      39.253  30.265  31.432  1.00  0.00     0.057 A 
ATOM     66  C   UNL A   1      38.256  31.063  30.856  1.00  0.00     0.134 A 
ATOM     67  C   UNL A   1      39.081  29.869  32.763  1.00  0.00     0.134 A 
ATOM     68  F   UNL A   1      38.374  31.487  29.589  1.00  0.00    -0.206 F 
ATOM     69  C   UNL A   1      37.137  31.467  31.584  1.00  0.00     0.040 A 
ATOM     70  C   UNL A   1      37.957  30.252  33.496  1.00  0.00     0.040 A 
ATOM     71  F   UNL A   1      40.000  29.104  33.371  1.00  0.00    -0.206 F 
ATOM     72  C   UNL A   1      36.983  31.057  32.907  1.00  0.00     0.006 A 
ENDBRANCH  51  65
BRANCH  52  73
ATOM     73  C   UNL A   1      46.941  27.032  25.996  1.00  0.00     0.057 A 
ATOM     74  C   UNL A   1      47.952  26.252  26.568  1.00  0.00     0.134 A 
ATOM     75  C   UNL A   1      47.071  27.373  24.644  1.00  0.00     0.134 A 
ATOM     76  F   UNL A   1      47.891  25.913  27.862  1.00  0.00    -0.206 F 
ATOM     77  C   UNL A   1      49.060  25.835  25.828  1.00  0.00     0.040 A 
ATOM     78  C   UNL A   1      48.163  26.947  23.887  1.00  0.00     0.040 A 
ATOM     79  F   UNL A   1      46.135  28.120  24.043  1.00  0.00    -0.206 F 
ATOM     80  C   UNL A   1      49.165  26.179  24.481  1.00  0.00     0.006 A 
ENDBRANCH  52  73
BRANCH  64  81
ATOM     81  C   UNL A   1      45.860  32.693  29.890  1.00  0.00     0.057 A 
ATOM     82  C   UNL A   1      45.801  33.867  29.130  1.00  0.00     0.134 A 
ATOM     83  C   UNL A   1      46.717  32.680  30.998  1.00  0.00     0.134 A 
ATOM     84  F   UNL A   1      45.008  33.938  28.049  1.00  0.00    -0.206 F 
ATOM     85  C   UNL A   1      46.574  34.984  29.453  1.00  0.00     0.040 A 
ATOM     86  C   UNL A   1      47.480  33.795  31.342  1.00  0.00     0.040 A 
ATOM     87  F   UNL A   1      46.813  31.587  31.770  1.00  0.00    -0.206 F 
ATOM     88  C   UNL A   1      47.412  34.951  30.566  1.00  0.00     0.006 A 
ENDBRANCH  64  81
ENDBRANCH  38  39
ENDBRANCH  31  33
ENDBRANCH  30  31
ENDBRANCH  29  30
ENDBRANCH  28  29
ENDBRANCH  27  28
ENDBRANCH  26  27
ENDBRANCH   1  26
TORSDOF 22
ENDMDL
