MODEL 1
REMARK VINA RESULT:     -11.1      0.000      0.000
REMARK SMILES CC1=C2C(CSc3c(Cl)cccc3Cl)=CC(=O)N=C2S[C@H]1C(=O)OCCOCCOCCOC(=O)c1ccc(-c2c3nc(c(-c4c(F)cccc4F)c4ccc([nH]4)c(-c4c(F)cccc4F)c4nc(c(-c5c(F)cccc5F)c5ccc2[nH]5)C=C4)C=C3)cc1
REMARK SMILES IDX 28 1 27 2 26 3 25 4 24 5 22 6 23 7 21 8 1 9 2 10 3 11 4 12
REMARK SMILES IDX 19 13 20 14 15 15 18 16 16 17 17 18 5 19 6 20 7 21 8 22
REMARK SMILES IDX 13 23 9 24 10 25 12 26 14 27 11 28 29 29 30 30 31 31 32 32
REMARK SMILES IDX 33 33 34 34 35 35 36 36 37 37 89 38 38 39 88 40 39 41 40 42
REMARK SMILES IDX 41 43 82 44 42 45 87 46 81 47 83 48 43 49 86 50 80 51 79 52
REMARK SMILES IDX 44 54 70 55 53 56 69 57 54 58 57 59 68 60 84 61 55 62 56 63
REMARK SMILES IDX 67 65 85 66 58 67 45 68 46 69 51 70 47 71 48 72 50 73 52 74
REMARK SMILES IDX 49 75 71 76 72 77 77 78 73 79 74 80 76 81 78 82 75 83 59 84
REMARK SMILES IDX 60 85 65 86 61 87 62 88 64 89 66 90 63 91
REMARK H PARENT 83 53 57 64
REMARK Flexibility Score: inf
ROOT
ATOM      1  C   UNL A   1      40.163  21.613  26.251  1.00  0.00     0.188 C 
ENDROOT
BRANCH   1   2
ATOM      2  O   UNL A   1      38.777  21.890  26.362  1.00  0.00    -0.376 OA
BRANCH   2   3
ATOM      3  C   UNL A   1      37.998  21.886  25.168  1.00  0.00     0.202 C 
BRANCH   3   4
ATOM      4  C   UNL A   1      36.847  20.879  25.101  1.00  0.00     0.261 C 
BRANCH   4   5
ATOM      5  O   UNL A   1      35.643  21.419  24.512  1.00  0.00    -0.462 OA
BRANCH   5   6
ATOM      6  C   UNL A   1      34.467  20.780  24.777  1.00  0.00     0.323 C 
ATOM      7  O   UNL A   1      34.306  19.566  24.688  1.00  0.00    -0.251 OA
BRANCH   6   8
ATOM      8  C   UNL A   1      33.353  21.723  25.276  1.00  0.00     0.189 C 
ATOM      9  C   UNL A   1      34.584  23.269  26.877  1.00  0.00     0.042 C 
ATOM     10  C   UNL A   1      33.820  23.139  25.592  1.00  0.00    -0.039 C 
ATOM     11  C   UNL A   1      33.515  24.082  24.675  1.00  0.00     0.012 C 
ATOM     12  C   UNL A   1      33.732  25.517  24.530  1.00  0.00    -0.022 C 
ATOM     13  C   UNL A   1      32.748  23.467  23.555  1.00  0.00     0.109 C 
ATOM     14  S   UNL A   1      32.074  21.930  24.003  1.00  0.00    -0.086 SA
ATOM     15  C   UNL A   1      33.548  26.009  23.286  1.00  0.00     0.079 C 
ATOM     16  N   UNL A   1      32.564  23.963  22.387  1.00  0.00    -0.202 NA
ATOM     17  C   UNL A   1      33.177  25.159  22.117  1.00  0.00     0.271 C 
ATOM     18  O   UNL A   1      33.354  25.595  20.985  1.00  0.00    -0.267 OA
BRANCH  12  19
ATOM     19  C   UNL A   1      33.962  26.395  25.738  1.00  0.00     0.111 C 
BRANCH  19  20
ATOM     20  S   UNL A   1      32.494  26.900  26.704  1.00  0.00    -0.118 SA
BRANCH  20  21
ATOM     21  C   UNL A   1      31.204  27.209  25.472  1.00  0.00     0.045 A 
ATOM     22  C   UNL A   1      30.255  26.237  25.084  1.00  0.00     0.056 A 
ATOM     23  C   UNL A   1      31.234  28.408  24.716  1.00  0.00     0.056 A 
ATOM     24  Cl  UNL A   1      30.129  24.673  25.814  1.00  0.00    -0.083 Cl
ATOM     25  C   UNL A   1      29.374  26.468  24.016  1.00  0.00     0.022 A 
ATOM     26  C   UNL A   1      30.345  28.628  23.654  1.00  0.00     0.022 A 
ATOM     27  Cl  UNL A   1      32.379  29.677  25.014  1.00  0.00    -0.083 Cl
ATOM     28  C   UNL A   1      29.415  27.660  23.303  1.00  0.00     0.003 A 
ENDBRANCH  20  21
ENDBRANCH  19  20
ENDBRANCH  12  19
ENDBRANCH   6   8
ENDBRANCH   5   6
ENDBRANCH   4   5
ENDBRANCH   3   4
ENDBRANCH   2   3
ENDBRANCH   1   2
BRANCH   1  29
ATOM     29  C   UNL A   1      40.640  20.168  26.497  1.00  0.00     0.188 C 
BRANCH  29  30
ATOM     30  O   UNL A   1      41.869  19.804  25.896  1.00  0.00    -0.376 OA
BRANCH  30  31
ATOM     31  C   UNL A   1      42.379  18.527  26.284  1.00  0.00     0.202 C 
BRANCH  31  32
ATOM     32  C   UNL A   1      43.823  18.260  25.849  1.00  0.00     0.261 C 
BRANCH  32  33
ATOM     33  O   UNL A   1      44.021  18.637  24.470  1.00  0.00    -0.460 OA
BRANCH  33  34
ATOM     34  C   UNL A   1      45.136  19.314  24.138  1.00  0.00     0.338 C 
ATOM     35  O   UNL A   1      46.131  18.877  23.588  1.00  0.00    -0.246 OA
BRANCH  34  36
ATOM     36  C   UNL A   1      44.987  20.724  24.573  1.00  0.00     0.060 A 
ATOM     37  C   UNL A   1      44.586  21.730  23.685  1.00  0.00     0.016 A 
ATOM     38  C   UNL A   1      45.353  21.063  25.875  1.00  0.00     0.016 A 
ATOM     39  C   UNL A   1      44.587  23.071  24.077  1.00  0.00     0.010 A 
ATOM     40  C   UNL A   1      45.326  22.402  26.278  1.00  0.00     0.010 A 
ATOM     41  C   UNL A   1      44.975  23.420  25.374  1.00  0.00    -0.014 A 
BRANCH  41  42
ATOM     42  C   UNL A   1      45.123  24.846  25.762  1.00  0.00     0.031 A 
ATOM     43  C   UNL A   1      46.469  25.506  25.642  1.00  0.00     0.074 A 
ATOM     44  C   UNL A   1      44.073  25.554  26.217  1.00  0.00     0.049 A 
ATOM     45  N   UNL A   1      46.864  26.674  26.081  1.00  0.00    -0.248 NA
ATOM     46  C   UNL A   1      47.509  24.746  24.930  1.00  0.00     0.031 C 
ATOM     47  C   UNL A   1      42.699  25.064  26.319  1.00  0.00     0.029 A 
ATOM     48  N   UNL A   1      44.010  26.839  26.696  1.00  0.00    -0.354 N 
ATOM     49  C   UNL A   1      48.206  26.773  25.734  1.00  0.00     0.074 A 
ATOM     50  C   UNL A   1      48.558  25.548  25.049  1.00  0.00     0.031 C 
ATOM     51  C   UNL A   1      41.929  26.034  26.841  1.00  0.00     0.029 A 
ATOM     52  C   UNL A   1      42.767  27.187  27.166  1.00  0.00     0.049 A 
ATOM     53  H   UNL A   1      44.780  27.453  26.703  1.00  0.00     0.167 HD
ATOM     54  C   UNL A   1      49.067  27.792  25.971  1.00  0.00     0.037 A 
ATOM     55  C   UNL A   1      42.358  28.288  27.826  1.00  0.00     0.037 A 
ATOM     56  C   UNL A   1      48.713  29.019  26.637  1.00  0.00     0.049 A 
ATOM     57  C   UNL A   1      43.348  29.376  28.140  1.00  0.00     0.074 A 
ATOM     58  C   UNL A   1      49.518  30.110  26.918  1.00  0.00     0.029 A 
ATOM     59  N   UNL A   1      47.451  29.318  27.124  1.00  0.00    -0.354 N 
ATOM     60  N   UNL A   1      44.623  29.447  27.845  1.00  0.00    -0.248 NA
ATOM     61  C   UNL A   1      42.842  30.534  28.892  1.00  0.00     0.031 C 
ATOM     62  C   UNL A   1      48.751  31.053  27.612  1.00  0.00     0.029 A 
ATOM     63  C   UNL A   1      47.458  30.570  27.719  1.00  0.00     0.049 A 
ATOM     64  H   UNL A   1      46.665  28.730  27.056  1.00  0.00     0.167 HD
ATOM     65  C   UNL A   1      45.065  30.662  28.354  1.00  0.00     0.074 A 
ATOM     66  C   UNL A   1      43.918  31.303  28.963  1.00  0.00     0.031 C 
ATOM     67  C   UNL A   1      46.310  31.198  28.321  1.00  0.00     0.037 A 
BRANCH  54  68
ATOM     68  C   UNL A   1      50.493  27.604  25.546  1.00  0.00     0.057 A 
ATOM     69  C   UNL A   1      51.489  27.187  26.438  1.00  0.00     0.134 A 
ATOM     70  C   UNL A   1      50.866  27.814  24.211  1.00  0.00     0.134 A 
ATOM     71  F   UNL A   1      51.201  26.988  27.732  1.00  0.00    -0.206 F 
ATOM     72  C   UNL A   1      52.808  26.998  26.020  1.00  0.00     0.040 A 
ATOM     73  C   UNL A   1      52.176  27.606  23.778  1.00  0.00     0.040 A 
ATOM     74  F   UNL A   1      49.960  28.214  23.307  1.00  0.00    -0.206 F 
ATOM     75  C   UNL A   1      53.152  27.202  24.685  1.00  0.00     0.006 A 
ENDBRANCH  54  68
BRANCH  55  76
ATOM     76  C   UNL A   1      40.948  28.400  28.275  1.00  0.00     0.057 A 
ATOM     77  C   UNL A   1      39.961  28.932  27.439  1.00  0.00     0.134 A 
ATOM     78  C   UNL A   1      40.559  27.990  29.556  1.00  0.00     0.134 A 
ATOM     79  F   UNL A   1      40.278  29.367  26.212  1.00  0.00    -0.206 F 
ATOM     80  C   UNL A   1      38.638  29.062  27.865  1.00  0.00     0.040 A 
ATOM     81  C   UNL A   1      39.235  28.090  29.985  1.00  0.00     0.040 A 
ATOM     82  F   UNL A   1      41.460  27.474  30.406  1.00  0.00    -0.206 F 
ATOM     83  C   UNL A   1      38.271  28.634  29.139  1.00  0.00     0.006 A 
ENDBRANCH  55  76
BRANCH  67  84
ATOM     84  C   UNL A   1      46.485  32.560  28.928  1.00  0.00     0.057 A 
ATOM     85  C   UNL A   1      46.853  32.732  30.268  1.00  0.00     0.134 A 
ATOM     86  C   UNL A   1      46.298  33.714  28.156  1.00  0.00     0.134 A 
ATOM     87  F   UNL A   1      47.034  31.668  31.066  1.00  0.00    -0.206 F 
ATOM     88  C   UNL A   1      47.000  34.004  30.828  1.00  0.00     0.040 A 
ATOM     89  C   UNL A   1      46.466  34.990  28.696  1.00  0.00     0.040 A 
ATOM     90  F   UNL A   1      45.955  33.620  26.863  1.00  0.00    -0.206 F 
ATOM     91  C   UNL A   1      46.810  35.137  30.038  1.00  0.00     0.006 A 
ENDBRANCH  67  84
ENDBRANCH  41  42
ENDBRANCH  34  36
ENDBRANCH  33  34
ENDBRANCH  32  33
ENDBRANCH  31  32
ENDBRANCH  30  31
ENDBRANCH  29  30
ENDBRANCH   1  29
TORSDOF 20
ENDMDL
MODEL 2
REMARK VINA RESULT:     -10.8      4.926      8.433
REMARK SMILES CC1=C2C(CSc3c(Cl)cccc3Cl)=CC(=O)N=C2S[C@H]1C(=O)OCCOCCOCCOC(=O)c1ccc(-c2c3nc(c(-c4c(F)cccc4F)c4ccc([nH]4)c(-c4c(F)cccc4F)c4nc(c(-c5c(F)cccc5F)c5ccc2[nH]5)C=C4)C=C3)cc1
REMARK SMILES IDX 28 1 27 2 26 3 25 4 24 5 22 6 23 7 21 8 1 9 2 10 3 11 4 12
REMARK SMILES IDX 19 13 20 14 15 15 18 16 16 17 17 18 5 19 6 20 7 21 8 22
REMARK SMILES IDX 13 23 9 24 10 25 12 26 14 27 11 28 29 29 30 30 31 31 32 32
REMARK SMILES IDX 33 33 34 34 35 35 36 36 37 37 89 38 38 39 88 40 39 41 40 42
REMARK SMILES IDX 41 43 82 44 42 45 87 46 81 47 83 48 43 49 86 50 80 51 79 52
REMARK SMILES IDX 44 54 70 55 53 56 69 57 54 58 57 59 68 60 84 61 55 62 56 63
REMARK SMILES IDX 67 65 85 66 58 67 45 68 46 69 51 70 47 71 48 72 50 73 52 74
REMARK SMILES IDX 49 75 71 76 72 77 77 78 73 79 74 80 76 81 78 82 75 83 59 84
REMARK SMILES IDX 60 85 65 86 61 87 62 88 64 89 66 90 63 91
REMARK H PARENT 83 53 57 64
REMARK Flexibility Score: inf
ROOT
ATOM      1  C   UNL A   1      39.676  22.390  26.314  1.00  0.00     0.188 C 
ENDROOT
BRANCH   1   2
ATOM      2  O   UNL A   1      38.348  21.912  26.171  1.00  0.00    -0.376 OA
BRANCH   2   3
ATOM      3  C   UNL A   1      38.032  21.164  25.000  1.00  0.00     0.202 C 
BRANCH   3   4
ATOM      4  C   UNL A   1      36.770  20.298  25.058  1.00  0.00     0.261 C 
BRANCH   4   5
ATOM      5  O   UNL A   1      35.603  20.943  24.499  1.00  0.00    -0.462 OA
BRANCH   5   6
ATOM      6  C   UNL A   1      34.533  21.139  25.323  1.00  0.00     0.323 C 
ATOM      7  O   UNL A   1      33.490  20.495  25.264  1.00  0.00    -0.251 OA
BRANCH   6   8
ATOM      8  C   UNL A   1      34.777  22.213  26.403  1.00  0.00     0.189 C 
ATOM      9  C   UNL A   1      35.802  24.131  25.085  1.00  0.00     0.042 C 
ATOM     10  C   UNL A   1      34.644  23.648  25.908  1.00  0.00    -0.039 C 
ATOM     11  C   UNL A   1      33.503  24.287  26.245  1.00  0.00     0.012 C 
ATOM     12  C   UNL A   1      32.934  25.611  26.019  1.00  0.00    -0.022 C 
ATOM     13  C   UNL A   1      32.646  23.389  27.068  1.00  0.00     0.109 C 
ATOM     14  S   UNL A   1      33.553  22.067  27.736  1.00  0.00    -0.086 SA
ATOM     15  C   UNL A   1      31.609  25.721  26.254  1.00  0.00     0.079 C 
ATOM     16  N   UNL A   1      31.392  23.525  27.299  1.00  0.00    -0.202 NA
ATOM     17  C   UNL A   1      30.757  24.574  26.688  1.00  0.00     0.271 C 
ATOM     18  O   UNL A   1      29.541  24.654  26.558  1.00  0.00    -0.267 OA
BRANCH  12  19
ATOM     19  C   UNL A   1      33.819  26.800  25.725  1.00  0.00     0.111 C 
BRANCH  19  20
ATOM     20  S   UNL A   1      33.809  27.456  24.019  1.00  0.00    -0.118 SA
BRANCH  20  21
ATOM     21  C   UNL A   1      32.115  28.037  23.748  1.00  0.00     0.045 A 
ATOM     22  C   UNL A   1      31.270  27.515  22.745  1.00  0.00     0.056 A 
ATOM     23  C   UNL A   1      31.655  29.186  24.437  1.00  0.00     0.056 A 
ATOM     24  Cl  UNL A   1      31.695  26.181  21.727  1.00  0.00    -0.083 Cl
ATOM     25  C   UNL A   1      30.024  28.099  22.469  1.00  0.00     0.022 A 
ATOM     26  C   UNL A   1      30.405  29.758  24.154  1.00  0.00     0.022 A 
ATOM     27  Cl  UNL A   1      32.595  29.995  25.650  1.00  0.00    -0.083 Cl
ATOM     28  C   UNL A   1      29.589  29.216  23.172  1.00  0.00     0.003 A 
ENDBRANCH  20  21
ENDBRANCH  19  20
ENDBRANCH  12  19
ENDBRANCH   6   8
ENDBRANCH   5   6
ENDBRANCH   4   5
ENDBRANCH   3   4
ENDBRANCH   2   3
ENDBRANCH   1   2
BRANCH   1  29
ATOM     29  C   UNL A   1      40.833  21.385  26.158  1.00  0.00     0.188 C 
BRANCH  29  30
ATOM     30  O   UNL A   1      42.089  21.793  26.669  1.00  0.00    -0.376 OA
BRANCH  30  31
ATOM     31  C   UNL A   1      43.199  21.572  25.798  1.00  0.00     0.202 C 
BRANCH  31  32
ATOM     32  C   UNL A   1      43.419  22.674  24.756  1.00  0.00     0.261 C 
BRANCH  32  33
ATOM     33  O   UNL A   1      42.887  23.932  25.222  1.00  0.00    -0.460 OA
BRANCH  33  34
ATOM     34  C   UNL A   1      43.737  24.954  25.435  1.00  0.00     0.338 C 
ATOM     35  O   UNL A   1      44.640  25.329  24.709  1.00  0.00    -0.246 OA
BRANCH  34  36
ATOM     36  C   UNL A   1      43.420  25.574  26.745  1.00  0.00     0.060 A 
ATOM     37  C   UNL A   1      42.521  24.983  27.641  1.00  0.00     0.016 A 
ATOM     38  C   UNL A   1      43.959  26.826  27.038  1.00  0.00     0.016 A 
ATOM     39  C   UNL A   1      42.129  25.649  28.804  1.00  0.00     0.010 A 
ATOM     40  C   UNL A   1      43.590  27.482  28.217  1.00  0.00     0.010 A 
ATOM     41  C   UNL A   1      42.647  26.915  29.092  1.00  0.00    -0.014 A 
BRANCH  41  42
ATOM     42  C   UNL A   1      42.133  27.700  30.244  1.00  0.00     0.031 A 
ATOM     43  C   UNL A   1      40.909  28.555  30.065  1.00  0.00     0.074 A 
ATOM     44  C   UNL A   1      42.743  27.655  31.442  1.00  0.00     0.049 A 
ATOM     45  N   UNL A   1      40.392  29.447  30.871  1.00  0.00    -0.248 NA
ATOM     46  C   UNL A   1      40.168  28.381  28.804  1.00  0.00     0.031 C 
ATOM     47  C   UNL A   1      43.893  26.817  31.779  1.00  0.00     0.029 A 
ATOM     48  N   UNL A   1      42.483  28.350  32.598  1.00  0.00    -0.354 N 
ATOM     49  C   UNL A   1      39.291  29.968  30.203  1.00  0.00     0.074 A 
ATOM     50  C   UNL A   1      39.214  29.293  28.925  1.00  0.00     0.031 C 
ATOM     51  C   UNL A   1      44.249  27.056  33.052  1.00  0.00     0.029 A 
ATOM     52  C   UNL A   1      43.391  28.106  33.599  1.00  0.00     0.049 A 
ATOM     53  H   UNL A   1      41.721  28.965  32.699  1.00  0.00     0.167 HD
ATOM     54  C   UNL A   1      38.427  30.926  30.616  1.00  0.00     0.037 A 
ATOM     55  C   UNL A   1      43.547  28.694  34.801  1.00  0.00     0.037 A 
ATOM     56  C   UNL A   1      38.493  31.584  31.895  1.00  0.00     0.049 A 
ATOM     57  C   UNL A   1      42.618  29.805  35.210  1.00  0.00     0.074 A 
ATOM     58  C   UNL A   1      37.657  32.565  32.404  1.00  0.00     0.029 A 
ATOM     59  N   UNL A   1      39.446  31.329  32.868  1.00  0.00    -0.354 N 
ATOM     60  N   UNL A   1      41.603  30.319  34.559  1.00  0.00    -0.248 NA
ATOM     61  C   UNL A   1      42.865  30.424  36.521  1.00  0.00     0.031 C 
ATOM     62  C   UNL A   1      38.131  32.931  33.668  1.00  0.00     0.029 A 
ATOM     63  C   UNL A   1      39.230  32.145  33.967  1.00  0.00     0.049 A 
ATOM     64  H   UNL A   1      40.169  30.665  32.790  1.00  0.00     0.167 HD
ATOM     65  C   UNL A   1      41.080  31.304  35.386  1.00  0.00     0.074 A 
ATOM     66  C   UNL A   1      41.878  31.306  36.594  1.00  0.00     0.031 C 
ATOM     67  C   UNL A   1      40.032  32.136  35.165  1.00  0.00     0.037 A 
BRANCH  54  68
ATOM     68  C   UNL A   1      37.358  31.352  29.655  1.00  0.00     0.057 A 
ATOM     69  C   UNL A   1      36.205  30.587  29.434  1.00  0.00     0.134 A 
ATOM     70  C   UNL A   1      37.470  32.567  28.966  1.00  0.00     0.134 A 
ATOM     71  F   UNL A   1      36.047  29.406  30.049  1.00  0.00    -0.206 F 
ATOM     72  C   UNL A   1      35.210  31.009  28.551  1.00  0.00     0.040 A 
ATOM     73  C   UNL A   1      36.470  33.010  28.099  1.00  0.00     0.040 A 
ATOM     74  F   UNL A   1      38.549  33.347  29.133  1.00  0.00    -0.206 F 
ATOM     75  C   UNL A   1      35.339  32.227  27.886  1.00  0.00     0.006 A 
ENDBRANCH  54  68
BRANCH  55  76
ATOM     76  C   UNL A   1      44.656  28.274  35.691  1.00  0.00     0.057 A 
ATOM     77  C   UNL A   1      44.461  27.312  36.689  1.00  0.00     0.134 A 
ATOM     78  C   UNL A   1      45.935  28.835  35.576  1.00  0.00     0.134 A 
ATOM     79  F   UNL A   1      43.253  26.760  36.866  1.00  0.00    -0.206 F 
ATOM     80  C   UNL A   1      45.494  26.930  37.546  1.00  0.00     0.040 A 
ATOM     81  C   UNL A   1      46.983  28.442  36.409  1.00  0.00     0.040 A 
ATOM     82  F   UNL A   1      46.184  29.764  34.641  1.00  0.00    -0.206 F 
ATOM     83  C   UNL A   1      46.762  27.491  37.402  1.00  0.00     0.006 A 
ENDBRANCH  55  76
BRANCH  67  84
ATOM     84  C   UNL A   1      39.667  33.087  36.267  1.00  0.00     0.057 A 
ATOM     85  C   UNL A   1      40.239  34.362  36.365  1.00  0.00     0.134 A 
ATOM     86  C   UNL A   1      38.721  32.728  37.235  1.00  0.00     0.134 A 
ATOM     87  F   UNL A   1      41.163  34.763  35.478  1.00  0.00    -0.206 F 
ATOM     88  C   UNL A   1      39.904  35.235  37.403  1.00  0.00     0.040 A 
ATOM     89  C   UNL A   1      38.358  33.600  38.262  1.00  0.00     0.040 A 
ATOM     90  F   UNL A   1      38.128  31.525  37.194  1.00  0.00    -0.206 F 
ATOM     91  C   UNL A   1      38.957  34.855  38.353  1.00  0.00     0.006 A 
ENDBRANCH  67  84
ENDBRANCH  41  42
ENDBRANCH  34  36
ENDBRANCH  33  34
ENDBRANCH  32  33
ENDBRANCH  31  32
ENDBRANCH  30  31
ENDBRANCH  29  30
ENDBRANCH   1  29
TORSDOF 20
ENDMDL
MODEL 3
REMARK VINA RESULT:     -10.8      4.735      6.976
REMARK SMILES CC1=C2C(CSc3c(Cl)cccc3Cl)=CC(=O)N=C2S[C@H]1C(=O)OCCOCCOCCOC(=O)c1ccc(-c2c3nc(c(-c4c(F)cccc4F)c4ccc([nH]4)c(-c4c(F)cccc4F)c4nc(c(-c5c(F)cccc5F)c5ccc2[nH]5)C=C4)C=C3)cc1
REMARK SMILES IDX 28 1 27 2 26 3 25 4 24 5 22 6 23 7 21 8 1 9 2 10 3 11 4 12
REMARK SMILES IDX 19 13 20 14 15 15 18 16 16 17 17 18 5 19 6 20 7 21 8 22
REMARK SMILES IDX 13 23 9 24 10 25 12 26 14 27 11 28 29 29 30 30 31 31 32 32
REMARK SMILES IDX 33 33 34 34 35 35 36 36 37 37 89 38 38 39 88 40 39 41 40 42
REMARK SMILES IDX 41 43 82 44 42 45 87 46 81 47 83 48 43 49 86 50 80 51 79 52
REMARK SMILES IDX 44 54 70 55 53 56 69 57 54 58 57 59 68 60 84 61 55 62 56 63
REMARK SMILES IDX 67 65 85 66 58 67 45 68 46 69 51 70 47 71 48 72 50 73 52 74
REMARK SMILES IDX 49 75 71 76 72 77 77 78 73 79 74 80 76 81 78 82 75 83 59 84
REMARK SMILES IDX 60 85 65 86 61 87 62 88 64 89 66 90 63 91
REMARK H PARENT 83 53 57 64
REMARK Flexibility Score: inf
ROOT
ATOM      1  C   UNL A   1      39.384  21.337  26.053  1.00  0.00     0.188 C 
ENDROOT
BRANCH   1   2
ATOM      2  O   UNL A   1      38.136  21.366  25.380  1.00  0.00    -0.376 OA
BRANCH   2   3
ATOM      3  C   UNL A   1      37.574  20.124  24.964  1.00  0.00     0.202 C 
BRANCH   3   4
ATOM      4  C   UNL A   1      36.047  20.017  24.993  1.00  0.00     0.261 C 
BRANCH   4   5
ATOM      5  O   UNL A   1      35.379  21.149  24.392  1.00  0.00    -0.462 OA
BRANCH   5   6
ATOM      6  C   UNL A   1      34.230  21.592  24.980  1.00  0.00     0.323 C 
ATOM      7  O   UNL A   1      33.103  21.247  24.637  1.00  0.00    -0.251 OA
BRANCH   6   8
ATOM      8  C   UNL A   1      34.475  22.526  26.183  1.00  0.00     0.189 C 
ATOM      9  C   UNL A   1      35.633  24.529  25.127  1.00  0.00     0.042 C 
ATOM     10  C   UNL A   1      34.423  24.012  25.848  1.00  0.00    -0.039 C 
ATOM     11  C   UNL A   1      33.297  24.662  26.214  1.00  0.00     0.012 C 
ATOM     12  C   UNL A   1      32.794  26.028  26.119  1.00  0.00    -0.022 C 
ATOM     13  C   UNL A   1      32.370  23.719  26.900  1.00  0.00     0.109 C 
ATOM     14  S   UNL A   1      33.192  22.290  27.446  1.00  0.00    -0.086 SA
ATOM     15  C   UNL A   1      31.466  26.173  26.318  1.00  0.00     0.079 C 
ATOM     16  N   UNL A   1      31.114  23.886  27.099  1.00  0.00    -0.202 NA
ATOM     17  C   UNL A   1      30.550  25.025  26.588  1.00  0.00     0.271 C 
ATOM     18  O   UNL A   1      29.345  25.177  26.425  1.00  0.00    -0.267 OA
BRANCH  12  19
ATOM     19  C   UNL A   1      33.740  27.199  25.994  1.00  0.00     0.111 C 
BRANCH  19  20
ATOM     20  S   UNL A   1      33.982  27.912  24.327  1.00  0.00    -0.118 SA
BRANCH  20  21
ATOM     21  C   UNL A   1      32.320  28.351  23.758  1.00  0.00     0.045 A 
ATOM     22  C   UNL A   1      31.524  29.336  24.381  1.00  0.00     0.056 A 
ATOM     23  C   UNL A   1      31.695  27.563  22.759  1.00  0.00     0.056 A 
ATOM     24  Cl  UNL A   1      32.071  30.329  25.689  1.00  0.00    -0.083 Cl
ATOM     25  C   UNL A   1      30.186  29.534  24.005  1.00  0.00     0.022 A 
ATOM     26  C   UNL A   1      30.358  27.774  22.389  1.00  0.00     0.022 A 
ATOM     27  Cl  UNL A   1      32.507  26.267  21.941  1.00  0.00    -0.083 Cl
ATOM     28  C   UNL A   1      29.603  28.758  23.010  1.00  0.00     0.003 A 
ENDBRANCH  20  21
ENDBRANCH  19  20
ENDBRANCH  12  19
ENDBRANCH   6   8
ENDBRANCH   5   6
ENDBRANCH   4   5
ENDBRANCH   3   4
ENDBRANCH   2   3
ENDBRANCH   1   2
BRANCH   1  29
ATOM     29  C   UNL A   1      40.162  20.008  26.090  1.00  0.00     0.188 C 
BRANCH  29  30
ATOM     30  O   UNL A   1      41.455  20.055  26.663  1.00  0.00    -0.376 OA
BRANCH  30  31
ATOM     31  C   UNL A   1      42.534  19.865  25.745  1.00  0.00     0.202 C 
BRANCH  31  32
ATOM     32  C   UNL A   1      43.387  21.114  25.500  1.00  0.00     0.261 C 
BRANCH  32  33
ATOM     33  O   UNL A   1      42.958  22.202  26.346  1.00  0.00    -0.460 OA
BRANCH  33  34
ATOM     34  C   UNL A   1      43.054  23.461  25.878  1.00  0.00     0.338 C 
ATOM     35  O   UNL A   1      43.254  23.810  24.728  1.00  0.00    -0.246 OA
BRANCH  34  36
ATOM     36  C   UNL A   1      42.895  24.405  27.011  1.00  0.00     0.060 A 
ATOM     37  C   UNL A   1      42.031  24.133  28.080  1.00  0.00     0.016 A 
ATOM     38  C   UNL A   1      43.549  25.634  26.951  1.00  0.00     0.016 A 
ATOM     39  C   UNL A   1      41.789  25.094  29.064  1.00  0.00     0.010 A 
ATOM     40  C   UNL A   1      43.330  26.587  27.952  1.00  0.00     0.010 A 
ATOM     41  C   UNL A   1      42.424  26.338  28.997  1.00  0.00    -0.014 A 
BRANCH  41  42
ATOM     42  C   UNL A   1      42.068  27.422  29.949  1.00  0.00     0.031 A 
ATOM     43  C   UNL A   1      42.832  27.553  31.237  1.00  0.00     0.074 A 
ATOM     44  C   UNL A   1      41.075  28.288  29.674  1.00  0.00     0.049 A 
ATOM     45  N   UNL A   1      42.584  28.305  32.279  1.00  0.00    -0.248 NA
ATOM     46  C   UNL A   1      44.042  26.723  31.367  1.00  0.00     0.031 C 
ATOM     47  C   UNL A   1      40.297  28.323  28.436  1.00  0.00     0.029 A 
ATOM     48  N   UNL A   1      40.541  29.297  30.437  1.00  0.00    -0.354 N 
ATOM     49  C   UNL A   1      43.580  28.012  33.202  1.00  0.00     0.074 A 
ATOM     50  C   UNL A   1      44.436  27.014  32.598  1.00  0.00     0.031 C 
ATOM     51  C   UNL A   1      39.377  29.298  28.528  1.00  0.00     0.029 A 
ATOM     52  C   UNL A   1      39.460  29.911  29.852  1.00  0.00     0.049 A 
ATOM     53  H   UNL A   1      40.896  29.556  31.317  1.00  0.00     0.167 HD
ATOM     54  C   UNL A   1      43.759  28.524  34.443  1.00  0.00     0.037 A 
ATOM     55  C   UNL A   1      38.604  30.828  30.343  1.00  0.00     0.037 A 
ATOM     56  C   UNL A   1      42.918  29.531  35.038  1.00  0.00     0.049 A 
ATOM     57  C   UNL A   1      38.781  31.332  31.749  1.00  0.00     0.074 A 
ATOM     58  C   UNL A   1      43.025  30.115  36.288  1.00  0.00     0.029 A 
ATOM     59  N   UNL A   1      41.816  30.104  34.423  1.00  0.00    -0.354 N 
ATOM     60  N   UNL A   1      39.700  31.022  32.631  1.00  0.00    -0.248 NA
ATOM     61  C   UNL A   1      37.792  32.306  32.232  1.00  0.00     0.031 C 
ATOM     62  C   UNL A   1      41.963  31.012  36.446  1.00  0.00     0.029 A 
ATOM     63  C   UNL A   1      41.224  31.023  35.275  1.00  0.00     0.049 A 
ATOM     64  H   UNL A   1      41.501  29.891  33.515  1.00  0.00     0.167 HD
ATOM     65  C   UNL A   1      39.414  31.777  33.761  1.00  0.00     0.074 A 
ATOM     66  C   UNL A   1      38.244  32.572  33.449  1.00  0.00     0.031 C 
ATOM     67  C   UNL A   1      40.060  31.808  34.952  1.00  0.00     0.037 A 
BRANCH  54  68
ATOM     68  C   UNL A   1      44.888  27.972  35.262  1.00  0.00     0.057 A 
ATOM     69  C   UNL A   1      46.163  28.551  35.261  1.00  0.00     0.134 A 
ATOM     70  C   UNL A   1      44.682  26.861  36.092  1.00  0.00     0.134 A 
ATOM     71  F   UNL A   1      46.430  29.604  34.474  1.00  0.00    -0.206 F 
ATOM     72  C   UNL A   1      47.197  28.036  36.045  1.00  0.00     0.040 A 
ATOM     73  C   UNL A   1      45.702  26.353  36.897  1.00  0.00     0.040 A 
ATOM     74  F   UNL A   1      43.484  26.261  36.139  1.00  0.00    -0.206 F 
ATOM     75  C   UNL A   1      46.965  26.938  36.871  1.00  0.00     0.006 A 
ENDBRANCH  54  68
BRANCH  55  76
ATOM     76  C   UNL A   1      37.469  31.300  29.511  1.00  0.00     0.057 A 
ATOM     77  C   UNL A   1      37.499  32.552  28.889  1.00  0.00     0.134 A 
ATOM     78  C   UNL A   1      36.323  30.516  29.331  1.00  0.00     0.134 A 
ATOM     79  F   UNL A   1      38.557  33.360  29.046  1.00  0.00    -0.206 F 
ATOM     80  C   UNL A   1      36.425  33.013  28.125  1.00  0.00     0.040 A 
ATOM     81  C   UNL A   1      35.254  30.953  28.549  1.00  0.00     0.040 A 
ATOM     82  F   UNL A   1      36.233  29.306  29.905  1.00  0.00    -0.206 F 
ATOM     83  C   UNL A   1      35.301  32.208  27.948  1.00  0.00     0.006 A 
ENDBRANCH  55  76
BRANCH  67  84
ATOM     84  C   UNL A   1      39.539  32.760  35.990  1.00  0.00     0.057 A 
ATOM     85  C   UNL A   1      38.551  32.384  36.909  1.00  0.00     0.134 A 
ATOM     86  C   UNL A   1      40.043  34.063  36.080  1.00  0.00     0.134 A 
ATOM     87  F   UNL A   1      38.016  31.155  36.869  1.00  0.00    -0.206 F 
ATOM     88  C   UNL A   1      38.062  33.282  37.862  1.00  0.00     0.040 A 
ATOM     89  C   UNL A   1      39.581  34.961  37.043  1.00  0.00     0.040 A 
ATOM     90  F   UNL A   1      40.997  34.484  35.236  1.00  0.00    -0.206 F 
ATOM     91  C   UNL A   1      38.581  34.574  37.933  1.00  0.00     0.006 A 
ENDBRANCH  67  84
ENDBRANCH  41  42
ENDBRANCH  34  36
ENDBRANCH  33  34
ENDBRANCH  32  33
ENDBRANCH  31  32
ENDBRANCH  30  31
ENDBRANCH  29  30
ENDBRANCH   1  29
TORSDOF 20
ENDMDL
