MODEL 1
REMARK VINA RESULT:     -10.1      0.000      0.000
REMARK SMILES CC1(C)[C@H](C(=O)OCCOCCOCCOC(=O)c2ccc(-c3c4nc(c(-c5c(F)cccc5F)c5ccc([nH]5)c(-c5c(F)cccc5F)c5nc(c(-c6c(F)cccc6F)c6ccc3[nH]6)C=C5)C=C4)cc2)[C@@H]1C(=O)Nc1ccon1
REMARK SMILES IDX 11 1 10 2 9 3 8 4 7 5 5 6 6 7 4 8 1 9 2 10 3 11 73 12 74 13
REMARK SMILES IDX 75 14 76 15 77 17 78 18 81 19 79 20 80 21 12 22 13 23 14 24
REMARK SMILES IDX 15 25 16 26 17 27 18 28 19 29 20 30 72 31 21 32 71 33 22 34
REMARK SMILES IDX 23 35 24 36 65 37 25 38 70 39 64 40 66 41 26 42 69 43 63 44
REMARK SMILES IDX 62 45 27 47 53 48 36 49 52 50 37 51 40 52 51 53 67 54 38 55
REMARK SMILES IDX 39 56 50 58 68 59 41 60 28 61 29 62 34 63 30 64 31 65 33 66
REMARK SMILES IDX 35 67 32 68 54 69 55 70 60 71 56 72 57 73 59 74 61 75 58 76
REMARK SMILES IDX 42 77 43 78 48 79 44 80 45 81 47 82 49 83 46 84
REMARK H PARENT 76 16 66 46 40 57
REMARK Flexibility Score: inf
ROOT
ATOM      1  C   UNL A   1      35.438  21.745  24.635  1.00  0.00     0.188 C 
ENDROOT
BRANCH   1   2
ATOM      2  O   UNL A   1      34.861  22.209  25.842  1.00  0.00    -0.376 OA
BRANCH   2   3
ATOM      3  C   UNL A   1      34.509  23.582  25.868  1.00  0.00     0.202 C 
BRANCH   3   4
ATOM      4  C   UNL A   1      33.594  24.054  24.729  1.00  0.00     0.261 C 
BRANCH   4   5
ATOM      5  O   UNL A   1      33.758  25.396  24.227  1.00  0.00    -0.463 OA
BRANCH   5   6
ATOM      6  C   UNL A   1      33.287  25.679  22.996  1.00  0.00     0.310 C 
ATOM      7  O   UNL A   1      33.952  25.709  21.972  1.00  0.00    -0.252 OA
BRANCH   6   8
ATOM      8  C   UNL A   1      31.820  25.913  22.913  1.00  0.00     0.118 C 
ATOM      9  C   UNL A   1      29.546  26.057  24.091  1.00  0.00     0.013 C 
ATOM     10  C   UNL A   1      30.903  26.686  23.843  1.00  0.00    -0.009 C 
ATOM     11  C   UNL A   1      31.392  27.451  25.055  1.00  0.00     0.013 C 
ATOM     12  C   UNL A   1      31.226  27.219  22.431  1.00  0.00     0.100 C 
BRANCH  12  13
ATOM     13  C   UNL A   1      31.944  28.520  22.319  1.00  0.00     0.230 C 
ATOM     14  O   UNL A   1      33.172  28.515  22.363  1.00  0.00    -0.274 OA
ATOM     15  N   UNL A   1      31.282  29.700  22.135  1.00  0.00    -0.308 N 
ATOM     16  H   UNL A   1      31.856  30.447  21.848  1.00  0.00     0.171 HD
BRANCH  15  17
ATOM     17  C   UNL A   1      29.958  30.027  22.280  1.00  0.00     0.175 A 
ATOM     18  C   UNL A   1      29.202  30.272  23.446  1.00  0.00     0.092 A 
ATOM     19  N   UNL A   1      29.191  30.134  21.189  1.00  0.00    -0.062 NA
ATOM     20  C   UNL A   1      27.909  30.365  22.998  1.00  0.00     0.233 A 
ATOM     21  O   UNL A   1      27.896  30.288  21.647  1.00  0.00    -0.363 OA
ENDBRANCH  15  17
ENDBRANCH  12  13
ENDBRANCH   6   8
ENDBRANCH   5   6
ENDBRANCH   4   5
ENDBRANCH   3   4
ENDBRANCH   2   3
ENDBRANCH   1   2
BRANCH   1  22
ATOM     22  C   UNL A   1      36.969  21.606  24.694  1.00  0.00     0.188 C 
BRANCH  22  23
ATOM     23  O   UNL A   1      37.706  22.139  25.781  1.00  0.00    -0.376 OA
BRANCH  23  24
ATOM     24  C   UNL A   1      39.038  21.700  25.975  1.00  0.00     0.202 C 
BRANCH  24  25
ATOM     25  C   UNL A   1      39.386  20.216  25.751  1.00  0.00     0.261 C 
BRANCH  25  26
ATOM     26  O   UNL A   1      40.387  19.652  26.619  1.00  0.00    -0.460 OA
BRANCH  26  27
ATOM     27  C   UNL A   1      41.669  19.703  26.178  1.00  0.00     0.338 C 
ATOM     28  O   UNL A   1      42.235  18.893  25.461  1.00  0.00    -0.246 OA
BRANCH  27  29
ATOM     29  C   UNL A   1      42.253  21.026  26.518  1.00  0.00     0.060 A 
ATOM     30  C   UNL A   1      42.292  21.433  27.864  1.00  0.00     0.016 A 
ATOM     31  C   UNL A   1      42.738  21.871  25.522  1.00  0.00     0.016 A 
ATOM     32  C   UNL A   1      42.799  22.686  28.216  1.00  0.00     0.010 A 
ATOM     33  C   UNL A   1      43.203  23.144  25.869  1.00  0.00     0.010 A 
ATOM     34  C   UNL A   1      43.206  23.570  27.212  1.00  0.00    -0.014 A 
BRANCH  34  35
ATOM     35  C   UNL A   1      43.380  25.014  27.511  1.00  0.00     0.031 A 
ATOM     36  C   UNL A   1      44.786  25.545  27.583  1.00  0.00     0.074 A 
ATOM     37  C   UNL A   1      42.338  25.833  27.738  1.00  0.00     0.049 A 
ATOM     38  N   UNL A   1      45.219  26.706  27.997  1.00  0.00    -0.248 NA
ATOM     39  C   UNL A   1      45.848  24.627  27.137  1.00  0.00     0.031 C 
ATOM     40  C   UNL A   1      40.929  25.469  27.630  1.00  0.00     0.029 A 
ATOM     41  N   UNL A   1      42.320  27.148  28.139  1.00  0.00    -0.354 N 
ATOM     42  C   UNL A   1      46.603  26.650  27.886  1.00  0.00     0.074 A 
ATOM     43  C   UNL A   1      46.939  25.336  27.383  1.00  0.00     0.031 C 
ATOM     44  C   UNL A   1      40.179  26.526  27.990  1.00  0.00     0.029 A 
ATOM     45  C   UNL A   1      41.057  27.625  28.396  1.00  0.00     0.049 A 
ATOM     46  H   UNL A   1      43.133  27.695  28.231  1.00  0.00     0.167 HD
ATOM     47  C   UNL A   1      47.514  27.607  28.180  1.00  0.00     0.037 A 
ATOM     48  C   UNL A   1      40.663  28.796  28.936  1.00  0.00     0.037 A 
ATOM     49  C   UNL A   1      47.180  28.911  28.683  1.00  0.00     0.049 A 
ATOM     50  C   UNL A   1      41.699  29.815  29.342  1.00  0.00     0.074 A 
ATOM     51  C   UNL A   1      48.030  29.954  29.006  1.00  0.00     0.029 A 
ATOM     52  N   UNL A   1      45.890  29.349  28.943  1.00  0.00    -0.354 N 
ATOM     53  N   UNL A   1      43.006  29.758  29.236  1.00  0.00    -0.248 NA
ATOM     54  C   UNL A   1      41.206  31.062  29.947  1.00  0.00     0.031 C 
ATOM     55  C   UNL A   1      47.258  31.002  29.515  1.00  0.00     0.029 A 
ATOM     56  C   UNL A   1      45.923  30.638  29.444  1.00  0.00     0.049 A 
ATOM     57  H   UNL A   1      45.073  28.820  28.794  1.00  0.00     0.167 HD
ATOM     58  C   UNL A   1      43.483  30.972  29.717  1.00  0.00     0.074 A 
ATOM     59  C   UNL A   1      42.329  31.747  30.118  1.00  0.00     0.031 C 
ATOM     60  C   UNL A   1      44.763  31.410  29.812  1.00  0.00     0.037 A 
BRANCH  47  61
ATOM     61  C   UNL A   1      48.963  27.259  28.002  1.00  0.00     0.057 A 
ATOM     62  C   UNL A   1      49.666  27.570  26.831  1.00  0.00     0.134 A 
ATOM     63  C   UNL A   1      49.671  26.623  29.031  1.00  0.00     0.134 A 
ATOM     64  F   UNL A   1      49.043  28.163  25.801  1.00  0.00    -0.206 F 
ATOM     65  C   UNL A   1      51.014  27.239  26.680  1.00  0.00     0.040 A 
ATOM     66  C   UNL A   1      51.026  26.315  28.902  1.00  0.00     0.040 A 
ATOM     67  F   UNL A   1      49.059  26.298  30.180  1.00  0.00    -0.206 F 
ATOM     68  C   UNL A   1      51.699  26.617  27.721  1.00  0.00     0.006 A 
ENDBRANCH  47  61
BRANCH  48  69
ATOM     69  C   UNL A   1      39.219  29.069  29.157  1.00  0.00     0.057 A 
ATOM     70  C   UNL A   1      38.621  28.848  30.403  1.00  0.00     0.134 A 
ATOM     71  C   UNL A   1      38.393  29.523  28.120  1.00  0.00     0.134 A 
ATOM     72  F   UNL A   1      39.351  28.387  31.430  1.00  0.00    -0.206 F 
ATOM     73  C   UNL A   1      37.254  29.049  30.607  1.00  0.00     0.040 A 
ATOM     74  C   UNL A   1      37.030  29.755  28.318  1.00  0.00     0.040 A 
ATOM     75  F   UNL A   1      38.901  29.751  26.900  1.00  0.00    -0.206 F 
ATOM     76  C   UNL A   1      36.456  29.509  29.563  1.00  0.00     0.006 A 
ENDBRANCH  48  69
BRANCH  60  77
ATOM     77  C   UNL A   1      44.993  32.813  30.298  1.00  0.00     0.057 A 
ATOM     78  C   UNL A   1      45.044  33.907  29.428  1.00  0.00     0.134 A 
ATOM     79  C   UNL A   1      45.091  33.074  31.673  1.00  0.00     0.134 A 
ATOM     80  F   UNL A   1      44.967  33.728  28.101  1.00  0.00    -0.206 F 
ATOM     81  C   UNL A   1      45.199  35.211  29.907  1.00  0.00     0.040 A 
ATOM     82  C   UNL A   1      45.217  34.374  32.163  1.00  0.00     0.040 A 
ATOM     83  F   UNL A   1      45.037  32.071  32.563  1.00  0.00    -0.206 F 
ATOM     84  C   UNL A   1      45.275  35.448  31.278  1.00  0.00     0.006 A 
ENDBRANCH  60  77
ENDBRANCH  34  35
ENDBRANCH  27  29
ENDBRANCH  26  27
ENDBRANCH  25  26
ENDBRANCH  24  25
ENDBRANCH  23  24
ENDBRANCH  22  23
ENDBRANCH   1  22
TORSDOF 19
ENDMDL
MODEL 2
REMARK VINA RESULT:     -10.0      2.473      8.043
REMARK SMILES CC1(C)[C@H](C(=O)OCCOCCOCCOC(=O)c2ccc(-c3c4nc(c(-c5c(F)cccc5F)c5ccc([nH]5)c(-c5c(F)cccc5F)c5nc(c(-c6c(F)cccc6F)c6ccc3[nH]6)C=C5)C=C4)cc2)[C@@H]1C(=O)Nc1ccon1
REMARK SMILES IDX 11 1 10 2 9 3 8 4 7 5 5 6 6 7 4 8 1 9 2 10 3 11 73 12 74 13
REMARK SMILES IDX 75 14 76 15 77 17 78 18 81 19 79 20 80 21 12 22 13 23 14 24
REMARK SMILES IDX 15 25 16 26 17 27 18 28 19 29 20 30 72 31 21 32 71 33 22 34
REMARK SMILES IDX 23 35 24 36 65 37 25 38 70 39 64 40 66 41 26 42 69 43 63 44
REMARK SMILES IDX 62 45 27 47 53 48 36 49 52 50 37 51 40 52 51 53 67 54 38 55
REMARK SMILES IDX 39 56 50 58 68 59 41 60 28 61 29 62 34 63 30 64 31 65 33 66
REMARK SMILES IDX 35 67 32 68 54 69 55 70 60 71 56 72 57 73 59 74 61 75 58 76
REMARK SMILES IDX 42 77 43 78 48 79 44 80 45 81 47 82 49 83 46 84
REMARK H PARENT 76 16 66 46 40 57
REMARK Flexibility Score: inf
ROOT
ATOM      1  C   UNL A   1      31.370  28.682  22.699  1.00  0.00     0.188 C 
ENDROOT
BRANCH   1   2
ATOM      2  O   UNL A   1      30.727  27.584  22.076  1.00  0.00    -0.376 OA
BRANCH   2   3
ATOM      3  C   UNL A   1      31.428  26.353  22.123  1.00  0.00     0.202 C 
BRANCH   3   4
ATOM      4  C   UNL A   1      30.858  25.300  23.084  1.00  0.00     0.261 C 
BRANCH   4   5
ATOM      5  O   UNL A   1      31.468  25.153  24.382  1.00  0.00    -0.463 OA
BRANCH   5   6
ATOM      6  C   UNL A   1      31.783  23.911  24.802  1.00  0.00     0.310 C 
ATOM      7  O   UNL A   1      31.300  22.875  24.373  1.00  0.00    -0.252 OA
BRANCH   6   8
ATOM      8  C   UNL A   1      32.851  23.838  25.835  1.00  0.00     0.118 C 
ATOM      9  C   UNL A   1      34.058  22.502  27.662  1.00  0.00     0.013 C 
ATOM     10  C   UNL A   1      33.795  22.701  26.182  1.00  0.00    -0.009 C 
ATOM     11  C   UNL A   1      33.838  21.389  25.427  1.00  0.00     0.013 C 
ATOM     12  C   UNL A   1      34.321  23.983  25.502  1.00  0.00     0.100 C 
BRANCH  12  13
ATOM     13  C   UNL A   1      34.929  23.860  24.148  1.00  0.00     0.230 C 
ATOM     14  O   UNL A   1      34.230  24.107  23.168  1.00  0.00    -0.274 OA
ATOM     15  N   UNL A   1      36.240  23.518  23.970  1.00  0.00    -0.308 N 
ATOM     16  H   UNL A   1      36.585  23.691  23.064  1.00  0.00     0.171 HD
BRANCH  15  17
ATOM     17  C   UNL A   1      37.158  22.977  24.831  1.00  0.00     0.175 A 
ATOM     18  C   UNL A   1      37.854  23.564  25.910  1.00  0.00     0.092 A 
ATOM     19  N   UNL A   1      37.516  21.696  24.680  1.00  0.00    -0.062 NA
ATOM     20  C   UNL A   1      38.767  22.610  26.283  1.00  0.00     0.233 A 
ATOM     21  O   UNL A   1      38.566  21.488  25.554  1.00  0.00    -0.363 OA
ENDBRANCH  15  17
ENDBRANCH  12  13
ENDBRANCH   6   8
ENDBRANCH   5   6
ENDBRANCH   4   5
ENDBRANCH   3   4
ENDBRANCH   2   3
ENDBRANCH   1   2
BRANCH   1  22
ATOM     22  C   UNL A   1      30.780  29.049  24.071  1.00  0.00     0.188 C 
BRANCH  22  23
ATOM     23  O   UNL A   1      31.289  28.471  25.260  1.00  0.00    -0.376 OA
BRANCH  23  24
ATOM     24  C   UNL A   1      32.656  28.104  25.303  1.00  0.00     0.202 C 
BRANCH  24  25
ATOM     25  C   UNL A   1      33.702  29.139  25.761  1.00  0.00     0.261 C 
BRANCH  25  26
ATOM     26  O   UNL A   1      34.330  28.898  27.034  1.00  0.00    -0.460 OA
BRANCH  26  27
ATOM     27  C   UNL A   1      34.702  29.994  27.743  1.00  0.00     0.338 C 
ATOM     28  O   UNL A   1      33.985  30.911  28.110  1.00  0.00    -0.246 OA
BRANCH  27  29
ATOM     29  C   UNL A   1      36.100  29.823  28.213  1.00  0.00     0.060 A 
ATOM     30  C   UNL A   1      37.159  30.076  27.322  1.00  0.00     0.016 A 
ATOM     31  C   UNL A   1      36.371  29.398  29.512  1.00  0.00     0.016 A 
ATOM     32  C   UNL A   1      38.485  29.890  27.719  1.00  0.00     0.010 A 
ATOM     33  C   UNL A   1      37.697  29.168  29.896  1.00  0.00     0.010 A 
ATOM     34  C   UNL A   1      38.757  29.380  28.993  1.00  0.00    -0.014 A 
BRANCH  34  35
ATOM     35  C   UNL A   1      40.094  28.816  29.304  1.00  0.00     0.031 A 
ATOM     36  C   UNL A   1      41.070  29.700  30.032  1.00  0.00     0.074 A 
ATOM     37  C   UNL A   1      40.455  27.573  28.938  1.00  0.00     0.049 A 
ATOM     38  N   UNL A   1      42.343  29.523  30.265  1.00  0.00    -0.248 NA
ATOM     39  C   UNL A   1      40.529  30.965  30.556  1.00  0.00     0.031 C 
ATOM     40  C   UNL A   1      39.590  26.590  28.294  1.00  0.00     0.029 A 
ATOM     41  N   UNL A   1      41.672  26.942  29.037  1.00  0.00    -0.354 N 
ATOM     42  C   UNL A   1      42.762  30.664  30.939  1.00  0.00     0.074 A 
ATOM     43  C   UNL A   1      41.613  31.533  31.063  1.00  0.00     0.031 C 
ATOM     44  C   UNL A   1      40.311  25.488  28.024  1.00  0.00     0.029 A 
ATOM     45  C   UNL A   1      41.699  25.707  28.435  1.00  0.00     0.049 A 
ATOM     46  H   UNL A   1      42.448  27.336  29.496  1.00  0.00     0.167 HD
ATOM     47  C   UNL A   1      43.996  30.962  31.410  1.00  0.00     0.037 A 
ATOM     48  C   UNL A   1      42.735  24.874  28.206  1.00  0.00     0.037 A 
ATOM     49  C   UNL A   1      45.137  30.099  31.284  1.00  0.00     0.049 A 
ATOM     50  C   UNL A   1      44.120  25.265  28.659  1.00  0.00     0.074 A 
ATOM     51  C   UNL A   1      46.429  30.308  31.733  1.00  0.00     0.029 A 
ATOM     52  N   UNL A   1      45.126  28.863  30.654  1.00  0.00    -0.354 N 
ATOM     53  N   UNL A   1      44.512  26.344  29.296  1.00  0.00    -0.248 NA
ATOM     54  C   UNL A   1      45.210  24.323  28.359  1.00  0.00     0.031 C 
ATOM     55  C   UNL A   1      47.212  29.224  31.326  1.00  0.00     0.029 A 
ATOM     56  C   UNL A   1      46.393  28.309  30.683  1.00  0.00     0.049 A 
ATOM     57  H   UNL A   1      44.334  28.445  30.246  1.00  0.00     0.167 HD
ATOM     58  C   UNL A   1      45.877  26.189  29.509  1.00  0.00     0.074 A 
ATOM     59  C   UNL A   1      46.249  24.915  28.933  1.00  0.00     0.031 C 
ATOM     60  C   UNL A   1      46.744  27.025  30.132  1.00  0.00     0.037 A 
BRANCH  47  61
ATOM     61  C   UNL A   1      44.178  32.297  32.070  1.00  0.00     0.057 A 
ATOM     62  C   UNL A   1      44.521  33.447  31.345  1.00  0.00     0.134 A 
ATOM     63  C   UNL A   1      43.982  32.439  33.450  1.00  0.00     0.134 A 
ATOM     64  F   UNL A   1      44.740  33.377  30.023  1.00  0.00    -0.206 F 
ATOM     65  C   UNL A   1      44.687  34.682  31.973  1.00  0.00     0.040 A 
ATOM     66  C   UNL A   1      44.116  33.675  34.084  1.00  0.00     0.040 A 
ATOM     67  F   UNL A   1      43.650  31.379  34.203  1.00  0.00    -0.206 F 
ATOM     68  C   UNL A   1      44.476  34.800  33.346  1.00  0.00     0.006 A 
ENDBRANCH  47  61
BRANCH  48  69
ATOM     69  C   UNL A   1      42.518  23.591  27.487  1.00  0.00     0.057 A 
ATOM     70  C   UNL A   1      42.219  22.412  28.180  1.00  0.00     0.134 A 
ATOM     71  C   UNL A   1      42.639  23.504  26.094  1.00  0.00     0.134 A 
ATOM     72  F   UNL A   1      42.116  22.424  29.518  1.00  0.00    -0.206 F 
ATOM     73  C   UNL A   1      42.068  21.191  27.520  1.00  0.00     0.040 A 
ATOM     74  C   UNL A   1      42.463  22.294  25.418  1.00  0.00     0.040 A 
ATOM     75  F   UNL A   1      42.928  24.594  25.370  1.00  0.00    -0.206 F 
ATOM     76  C   UNL A   1      42.185  21.132  26.133  1.00  0.00     0.006 A 
ENDBRANCH  48  69
BRANCH  60  77
ATOM     77  C   UNL A   1      48.166  26.568  30.297  1.00  0.00     0.057 A 
ATOM     78  C   UNL A   1      49.175  26.917  29.393  1.00  0.00     0.134 A 
ATOM     79  C   UNL A   1      48.539  25.825  31.427  1.00  0.00     0.134 A 
ATOM     80  F   UNL A   1      48.885  27.618  28.287  1.00  0.00    -0.206 F 
ATOM     81  C   UNL A   1      50.502  26.532  29.598  1.00  0.00     0.040 A 
ATOM     82  C   UNL A   1      49.866  25.459  31.657  1.00  0.00     0.040 A 
ATOM     83  F   UNL A   1      47.623  25.467  32.341  1.00  0.00    -0.206 F 
ATOM     84  C   UNL A   1      50.852  25.809  30.738  1.00  0.00     0.006 A 
ENDBRANCH  60  77
ENDBRANCH  34  35
ENDBRANCH  27  29
ENDBRANCH  26  27
ENDBRANCH  25  26
ENDBRANCH  24  25
ENDBRANCH  23  24
ENDBRANCH  22  23
ENDBRANCH   1  22
TORSDOF 19
ENDMDL
MODEL 3
REMARK VINA RESULT:     -10.0      4.436      9.743
REMARK SMILES CC1(C)[C@H](C(=O)OCCOCCOCCOC(=O)c2ccc(-c3c4nc(c(-c5c(F)cccc5F)c5ccc([nH]5)c(-c5c(F)cccc5F)c5nc(c(-c6c(F)cccc6F)c6ccc3[nH]6)C=C5)C=C4)cc2)[C@@H]1C(=O)Nc1ccon1
REMARK SMILES IDX 11 1 10 2 9 3 8 4 7 5 5 6 6 7 4 8 1 9 2 10 3 11 73 12 74 13
REMARK SMILES IDX 75 14 76 15 77 17 78 18 81 19 79 20 80 21 12 22 13 23 14 24
REMARK SMILES IDX 15 25 16 26 17 27 18 28 19 29 20 30 72 31 21 32 71 33 22 34
REMARK SMILES IDX 23 35 24 36 65 37 25 38 70 39 64 40 66 41 26 42 69 43 63 44
REMARK SMILES IDX 62 45 27 47 53 48 36 49 52 50 37 51 40 52 51 53 67 54 38 55
REMARK SMILES IDX 39 56 50 58 68 59 41 60 28 61 29 62 34 63 30 64 31 65 33 66
REMARK SMILES IDX 35 67 32 68 54 69 55 70 60 71 56 72 57 73 59 74 61 75 58 76
REMARK SMILES IDX 42 77 43 78 48 79 44 80 45 81 47 82 49 83 46 84
REMARK H PARENT 76 16 66 46 40 57
REMARK Flexibility Score: inf
ROOT
ATOM      1  C   UNL A   1      32.662  29.248  24.962  1.00  0.00     0.188 C 
ENDROOT
BRANCH   1   2
ATOM      2  O   UNL A   1      32.050  28.063  24.483  1.00  0.00    -0.376 OA
BRANCH   2   3
ATOM      3  C   UNL A   1      30.756  27.790  24.992  1.00  0.00     0.202 C 
BRANCH   3   4
ATOM      4  C   UNL A   1      30.435  26.308  25.231  1.00  0.00     0.261 C 
BRANCH   4   5
ATOM      5  O   UNL A   1      30.995  25.663  26.392  1.00  0.00    -0.463 OA
BRANCH   5   6
ATOM      6  C   UNL A   1      30.975  24.315  26.445  1.00  0.00     0.310 C 
ATOM      7  O   UNL A   1      30.346  23.648  27.252  1.00  0.00    -0.252 OA
BRANCH   6   8
ATOM      8  C   UNL A   1      31.751  23.623  25.382  1.00  0.00     0.118 C 
ATOM      9  C   UNL A   1      33.321  23.767  23.358  1.00  0.00     0.013 C 
ATOM     10  C   UNL A   1      33.148  23.901  24.858  1.00  0.00    -0.009 C 
ATOM     11  C   UNL A   1      34.059  24.968  25.430  1.00  0.00     0.013 C 
ATOM     12  C   UNL A   1      32.854  22.633  25.688  1.00  0.00     0.100 C 
BRANCH  12  13
ATOM     13  C   UNL A   1      33.550  22.472  26.995  1.00  0.00     0.230 C 
ATOM     14  O   UNL A   1      32.942  22.767  28.021  1.00  0.00    -0.274 OA
ATOM     15  N   UNL A   1      34.820  21.978  27.085  1.00  0.00    -0.308 N 
ATOM     16  H   UNL A   1      35.086  21.703  27.993  1.00  0.00     0.171 HD
BRANCH  15  17
ATOM     17  C   UNL A   1      35.789  21.796  26.133  1.00  0.00     0.175 A 
ATOM     18  C   UNL A   1      35.953  20.766  25.182  1.00  0.00     0.092 A 
ATOM     19  N   UNL A   1      36.782  22.689  26.036  1.00  0.00    -0.062 NA
ATOM     20  C   UNL A   1      37.186  21.006  24.631  1.00  0.00     0.233 A 
ATOM     21  O   UNL A   1      37.685  22.159  25.135  1.00  0.00    -0.363 OA
ENDBRANCH  15  17
ENDBRANCH  12  13
ENDBRANCH   6   8
ENDBRANCH   5   6
ENDBRANCH   4   5
ENDBRANCH   3   4
ENDBRANCH   2   3
ENDBRANCH   1   2
BRANCH   1  22
ATOM     22  C   UNL A   1      32.564  29.423  26.486  1.00  0.00     0.188 C 
BRANCH  22  23
ATOM     23  O   UNL A   1      31.748  30.433  27.052  1.00  0.00    -0.376 OA
BRANCH  23  24
ATOM     24  C   UNL A   1      31.424  31.563  26.262  1.00  0.00     0.202 C 
BRANCH  24  25
ATOM     25  C   UNL A   1      31.796  32.971  26.767  1.00  0.00     0.261 C 
BRANCH  25  26
ATOM     26  O   UNL A   1      32.537  33.035  28.000  1.00  0.00    -0.460 OA
BRANCH  26  27
ATOM     27  C   UNL A   1      33.656  33.803  27.994  1.00  0.00     0.338 C 
ATOM     28  O   UNL A   1      33.715  35.020  27.907  1.00  0.00    -0.246 OA
BRANCH  27  29
ATOM     29  C   UNL A   1      34.832  32.960  28.332  1.00  0.00     0.060 A 
ATOM     30  C   UNL A   1      34.655  31.575  28.505  1.00  0.00     0.016 A 
ATOM     31  C   UNL A   1      36.094  33.527  28.500  1.00  0.00     0.016 A 
ATOM     32  C   UNL A   1      35.731  30.758  28.859  1.00  0.00     0.010 A 
ATOM     33  C   UNL A   1      37.161  32.716  28.900  1.00  0.00     0.010 A 
ATOM     34  C   UNL A   1      36.979  31.335  29.113  1.00  0.00    -0.014 A 
BRANCH  34  35
ATOM     35  C   UNL A   1      38.020  30.575  29.850  1.00  0.00     0.031 A 
ATOM     36  C   UNL A   1      38.220  30.901  31.305  1.00  0.00     0.074 A 
ATOM     37  C   UNL A   1      38.786  29.642  29.258  1.00  0.00     0.049 A 
ATOM     38  N   UNL A   1      39.166  30.521  32.123  1.00  0.00    -0.248 NA
ATOM     39  C   UNL A   1      37.218  31.793  31.912  1.00  0.00     0.031 C 
ATOM     40  C   UNL A   1      38.651  29.179  27.880  1.00  0.00     0.029 A 
ATOM     41  N   UNL A   1      39.858  28.937  29.749  1.00  0.00    -0.354 N 
ATOM     42  C   UNL A   1      38.887  31.146  33.333  1.00  0.00     0.074 A 
ATOM     43  C   UNL A   1      37.697  31.943  33.138  1.00  0.00     0.031 C 
ATOM     44  C   UNL A   1      39.626  28.289  27.624  1.00  0.00     0.029 A 
ATOM     45  C   UNL A   1      40.480  28.157  28.806  1.00  0.00     0.049 A 
ATOM     46  H   UNL A   1      40.151  28.987  30.688  1.00  0.00     0.167 HD
ATOM     47  C   UNL A   1      39.566  31.066  34.501  1.00  0.00     0.037 A 
ATOM     48  C   UNL A   1      41.628  27.452  28.879  1.00  0.00     0.037 A 
ATOM     49  C   UNL A   1      40.751  30.277  34.693  1.00  0.00     0.049 A 
ATOM     50  C   UNL A   1      42.419  27.448  30.164  1.00  0.00     0.074 A 
ATOM     51  C   UNL A   1      41.509  30.125  35.840  1.00  0.00     0.029 A 
ATOM     52  N   UNL A   1      41.357  29.512  33.707  1.00  0.00    -0.354 N 
ATOM     53  N   UNL A   1      42.153  28.040  31.305  1.00  0.00    -0.248 NA
ATOM     54  C   UNL A   1      43.674  26.680  30.172  1.00  0.00     0.031 C 
ATOM     55  C   UNL A   1      42.604  29.312  35.534  1.00  0.00     0.029 A 
ATOM     56  C   UNL A   1      42.491  28.904  34.215  1.00  0.00     0.049 A 
ATOM     57  H   UNL A   1      41.028  29.417  32.784  1.00  0.00     0.167 HD
ATOM     58  C   UNL A   1      43.178  27.681  32.172  1.00  0.00     0.074 A 
ATOM     59  C   UNL A   1      44.074  26.821  31.428  1.00  0.00     0.031 C 
ATOM     60  C   UNL A   1      43.359  28.026  33.471  1.00  0.00     0.037 A 
BRANCH  47  61
ATOM     61  C   UNL A   1      39.060  31.888  35.650  1.00  0.00     0.057 A 
ATOM     62  C   UNL A   1      38.223  31.353  36.638  1.00  0.00     0.134 A 
ATOM     63  C   UNL A   1      39.439  33.230  35.783  1.00  0.00     0.134 A 
ATOM     64  F   UNL A   1      37.808  30.079  36.561  1.00  0.00    -0.206 F 
ATOM     65  C   UNL A   1      37.760  32.130  37.701  1.00  0.00     0.040 A 
ATOM     66  C   UNL A   1      39.007  34.008  36.858  1.00  0.00     0.040 A 
ATOM     67  F   UNL A   1      40.241  33.806  34.873  1.00  0.00    -0.206 F 
ATOM     68  C   UNL A   1      38.159  33.460  37.817  1.00  0.00     0.006 A 
ENDBRANCH  47  61
BRANCH  48  69
ATOM     69  C   UNL A   1      42.126  26.708  27.692  1.00  0.00     0.057 A 
ATOM     70  C   UNL A   1      42.897  27.341  26.710  1.00  0.00     0.134 A 
ATOM     71  C   UNL A   1      41.814  25.357  27.492  1.00  0.00     0.134 A 
ATOM     72  F   UNL A   1      43.206  28.641  26.829  1.00  0.00    -0.206 F 
ATOM     73  C   UNL A   1      43.323  26.666  25.564  1.00  0.00     0.040 A 
ATOM     74  C   UNL A   1      42.257  24.662  26.365  1.00  0.00     0.040 A 
ATOM     75  F   UNL A   1      41.076  24.692  28.393  1.00  0.00    -0.206 F 
ATOM     76  C   UNL A   1      43.007  25.320  25.392  1.00  0.00     0.006 A 
ENDBRANCH  48  69
BRANCH  60  77
ATOM     77  C   UNL A   1      44.523  27.422  34.204  1.00  0.00     0.057 A 
ATOM     78  C   UNL A   1      45.758  28.070  34.311  1.00  0.00     0.134 A 
ATOM     79  C   UNL A   1      44.373  26.201  34.877  1.00  0.00     0.134 A 
ATOM     80  F   UNL A   1      45.972  29.237  33.684  1.00  0.00    -0.206 F 
ATOM     81  C   UNL A   1      46.808  27.519  35.049  1.00  0.00     0.040 A 
ATOM     82  C   UNL A   1      45.406  25.654  35.640  1.00  0.00     0.040 A 
ATOM     83  F   UNL A   1      43.211  25.532  34.827  1.00  0.00    -0.206 F 
ATOM     84  C   UNL A   1      46.630  26.312  35.724  1.00  0.00     0.006 A 
ENDBRANCH  60  77
ENDBRANCH  34  35
ENDBRANCH  27  29
ENDBRANCH  26  27
ENDBRANCH  25  26
ENDBRANCH  24  25
ENDBRANCH  23  24
ENDBRANCH  22  23
ENDBRANCH   1  22
TORSDOF 19
ENDMDL
