MODEL 1
REMARK VINA RESULT:     -11.2      0.000      0.000
REMARK SMILES C[C@H](Oc1cc2oc(=O)cc(-c3ccccc3)c2cc1Cl)C(=O)OCCOCCOCCOC(=O)c1ccc(-c2c3nc(c(-c4c(F)cccc4F)c4ccc([nH]4)c(-c4c(F)cccc4F)c4nc(c(-c5c(F)cccc5F)c5ccc2[nH]5)C=C4)C=C3)cc1
REMARK SMILES IDX 28 1 27 2 26 3 25 4 24 5 22 6 23 7 2 8 1 9 3 10 4 11 5 12
REMARK SMILES IDX 20 13 6 14 19 15 21 16 7 17 18 18 8 19 11 20 9 21 10 22
REMARK SMILES IDX 12 23 13 24 17 25 14 26 16 27 15 28 29 29 30 30 31 31 32 32
REMARK SMILES IDX 33 33 34 34 35 35 36 36 37 37 89 38 38 39 88 40 39 41 40 42
REMARK SMILES IDX 41 43 82 44 42 45 87 46 81 47 83 48 43 49 86 50 80 51 79 52
REMARK SMILES IDX 44 54 70 55 53 56 69 57 54 58 57 59 68 60 84 61 55 62 56 63
REMARK SMILES IDX 67 65 85 66 58 67 45 68 46 69 51 70 47 71 48 72 50 73 52 74
REMARK SMILES IDX 49 75 71 76 72 77 77 78 73 79 74 80 76 81 78 82 75 83 59 84
REMARK SMILES IDX 60 85 65 86 61 87 62 88 64 89 66 90 63 91
REMARK H PARENT 83 53 57 64
REMARK Flexibility Score: inf
ROOT
ATOM      1  C   UNL A   1      34.248  30.961  27.700  1.00  0.00     0.188 C 
ENDROOT
BRANCH   1   2
ATOM      2  O   UNL A   1      33.641  30.500  26.499  1.00  0.00    -0.376 OA
BRANCH   2   3
ATOM      3  C   UNL A   1      32.236  30.289  26.457  1.00  0.00     0.202 C 
BRANCH   3   4
ATOM      4  C   UNL A   1      31.683  28.871  26.244  1.00  0.00     0.261 C 
BRANCH   4   5
ATOM      5  O   UNL A   1      32.507  27.978  25.472  1.00  0.00    -0.461 OA
BRANCH   5   6
ATOM      6  C   UNL A   1      32.316  27.995  24.126  1.00  0.00     0.347 C 
ATOM      7  O   UNL A   1      31.357  28.520  23.567  1.00  0.00    -0.248 OA
BRANCH   6   8
ATOM      8  C   UNL A   1      33.387  27.216  23.342  1.00  0.00     0.279 C 
ATOM      9  C   UNL A   1      34.147  28.292  22.561  1.00  0.00     0.066 C 
BRANCH   8  10
ATOM     10  O   UNL A   1      32.903  26.156  22.512  1.00  0.00    -0.477 OA
BRANCH  10  11
ATOM     11  C   UNL A   1      32.630  24.929  23.072  1.00  0.00     0.142 A 
ATOM     12  C   UNL A   1      32.240  24.760  24.397  1.00  0.00     0.096 A 
ATOM     13  C   UNL A   1      32.862  23.774  22.303  1.00  0.00     0.084 A 
ATOM     14  C   UNL A   1      32.358  23.506  24.993  1.00  0.00     0.142 A 
ATOM     15  C   UNL A   1      32.876  22.500  22.898  1.00  0.00     0.037 A 
ATOM     16  Cl  UNL A   1      33.189  23.869  20.608  1.00  0.00    -0.080 Cl
ATOM     17  O   UNL A   1      32.208  23.496  26.389  1.00  0.00    -0.423 OA
ATOM     18  C   UNL A   1      32.719  22.367  24.281  1.00  0.00     0.027 A 
ATOM     19  C   UNL A   1      32.679  22.424  27.119  1.00  0.00     0.336 A 
ATOM     20  C   UNL A   1      32.984  21.122  25.025  1.00  0.00    -0.000 A 
ATOM     21  O   UNL A   1      32.790  22.463  28.338  1.00  0.00    -0.246 OA
ATOM     22  C   UNL A   1      33.006  21.206  26.367  1.00  0.00     0.103 A 
BRANCH  20  23
ATOM     23  C   UNL A   1      33.343  19.803  24.462  1.00  0.00    -0.017 A 
ATOM     24  C   UNL A   1      32.424  19.107  23.661  1.00  0.00     0.009 A 
ATOM     25  C   UNL A   1      34.584  19.213  24.738  1.00  0.00     0.009 A 
ATOM     26  C   UNL A   1      32.743  17.851  23.143  1.00  0.00     0.001 A 
ATOM     27  C   UNL A   1      34.906  17.962  24.208  1.00  0.00     0.001 A 
ATOM     28  C   UNL A   1      33.985  17.282  23.413  1.00  0.00     0.000 A 
ENDBRANCH  20  23
ENDBRANCH  10  11
ENDBRANCH   8  10
ENDBRANCH   6   8
ENDBRANCH   5   6
ENDBRANCH   4   5
ENDBRANCH   3   4
ENDBRANCH   2   3
ENDBRANCH   1   2
BRANCH   1  29
ATOM     29  C   UNL A   1      35.333  32.053  27.642  1.00  0.00     0.188 C 
BRANCH  29  30
ATOM     30  O   UNL A   1      34.859  33.346  27.928  1.00  0.00    -0.376 OA
BRANCH  30  31
ATOM     31  C   UNL A   1      33.950  33.504  29.000  1.00  0.00     0.202 C 
BRANCH  31  32
ATOM     32  C   UNL A   1      34.418  33.536  30.471  1.00  0.00     0.261 C 
BRANCH  32  33
ATOM     33  O   UNL A   1      34.788  32.292  31.088  1.00  0.00    -0.460 OA
BRANCH  33  34
ATOM     34  C   UNL A   1      35.703  32.324  32.084  1.00  0.00     0.338 C 
ATOM     35  O   UNL A   1      35.510  32.606  33.256  1.00  0.00    -0.246 OA
BRANCH  34  36
ATOM     36  C   UNL A   1      36.973  31.781  31.550  1.00  0.00     0.060 A 
ATOM     37  C   UNL A   1      37.256  31.901  30.180  1.00  0.00     0.016 A 
ATOM     38  C   UNL A   1      37.898  31.183  32.407  1.00  0.00     0.016 A 
ATOM     39  C   UNL A   1      38.477  31.443  29.671  1.00  0.00     0.010 A 
ATOM     40  C   UNL A   1      39.105  30.699  31.889  1.00  0.00     0.010 A 
ATOM     41  C   UNL A   1      39.402  30.822  30.520  1.00  0.00    -0.014 A 
BRANCH  41  42
ATOM     42  C   UNL A   1      40.647  30.212  29.983  1.00  0.00     0.031 A 
ATOM     43  C   UNL A   1      41.846  31.090  29.746  1.00  0.00     0.074 A 
ATOM     44  C   UNL A   1      40.698  28.906  29.662  1.00  0.00     0.049 A 
ATOM     45  N   UNL A   1      42.973  30.810  29.143  1.00  0.00    -0.248 NA
ATOM     46  C   UNL A   1      41.759  32.468  30.253  1.00  0.00     0.031 C 
ATOM     47  C   UNL A   1      39.624  27.939  29.877  1.00  0.00     0.029 A 
ATOM     48  N   UNL A   1      41.691  28.175  29.054  1.00  0.00    -0.354 N 
ATOM     49  C   UNL A   1      43.720  31.980  29.179  1.00  0.00     0.074 A 
ATOM     50  C   UNL A   1      42.918  32.975  29.858  1.00  0.00     0.031 C 
ATOM     51  C   UNL A   1      40.000  26.750  29.375  1.00  0.00     0.029 A 
ATOM     52  C   UNL A   1      41.321  26.882  28.763  1.00  0.00     0.049 A 
ATOM     53  H   UNL A   1      42.581  28.541  28.845  1.00  0.00     0.167 HD
ATOM     54  C   UNL A   1      44.962  32.202  28.687  1.00  0.00     0.037 A 
ATOM     55  C   UNL A   1      41.954  25.934  28.043  1.00  0.00     0.037 A 
ATOM     56  C   UNL A   1      45.761  31.210  28.018  1.00  0.00     0.049 A 
ATOM     57  C   UNL A   1      43.300  26.237  27.431  1.00  0.00     0.074 A 
ATOM     58  C   UNL A   1      47.051  31.332  27.530  1.00  0.00     0.029 A 
ATOM     59  N   UNL A   1      45.345  29.920  27.729  1.00  0.00    -0.354 N 
ATOM     60  N   UNL A   1      44.020  27.330  27.513  1.00  0.00    -0.248 NA
ATOM     61  C   UNL A   1      43.918  25.178  26.619  1.00  0.00     0.031 C 
ATOM     62  C   UNL A   1      47.390  30.140  26.884  1.00  0.00     0.029 A 
ATOM     63  C   UNL A   1      46.336  29.253  27.027  1.00  0.00     0.049 A 
ATOM     64  H   UNL A   1      44.476  29.536  27.985  1.00  0.00     0.167 HD
ATOM     65  C   UNL A   1      45.179  27.079  26.788  1.00  0.00     0.074 A 
ATOM     66  C   UNL A   1      45.079  25.724  26.292  1.00  0.00     0.031 C 
ATOM     67  C   UNL A   1      46.230  27.901  26.545  1.00  0.00     0.037 A 
BRANCH  54  68
ATOM     68  C   UNL A   1      45.536  33.581  28.818  1.00  0.00     0.057 A 
ATOM     69  C   UNL A   1      46.284  33.972  29.935  1.00  0.00     0.134 A 
ATOM     70  C   UNL A   1      45.416  34.500  27.766  1.00  0.00     0.134 A 
ATOM     71  F   UNL A   1      46.428  33.143  30.980  1.00  0.00    -0.206 F 
ATOM     72  C   UNL A   1      46.887  35.229  30.004  1.00  0.00     0.040 A 
ATOM     73  C   UNL A   1      46.035  35.749  27.812  1.00  0.00     0.040 A 
ATOM     74  F   UNL A   1      44.718  34.185  26.664  1.00  0.00    -0.206 F 
ATOM     75  C   UNL A   1      46.774  36.117  28.934  1.00  0.00     0.006 A 
ENDBRANCH  54  68
BRANCH  55  76
ATOM     76  C   UNL A   1      41.307  24.616  27.794  1.00  0.00     0.057 A 
ATOM     77  C   UNL A   1      41.750  23.453  28.437  1.00  0.00     0.134 A 
ATOM     78  C   UNL A   1      40.281  24.475  26.851  1.00  0.00     0.134 A 
ATOM     79  F   UNL A   1      42.752  23.514  29.326  1.00  0.00    -0.206 F 
ATOM     80  C   UNL A   1      41.221  22.198  28.128  1.00  0.00     0.040 A 
ATOM     81  C   UNL A   1      39.719  23.231  26.558  1.00  0.00     0.040 A 
ATOM     82  F   UNL A   1      39.813  25.546  26.193  1.00  0.00    -0.206 F 
ATOM     83  C   UNL A   1      40.199  22.086  27.188  1.00  0.00     0.006 A 
ENDBRANCH  55  76
BRANCH  67  84
ATOM     84  C   UNL A   1      47.369  27.353  25.732  1.00  0.00     0.057 A 
ATOM     85  C   UNL A   1      47.462  27.567  24.351  1.00  0.00     0.134 A 
ATOM     86  C   UNL A   1      48.414  26.650  26.347  1.00  0.00     0.134 A 
ATOM     87  F   UNL A   1      46.491  28.223  23.698  1.00  0.00    -0.206 F 
ATOM     88  C   UNL A   1      48.540  27.083  23.608  1.00  0.00     0.040 A 
ATOM     89  C   UNL A   1      49.512  26.188  25.620  1.00  0.00     0.040 A 
ATOM     90  F   UNL A   1      48.395  26.419  27.668  1.00  0.00    -0.206 F 
ATOM     91  C   UNL A   1      49.573  26.399  24.244  1.00  0.00     0.006 A 
ENDBRANCH  67  84
ENDBRANCH  41  42
ENDBRANCH  34  36
ENDBRANCH  33  34
ENDBRANCH  32  33
ENDBRANCH  31  32
ENDBRANCH  30  31
ENDBRANCH  29  30
ENDBRANCH   1  29
TORSDOF 20
ENDMDL
MODEL 2
REMARK VINA RESULT:     -11.1      4.714     10.175
REMARK SMILES C[C@H](Oc1cc2oc(=O)cc(-c3ccccc3)c2cc1Cl)C(=O)OCCOCCOCCOC(=O)c1ccc(-c2c3nc(c(-c4c(F)cccc4F)c4ccc([nH]4)c(-c4c(F)cccc4F)c4nc(c(-c5c(F)cccc5F)c5ccc2[nH]5)C=C4)C=C3)cc1
REMARK SMILES IDX 28 1 27 2 26 3 25 4 24 5 22 6 23 7 2 8 1 9 3 10 4 11 5 12
REMARK SMILES IDX 20 13 6 14 19 15 21 16 7 17 18 18 8 19 11 20 9 21 10 22
REMARK SMILES IDX 12 23 13 24 17 25 14 26 16 27 15 28 29 29 30 30 31 31 32 32
REMARK SMILES IDX 33 33 34 34 35 35 36 36 37 37 89 38 38 39 88 40 39 41 40 42
REMARK SMILES IDX 41 43 82 44 42 45 87 46 81 47 83 48 43 49 86 50 80 51 79 52
REMARK SMILES IDX 44 54 70 55 53 56 69 57 54 58 57 59 68 60 84 61 55 62 56 63
REMARK SMILES IDX 67 65 85 66 58 67 45 68 46 69 51 70 47 71 48 72 50 73 52 74
REMARK SMILES IDX 49 75 71 76 72 77 77 78 73 79 74 80 76 81 78 82 75 83 59 84
REMARK SMILES IDX 60 85 65 86 61 87 62 88 64 89 66 90 63 91
REMARK H PARENT 83 53 57 64
REMARK Flexibility Score: inf
ROOT
ATOM      1  C   UNL A   1      43.262  19.528  25.757  1.00  0.00     0.188 C 
ENDROOT
BRANCH   1   2
ATOM      2  O   UNL A   1      42.195  19.149  26.618  1.00  0.00    -0.376 OA
BRANCH   2   3
ATOM      3  C   UNL A   1      41.174  20.088  26.927  1.00  0.00     0.202 C 
BRANCH   3   4
ATOM      4  C   UNL A   1      40.374  20.747  25.792  1.00  0.00     0.261 C 
BRANCH   4   5
ATOM      5  O   UNL A   1      39.051  21.203  26.131  1.00  0.00    -0.461 OA
BRANCH   5   6
ATOM      6  C   UNL A   1      38.037  20.744  25.348  1.00  0.00     0.347 C 
ATOM      7  O   UNL A   1      37.913  19.577  24.986  1.00  0.00    -0.248 OA
BRANCH   6   8
ATOM      8  C   UNL A   1      37.073  21.848  24.879  1.00  0.00     0.279 C 
ATOM      9  C   UNL A   1      37.586  23.119  25.562  1.00  0.00     0.066 C 
BRANCH   8  10
ATOM     10  O   UNL A   1      35.684  21.603  25.116  1.00  0.00    -0.477 OA
BRANCH  10  11
ATOM     11  C   UNL A   1      34.776  22.622  24.932  1.00  0.00     0.142 A 
ATOM     12  C   UNL A   1      34.349  23.051  23.679  1.00  0.00     0.096 A 
ATOM     13  C   UNL A   1      34.340  23.342  26.059  1.00  0.00     0.084 A 
ATOM     14  C   UNL A   1      33.753  24.304  23.549  1.00  0.00     0.142 A 
ATOM     15  C   UNL A   1      33.646  24.557  25.915  1.00  0.00     0.037 A 
ATOM     16  Cl  UNL A   1      34.676  22.798  27.664  1.00  0.00    -0.080 Cl
ATOM     17  O   UNL A   1      33.612  24.760  22.229  1.00  0.00    -0.423 OA
ATOM     18  C   UNL A   1      33.432  25.100  24.644  1.00  0.00     0.027 A 
ATOM     19  C   UNL A   1      33.410  26.104  21.988  1.00  0.00     0.336 A 
ATOM     20  C   UNL A   1      32.963  26.477  24.403  1.00  0.00    -0.000 A 
ATOM     21  O   UNL A   1      33.517  26.589  20.869  1.00  0.00    -0.246 OA
ATOM     22  C   UNL A   1      33.018  26.929  23.138  1.00  0.00     0.103 A 
BRANCH  20  23
ATOM     23  C   UNL A   1      32.540  27.467  25.417  1.00  0.00    -0.017 A 
ATOM     24  C   UNL A   1      32.980  28.796  25.329  1.00  0.00     0.009 A 
ATOM     25  C   UNL A   1      31.721  27.094  26.492  1.00  0.00     0.009 A 
ATOM     26  C   UNL A   1      32.605  29.734  26.293  1.00  0.00     0.001 A 
ATOM     27  C   UNL A   1      31.337  28.036  27.449  1.00  0.00     0.001 A 
ATOM     28  C   UNL A   1      31.780  29.354  27.348  1.00  0.00     0.000 A 
ENDBRANCH  20  23
ENDBRANCH  10  11
ENDBRANCH   8  10
ENDBRANCH   6   8
ENDBRANCH   5   6
ENDBRANCH   4   5
ENDBRANCH   3   4
ENDBRANCH   2   3
ENDBRANCH   1   2
BRANCH   1  29
ATOM     29  C   UNL A   1      44.113  20.769  26.089  1.00  0.00     0.188 C 
BRANCH  29  30
ATOM     30  O   UNL A   1      45.324  20.837  25.379  1.00  0.00    -0.376 OA
BRANCH  30  31
ATOM     31  C   UNL A   1      45.330  21.493  24.126  1.00  0.00     0.202 C 
BRANCH  31  32
ATOM     32  C   UNL A   1      45.347  23.032  24.009  1.00  0.00     0.261 C 
BRANCH  32  33
ATOM     33  O   UNL A   1      44.765  23.795  25.078  1.00  0.00    -0.460 OA
BRANCH  33  34
ATOM     34  C   UNL A   1      43.416  23.884  25.135  1.00  0.00     0.338 C 
ATOM     35  O   UNL A   1      42.604  23.207  24.523  1.00  0.00    -0.246 OA
BRANCH  34  36
ATOM     36  C   UNL A   1      43.069  24.836  26.214  1.00  0.00     0.060 A 
ATOM     37  C   UNL A   1      42.067  24.501  27.139  1.00  0.00     0.016 A 
ATOM     38  C   UNL A   1      43.756  26.045  26.333  1.00  0.00     0.016 A 
ATOM     39  C   UNL A   1      41.767  25.367  28.197  1.00  0.00     0.010 A 
ATOM     40  C   UNL A   1      43.433  26.922  27.375  1.00  0.00     0.010 A 
ATOM     41  C   UNL A   1      42.436  26.593  28.312  1.00  0.00    -0.014 A 
BRANCH  41  42
ATOM     42  C   UNL A   1      42.048  27.585  29.348  1.00  0.00     0.031 A 
ATOM     43  C   UNL A   1      42.761  27.573  30.672  1.00  0.00     0.074 A 
ATOM     44  C   UNL A   1      41.041  28.453  29.135  1.00  0.00     0.049 A 
ATOM     45  N   UNL A   1      42.486  28.233  31.769  1.00  0.00    -0.248 NA
ATOM     46  C   UNL A   1      43.938  26.697  30.774  1.00  0.00     0.031 C 
ATOM     47  C   UNL A   1      40.296  28.595  27.887  1.00  0.00     0.029 A 
ATOM     48  N   UNL A   1      40.451  29.359  29.984  1.00  0.00    -0.354 N 
ATOM     49  C   UNL A   1      43.441  27.837  32.696  1.00  0.00     0.074 A 
ATOM     50  C   UNL A   1      44.299  26.876  32.037  1.00  0.00     0.031 C 
ATOM     51  C   UNL A   1      39.323  29.507  28.060  1.00  0.00     0.029 A 
ATOM     52  C   UNL A   1      39.347  29.979  29.445  1.00  0.00     0.049 A 
ATOM     53  H   UNL A   1      40.784  29.546  30.891  1.00  0.00     0.167 HD
ATOM     54  C   UNL A   1      43.585  28.238  33.981  1.00  0.00     0.037 A 
ATOM     55  C   UNL A   1      38.435  30.791  30.016  1.00  0.00     0.037 A 
ATOM     56  C   UNL A   1      42.734  29.199  34.633  1.00  0.00     0.049 A 
ATOM     57  C   UNL A   1      38.570  31.153  31.475  1.00  0.00     0.074 A 
ATOM     58  C   UNL A   1      42.835  29.702  35.919  1.00  0.00     0.029 A 
ATOM     59  N   UNL A   1      41.619  29.789  34.059  1.00  0.00    -0.354 N 
ATOM     60  N   UNL A   1      39.505  30.813  32.330  1.00  0.00    -0.248 NA
ATOM     61  C   UNL A   1      37.519  32.005  32.051  1.00  0.00     0.031 C 
ATOM     62  C   UNL A   1      41.743  30.544  36.147  1.00  0.00     0.029 A 
ATOM     63  C   UNL A   1      40.998  30.615  34.982  1.00  0.00     0.049 A 
ATOM     64  H   UNL A   1      41.316  29.644  33.134  1.00  0.00     0.167 HD
ATOM     65  C   UNL A   1      39.166  31.428  33.530  1.00  0.00     0.074 A 
ATOM     66  C   UNL A   1      37.955  32.181  33.289  1.00  0.00     0.031 C 
ATOM     67  C   UNL A   1      39.797  31.368  34.729  1.00  0.00     0.037 A 
BRANCH  54  68
ATOM     68  C   UNL A   1      44.683  27.620  34.795  1.00  0.00     0.057 A 
ATOM     69  C   UNL A   1      45.880  28.295  35.059  1.00  0.00     0.134 A 
ATOM     70  C   UNL A   1      44.498  26.369  35.398  1.00  0.00     0.134 A 
ATOM     71  F   UNL A   1      46.124  29.492  34.504  1.00  0.00    -0.206 F 
ATOM     72  C   UNL A   1      46.857  27.745  35.891  1.00  0.00     0.040 A 
ATOM     73  C   UNL A   1      45.455  25.820  36.251  1.00  0.00     0.040 A 
ATOM     74  F   UNL A   1      43.369  25.674  35.190  1.00  0.00    -0.206 F 
ATOM     75  C   UNL A   1      46.641  26.509  36.500  1.00  0.00     0.006 A 
ENDBRANCH  54  68
BRANCH  55  76
ATOM     76  C   UNL A   1      37.264  31.280  29.237  1.00  0.00     0.057 A 
ATOM     77  C   UNL A   1      37.240  32.568  28.688  1.00  0.00     0.134 A 
ATOM     78  C   UNL A   1      36.112  30.497  29.087  1.00  0.00     0.134 A 
ATOM     79  F   UNL A   1      38.298  33.380  28.825  1.00  0.00    -0.206 F 
ATOM     80  C   UNL A   1      36.104  33.072  28.050  1.00  0.00     0.040 A 
ATOM     81  C   UNL A   1      34.982  30.976  28.421  1.00  0.00     0.040 A 
ATOM     82  F   UNL A   1      36.064  29.257  29.593  1.00  0.00    -0.206 F 
ATOM     83  C   UNL A   1      34.971  32.272  27.912  1.00  0.00     0.006 A 
ENDBRANCH  55  76
BRANCH  67  84
ATOM     84  C   UNL A   1      39.209  32.155  35.865  1.00  0.00     0.057 A 
ATOM     85  C   UNL A   1      39.567  33.488  36.105  1.00  0.00     0.134 A 
ATOM     86  C   UNL A   1      38.232  31.591  36.697  1.00  0.00     0.134 A 
ATOM     87  F   UNL A   1      40.504  34.086  35.354  1.00  0.00    -0.206 F 
ATOM     88  C   UNL A   1      38.992  34.223  37.143  1.00  0.00     0.040 A 
ATOM     89  C   UNL A   1      37.627  32.325  37.718  1.00  0.00     0.040 A 
ATOM     90  F   UNL A   1      37.833  30.323  36.516  1.00  0.00    -0.206 F 
ATOM     91  C   UNL A   1      38.013  33.644  37.947  1.00  0.00     0.006 A 
ENDBRANCH  67  84
ENDBRANCH  41  42
ENDBRANCH  34  36
ENDBRANCH  33  34
ENDBRANCH  32  33
ENDBRANCH  31  32
ENDBRANCH  30  31
ENDBRANCH  29  30
ENDBRANCH   1  29
TORSDOF 20
ENDMDL
MODEL 3
REMARK VINA RESULT:     -11.0      4.721     10.332
REMARK SMILES C[C@H](Oc1cc2oc(=O)cc(-c3ccccc3)c2cc1Cl)C(=O)OCCOCCOCCOC(=O)c1ccc(-c2c3nc(c(-c4c(F)cccc4F)c4ccc([nH]4)c(-c4c(F)cccc4F)c4nc(c(-c5c(F)cccc5F)c5ccc2[nH]5)C=C4)C=C3)cc1
REMARK SMILES IDX 28 1 27 2 26 3 25 4 24 5 22 6 23 7 2 8 1 9 3 10 4 11 5 12
REMARK SMILES IDX 20 13 6 14 19 15 21 16 7 17 18 18 8 19 11 20 9 21 10 22
REMARK SMILES IDX 12 23 13 24 17 25 14 26 16 27 15 28 29 29 30 30 31 31 32 32
REMARK SMILES IDX 33 33 34 34 35 35 36 36 37 37 89 38 38 39 88 40 39 41 40 42
REMARK SMILES IDX 41 43 82 44 42 45 87 46 81 47 83 48 43 49 86 50 80 51 79 52
REMARK SMILES IDX 44 54 70 55 53 56 69 57 54 58 57 59 68 60 84 61 55 62 56 63
REMARK SMILES IDX 67 65 85 66 58 67 45 68 46 69 51 70 47 71 48 72 50 73 52 74
REMARK SMILES IDX 49 75 71 76 72 77 77 78 73 79 74 80 76 81 78 82 75 83 59 84
REMARK SMILES IDX 60 85 65 86 61 87 62 88 64 89 66 90 63 91
REMARK H PARENT 83 53 57 64
REMARK Flexibility Score: inf
ROOT
ATOM      1  C   UNL A   1      39.409  21.279  25.736  1.00  0.00     0.188 C 
ENDROOT
BRANCH   1   2
ATOM      2  O   UNL A   1      38.031  21.172  26.070  1.00  0.00    -0.376 OA
BRANCH   2   3
ATOM      3  C   UNL A   1      37.061  21.088  25.034  1.00  0.00     0.202 C 
BRANCH   3   4
ATOM      4  C   UNL A   1      35.596  21.446  25.330  1.00  0.00     0.261 C 
BRANCH   4   5
ATOM      5  O   UNL A   1      35.382  22.520  26.264  1.00  0.00    -0.461 OA
BRANCH   5   6
ATOM      6  C   UNL A   1      34.187  22.524  26.915  1.00  0.00     0.347 C 
ATOM      7  O   UNL A   1      33.832  21.668  27.721  1.00  0.00    -0.248 OA
BRANCH   6   8
ATOM      8  C   UNL A   1      33.258  23.676  26.491  1.00  0.00     0.279 C 
ATOM      9  C   UNL A   1      31.867  23.235  26.955  1.00  0.00     0.066 C 
BRANCH   8  10
ATOM     10  O   UNL A   1      33.302  24.034  25.107  1.00  0.00    -0.477 OA
BRANCH  10  11
ATOM     11  C   UNL A   1      32.983  25.319  24.730  1.00  0.00     0.142 A 
ATOM     12  C   UNL A   1      33.669  26.443  25.179  1.00  0.00     0.096 A 
ATOM     13  C   UNL A   1      31.837  25.519  23.940  1.00  0.00     0.084 A 
ATOM     14  C   UNL A   1      33.072  27.697  25.078  1.00  0.00     0.142 A 
ATOM     15  C   UNL A   1      31.300  26.808  23.759  1.00  0.00     0.037 A 
ATOM     16  Cl  UNL A   1      31.009  24.197  23.197  1.00  0.00    -0.080 Cl
ATOM     17  O   UNL A   1      33.711  28.718  25.800  1.00  0.00    -0.423 OA
ATOM     18  C   UNL A   1      31.866  27.905  24.416  1.00  0.00     0.027 A 
ATOM     19  C   UNL A   1      33.024  29.877  26.098  1.00  0.00     0.336 A 
ATOM     20  C   UNL A   1      31.228  29.230  24.509  1.00  0.00    -0.000 A 
ATOM     21  O   UNL A   1      33.439  30.690  26.914  1.00  0.00    -0.246 OA
ATOM     22  C   UNL A   1      31.780  30.117  25.356  1.00  0.00     0.103 A 
BRANCH  20  23
ATOM     23  C   UNL A   1      29.974  29.666  23.856  1.00  0.00    -0.017 A 
ATOM     24  C   UNL A   1      29.550  30.998  23.967  1.00  0.00     0.009 A 
ATOM     25  C   UNL A   1      29.177  28.758  23.146  1.00  0.00     0.009 A 
ATOM     26  C   UNL A   1      28.356  31.415  23.375  1.00  0.00     0.001 A 
ATOM     27  C   UNL A   1      27.990  29.179  22.543  1.00  0.00     0.001 A 
ATOM     28  C   UNL A   1      27.581  30.507  22.659  1.00  0.00     0.000 A 
ENDBRANCH  20  23
ENDBRANCH  10  11
ENDBRANCH   8  10
ENDBRANCH   6   8
ENDBRANCH   5   6
ENDBRANCH   4   5
ENDBRANCH   3   4
ENDBRANCH   2   3
ENDBRANCH   1   2
BRANCH   1  29
ATOM     29  C   UNL A   1      40.442  20.376  26.438  1.00  0.00     0.188 C 
BRANCH  29  30
ATOM     30  O   UNL A   1      41.431  21.083  27.145  1.00  0.00    -0.376 OA
BRANCH  30  31
ATOM     31  C   UNL A   1      41.474  22.491  27.010  1.00  0.00     0.202 C 
BRANCH  31  32
ATOM     32  C   UNL A   1      42.473  23.191  26.065  1.00  0.00     0.261 C 
BRANCH  32  33
ATOM     33  O   UNL A   1      43.034  24.446  26.487  1.00  0.00    -0.460 OA
BRANCH  33  34
ATOM     34  C   UNL A   1      42.471  25.583  26.018  1.00  0.00     0.338 C 
ATOM     35  O   UNL A   1      42.192  25.847  24.858  1.00  0.00    -0.246 OA
BRANCH  34  36
ATOM     36  C   UNL A   1      42.077  26.407  27.183  1.00  0.00     0.060 A 
ATOM     37  C   UNL A   1      42.758  27.607  27.445  1.00  0.00     0.016 A 
ATOM     38  C   UNL A   1      41.014  26.014  27.996  1.00  0.00     0.016 A 
ATOM     39  C   UNL A   1      42.360  28.425  28.509  1.00  0.00     0.010 A 
ATOM     40  C   UNL A   1      40.638  26.819  29.078  1.00  0.00     0.010 A 
ATOM     41  C   UNL A   1      41.308  28.027  29.344  1.00  0.00    -0.014 A 
BRANCH  41  42
ATOM     42  C   UNL A   1      40.951  28.811  30.555  1.00  0.00     0.031 A 
ATOM     43  C   UNL A   1      39.834  29.815  30.471  1.00  0.00     0.074 A 
ATOM     44  C   UNL A   1      41.642  28.671  31.702  1.00  0.00     0.049 A 
ATOM     45  N   UNL A   1      39.458  30.714  31.344  1.00  0.00    -0.248 NA
ATOM     46  C   UNL A   1      39.038  29.806  29.233  1.00  0.00     0.031 C 
ATOM     47  C   UNL A   1      42.719  27.710  31.929  1.00  0.00     0.029 A 
ATOM     48  N   UNL A   1      41.559  29.368  32.884  1.00  0.00    -0.354 N 
ATOM     49  C   UNL A   1      38.398  31.391  30.756  1.00  0.00     0.074 A 
ATOM     50  C   UNL A   1      38.193  30.804  29.449  1.00  0.00     0.031 C 
ATOM     51  C   UNL A   1      43.221  27.900  33.162  1.00  0.00     0.029 A 
ATOM     52  C   UNL A   1      42.534  29.027  33.793  1.00  0.00     0.049 A 
ATOM     53  H   UNL A   1      40.868  30.046  33.064  1.00  0.00     0.167 HD
ATOM     54  C   UNL A   1      37.665  32.411  31.261  1.00  0.00     0.037 A 
ATOM     55  C   UNL A   1      42.865  29.590  34.972  1.00  0.00     0.037 A 
ATOM     56  C   UNL A   1      37.866  32.989  32.564  1.00  0.00     0.049 A 
ATOM     57  C   UNL A   1      42.086  30.783  35.472  1.00  0.00     0.074 A 
ATOM     58  C   UNL A   1      37.139  33.994  33.179  1.00  0.00     0.029 A 
ATOM     59  N   UNL A   1      38.873  32.628  33.445  1.00  0.00    -0.354 N 
ATOM     60  N   UNL A   1      41.053  31.384  34.931  1.00  0.00    -0.248 NA
ATOM     61  C   UNL A   1      42.524  31.381  36.742  1.00  0.00     0.031 C 
ATOM     62  C   UNL A   1      37.747  34.289  34.402  1.00  0.00     0.029 A 
ATOM     63  C   UNL A   1      38.814  33.423  34.578  1.00  0.00     0.049 A 
ATOM     64  H   UNL A   1      39.530  31.912  33.289  1.00  0.00     0.167 HD
ATOM     65  C   UNL A   1      40.708  32.409  35.805  1.00  0.00     0.074 A 
ATOM     66  C   UNL A   1      41.624  32.336  36.922  1.00  0.00     0.031 C 
ATOM     67  C   UNL A   1      39.725  33.336  35.689  1.00  0.00     0.037 A 
BRANCH  54  68
ATOM     68  C   UNL A   1      36.591  33.003  30.399  1.00  0.00     0.057 A 
ATOM     69  C   UNL A   1      36.879  33.906  29.368  1.00  0.00     0.134 A 
ATOM     70  C   UNL A   1      35.260  32.591  30.544  1.00  0.00     0.134 A 
ATOM     71  F   UNL A   1      38.132  34.348  29.182  1.00  0.00    -0.206 F 
ATOM     72  C   UNL A   1      35.881  34.381  28.516  1.00  0.00     0.040 A 
ATOM     73  C   UNL A   1      34.257  33.039  29.684  1.00  0.00     0.040 A 
ATOM     74  F   UNL A   1      34.918  31.723  31.509  1.00  0.00    -0.206 F 
ATOM     75  C   UNL A   1      34.567  33.938  28.666  1.00  0.00     0.006 A 
ENDBRANCH  54  68
BRANCH  55  76
ATOM     76  C   UNL A   1      44.029  29.087  35.751  1.00  0.00     0.057 A 
ATOM     77  C   UNL A   1      43.879  28.092  36.726  1.00  0.00     0.134 A 
ATOM     78  C   UNL A   1      45.306  29.641  35.591  1.00  0.00     0.134 A 
ATOM     79  F   UNL A   1      42.677  27.544  36.951  1.00  0.00    -0.206 F 
ATOM     80  C   UNL A   1      44.946  27.692  37.535  1.00  0.00     0.040 A 
ATOM     81  C   UNL A   1      46.389  29.225  36.370  1.00  0.00     0.040 A 
ATOM     82  F   UNL A   1      45.520  30.602  34.681  1.00  0.00    -0.206 F 
ATOM     83  C   UNL A   1      46.206  28.258  37.354  1.00  0.00     0.006 A 
ENDBRANCH  55  76
BRANCH  67  84
ATOM     84  C   UNL A   1      39.568  34.328  36.806  1.00  0.00     0.057 A 
ATOM     85  C   UNL A   1      38.890  34.008  37.989  1.00  0.00     0.134 A 
ATOM     86  C   UNL A   1      40.148  35.601  36.720  1.00  0.00     0.134 A 
ATOM     87  F   UNL A   1      38.301  32.811  38.133  1.00  0.00    -0.206 F 
ATOM     88  C   UNL A   1      38.776  34.924  39.036  1.00  0.00     0.040 A 
ATOM     89  C   UNL A   1      40.069  36.514  37.772  1.00  0.00     0.040 A 
ATOM     90  F   UNL A   1      40.823  35.969  35.620  1.00  0.00    -0.206 F 
ATOM     91  C   UNL A   1      39.375  36.178  38.933  1.00  0.00     0.006 A 
ENDBRANCH  67  84
ENDBRANCH  41  42
ENDBRANCH  34  36
ENDBRANCH  33  34
ENDBRANCH  32  33
ENDBRANCH  31  32
ENDBRANCH  30  31
ENDBRANCH  29  30
ENDBRANCH   1  29
TORSDOF 20
ENDMDL
