MODEL 1
REMARK VINA RESULT:     -11.3      0.000      0.000
REMARK SMILES CC(C)Cc1cc2c(cc1Cl)C=C(C(=O)OCCOCCOCCOC(=O)c1ccc(-c3c4nc(c(-c5c(F)cccc5F)c5ccc([nH]5)c(-c5c(F)cccc5F)c5nc(c(-c6c(F)cccc6F)c6ccc3[nH]6)C=C5)C=C4)cc1)[C@H](C(F)(F)F)O2
REMARK SMILES IDX 20 1 19 2 18 3 17 4 16 5 14 6 15 7 13 8 5 9 6 10 10 11 7 12
REMARK SMILES IDX 9 13 11 14 8 15 87 16 12 17 82 18 4 19 2 20 1 21 3 22 83 23
REMARK SMILES IDX 84 24 85 25 86 26 21 27 22 28 23 29 24 30 25 31 26 32 27 33
REMARK SMILES IDX 28 34 29 35 81 36 30 37 80 38 31 39 32 40 33 41 74 42 34 43
REMARK SMILES IDX 79 44 73 45 75 46 35 47 78 48 72 49 71 50 36 52 62 53 45 54
REMARK SMILES IDX 61 55 46 56 49 57 60 58 76 59 47 60 48 61 59 63 77 64 50 65
REMARK SMILES IDX 37 66 38 67 43 68 39 69 40 70 42 71 44 72 41 73 63 74 64 75
REMARK SMILES IDX 69 76 65 77 66 78 68 79 70 80 67 81 51 82 52 83 57 84 53 85
REMARK SMILES IDX 54 86 56 87 58 88 55 89
REMARK H PARENT 75 51 49 62
REMARK Flexibility Score: inf
ROOT
ATOM      1  C   UNL A   1      38.668  22.268  25.805  1.00  0.00     0.188 C 
ENDROOT
BRANCH   1   2
ATOM      2  O   UNL A   1      37.662  22.184  24.817  1.00  0.00    -0.376 OA
BRANCH   2   3
ATOM      3  C   UNL A   1      36.700  21.141  24.858  1.00  0.00     0.202 C 
BRANCH   3   4
ATOM      4  C   UNL A   1      35.418  21.226  25.696  1.00  0.00     0.261 C 
BRANCH   4   5
ATOM      5  O   UNL A   1      35.232  22.459  26.406  1.00  0.00    -0.460 OA
BRANCH   5   6
ATOM      6  C   UNL A   1      34.054  22.577  27.057  1.00  0.00     0.338 C 
ATOM      7  O   UNL A   1      33.725  21.985  28.073  1.00  0.00    -0.246 OA
BRANCH   6   8
ATOM      8  C   UNL A   1      33.237  23.653  26.472  1.00  0.00     0.087 C 
ATOM      9  C   UNL A   1      31.908  28.172  24.724  1.00  0.00    -0.025 A 
ATOM     10  C   UNL A   1      31.320  27.224  25.582  1.00  0.00     0.052 A 
ATOM     11  C   UNL A   1      33.147  27.864  24.140  1.00  0.00     0.045 A 
ATOM     12  C   UNL A   1      31.956  26.018  25.866  1.00  0.00     0.128 A 
ATOM     13  C   UNL A   1      33.792  26.658  24.433  1.00  0.00     0.032 A 
ATOM     14  Cl  UNL A   1      33.954  28.961  23.075  1.00  0.00    -0.084 Cl
ATOM     15  C   UNL A   1      33.202  25.737  25.305  1.00  0.00     0.019 A 
ATOM     16  O   UNL A   1      31.337  25.202  26.773  1.00  0.00    -0.475 OA
ATOM     17  C   UNL A   1      33.912  24.545  25.732  1.00  0.00     0.027 C 
ATOM     18  C   UNL A   1      31.789  23.817  26.849  1.00  0.00     0.316 C 
BRANCH   9  19
ATOM     19  C   UNL A   1      31.185  29.481  24.496  1.00  0.00     0.040 C 
BRANCH  19  20
ATOM     20  C   UNL A   1      29.854  29.357  23.730  1.00  0.00    -0.013 C 
ATOM     21  C   UNL A   1      29.156  30.708  23.546  1.00  0.00     0.008 C 
ATOM     22  C   UNL A   1      30.118  28.731  22.357  1.00  0.00     0.008 C 
ENDBRANCH  19  20
ENDBRANCH   9  19
BRANCH  18  23
ATOM     23  C   UNL A   1      30.787  22.931  26.086  1.00  0.00     0.430 C 
ATOM     24  F   UNL A   1      29.651  22.716  26.787  1.00  0.00    -0.167 F 
ATOM     25  F   UNL A   1      30.456  23.459  24.889  1.00  0.00    -0.167 F 
ATOM     26  F   UNL A   1      31.326  21.712  25.824  1.00  0.00    -0.167 F 
ENDBRANCH  18  23
ENDBRANCH   6   8
ENDBRANCH   5   6
ENDBRANCH   4   5
ENDBRANCH   3   4
ENDBRANCH   2   3
ENDBRANCH   1   2
BRANCH   1  27
ATOM     27  C   UNL A   1      39.516  21.033  26.159  1.00  0.00     0.188 C 
BRANCH  27  28
ATOM     28  O   UNL A   1      40.687  21.153  26.929  1.00  0.00    -0.376 OA
BRANCH  28  29
ATOM     29  C   UNL A   1      41.942  20.749  26.411  1.00  0.00     0.202 C 
BRANCH  29  30
ATOM     30  C   UNL A   1      42.971  21.710  25.797  1.00  0.00     0.261 C 
BRANCH  30  31
ATOM     31  O   UNL A   1      42.470  22.961  25.325  1.00  0.00    -0.460 OA
BRANCH  31  32
ATOM     32  C   UNL A   1      43.351  23.997  25.395  1.00  0.00     0.338 C 
ATOM     33  O   UNL A   1      44.320  24.196  24.701  1.00  0.00    -0.246 OA
BRANCH  32  34
ATOM     34  C   UNL A   1      42.808  24.979  26.354  1.00  0.00     0.060 A 
ATOM     35  C   UNL A   1      41.788  24.614  27.230  1.00  0.00     0.016 A 
ATOM     36  C   UNL A   1      43.328  26.282  26.356  1.00  0.00     0.016 A 
ATOM     37  C   UNL A   1      41.296  25.559  28.129  1.00  0.00     0.010 A 
ATOM     38  C   UNL A   1      42.821  27.230  27.246  1.00  0.00     0.010 A 
ATOM     39  C   UNL A   1      41.819  26.865  28.153  1.00  0.00    -0.014 A 
BRANCH  39  40
ATOM     40  C   UNL A   1      41.435  27.776  29.256  1.00  0.00     0.031 A 
ATOM     41  C   UNL A   1      40.269  28.709  29.151  1.00  0.00     0.074 A 
ATOM     42  C   UNL A   1      42.168  27.729  30.383  1.00  0.00     0.049 A 
ATOM     43  N   UNL A   1      39.741  29.465  30.080  1.00  0.00    -0.248 NA
ATOM     44  C   UNL A   1      39.617  28.812  27.840  1.00  0.00     0.031 C 
ATOM     45  C   UNL A   1      43.349  26.885  30.579  1.00  0.00     0.029 A 
ATOM     46  N   UNL A   1      42.023  28.388  31.575  1.00  0.00    -0.354 N 
ATOM     47  C   UNL A   1      38.673  30.117  29.478  1.00  0.00     0.074 A 
ATOM     48  C   UNL A   1      38.666  29.706  28.087  1.00  0.00     0.031 C 
ATOM     49  C   UNL A   1      43.801  27.051  31.831  1.00  0.00     0.029 A 
ATOM     50  C   UNL A   1      42.959  28.027  32.513  1.00  0.00     0.049 A 
ATOM     51  H   UNL A   1      41.318  29.053  31.743  1.00  0.00     0.167 HD
ATOM     52  C   UNL A   1      37.776  30.963  30.042  1.00  0.00     0.037 A 
ATOM     53  C   UNL A   1      43.114  28.434  33.785  1.00  0.00     0.037 A 
ATOM     54  C   UNL A   1      37.816  31.392  31.419  1.00  0.00     0.049 A 
ATOM     55  C   UNL A   1      42.137  29.416  34.365  1.00  0.00     0.074 A 
ATOM     56  C   UNL A   1      36.933  32.221  32.092  1.00  0.00     0.029 A 
ATOM     57  N   UNL A   1      38.803  31.046  32.331  1.00  0.00    -0.354 N 
ATOM     58  N   UNL A   1      41.075  29.952  33.815  1.00  0.00    -0.248 NA
ATOM     59  C   UNL A   1      42.379  29.841  35.751  1.00  0.00     0.031 C 
ATOM     60  C   UNL A   1      37.417  32.423  33.389  1.00  0.00     0.029 A 
ATOM     61  C   UNL A   1      38.569  31.671  33.548  1.00  0.00     0.049 A 
ATOM     62  H   UNL A   1      39.560  30.445  32.141  1.00  0.00     0.167 HD
ATOM     63  C   UNL A   1      40.504  30.753  34.795  1.00  0.00     0.074 A 
ATOM     64  C   UNL A   1      41.329  30.616  35.979  1.00  0.00     0.031 C 
ATOM     65  C   UNL A   1      39.396  31.532  34.720  1.00  0.00     0.037 A 
BRANCH  52  66
ATOM     66  C   UNL A   1      36.673  31.487  29.166  1.00  0.00     0.057 A 
ATOM     67  C   UNL A   1      36.676  32.814  28.718  1.00  0.00     0.134 A 
ATOM     68  C   UNL A   1      35.580  30.688  28.802  1.00  0.00     0.134 A 
ATOM     69  F   UNL A   1      37.683  33.640  29.040  1.00  0.00    -0.206 F 
ATOM     70  C   UNL A   1      35.635  33.327  27.940  1.00  0.00     0.040 A 
ATOM     71  C   UNL A   1      34.547  31.182  28.002  1.00  0.00     0.040 A 
ATOM     72  F   UNL A   1      35.513  29.407  29.195  1.00  0.00    -0.206 F 
ATOM     73  C   UNL A   1      34.571  32.507  27.573  1.00  0.00     0.006 A 
ENDBRANCH  52  66
BRANCH  53  74
ATOM     74  C   UNL A   1      44.227  27.895  34.607  1.00  0.00     0.057 A 
ATOM     75  C   UNL A   1      45.455  28.561  34.693  1.00  0.00     0.134 A 
ATOM     76  C   UNL A   1      44.077  26.714  35.342  1.00  0.00     0.134 A 
ATOM     77  F   UNL A   1      45.664  29.691  34.003  1.00  0.00    -0.206 F 
ATOM     78  C   UNL A   1      46.495  28.072  35.484  1.00  0.00     0.040 A 
ATOM     79  C   UNL A   1      45.099  26.230  36.160  1.00  0.00     0.040 A 
ATOM     80  F   UNL A   1      42.919  26.039  35.308  1.00  0.00    -0.206 F 
ATOM     81  C   UNL A   1      46.314  26.909  36.229  1.00  0.00     0.006 A 
ENDBRANCH  53  74
BRANCH  65  82
ATOM     82  C   UNL A   1      38.996  32.266  35.969  1.00  0.00     0.057 A 
ATOM     83  C   UNL A   1      38.190  31.647  36.933  1.00  0.00     0.134 A 
ATOM     84  C   UNL A   1      39.404  33.584  36.220  1.00  0.00     0.134 A 
ATOM     85  F   UNL A   1      37.759  30.389  36.755  1.00  0.00    -0.206 F 
ATOM     86  C   UNL A   1      37.805  32.309  38.100  1.00  0.00     0.040 A 
ATOM     87  C   UNL A   1      39.051  34.246  37.398  1.00  0.00     0.040 A 
ATOM     88  F   UNL A   1      40.191  34.231  35.348  1.00  0.00    -0.206 F 
ATOM     89  C   UNL A   1      38.244  33.609  38.340  1.00  0.00     0.006 A 
ENDBRANCH  65  82
ENDBRANCH  39  40
ENDBRANCH  32  34
ENDBRANCH  31  32
ENDBRANCH  30  31
ENDBRANCH  29  30
ENDBRANCH  28  29
ENDBRANCH  27  28
ENDBRANCH   1  27
TORSDOF 20
ENDMDL
MODEL 2
REMARK VINA RESULT:     -11.2      1.186      6.307
REMARK SMILES CC(C)Cc1cc2c(cc1Cl)C=C(C(=O)OCCOCCOCCOC(=O)c1ccc(-c3c4nc(c(-c5c(F)cccc5F)c5ccc([nH]5)c(-c5c(F)cccc5F)c5nc(c(-c6c(F)cccc6F)c6ccc3[nH]6)C=C5)C=C4)cc1)[C@H](C(F)(F)F)O2
REMARK SMILES IDX 20 1 19 2 18 3 17 4 16 5 14 6 15 7 13 8 5 9 6 10 10 11 7 12
REMARK SMILES IDX 9 13 11 14 8 15 87 16 12 17 82 18 4 19 2 20 1 21 3 22 83 23
REMARK SMILES IDX 84 24 85 25 86 26 21 27 22 28 23 29 24 30 25 31 26 32 27 33
REMARK SMILES IDX 28 34 29 35 81 36 30 37 80 38 31 39 32 40 33 41 74 42 34 43
REMARK SMILES IDX 79 44 73 45 75 46 35 47 78 48 72 49 71 50 36 52 62 53 45 54
REMARK SMILES IDX 61 55 46 56 49 57 60 58 76 59 47 60 48 61 59 63 77 64 50 65
REMARK SMILES IDX 37 66 38 67 43 68 39 69 40 70 42 71 44 72 41 73 63 74 64 75
REMARK SMILES IDX 69 76 65 77 66 78 68 79 70 80 67 81 51 82 52 83 57 84 53 85
REMARK SMILES IDX 54 86 56 87 58 88 55 89
REMARK H PARENT 75 51 49 62
REMARK Flexibility Score: inf
ROOT
ATOM      1  C   UNL A   1      41.422  21.041  27.444  1.00  0.00     0.188 C 
ENDROOT
BRANCH   1   2
ATOM      2  O   UNL A   1      40.082  21.477  27.354  1.00  0.00    -0.376 OA
BRANCH   2   3
ATOM      3  C   UNL A   1      39.529  21.847  26.100  1.00  0.00     0.202 C 
BRANCH   3   4
ATOM      4  C   UNL A   1      38.097  22.376  25.947  1.00  0.00     0.261 C 
BRANCH   4   5
ATOM      5  O   UNL A   1      37.464  22.072  24.695  1.00  0.00    -0.460 OA
BRANCH   5   6
ATOM      6  C   UNL A   1      36.338  21.331  24.784  1.00  0.00     0.338 C 
ATOM      7  O   UNL A   1      36.276  20.117  24.897  1.00  0.00    -0.246 OA
BRANCH   6   8
ATOM      8  C   UNL A   1      35.150  22.193  24.888  1.00  0.00     0.087 C 
ATOM      9  C   UNL A   1      32.311  26.329  25.182  1.00  0.00    -0.025 A 
ATOM     10  C   UNL A   1      32.356  25.102  25.870  1.00  0.00     0.052 A 
ATOM     11  C   UNL A   1      33.209  26.533  24.122  1.00  0.00     0.045 A 
ATOM     12  C   UNL A   1      33.283  24.120  25.528  1.00  0.00     0.128 A 
ATOM     13  C   UNL A   1      34.146  25.551  23.785  1.00  0.00     0.032 A 
ATOM     14  Cl  UNL A   1      33.235  28.005  23.217  1.00  0.00    -0.084 Cl
ATOM     15  C   UNL A   1      34.191  24.347  24.494  1.00  0.00     0.019 A 
ATOM     16  O   UNL A   1      33.297  22.997  26.310  1.00  0.00    -0.475 OA
ATOM     17  C   UNL A   1      35.242  23.373  24.255  1.00  0.00     0.027 C 
ATOM     18  C   UNL A   1      34.007  21.830  25.798  1.00  0.00     0.316 C 
BRANCH   9  19
ATOM     19  C   UNL A   1      31.312  27.370  25.636  1.00  0.00     0.040 C 
BRANCH  19  20
ATOM     20  C   UNL A   1      31.879  28.429  26.601  1.00  0.00    -0.013 C 
ATOM     21  C   UNL A   1      33.298  28.095  27.071  1.00  0.00     0.008 C 
ATOM     22  C   UNL A   1      31.883  29.794  25.908  1.00  0.00     0.008 C 
ENDBRANCH  19  20
ENDBRANCH   9  19
BRANCH  18  23
ATOM     23  C   UNL A   1      32.976  20.839  25.226  1.00  0.00     0.430 C 
ATOM     24  F   UNL A   1      33.248  20.492  23.948  1.00  0.00    -0.167 F 
ATOM     25  F   UNL A   1      32.893  19.713  25.966  1.00  0.00    -0.167 F 
ATOM     26  F   UNL A   1      31.732  21.385  25.230  1.00  0.00    -0.167 F 
ENDBRANCH  18  23
ENDBRANCH   6   8
ENDBRANCH   5   6
ENDBRANCH   4   5
ENDBRANCH   3   4
ENDBRANCH   2   3
ENDBRANCH   1   2
BRANCH   1  27
ATOM     27  C   UNL A   1      42.004  20.091  26.381  1.00  0.00     0.188 C 
BRANCH  27  28
ATOM     28  O   UNL A   1      42.770  20.584  25.309  1.00  0.00    -0.376 OA
BRANCH  28  29
ATOM     29  C   UNL A   1      43.901  21.405  25.542  1.00  0.00     0.202 C 
BRANCH  29  30
ATOM     30  C   UNL A   1      44.381  22.503  24.582  1.00  0.00     0.261 C 
BRANCH  30  31
ATOM     31  O   UNL A   1      43.750  23.778  24.707  1.00  0.00    -0.460 OA
BRANCH  31  32
ATOM     32  C   UNL A   1      44.567  24.786  25.120  1.00  0.00     0.338 C 
ATOM     33  O   UNL A   1      45.610  25.147  24.625  1.00  0.00    -0.246 OA
BRANCH  32  34
ATOM     34  C   UNL A   1      43.858  25.527  26.182  1.00  0.00     0.060 A 
ATOM     35  C   UNL A   1      42.887  24.891  26.952  1.00  0.00     0.016 A 
ATOM     36  C   UNL A   1      44.171  26.878  26.389  1.00  0.00     0.016 A 
ATOM     37  C   UNL A   1      42.236  25.611  27.953  1.00  0.00     0.010 A 
ATOM     38  C   UNL A   1      43.505  27.600  27.380  1.00  0.00     0.010 A 
ATOM     39  C   UNL A   1      42.551  26.963  28.183  1.00  0.00    -0.014 A 
BRANCH  39  40
ATOM     40  C   UNL A   1      42.007  27.636  29.384  1.00  0.00     0.031 A 
ATOM     41  C   UNL A   1      42.660  27.523  30.726  1.00  0.00     0.074 A 
ATOM     42  C   UNL A   1      40.897  28.381  29.228  1.00  0.00     0.049 A 
ATOM     43  N   UNL A   1      42.370  28.160  31.833  1.00  0.00    -0.248 NA
ATOM     44  C   UNL A   1      43.772  26.572  30.846  1.00  0.00     0.031 C 
ATOM     45  C   UNL A   1      40.158  28.529  27.974  1.00  0.00     0.029 A 
ATOM     46  N   UNL A   1      40.210  29.161  30.120  1.00  0.00    -0.354 N 
ATOM     47  C   UNL A   1      43.282  27.712  32.779  1.00  0.00     0.074 A 
ATOM     48  C   UNL A   1      44.098  26.706  32.127  1.00  0.00     0.031 C 
ATOM     49  C   UNL A   1      39.138  29.379  28.166  1.00  0.00     0.029 A 
ATOM     50  C   UNL A   1      39.139  29.814  29.558  1.00  0.00     0.049 A 
ATOM     51  H   UNL A   1      40.458  29.247  31.068  1.00  0.00     0.167 HD
ATOM     52  C   UNL A   1      43.431  28.118  34.064  1.00  0.00     0.037 A 
ATOM     53  C   UNL A   1      38.262  30.673  30.105  1.00  0.00     0.037 A 
ATOM     54  C   UNL A   1      42.587  29.094  34.712  1.00  0.00     0.049 A 
ATOM     55  C   UNL A   1      38.418  31.061  31.548  1.00  0.00     0.074 A 
ATOM     56  C   UNL A   1      42.679  29.595  36.000  1.00  0.00     0.029 A 
ATOM     57  N   UNL A   1      41.483  29.702  34.132  1.00  0.00    -0.354 N 
ATOM     58  N   UNL A   1      39.342  30.704  32.407  1.00  0.00    -0.248 NA
ATOM     59  C   UNL A   1      37.411  31.982  32.093  1.00  0.00     0.031 C 
ATOM     60  C   UNL A   1      41.599  30.459  36.217  1.00  0.00     0.029 A 
ATOM     61  C   UNL A   1      40.867  30.545  35.045  1.00  0.00     0.049 A 
ATOM     62  H   UNL A   1      41.181  29.554  33.205  1.00  0.00     0.167 HD
ATOM     63  C   UNL A   1      39.046  31.378  33.584  1.00  0.00     0.074 A 
ATOM     64  C   UNL A   1      37.868  32.181  33.320  1.00  0.00     0.031 C 
ATOM     65  C   UNL A   1      39.693  31.338  34.775  1.00  0.00     0.037 A 
BRANCH  52  66
ATOM     66  C   UNL A   1      44.547  27.502  34.860  1.00  0.00     0.057 A 
ATOM     67  C   UNL A   1      44.357  26.305  35.562  1.00  0.00     0.134 A 
ATOM     68  C   UNL A   1      45.799  28.121  34.971  1.00  0.00     0.134 A 
ATOM     69  F   UNL A   1      43.179  25.665  35.513  1.00  0.00    -0.206 F 
ATOM     70  C   UNL A   1      45.371  25.744  36.341  1.00  0.00     0.040 A 
ATOM     71  C   UNL A   1      46.830  27.556  35.725  1.00  0.00     0.040 A 
ATOM     72  F   UNL A   1      46.050  29.270  34.324  1.00  0.00    -0.206 F 
ATOM     73  C   UNL A   1      46.616  26.367  36.417  1.00  0.00     0.006 A 
ENDBRANCH  52  66
BRANCH  53  74
ATOM     74  C   UNL A   1      37.169  31.246  29.280  1.00  0.00     0.057 A 
ATOM     75  C   UNL A   1      36.015  30.509  28.989  1.00  0.00     0.134 A 
ATOM     76  C   UNL A   1      37.246  32.551  28.783  1.00  0.00     0.134 A 
ATOM     77  F   UNL A   1      35.888  29.247  29.427  1.00  0.00    -0.206 F 
ATOM     78  C   UNL A   1      34.974  31.051  28.236  1.00  0.00     0.040 A 
ATOM     79  C   UNL A   1      36.199  33.116  28.053  1.00  0.00     0.040 A 
ATOM     80  F   UNL A   1      38.322  33.310  29.040  1.00  0.00    -0.206 F 
ATOM     81  C   UNL A   1      35.061  32.363  27.775  1.00  0.00     0.006 A 
ENDBRANCH  53  74
BRANCH  65  82
ATOM     82  C   UNL A   1      39.156  32.215  35.871  1.00  0.00     0.057 A 
ATOM     83  C   UNL A   1      38.227  31.715  36.794  1.00  0.00     0.134 A 
ATOM     84  C   UNL A   1      39.551  33.552  36.016  1.00  0.00     0.134 A 
ATOM     85  F   UNL A   1      37.801  30.445  36.711  1.00  0.00    -0.206 F 
ATOM     86  C   UNL A   1      37.714  32.510  37.820  1.00  0.00     0.040 A 
ATOM     87  C   UNL A   1      39.068  34.348  37.056  1.00  0.00     0.040 A 
ATOM     88  F   UNL A   1      40.450  34.090  35.177  1.00  0.00    -0.206 F 
ATOM     89  C   UNL A   1      38.142  33.828  37.959  1.00  0.00     0.006 A 
ENDBRANCH  65  82
ENDBRANCH  39  40
ENDBRANCH  32  34
ENDBRANCH  31  32
ENDBRANCH  30  31
ENDBRANCH  29  30
ENDBRANCH  28  29
ENDBRANCH  27  28
ENDBRANCH   1  27
TORSDOF 20
ENDMDL
MODEL 3
REMARK VINA RESULT:     -11.0      3.967      7.672
REMARK SMILES CC(C)Cc1cc2c(cc1Cl)C=C(C(=O)OCCOCCOCCOC(=O)c1ccc(-c3c4nc(c(-c5c(F)cccc5F)c5ccc([nH]5)c(-c5c(F)cccc5F)c5nc(c(-c6c(F)cccc6F)c6ccc3[nH]6)C=C5)C=C4)cc1)[C@H](C(F)(F)F)O2
REMARK SMILES IDX 20 1 19 2 18 3 17 4 16 5 14 6 15 7 13 8 5 9 6 10 10 11 7 12
REMARK SMILES IDX 9 13 11 14 8 15 87 16 12 17 82 18 4 19 2 20 1 21 3 22 83 23
REMARK SMILES IDX 84 24 85 25 86 26 21 27 22 28 23 29 24 30 25 31 26 32 27 33
REMARK SMILES IDX 28 34 29 35 81 36 30 37 80 38 31 39 32 40 33 41 74 42 34 43
REMARK SMILES IDX 79 44 73 45 75 46 35 47 78 48 72 49 71 50 36 52 62 53 45 54
REMARK SMILES IDX 61 55 46 56 49 57 60 58 76 59 47 60 48 61 59 63 77 64 50 65
REMARK SMILES IDX 37 66 38 67 43 68 39 69 40 70 42 71 44 72 41 73 63 74 64 75
REMARK SMILES IDX 69 76 65 77 66 78 68 79 70 80 67 81 51 82 52 83 57 84 53 85
REMARK SMILES IDX 54 86 56 87 58 88 55 89
REMARK H PARENT 75 51 49 62
REMARK Flexibility Score: inf
ROOT
ATOM      1  C   UNL A   1      36.484  23.809  25.669  1.00  0.00     0.188 C 
ENDROOT
BRANCH   1   2
ATOM      2  O   UNL A   1      35.263  23.687  26.367  1.00  0.00    -0.376 OA
BRANCH   2   3
ATOM      3  C   UNL A   1      34.680  22.410  26.578  1.00  0.00     0.202 C 
BRANCH   3   4
ATOM      4  C   UNL A   1      33.316  22.221  27.254  1.00  0.00     0.261 C 
BRANCH   4   5
ATOM      5  O   UNL A   1      32.196  22.135  26.360  1.00  0.00    -0.460 OA
BRANCH   5   6
ATOM      6  C   UNL A   1      31.197  23.012  26.601  1.00  0.00     0.338 C 
ATOM      7  O   UNL A   1      30.452  23.014  27.568  1.00  0.00    -0.246 OA
BRANCH   6   8
ATOM      8  C   UNL A   1      31.205  24.101  25.611  1.00  0.00     0.087 C 
ATOM      9  C   UNL A   1      30.486  28.621  23.537  1.00  0.00    -0.025 A 
ATOM     10  C   UNL A   1      30.276  27.292  23.125  1.00  0.00     0.052 A 
ATOM     11  C   UNL A   1      31.058  28.845  24.799  1.00  0.00     0.045 A 
ATOM     12  C   UNL A   1      30.604  26.221  23.953  1.00  0.00     0.128 A 
ATOM     13  C   UNL A   1      31.379  27.771  25.636  1.00  0.00     0.032 A 
ATOM     14  Cl  UNL A   1      31.355  30.438  25.399  1.00  0.00    -0.084 Cl
ATOM     15  C   UNL A   1      31.143  26.457  25.218  1.00  0.00     0.019 A 
ATOM     16  O   UNL A   1      30.287  24.973  23.490  1.00  0.00    -0.475 OA
ATOM     17  C   UNL A   1      31.337  25.335  26.119  1.00  0.00     0.027 C 
ATOM     18  C   UNL A   1      30.898  23.832  24.162  1.00  0.00     0.316 C 
BRANCH   9  19
ATOM     19  C   UNL A   1      30.062  29.736  22.608  1.00  0.00     0.040 C 
BRANCH  19  20
ATOM     20  C   UNL A   1      28.563  30.089  22.665  1.00  0.00    -0.013 C 
ATOM     21  C   UNL A   1      28.270  31.245  23.626  1.00  0.00     0.008 C 
ATOM     22  C   UNL A   1      28.076  30.460  21.262  1.00  0.00     0.008 C 
ENDBRANCH  19  20
ENDBRANCH   9  19
BRANCH  18  23
ATOM     23  C   UNL A   1      32.074  23.329  23.304  1.00  0.00     0.430 C 
ATOM     24  F   UNL A   1      32.110  23.914  22.085  1.00  0.00    -0.167 F 
ATOM     25  F   UNL A   1      33.264  23.530  23.909  1.00  0.00    -0.167 F 
ATOM     26  F   UNL A   1      31.978  21.990  23.096  1.00  0.00    -0.167 F 
ENDBRANCH  18  23
ENDBRANCH   6   8
ENDBRANCH   5   6
ENDBRANCH   4   5
ENDBRANCH   3   4
ENDBRANCH   2   3
ENDBRANCH   1   2
BRANCH   1  27
ATOM     27  C   UNL A   1      36.966  22.678  24.741  1.00  0.00     0.188 C 
BRANCH  27  28
ATOM     28  O   UNL A   1      37.989  21.799  25.138  1.00  0.00    -0.376 OA
BRANCH  28  29
ATOM     29  C   UNL A   1      37.847  20.399  24.975  1.00  0.00     0.202 C 
BRANCH  29  30
ATOM     30  C   UNL A   1      38.929  19.374  25.345  1.00  0.00     0.261 C 
BRANCH  30  31
ATOM     31  O   UNL A   1      39.752  19.694  26.468  1.00  0.00    -0.460 OA
BRANCH  31  32
ATOM     32  C   UNL A   1      41.091  19.595  26.246  1.00  0.00     0.338 C 
ATOM     33  O   UNL A   1      41.694  18.681  25.733  1.00  0.00    -0.246 OA
BRANCH  32  34
ATOM     34  C   UNL A   1      41.692  20.906  26.558  1.00  0.00     0.060 A 
ATOM     35  C   UNL A   1      41.842  21.865  25.558  1.00  0.00     0.016 A 
ATOM     36  C   UNL A   1      42.120  21.161  27.869  1.00  0.00     0.016 A 
ATOM     37  C   UNL A   1      42.408  23.098  25.879  1.00  0.00     0.010 A 
ATOM     38  C   UNL A   1      42.702  22.390  28.183  1.00  0.00     0.010 A 
ATOM     39  C   UNL A   1      42.827  23.373  27.194  1.00  0.00    -0.014 A 
BRANCH  39  40
ATOM     40  C   UNL A   1      43.219  24.755  27.552  1.00  0.00     0.031 A 
ATOM     41  C   UNL A   1      44.604  25.275  27.327  1.00  0.00     0.074 A 
ATOM     42  C   UNL A   1      42.271  25.552  28.079  1.00  0.00     0.049 A 
ATOM     43  N   UNL A   1      45.052  26.497  27.472  1.00  0.00    -0.248 NA
ATOM     44  C   UNL A   1      45.616  24.304  26.894  1.00  0.00     0.031 C 
ATOM     45  C   UNL A   1      40.899  25.136  28.376  1.00  0.00     0.029 A 
ATOM     46  N   UNL A   1      42.310  26.871  28.443  1.00  0.00    -0.354 N 
ATOM     47  C   UNL A   1      46.394  26.453  27.119  1.00  0.00     0.074 A 
ATOM     48  C   UNL A   1      46.698  25.070  26.809  1.00  0.00     0.031 C 
ATOM     49  C   UNL A   1      40.215  26.191  28.845  1.00  0.00     0.029 A 
ATOM     50  C   UNL A   1      41.106  27.345  28.903  1.00  0.00     0.049 A 
ATOM     51  H   UNL A   1      43.120  27.426  28.380  1.00  0.00     0.167 HD
ATOM     52  C   UNL A   1      47.281  27.477  27.046  1.00  0.00     0.037 A 
ATOM     53  C   UNL A   1      40.757  28.576  29.317  1.00  0.00     0.037 A 
ATOM     54  C   UNL A   1      46.975  28.844  27.394  1.00  0.00     0.049 A 
ATOM     55  C   UNL A   1      41.777  29.677  29.279  1.00  0.00     0.074 A 
ATOM     56  C   UNL A   1      47.795  29.958  27.322  1.00  0.00     0.029 A 
ATOM     57  N   UNL A   1      45.760  29.283  27.901  1.00  0.00    -0.354 N 
ATOM     58  N   UNL A   1      43.016  29.646  28.853  1.00  0.00    -0.248 NA
ATOM     59  C   UNL A   1      41.342  30.992  29.771  1.00  0.00     0.031 C 
ATOM     60  C   UNL A   1      47.097  31.056  27.838  1.00  0.00     0.029 A 
ATOM     61  C   UNL A   1      45.820  30.642  28.177  1.00  0.00     0.049 A 
ATOM     62  H   UNL A   1      44.969  28.712  28.044  1.00  0.00     0.167 HD
ATOM     63  C   UNL A   1      43.500  30.939  28.997  1.00  0.00     0.074 A 
ATOM     64  C   UNL A   1      42.412  31.735  29.531  1.00  0.00     0.031 C 
ATOM     65  C   UNL A   1      44.734  31.425  28.711  1.00  0.00     0.037 A 
BRANCH  52  66
ATOM     66  C   UNL A   1      48.671  27.157  26.576  1.00  0.00     0.057 A 
ATOM     67  C   UNL A   1      48.992  27.168  25.213  1.00  0.00     0.134 A 
ATOM     68  C   UNL A   1      49.685  26.791  27.472  1.00  0.00     0.134 A 
ATOM     69  F   UNL A   1      48.068  27.495  24.297  1.00  0.00    -0.206 F 
ATOM     70  C   UNL A   1      50.269  26.830  24.758  1.00  0.00     0.040 A 
ATOM     71  C   UNL A   1      50.972  26.477  27.033  1.00  0.00     0.040 A 
ATOM     72  F   UNL A   1      49.447  26.761  28.793  1.00  0.00    -0.206 F 
ATOM     73  C   UNL A   1      51.266  26.491  25.671  1.00  0.00     0.006 A 
ENDBRANCH  52  66
BRANCH  53  74
ATOM     74  C   UNL A   1      39.373  28.839  29.783  1.00  0.00     0.057 A 
ATOM     75  C   UNL A   1      38.991  28.588  31.107  1.00  0.00     0.134 A 
ATOM     76  C   UNL A   1      38.408  29.369  28.920  1.00  0.00     0.134 A 
ATOM     77  F   UNL A   1      39.868  28.068  31.979  1.00  0.00    -0.206 F 
ATOM     78  C   UNL A   1      37.699  28.857  31.557  1.00  0.00     0.040 A 
ATOM     79  C   UNL A   1      37.119  29.670  29.365  1.00  0.00     0.040 A 
ATOM     80  F   UNL A   1      38.718  29.641  27.645  1.00  0.00    -0.206 F 
ATOM     81  C   UNL A   1      36.762  29.411  30.686  1.00  0.00     0.006 A 
ENDBRANCH  53  74
BRANCH  65  82
ATOM     82  C   UNL A   1      44.956  32.893  28.941  1.00  0.00     0.057 A 
ATOM     83  C   UNL A   1      45.491  33.353  30.152  1.00  0.00     0.134 A 
ATOM     84  C   UNL A   1      44.643  33.855  27.969  1.00  0.00     0.134 A 
ATOM     85  F   UNL A   1      45.809  32.489  31.127  1.00  0.00    -0.206 F 
ATOM     86  C   UNL A   1      45.706  34.712  30.388  1.00  0.00     0.040 A 
ATOM     87  C   UNL A   1      44.883  35.214  28.182  1.00  0.00     0.040 A 
ATOM     88  F   UNL A   1      44.144  33.483  26.781  1.00  0.00    -0.206 F 
ATOM     89  C   UNL A   1      45.411  35.645  29.397  1.00  0.00     0.006 A 
ENDBRANCH  65  82
ENDBRANCH  39  40
ENDBRANCH  32  34
ENDBRANCH  31  32
ENDBRANCH  30  31
ENDBRANCH  29  30
ENDBRANCH  28  29
ENDBRANCH  27  28
ENDBRANCH   1  27
TORSDOF 20
ENDMDL
