MODEL 1
REMARK VINA RESULT:     -12.6      0.000      0.000
REMARK SMILES O=C(OCCOCCOCCOC(=O)c1ccc(-c2c3nc(c(-c4c(F)cccc4F)c4ccc([nH]4)c(-c4c(F)cccc4F)c4nc(c(-c5c(F)cccc5F)c5ccc2[nH]5)C=C4)C=C3)cc1)C1=Cc2cc(Cl)cc(-c3ccc(O)cc3)c2O[C@@H]1C(F)(F)F
REMARK SMILES IDX 7 1 6 2 5 3 4 4 3 5 2 6 1 7 69 8 70 9 86 10 71 11 85 12
REMARK SMILES IDX 72 13 84 14 73 15 76 16 74 17 75 18 87 19 88 20 89 21 90 22
REMARK SMILES IDX 77 23 78 24 83 25 79 26 82 27 80 28 81 29 8 31 9 32 10 33
REMARK SMILES IDX 11 34 12 35 13 36 14 37 15 38 16 39 68 40 17 41 67 42 18 43
REMARK SMILES IDX 19 44 20 45 61 46 21 47 66 48 60 49 62 50 22 51 65 52 59 53
REMARK SMILES IDX 58 54 23 56 49 57 32 58 48 59 33 60 36 61 47 62 63 63 34 64
REMARK SMILES IDX 35 65 46 67 64 68 37 69 24 70 25 71 30 72 26 73 27 74 29 75
REMARK SMILES IDX 31 76 28 77 50 78 51 79 56 80 52 81 53 82 55 83 57 84 54 85
REMARK SMILES IDX 38 86 39 87 44 88 40 89 41 90 43 91 45 92 42 93
REMARK H PARENT 81 30 62 55 36 66
REMARK Flexibility Score: inf
ROOT
ATOM      1  C   UNL A   1      35.142  19.417  24.962  1.00  0.00     0.188 C 
ENDROOT
BRANCH   1   2
ATOM      2  O   UNL A   1      33.837  19.022  24.287  1.00  0.00    -0.376 OA
BRANCH   2   3
ATOM      3  C   UNL A   1      32.419  20.061  24.028  1.00  0.00     0.202 C 
BRANCH   3   4
ATOM      4  C   UNL A   1      31.778  21.517  25.514  1.00  0.00     0.261 C 
BRANCH   4   5
ATOM      5  O   UNL A   1      30.720  22.618  25.297  1.00  0.00    -0.460 OA
BRANCH   5   6
ATOM      6  C   UNL A   1      30.943  23.701  26.057  1.00  0.00     0.338 C 
ATOM      7  O   UNL A   1      30.320  24.103  27.008  1.00  0.00    -0.246 OA
BRANCH   6   8
ATOM      8  C   UNL A   1      31.754  24.398  25.080  1.00  0.00     0.087 C 
ATOM      9  C   UNL A   1      31.031  25.149  24.082  1.00  0.00     0.027 C 
ATOM     10  C   UNL A   1      32.944  25.142  26.383  1.00  0.00     0.316 C 
ATOM     11  C   UNL A   1      30.896  26.926  24.086  1.00  0.00     0.019 A 
ATOM     12  O   UNL A   1      32.684  27.093  26.513  1.00  0.00    -0.475 OA
ATOM     13  C   UNL A   1      30.013  27.467  23.185  1.00  0.00     0.032 A 
ATOM     14  C   UNL A   1      31.630  27.941  25.281  1.00  0.00     0.135 A 
ATOM     15  C   UNL A   1      29.830  28.845  23.284  1.00  0.00     0.042 A 
ATOM     16  C   UNL A   1      31.435  29.316  25.254  1.00  0.00     0.026 A 
ATOM     17  Cl  UNL A   1      28.709  29.581  22.189  1.00  0.00    -0.084 Cl
ATOM     18  C   UNL A   1      30.506  29.698  24.227  1.00  0.00     0.033 A 
BRANCH  10  19
ATOM     19  C   UNL A   1      34.245  24.179  25.789  1.00  0.00     0.430 C 
ATOM     20  F   UNL A   1      35.470  24.700  25.605  1.00  0.00    -0.167 F 
ATOM     21  F   UNL A   1      34.388  23.083  26.577  1.00  0.00    -0.167 F 
ATOM     22  F   UNL A   1      33.955  23.675  24.547  1.00  0.00    -0.167 F 
ENDBRANCH  10  19
BRANCH  16  23
ATOM     23  C   UNL A   1      32.043  30.438  25.967  1.00  0.00    -0.014 A 
ATOM     24  C   UNL A   1      33.191  30.277  26.751  1.00  0.00     0.012 A 
ATOM     25  C   UNL A   1      31.309  31.633  26.132  1.00  0.00     0.012 A 
ATOM     26  C   UNL A   1      33.648  31.313  27.578  1.00  0.00     0.047 A 
ATOM     27  C   UNL A   1      31.781  32.686  26.928  1.00  0.00     0.047 A 
ATOM     28  C   UNL A   1      32.969  32.524  27.621  1.00  0.00     0.115 A 
BRANCH  28  29
ATOM     29  O   UNL A   1      33.502  33.538  28.358  1.00  0.00    -0.508 OA
ATOM     30  H   UNL A   1      33.198  34.415  28.236  1.00  0.00     0.293 HD
ENDBRANCH  28  29
ENDBRANCH  16  23
ENDBRANCH   6   8
ENDBRANCH   5   6
ENDBRANCH   4   5
ENDBRANCH   3   4
ENDBRANCH   2   3
ENDBRANCH   1   2
BRANCH   1  31
ATOM     31  C   UNL A   1      35.762  20.821  24.864  1.00  0.00     0.188 C 
BRANCH  31  32
ATOM     32  O   UNL A   1      36.785  21.178  25.751  1.00  0.00    -0.376 OA
BRANCH  32  33
ATOM     33  C   UNL A   1      38.083  21.094  25.206  1.00  0.00     0.202 C 
BRANCH  33  34
ATOM     34  C   UNL A   1      39.294  21.428  26.081  1.00  0.00     0.261 C 
BRANCH  34  35
ATOM     35  O   UNL A   1      39.981  20.283  26.605  1.00  0.00    -0.460 OA
BRANCH  35  36
ATOM     36  C   UNL A   1      41.234  20.074  26.137  1.00  0.00     0.338 C 
ATOM     37  O   UNL A   1      41.614  19.205  25.375  1.00  0.00    -0.246 OA
BRANCH  36  38
ATOM     38  C   UNL A   1      42.072  21.206  26.564  1.00  0.00     0.060 A 
ATOM     39  C   UNL A   1      42.276  21.451  27.932  1.00  0.00     0.016 A 
ATOM     40  C   UNL A   1      42.609  22.051  25.596  1.00  0.00     0.016 A 
ATOM     41  C   UNL A   1      43.033  22.545  28.337  1.00  0.00     0.010 A 
ATOM     42  C   UNL A   1      43.322  23.175  26.003  1.00  0.00     0.010 A 
ATOM     43  C   UNL A   1      43.511  23.436  27.372  1.00  0.00    -0.014 A 
BRANCH  43  44
ATOM     44  C   UNL A   1      43.958  24.781  27.786  1.00  0.00     0.031 A 
ATOM     45  C   UNL A   1      42.895  25.781  28.132  1.00  0.00     0.074 A 
ATOM     46  C   UNL A   1      45.258  25.109  27.814  1.00  0.00     0.049 A 
ATOM     47  N   UNL A   1      43.006  27.052  28.407  1.00  0.00    -0.248 NA
ATOM     48  C   UNL A   1      41.511  25.274  28.154  1.00  0.00     0.031 C 
ATOM     49  C   UNL A   1      46.366  24.199  27.533  1.00  0.00     0.029 A 
ATOM     50  N   UNL A   1      45.859  26.314  28.068  1.00  0.00    -0.354 N 
ATOM     51  C   UNL A   1      41.709  27.500  28.619  1.00  0.00     0.074 A 
ATOM     52  C   UNL A   1      40.826  26.375  28.417  1.00  0.00     0.031 C 
ATOM     53  C   UNL A   1      47.518  24.891  27.599  1.00  0.00     0.029 A 
ATOM     54  C   UNL A   1      47.219  26.293  27.886  1.00  0.00     0.049 A 
ATOM     55  H   UNL A   1      45.363  27.117  28.352  1.00  0.00     0.167 HD
ATOM     56  C   UNL A   1      41.295  28.744  28.950  1.00  0.00     0.037 A 
ATOM     57  C   UNL A   1      48.107  27.306  27.914  1.00  0.00     0.037 A 
ATOM     58  C   UNL A   1      42.187  29.859  29.117  1.00  0.00     0.049 A 
ATOM     59  C   UNL A   1      47.618  28.702  28.208  1.00  0.00     0.074 A 
ATOM     60  C   UNL A   1      41.882  31.160  29.467  1.00  0.00     0.029 A 
ATOM     61  N   UNL A   1      43.559  29.804  28.918  1.00  0.00    -0.354 N 
ATOM     62  N   UNL A   1      46.396  29.118  28.449  1.00  0.00    -0.248 NA
ATOM     63  C   UNL A   1      48.627  29.770  28.236  1.00  0.00     0.031 C 
ATOM     64  C   UNL A   1      43.060  31.911  29.405  1.00  0.00     0.029 A 
ATOM     65  C   UNL A   1      44.111  31.060  29.099  1.00  0.00     0.049 A 
ATOM     66  H   UNL A   1      44.065  28.994  28.682  1.00  0.00     0.167 HD
ATOM     67  C   UNL A   1      46.494  30.484  28.686  1.00  0.00     0.074 A 
ATOM     68  C   UNL A   1      47.897  30.825  28.569  1.00  0.00     0.031 C 
ATOM     69  C   UNL A   1      45.514  31.376  28.982  1.00  0.00     0.037 A 
BRANCH  56  70
ATOM     70  C   UNL A   1      39.816  28.963  29.087  1.00  0.00     0.057 A 
ATOM     71  C   UNL A   1      39.157  28.872  30.321  1.00  0.00     0.134 A 
ATOM     72  C   UNL A   1      39.037  29.258  27.962  1.00  0.00     0.134 A 
ATOM     73  F   UNL A   1      39.841  28.573  31.438  1.00  0.00    -0.206 F 
ATOM     74  C   UNL A   1      37.774  29.029  30.424  1.00  0.00     0.040 A 
ATOM     75  C   UNL A   1      37.658  29.453  28.058  1.00  0.00     0.040 A 
ATOM     76  F   UNL A   1      39.600  29.361  26.749  1.00  0.00    -0.206 F 
ATOM     77  C   UNL A   1      37.021  29.326  29.290  1.00  0.00     0.006 A 
ENDBRANCH  56  70
BRANCH  57  78
ATOM     78  C   UNL A   1      49.541  27.042  27.626  1.00  0.00     0.057 A 
ATOM     79  C   UNL A   1      50.432  26.669  28.639  1.00  0.00     0.134 A 
ATOM     80  C   UNL A   1      50.058  27.163  26.329  1.00  0.00     0.134 A 
ATOM     81  F   UNL A   1      50.006  26.560  29.906  1.00  0.00    -0.206 F 
ATOM     82  C   UNL A   1      51.785  26.441  28.377  1.00  0.00     0.040 A 
ATOM     83  C   UNL A   1      51.402  26.909  26.048  1.00  0.00     0.040 A 
ATOM     84  F   UNL A   1      49.259  27.516  25.311  1.00  0.00    -0.206 F 
ATOM     85  C   UNL A   1      52.271  26.554  27.077  1.00  0.00     0.006 A 
ENDBRANCH  57  78
BRANCH  69  86
ATOM     86  C   UNL A   1      45.921  32.797  29.247  1.00  0.00     0.057 A 
ATOM     87  C   UNL A   1      46.365  33.225  30.505  1.00  0.00     0.134 A 
ATOM     88  C   UNL A   1      45.947  33.731  28.202  1.00  0.00     0.134 A 
ATOM     89  F   UNL A   1      46.358  32.385  31.551  1.00  0.00    -0.206 F 
ATOM     90  C   UNL A   1      46.802  34.534  30.717  1.00  0.00     0.040 A 
ATOM     91  C   UNL A   1      46.413  35.032  28.393  1.00  0.00     0.040 A 
ATOM     92  F   UNL A   1      45.549  33.384  26.968  1.00  0.00    -0.206 F 
ATOM     93  C   UNL A   1      46.838  35.438  29.656  1.00  0.00     0.006 A 
ENDBRANCH  69  86
ENDBRANCH  43  44
ENDBRANCH  36  38
ENDBRANCH  35  36
ENDBRANCH  34  35
ENDBRANCH  33  34
ENDBRANCH  32  33
ENDBRANCH  31  32
ENDBRANCH   1  31
TORSDOF 20
ENDMDL
MODEL 2
REMARK VINA RESULT:     -12.3      1.007      5.936
REMARK SMILES O=C(OCCOCCOCCOC(=O)c1ccc(-c2c3nc(c(-c4c(F)cccc4F)c4ccc([nH]4)c(-c4c(F)cccc4F)c4nc(c(-c5c(F)cccc5F)c5ccc2[nH]5)C=C4)C=C3)cc1)C1=Cc2cc(Cl)cc(-c3ccc(O)cc3)c2O[C@@H]1C(F)(F)F
REMARK SMILES IDX 7 1 6 2 5 3 4 4 3 5 2 6 1 7 69 8 70 9 86 10 71 11 85 12
REMARK SMILES IDX 72 13 84 14 73 15 76 16 74 17 75 18 87 19 88 20 89 21 90 22
REMARK SMILES IDX 77 23 78 24 83 25 79 26 82 27 80 28 81 29 8 31 9 32 10 33
REMARK SMILES IDX 11 34 12 35 13 36 14 37 15 38 16 39 68 40 17 41 67 42 18 43
REMARK SMILES IDX 19 44 20 45 61 46 21 47 66 48 60 49 62 50 22 51 65 52 59 53
REMARK SMILES IDX 58 54 23 56 49 57 32 58 48 59 33 60 36 61 47 62 63 63 34 64
REMARK SMILES IDX 35 65 46 67 64 68 37 69 24 70 25 71 30 72 26 73 27 74 29 75
REMARK SMILES IDX 31 76 28 77 50 78 51 79 56 80 52 81 53 82 55 83 57 84 54 85
REMARK SMILES IDX 38 86 39 87 44 88 40 89 41 90 43 91 45 92 42 93
REMARK H PARENT 81 30 62 55 36 66
REMARK Flexibility Score: inf
ROOT
ATOM      1  C   UNL A   1      35.564  18.730  24.718  1.00  0.00     0.188 C 
ENDROOT
BRANCH   1   2
ATOM      2  O   UNL A   1      34.229  18.038  24.490  1.00  0.00    -0.376 OA
BRANCH   2   3
ATOM      3  C   UNL A   1      32.697  18.812  24.031  1.00  0.00     0.202 C 
BRANCH   3   4
ATOM      4  C   UNL A   1      32.133  20.775  24.785  1.00  0.00     0.261 C 
BRANCH   4   5
ATOM      5  O   UNL A   1      31.736  21.990  23.922  1.00  0.00    -0.460 OA
BRANCH   5   6
ATOM      6  C   UNL A   1      31.515  23.090  24.656  1.00  0.00     0.338 C 
ATOM      7  O   UNL A   1      30.716  23.266  25.542  1.00  0.00    -0.246 OA
BRANCH   6   8
ATOM      8  C   UNL A   1      32.121  24.013  23.719  1.00  0.00     0.087 C 
ATOM      9  C   UNL A   1      31.215  24.912  23.045  1.00  0.00     0.027 C 
ATOM     10  C   UNL A   1      33.521  24.539  24.916  1.00  0.00     0.316 C 
ATOM     11  C   UNL A   1      31.057  26.642  23.445  1.00  0.00     0.019 A 
ATOM     12  O   UNL A   1      33.261  26.406  25.496  1.00  0.00    -0.475 OA
ATOM     13  C   UNL A   1      30.015  27.307  22.850  1.00  0.00     0.032 A 
ATOM     14  C   UNL A   1      31.984  27.430  24.676  1.00  0.00     0.135 A 
ATOM     15  C   UNL A   1      29.834  28.625  23.266  1.00  0.00     0.042 A 
ATOM     16  C   UNL A   1      31.768  28.770  24.973  1.00  0.00     0.026 A 
ATOM     17  Cl  UNL A   1      28.518  29.508  22.567  1.00  0.00    -0.084 Cl
ATOM     18  C   UNL A   1      30.659  29.303  24.232  1.00  0.00     0.033 A 
BRANCH  10  19
ATOM     19  C   UNL A   1      34.704  23.787  23.912  1.00  0.00     0.430 C 
ATOM     20  F   UNL A   1      34.598  22.495  23.559  1.00  0.00    -0.167 F 
ATOM     21  F   UNL A   1      34.845  24.506  22.770  1.00  0.00    -0.167 F 
ATOM     22  F   UNL A   1      35.942  23.826  24.499  1.00  0.00    -0.167 F 
ENDBRANCH  10  19
BRANCH  16  23
ATOM     23  C   UNL A   1      32.481  29.754  25.785  1.00  0.00    -0.014 A 
ATOM     24  C   UNL A   1      33.743  29.485  26.328  1.00  0.00     0.012 A 
ATOM     25  C   UNL A   1      31.780  30.867  26.299  1.00  0.00     0.012 A 
ATOM     26  C   UNL A   1      34.326  30.358  27.257  1.00  0.00     0.047 A 
ATOM     27  C   UNL A   1      32.372  31.762  27.199  1.00  0.00     0.047 A 
ATOM     28  C   UNL A   1      33.659  31.512  27.647  1.00  0.00     0.115 A 
BRANCH  28  29
ATOM     29  O   UNL A   1      34.303  32.383  28.473  1.00  0.00    -0.508 OA
ATOM     30  H   UNL A   1      34.043  32.456  29.370  1.00  0.00     0.293 HD
ENDBRANCH  28  29
ENDBRANCH  16  23
ENDBRANCH   6   8
ENDBRANCH   5   6
ENDBRANCH   4   5
ENDBRANCH   3   4
ENDBRANCH   2   3
ENDBRANCH   1   2
BRANCH   1  31
ATOM     31  C   UNL A   1      35.709  20.236  24.991  1.00  0.00     0.188 C 
BRANCH  31  32
ATOM     32  O   UNL A   1      36.840  20.701  25.673  1.00  0.00    -0.376 OA
BRANCH  32  33
ATOM     33  C   UNL A   1      38.066  20.371  25.059  1.00  0.00     0.202 C 
BRANCH  33  34
ATOM     34  C   UNL A   1      39.381  20.779  25.728  1.00  0.00     0.261 C 
BRANCH  34  35
ATOM     35  O   UNL A   1      40.035  19.723  26.444  1.00  0.00    -0.460 OA
BRANCH  35  36
ATOM     36  C   UNL A   1      41.362  19.581  26.217  1.00  0.00     0.338 C 
ATOM     37  O   UNL A   1      41.945  18.619  25.751  1.00  0.00    -0.246 OA
BRANCH  36  38
ATOM     38  C   UNL A   1      42.006  20.882  26.462  1.00  0.00     0.060 A 
ATOM     39  C   UNL A   1      42.157  21.353  27.776  1.00  0.00     0.016 A 
ATOM     40  C   UNL A   1      42.408  21.651  25.374  1.00  0.00     0.016 A 
ATOM     41  C   UNL A   1      42.726  22.600  28.007  1.00  0.00     0.010 A 
ATOM     42  C   UNL A   1      42.929  22.922  25.602  1.00  0.00     0.010 A 
ATOM     43  C   UNL A   1      43.063  23.406  26.916  1.00  0.00    -0.014 A 
BRANCH  43  44
ATOM     44  C   UNL A   1      43.287  24.850  27.124  1.00  0.00     0.031 A 
ATOM     45  C   UNL A   1      44.671  25.373  26.875  1.00  0.00     0.074 A 
ATOM     46  C   UNL A   1      42.305  25.656  27.555  1.00  0.00     0.049 A 
ATOM     47  N   UNL A   1      45.163  26.562  27.093  1.00  0.00    -0.248 NA
ATOM     48  C   UNL A   1      45.636  24.411  26.315  1.00  0.00     0.031 C 
ATOM     49  C   UNL A   1      40.921  25.252  27.788  1.00  0.00     0.029 A 
ATOM     50  N   UNL A   1      42.339  26.982  27.899  1.00  0.00    -0.354 N 
ATOM     51  C   UNL A   1      46.496  26.487  26.713  1.00  0.00     0.074 A 
ATOM     52  C   UNL A   1      46.744  25.133  26.276  1.00  0.00     0.031 C 
ATOM     53  C   UNL A   1      40.240  26.307  28.271  1.00  0.00     0.029 A 
ATOM     54  C   UNL A   1      41.152  27.441  28.415  1.00  0.00     0.049 A 
ATOM     55  H   UNL A   1      43.136  27.550  27.788  1.00  0.00     0.167 HD
ATOM     56  C   UNL A   1      47.430  27.465  26.734  1.00  0.00     0.037 A 
ATOM     57  C   UNL A   1      40.860  28.631  28.973  1.00  0.00     0.037 A 
ATOM     58  C   UNL A   1      47.172  28.799  27.203  1.00  0.00     0.049 A 
ATOM     59  C   UNL A   1      41.936  29.685  29.059  1.00  0.00     0.074 A 
ATOM     60  C   UNL A   1      48.038  29.875  27.254  1.00  0.00     0.029 A 
ATOM     61  N   UNL A   1      45.961  29.228  27.726  1.00  0.00    -0.354 N 
ATOM     62  N   UNL A   1      43.186  29.627  28.662  1.00  0.00    -0.248 NA
ATOM     63  C   UNL A   1      41.563  30.970  29.667  1.00  0.00     0.031 C 
ATOM     64  C   UNL A   1      47.372  30.934  27.879  1.00  0.00     0.029 A 
ATOM     65  C   UNL A   1      46.067  30.544  28.140  1.00  0.00     0.049 A 
ATOM     66  H   UNL A   1      45.147  28.678  27.793  1.00  0.00     0.167 HD
ATOM     67  C   UNL A   1      43.738  30.871  28.943  1.00  0.00     0.074 A 
ATOM     68  C   UNL A   1      42.683  31.667  29.537  1.00  0.00     0.031 C 
ATOM     69  C   UNL A   1      45.000  31.319  28.725  1.00  0.00     0.037 A 
BRANCH  56  70
ATOM     70  C   UNL A   1      48.818  27.098  26.295  1.00  0.00     0.057 A 
ATOM     71  C   UNL A   1      49.788  26.630  27.191  1.00  0.00     0.134 A 
ATOM     72  C   UNL A   1      49.193  27.227  24.951  1.00  0.00     0.134 A 
ATOM     73  F   UNL A   1      49.503  26.500  28.497  1.00  0.00    -0.206 F 
ATOM     74  C   UNL A   1      51.089  26.341  26.775  1.00  0.00     0.040 A 
ATOM     75  C   UNL A   1      50.479  26.907  24.517  1.00  0.00     0.040 A 
ATOM     76  F   UNL A   1      48.316  27.669  24.037  1.00  0.00    -0.206 F 
ATOM     77  C   UNL A   1      51.436  26.474  25.433  1.00  0.00     0.006 A 
ENDBRANCH  56  70
BRANCH  57  78
ATOM     78  C   UNL A   1      39.500  28.878  29.521  1.00  0.00     0.057 A 
ATOM     79  C   UNL A   1      39.190  28.599  30.857  1.00  0.00     0.134 A 
ATOM     80  C   UNL A   1      38.474  29.394  28.718  1.00  0.00     0.134 A 
ATOM     81  F   UNL A   1      40.121  28.082  31.672  1.00  0.00    -0.206 F 
ATOM     82  C   UNL A   1      37.908  28.810  31.370  1.00  0.00     0.040 A 
ATOM     83  C   UNL A   1      37.197  29.637  29.225  1.00  0.00     0.040 A 
ATOM     84  F   UNL A   1      38.703  29.684  27.428  1.00  0.00    -0.206 F 
ATOM     85  C   UNL A   1      36.909  29.337  30.555  1.00  0.00     0.006 A 
ENDBRANCH  57  78
BRANCH  69  86
ATOM     86  C   UNL A   1      45.306  32.746  29.082  1.00  0.00     0.057 A 
ATOM     87  C   UNL A   1      45.037  33.808  28.210  1.00  0.00     0.134 A 
ATOM     88  C   UNL A   1      45.802  33.064  30.354  1.00  0.00     0.134 A 
ATOM     89  F   UNL A   1      44.570  33.574  26.975  1.00  0.00    -0.206 F 
ATOM     90  C   UNL A   1      45.267  35.134  28.585  1.00  0.00     0.040 A 
ATOM     91  C   UNL A   1      46.003  34.386  30.752  1.00  0.00     0.040 A 
ATOM     92  F   UNL A   1      46.067  32.095  31.244  1.00  0.00    -0.206 F 
ATOM     93  C   UNL A   1      45.740  35.426  29.863  1.00  0.00     0.006 A 
ENDBRANCH  69  86
ENDBRANCH  43  44
ENDBRANCH  36  38
ENDBRANCH  35  36
ENDBRANCH  34  35
ENDBRANCH  33  34
ENDBRANCH  32  33
ENDBRANCH  31  32
ENDBRANCH   1  31
TORSDOF 20
ENDMDL
MODEL 3
REMARK VINA RESULT:     -12.2      4.913      8.603
REMARK SMILES O=C(OCCOCCOCCOC(=O)c1ccc(-c2c3nc(c(-c4c(F)cccc4F)c4ccc([nH]4)c(-c4c(F)cccc4F)c4nc(c(-c5c(F)cccc5F)c5ccc2[nH]5)C=C4)C=C3)cc1)C1=Cc2cc(Cl)cc(-c3ccc(O)cc3)c2O[C@@H]1C(F)(F)F
REMARK SMILES IDX 7 1 6 2 5 3 4 4 3 5 2 6 1 7 69 8 70 9 86 10 71 11 85 12
REMARK SMILES IDX 72 13 84 14 73 15 76 16 74 17 75 18 87 19 88 20 89 21 90 22
REMARK SMILES IDX 77 23 78 24 83 25 79 26 82 27 80 28 81 29 8 31 9 32 10 33
REMARK SMILES IDX 11 34 12 35 13 36 14 37 15 38 16 39 68 40 17 41 67 42 18 43
REMARK SMILES IDX 19 44 20 45 61 46 21 47 66 48 60 49 62 50 22 51 65 52 59 53
REMARK SMILES IDX 58 54 23 56 49 57 32 58 48 59 33 60 36 61 47 62 63 63 34 64
REMARK SMILES IDX 35 65 46 67 64 68 37 69 24 70 25 71 30 72 26 73 27 74 29 75
REMARK SMILES IDX 31 76 28 77 50 78 51 79 56 80 52 81 53 82 55 83 57 84 54 85
REMARK SMILES IDX 38 86 39 87 44 88 40 89 41 90 43 91 45 92 42 93
REMARK H PARENT 81 30 62 55 36 66
REMARK Flexibility Score: inf
ROOT
ATOM      1  C   UNL A   1      39.858  21.677  26.299  1.00  0.00     0.188 C 
ENDROOT
BRANCH   1   2
ATOM      2  O   UNL A   1      38.427  22.114  26.024  1.00  0.00    -0.376 OA
BRANCH   2   3
ATOM      3  C   UNL A   1      37.325  21.434  24.807  1.00  0.00     0.202 C 
BRANCH   3   4
ATOM      4  C   UNL A   1      35.637  22.568  24.029  1.00  0.00     0.261 C 
BRANCH   4   5
ATOM      5  O   UNL A   1      35.189  23.962  24.513  1.00  0.00    -0.460 OA
BRANCH   5   6
ATOM      6  C   UNL A   1      34.352  24.560  23.653  1.00  0.00     0.338 C 
ATOM      7  O   UNL A   1      34.599  25.107  22.608  1.00  0.00    -0.246 OA
BRANCH   6   8
ATOM      8  C   UNL A   1      33.284  24.762  24.610  1.00  0.00     0.087 C 
ATOM      9  C   UNL A   1      33.524  25.769  25.618  1.00  0.00     0.027 C 
ATOM     10  C   UNL A   1      31.907  24.828  23.280  1.00  0.00     0.316 C 
ATOM     11  C   UNL A   1      32.764  27.381  25.605  1.00  0.00     0.019 A 
ATOM     12  O   UNL A   1      31.174  26.654  23.143  1.00  0.00    -0.475 OA
ATOM     13  C   UNL A   1      33.248  28.283  26.519  1.00  0.00     0.032 A 
ATOM     14  C   UNL A   1      31.649  27.907  24.390  1.00  0.00     0.135 A 
ATOM     15  C   UNL A   1      32.730  29.573  26.415  1.00  0.00     0.042 A 
ATOM     16  C   UNL A   1      31.140  29.199  24.412  1.00  0.00     0.026 A 
ATOM     17  Cl  UNL A   1      33.321  30.762  27.527  1.00  0.00    -0.084 Cl
ATOM     18  C   UNL A   1      31.740  29.986  25.454  1.00  0.00     0.033 A 
BRANCH  10  19
ATOM     19  C   UNL A   1      31.239  23.346  23.856  1.00  0.00     0.430 C 
ATOM     20  F   UNL A   1      30.823  23.217  25.127  1.00  0.00    -0.167 F 
ATOM     21  F   UNL A   1      30.207  22.979  23.055  1.00  0.00    -0.167 F 
ATOM     22  F   UNL A   1      32.145  22.323  23.742  1.00  0.00    -0.167 F 
ENDBRANCH  10  19
BRANCH  16  23
ATOM     23  C   UNL A   1      30.071  29.878  23.681  1.00  0.00    -0.014 A 
ATOM     24  C   UNL A   1      29.712  29.500  22.383  1.00  0.00     0.012 A 
ATOM     25  C   UNL A   1      29.598  31.125  24.147  1.00  0.00     0.012 A 
ATOM     26  C   UNL A   1      28.824  30.279  21.627  1.00  0.00     0.047 A 
ATOM     27  C   UNL A   1      28.682  31.889  23.411  1.00  0.00     0.047 A 
ATOM     28  C   UNL A   1      28.279  31.437  22.165  1.00  0.00     0.115 A 
BRANCH  28  29
ATOM     29  O   UNL A   1      27.343  32.110  21.438  1.00  0.00    -0.508 OA
ATOM     30  H   UNL A   1      27.046  32.951  21.722  1.00  0.00     0.293 HD
ENDBRANCH  28  29
ENDBRANCH  16  23
ENDBRANCH   6   8
ENDBRANCH   5   6
ENDBRANCH   4   5
ENDBRANCH   3   4
ENDBRANCH   2   3
ENDBRANCH   1   2
BRANCH   1  31
ATOM     31  C   UNL A   1      40.686  22.173  27.496  1.00  0.00     0.188 C 
BRANCH  31  32
ATOM     32  O   UNL A   1      42.059  22.390  27.333  1.00  0.00    -0.376 OA
BRANCH  32  33
ATOM     33  C   UNL A   1      42.514  22.268  26.004  1.00  0.00     0.202 C 
BRANCH  33  34
ATOM     34  C   UNL A   1      42.955  23.518  25.238  1.00  0.00     0.261 C 
BRANCH  34  35
ATOM     35  O   UNL A   1      43.050  24.703  26.040  1.00  0.00    -0.460 OA
BRANCH  35  36
ATOM     36  C   UNL A   1      42.004  25.558  25.967  1.00  0.00     0.338 C 
ATOM     37  O   UNL A   1      41.131  25.604  25.120  1.00  0.00    -0.246 OA
BRANCH  36  38
ATOM     38  C   UNL A   1      41.974  26.344  27.211  1.00  0.00     0.060 A 
ATOM     39  C   UNL A   1      40.976  26.105  28.169  1.00  0.00     0.016 A 
ATOM     40  C   UNL A   1      42.913  27.357  27.391  1.00  0.00     0.016 A 
ATOM     41  C   UNL A   1      40.921  26.876  29.325  1.00  0.00     0.010 A 
ATOM     42  C   UNL A   1      42.826  28.163  28.523  1.00  0.00     0.010 A 
ATOM     43  C   UNL A   1      41.815  27.940  29.475  1.00  0.00    -0.014 A 
BRANCH  43  44
ATOM     44  C   UNL A   1      41.528  28.992  30.469  1.00  0.00     0.031 A 
ATOM     45  C   UNL A   1      42.382  29.023  31.702  1.00  0.00     0.074 A 
ATOM     46  C   UNL A   1      40.521  29.862  30.298  1.00  0.00     0.049 A 
ATOM     47  N   UNL A   1      42.269  29.757  32.775  1.00  0.00    -0.248 NA
ATOM     48  C   UNL A   1      43.513  28.078  31.731  1.00  0.00     0.031 C 
ATOM     49  C   UNL A   1      39.661  29.938  29.120  1.00  0.00     0.029 A 
ATOM     50  N   UNL A   1      40.039  30.830  31.139  1.00  0.00    -0.354 N 
ATOM     51  C   UNL A   1      43.301  29.353  33.611  1.00  0.00     0.074 A 
ATOM     52  C   UNL A   1      44.014  28.295  32.935  1.00  0.00     0.031 C 
ATOM     53  C   UNL A   1      38.729  30.886  29.328  1.00  0.00     0.029 A 
ATOM     54  C   UNL A   1      38.909  31.449  30.666  1.00  0.00     0.049 A 
ATOM     55  H   UNL A   1      40.461  31.059  31.999  1.00  0.00     0.167 HD
ATOM     56  C   UNL A   1      43.621  29.826  34.838  1.00  0.00     0.037 A 
ATOM     57  C   UNL A   1      38.098  32.339  31.270  1.00  0.00     0.037 A 
ATOM     58  C   UNL A   1      42.879  30.859  35.508  1.00  0.00     0.049 A 
ATOM     59  C   UNL A   1      38.425  32.798  32.669  1.00  0.00     0.074 A 
ATOM     60  C   UNL A   1      43.121  31.428  36.744  1.00  0.00     0.029 A 
ATOM     61  N   UNL A   1      41.735  31.459  35.002  1.00  0.00    -0.354 N 
ATOM     62  N   UNL A   1      39.425  32.446  33.443  1.00  0.00    -0.248 NA
ATOM     63  C   UNL A   1      37.515  33.777  33.280  1.00  0.00     0.031 C 
ATOM     64  C   UNL A   1      42.078  32.317  37.020  1.00  0.00     0.029 A 
ATOM     65  C   UNL A   1      41.234  32.366  35.920  1.00  0.00     0.049 A 
ATOM     66  H   UNL A   1      41.337  31.269  34.122  1.00  0.00     0.167 HD
ATOM     67  C   UNL A   1      39.282  33.180  34.615  1.00  0.00     0.074 A 
ATOM     68  C   UNL A   1      38.103  34.004  34.446  1.00  0.00     0.031 C 
ATOM     69  C   UNL A   1      40.059  33.180  35.728  1.00  0.00     0.037 A 
BRANCH  56  70
ATOM     70  C   UNL A   1      44.778  29.180  35.542  1.00  0.00     0.057 A 
ATOM     71  C   UNL A   1      44.605  28.166  36.494  1.00  0.00     0.134 A 
ATOM     72  C   UNL A   1      46.090  29.590  35.272  1.00  0.00     0.134 A 
ATOM     73  F   UNL A   1      43.373  27.738  36.815  1.00  0.00    -0.206 F 
ATOM     74  C   UNL A   1      45.689  27.611  37.176  1.00  0.00     0.040 A 
ATOM     75  C   UNL A   1      47.184  29.018  35.921  1.00  0.00     0.040 A 
ATOM     76  F   UNL A   1      46.331  30.556  34.373  1.00  0.00    -0.206 F 
ATOM     77  C   UNL A   1      46.984  28.033  36.886  1.00  0.00     0.006 A 
ENDBRANCH  56  70
BRANCH  57  78
ATOM     78  C   UNL A   1      36.884  32.831  30.567  1.00  0.00     0.057 A 
ATOM     79  C   UNL A   1      36.963  33.821  29.580  1.00  0.00     0.134 A 
ATOM     80  C   UNL A   1      35.612  32.327  30.870  1.00  0.00     0.134 A 
ATOM     81  F   UNL A   1      38.147  34.362  29.260  1.00  0.00    -0.206 F 
ATOM     82  C   UNL A   1      35.823  34.301  28.933  1.00  0.00     0.040 A 
ATOM     83  C   UNL A   1      34.468  32.777  30.210  1.00  0.00     0.040 A 
ATOM     84  F   UNL A   1      35.465  31.376  31.805  1.00  0.00    -0.206 F 
ATOM     85  C   UNL A   1      34.571  33.774  29.242  1.00  0.00     0.006 A 
ENDBRANCH  57  78
BRANCH  69  86
ATOM     86  C   UNL A   1      39.694  34.128  36.834  1.00  0.00     0.057 A 
ATOM     87  C   UNL A   1      38.979  33.716  37.965  1.00  0.00     0.134 A 
ATOM     88  C   UNL A   1      40.140  35.457  36.802  1.00  0.00     0.134 A 
ATOM     89  F   UNL A   1      38.515  32.461  38.058  1.00  0.00    -0.206 F 
ATOM     90  C   UNL A   1      38.706  34.596  39.015  1.00  0.00     0.040 A 
ATOM     91  C   UNL A   1      39.903  36.335  37.859  1.00  0.00     0.040 A 
ATOM     92  F   UNL A   1      40.843  35.914  35.753  1.00  0.00    -0.206 F 
ATOM     93  C   UNL A   1      39.179  35.906  38.969  1.00  0.00     0.006 A 
ENDBRANCH  69  86
ENDBRANCH  43  44
ENDBRANCH  36  38
ENDBRANCH  35  36
ENDBRANCH  34  35
ENDBRANCH  33  34
ENDBRANCH  32  33
ENDBRANCH  31  32
ENDBRANCH   1  31
TORSDOF 20
ENDMDL
