MODEL 1
REMARK VINA RESULT:     -11.8      0.000      0.000
REMARK SMILES Cc1nc(-c2ccccc2F)sc1C(=O)NCc1ccc(C(=O)OCCOCCOCCOC(=O)c2ccc(-c3c4nc(c(-c5c(F)cccc5F)c5ccc([nH]5)c(-c5c(F)cccc5F)c5nc(c(-c6c(F)cccc6F)c6ccc3[nH]6)C=C5)C=C4)cc2)cc1
REMARK SMILES IDX 28 1 27 2 26 3 25 4 24 5 22 6 23 7 21 8 18 9 19 10 91 11
REMARK SMILES IDX 20 12 90 13 17 14 16 15 14 16 15 17 13 19 1 20 2 21 3 22
REMARK SMILES IDX 4 23 12 24 5 25 6 26 10 27 7 28 9 29 11 30 8 31 29 32 30 33
REMARK SMILES IDX 31 34 32 35 33 36 34 37 35 38 36 39 37 40 89 41 38 42 88 43
REMARK SMILES IDX 39 44 40 45 41 46 82 47 42 48 87 49 81 50 83 51 43 52 86 53
REMARK SMILES IDX 80 54 79 55 44 57 70 58 53 59 69 60 54 61 57 62 68 63 84 64
REMARK SMILES IDX 55 65 56 66 67 68 85 69 58 70 45 71 46 72 51 73 47 74 48 75
REMARK SMILES IDX 50 76 52 77 49 78 71 79 72 80 77 81 73 82 74 83 76 84 78 85
REMARK SMILES IDX 75 86 59 87 60 88 65 89 61 90 62 91 64 92 66 93 63 94
REMARK H PARENT 16 18 83 56 57 67
REMARK Flexibility Score: inf
ROOT
ATOM      1  C   UNL A   1      32.810  36.620  31.836  1.00  0.00     0.188 C 
ENDROOT
BRANCH   1   2
ATOM      2  O   UNL A   1      32.901  37.143  30.520  1.00  0.00    -0.376 OA
BRANCH   2   3
ATOM      3  C   UNL A   1      33.120  36.266  29.421  1.00  0.00     0.202 C 
BRANCH   3   4
ATOM      4  C   UNL A   1      33.333  34.763  29.649  1.00  0.00     0.261 C 
BRANCH   4   5
ATOM      5  O   UNL A   1      33.001  33.941  28.521  1.00  0.00    -0.460 OA
BRANCH   5   6
ATOM      6  C   UNL A   1      34.060  33.409  27.863  1.00  0.00     0.338 C 
ATOM      7  O   UNL A   1      35.132  33.945  27.640  1.00  0.00    -0.246 OA
BRANCH   6   8
ATOM      8  C   UNL A   1      33.823  31.972  27.610  1.00  0.00     0.060 A 
ATOM      9  C   UNL A   1      33.517  29.226  27.108  1.00  0.00    -0.029 A 
ATOM     10  C   UNL A   1      34.778  29.758  27.397  1.00  0.00     0.006 A 
ATOM     11  C   UNL A   1      32.403  30.086  27.113  1.00  0.00     0.006 A 
ATOM     12  C   UNL A   1      34.934  31.122  27.635  1.00  0.00     0.016 A 
ATOM     13  C   UNL A   1      32.550  31.452  27.372  1.00  0.00     0.016 A 
BRANCH   9  14
ATOM     14  C   UNL A   1      33.350  27.783  26.711  1.00  0.00     0.152 C 
BRANCH  14  15
ATOM     15  N   UNL A   1      32.260  27.638  25.780  1.00  0.00    -0.347 N 
ATOM     16  C   UNL A   1      31.951  26.934  24.653  1.00  0.00     0.263 C 
ATOM     17  O   UNL A   1      30.856  27.313  24.209  1.00  0.00    -0.268 OA
ATOM     18  H   UNL A   1      31.512  28.225  26.034  1.00  0.00     0.164 HD
BRANCH  16  19
ATOM     19  C   UNL A   1      32.712  25.867  23.999  1.00  0.00     0.115 A 
ATOM     20  C   UNL A   1      33.005  25.977  21.358  1.00  0.00     0.068 C 
ATOM     21  C   UNL A   1      33.159  25.467  22.740  1.00  0.00     0.062 A 
ATOM     22  N   UNL A   1      33.949  24.318  22.729  1.00  0.00    -0.240 NA
ATOM     23  C   UNL A   1      34.077  23.789  23.918  1.00  0.00     0.127 A 
ATOM     24  S   UNL A   1      33.296  24.649  25.151  1.00  0.00    -0.108 S 
BRANCH  23  25
ATOM     25  C   UNL A   1      34.889  22.602  24.164  1.00  0.00     0.046 A 
ATOM     26  C   UNL A   1      34.265  21.456  24.688  1.00  0.00     0.014 A 
ATOM     27  C   UNL A   1      36.277  22.588  24.007  1.00  0.00     0.133 A 
ATOM     28  C   UNL A   1      35.012  20.333  25.049  1.00  0.00     0.001 A 
ATOM     29  C   UNL A   1      37.030  21.472  24.373  1.00  0.00     0.040 A 
ATOM     30  F   UNL A   1      36.928  23.667  23.546  1.00  0.00    -0.206 F 
ATOM     31  C   UNL A   1      36.398  20.345  24.900  1.00  0.00     0.003 A 
ENDBRANCH  23  25
ENDBRANCH  16  19
ENDBRANCH  14  15
ENDBRANCH   9  14
ENDBRANCH   6   8
ENDBRANCH   5   6
ENDBRANCH   4   5
ENDBRANCH   3   4
ENDBRANCH   2   3
ENDBRANCH   1   2
BRANCH   1  32
ATOM     32  C   UNL A   1      33.947  36.868  32.851  1.00  0.00     0.188 C 
BRANCH  32  33
ATOM     33  O   UNL A   1      35.040  35.986  32.782  1.00  0.00    -0.376 OA
BRANCH  33  34
ATOM     34  C   UNL A   1      35.203  34.955  33.740  1.00  0.00     0.202 C 
BRANCH  34  35
ATOM     35  C   UNL A   1      36.339  33.912  33.777  1.00  0.00     0.261 C 
BRANCH  35  36
ATOM     36  O   UNL A   1      36.002  32.528  33.688  1.00  0.00    -0.460 OA
BRANCH  36  37
ATOM     37  C   UNL A   1      35.536  32.111  32.487  1.00  0.00     0.338 C 
ATOM     38  O   UNL A   1      34.467  32.378  31.972  1.00  0.00    -0.246 OA
BRANCH  37  39
ATOM     39  C   UNL A   1      36.616  31.386  31.795  1.00  0.00     0.060 A 
ATOM     40  C   UNL A   1      37.610  30.772  32.565  1.00  0.00     0.016 A 
ATOM     41  C   UNL A   1      36.668  31.350  30.400  1.00  0.00     0.016 A 
ATOM     42  C   UNL A   1      38.681  30.138  31.937  1.00  0.00     0.010 A 
ATOM     43  C   UNL A   1      37.751  30.728  29.773  1.00  0.00     0.010 A 
ATOM     44  C   UNL A   1      38.776  30.144  30.538  1.00  0.00    -0.014 A 
BRANCH  44  45
ATOM     45  C   UNL A   1      40.020  29.677  29.883  1.00  0.00     0.031 A 
ATOM     46  C   UNL A   1      41.154  30.648  29.709  1.00  0.00     0.074 A 
ATOM     47  C   UNL A   1      40.151  28.404  29.471  1.00  0.00     0.049 A 
ATOM     48  N   UNL A   1      42.318  30.469  29.139  1.00  0.00    -0.248 NA
ATOM     49  C   UNL A   1      40.949  32.000  30.252  1.00  0.00     0.031 C 
ATOM     50  C   UNL A   1      39.140  27.360  29.620  1.00  0.00     0.029 A 
ATOM     51  N   UNL A   1      41.195  27.778  28.837  1.00  0.00    -0.354 N 
ATOM     52  C   UNL A   1      42.983  31.683  29.253  1.00  0.00     0.074 A 
ATOM     53  C   UNL A   1      42.083  32.600  29.918  1.00  0.00     0.031 C 
ATOM     54  C   UNL A   1      39.612  26.220  29.086  1.00  0.00     0.029 A 
ATOM     55  C   UNL A   1      40.943  26.463  28.530  1.00  0.00     0.049 A 
ATOM     56  H   UNL A   1      42.043  28.228  28.622  1.00  0.00     0.167 HD
ATOM     57  C   UNL A   1      44.234  32.000  28.849  1.00  0.00     0.037 A 
ATOM     58  C   UNL A   1      41.692  25.565  27.860  1.00  0.00     0.037 A 
ATOM     59  C   UNL A   1      45.128  31.088  28.186  1.00  0.00     0.049 A 
ATOM     60  C   UNL A   1      43.050  25.966  27.347  1.00  0.00     0.074 A 
ATOM     61  C   UNL A   1      46.423  31.315  27.754  1.00  0.00     0.029 A 
ATOM     62  N   UNL A   1      44.817  29.780  27.851  1.00  0.00    -0.354 N 
ATOM     63  N   UNL A   1      43.678  27.110  27.476  1.00  0.00    -0.248 NA
ATOM     64  C   UNL A   1      43.804  24.952  26.595  1.00  0.00     0.031 C 
ATOM     65  C   UNL A   1      46.877  30.162  27.111  1.00  0.00     0.029 A 
ATOM     66  C   UNL A   1      45.888  29.196  27.193  1.00  0.00     0.049 A 
ATOM     67  H   UNL A   1      43.964  29.331  28.051  1.00  0.00     0.167 HD
ATOM     68  C   UNL A   1      44.905  26.947  26.845  1.00  0.00     0.074 A 
ATOM     69  C   UNL A   1      44.940  25.590  26.342  1.00  0.00     0.031 C 
ATOM     70  C   UNL A   1      45.913  27.842  26.699  1.00  0.00     0.037 A 
BRANCH  57  71
ATOM     71  C   UNL A   1      44.713  33.398  29.101  1.00  0.00     0.057 A 
ATOM     72  C   UNL A   1      44.463  34.416  28.171  1.00  0.00     0.134 A 
ATOM     73  C   UNL A   1      45.474  33.727  30.230  1.00  0.00     0.134 A 
ATOM     74  F   UNL A   1      43.744  34.167  27.066  1.00  0.00    -0.206 F 
ATOM     75  C   UNL A   1      44.963  35.706  28.349  1.00  0.00     0.040 A 
ATOM     76  C   UNL A   1      45.958  35.020  30.433  1.00  0.00     0.040 A 
ATOM     77  F   UNL A   1      45.737  32.801  31.165  1.00  0.00    -0.206 F 
ATOM     78  C   UNL A   1      45.711  36.011  29.484  1.00  0.00     0.006 A 
ENDBRANCH  57  71
BRANCH  58  79
ATOM     79  C   UNL A   1      41.170  24.194  27.636  1.00  0.00     0.057 A 
ATOM     80  C   UNL A   1      40.165  23.939  26.695  1.00  0.00     0.134 A 
ATOM     81  C   UNL A   1      41.657  23.106  28.370  1.00  0.00     0.134 A 
ATOM     82  F   UNL A   1      39.659  24.939  25.959  1.00  0.00    -0.206 F 
ATOM     83  C   UNL A   1      39.647  22.657  26.507  1.00  0.00     0.040 A 
ATOM     84  C   UNL A   1      41.166  21.815  28.175  1.00  0.00     0.040 A 
ATOM     85  F   UNL A   1      42.638  23.283  29.267  1.00  0.00    -0.206 F 
ATOM     86  C   UNL A   1      40.151  21.588  27.247  1.00  0.00     0.006 A 
ENDBRANCH  58  79
BRANCH  70  87
ATOM     87  C   UNL A   1      47.156  27.391  25.987  1.00  0.00     0.057 A 
ATOM     88  C   UNL A   1      48.219  26.823  26.701  1.00  0.00     0.134 A 
ATOM     89  C   UNL A   1      47.338  27.602  24.615  1.00  0.00     0.134 A 
ATOM     90  F   UNL A   1      48.116  26.606  28.020  1.00  0.00    -0.206 F 
ATOM     91  C   UNL A   1      49.426  26.497  26.079  1.00  0.00     0.040 A 
ATOM     92  C   UNL A   1      48.530  27.256  23.977  1.00  0.00     0.040 A 
ATOM     93  F   UNL A   1      46.355  28.134  23.873  1.00  0.00    -0.206 F 
ATOM     94  C   UNL A   1      49.582  26.713  24.711  1.00  0.00     0.006 A 
ENDBRANCH  70  87
ENDBRANCH  44  45
ENDBRANCH  37  39
ENDBRANCH  36  37
ENDBRANCH  35  36
ENDBRANCH  34  35
ENDBRANCH  33  34
ENDBRANCH  32  33
ENDBRANCH   1  32
TORSDOF 21
ENDMDL
MODEL 2
REMARK VINA RESULT:     -10.9      1.229      2.071
REMARK SMILES Cc1nc(-c2ccccc2F)sc1C(=O)NCc1ccc(C(=O)OCCOCCOCCOC(=O)c2ccc(-c3c4nc(c(-c5c(F)cccc5F)c5ccc([nH]5)c(-c5c(F)cccc5F)c5nc(c(-c6c(F)cccc6F)c6ccc3[nH]6)C=C5)C=C4)cc2)cc1
REMARK SMILES IDX 28 1 27 2 26 3 25 4 24 5 22 6 23 7 21 8 18 9 19 10 91 11
REMARK SMILES IDX 20 12 90 13 17 14 16 15 14 16 15 17 13 19 1 20 2 21 3 22
REMARK SMILES IDX 4 23 12 24 5 25 6 26 10 27 7 28 9 29 11 30 8 31 29 32 30 33
REMARK SMILES IDX 31 34 32 35 33 36 34 37 35 38 36 39 37 40 89 41 38 42 88 43
REMARK SMILES IDX 39 44 40 45 41 46 82 47 42 48 87 49 81 50 83 51 43 52 86 53
REMARK SMILES IDX 80 54 79 55 44 57 70 58 53 59 69 60 54 61 57 62 68 63 84 64
REMARK SMILES IDX 55 65 56 66 67 68 85 69 58 70 45 71 46 72 51 73 47 74 48 75
REMARK SMILES IDX 50 76 52 77 49 78 71 79 72 80 77 81 73 82 74 83 76 84 78 85
REMARK SMILES IDX 75 86 59 87 60 88 65 89 61 90 62 91 64 92 66 93 63 94
REMARK H PARENT 16 18 83 56 57 67
REMARK Flexibility Score: inf
ROOT
ATOM      1  C   UNL A   1      32.853  36.396  31.633  1.00  0.00     0.188 C 
ENDROOT
BRANCH   1   2
ATOM      2  O   UNL A   1      32.873  37.252  30.501  1.00  0.00    -0.376 OA
BRANCH   2   3
ATOM      3  C   UNL A   1      33.320  36.756  29.245  1.00  0.00     0.202 C 
BRANCH   3   4
ATOM      4  C   UNL A   1      32.822  35.405  28.714  1.00  0.00     0.261 C 
BRANCH   4   5
ATOM      5  O   UNL A   1      33.857  34.549  28.211  1.00  0.00    -0.460 OA
BRANCH   5   6
ATOM      6  C   UNL A   1      34.233  33.547  29.043  1.00  0.00     0.338 C 
ATOM      7  O   UNL A   1      34.431  33.623  30.243  1.00  0.00    -0.246 OA
BRANCH   6   8
ATOM      8  C   UNL A   1      34.181  32.254  28.327  1.00  0.00     0.060 A 
ATOM      9  C   UNL A   1      34.222  29.779  27.002  1.00  0.00    -0.029 A 
ATOM     10  C   UNL A   1      35.246  30.126  27.889  1.00  0.00     0.006 A 
ATOM     11  C   UNL A   1      33.154  30.677  26.818  1.00  0.00     0.006 A 
ATOM     12  C   UNL A   1      35.233  31.358  28.539  1.00  0.00     0.016 A 
ATOM     13  C   UNL A   1      33.125  31.906  27.484  1.00  0.00     0.016 A 
BRANCH   9  14
ATOM     14  C   UNL A   1      34.290  28.515  26.184  1.00  0.00     0.152 C 
BRANCH  14  15
ATOM     15  N   UNL A   1      33.831  28.757  24.841  1.00  0.00    -0.347 N 
ATOM     16  C   UNL A   1      33.134  28.120  23.857  1.00  0.00     0.263 C 
ATOM     17  O   UNL A   1      33.133  28.813  22.827  1.00  0.00    -0.268 OA
ATOM     18  H   UNL A   1      34.103  29.655  24.542  1.00  0.00     0.164 HD
BRANCH  16  19
ATOM     19  C   UNL A   1      32.442  26.830  23.910  1.00  0.00     0.115 A 
ATOM     20  C   UNL A   1      29.783  26.838  23.916  1.00  0.00     0.068 C 
ATOM     21  C   UNL A   1      31.157  26.287  23.915  1.00  0.00     0.062 A 
ATOM     22  N   UNL A   1      31.103  24.894  23.914  1.00  0.00    -0.240 NA
ATOM     23  C   UNL A   1      32.290  24.348  23.967  1.00  0.00     0.127 A 
ATOM     24  S   UNL A   1      33.568  25.459  23.980  1.00  0.00    -0.108 S 
BRANCH  23  25
ATOM     25  C   UNL A   1      32.490  22.903  23.940  1.00  0.00     0.046 A 
ATOM     26  C   UNL A   1      32.087  22.189  22.798  1.00  0.00     0.014 A 
ATOM     27  C   UNL A   1      32.961  22.183  25.040  1.00  0.00     0.133 A 
ATOM     28  C   UNL A   1      32.150  20.794  22.764  1.00  0.00     0.001 A 
ATOM     29  C   UNL A   1      33.019  20.789  25.015  1.00  0.00     0.040 A 
ATOM     30  F   UNL A   1      33.325  22.811  26.169  1.00  0.00    -0.206 F 
ATOM     31  C   UNL A   1      32.608  20.093  23.878  1.00  0.00     0.003 A 
ENDBRANCH  23  25
ENDBRANCH  16  19
ENDBRANCH  14  15
ENDBRANCH   9  14
ENDBRANCH   6   8
ENDBRANCH   5   6
ENDBRANCH   4   5
ENDBRANCH   3   4
ENDBRANCH   2   3
ENDBRANCH   1   2
BRANCH   1  32
ATOM     32  C   UNL A   1      33.733  36.711  32.861  1.00  0.00     0.188 C 
BRANCH  32  33
ATOM     33  O   UNL A   1      35.046  36.211  32.825  1.00  0.00    -0.376 OA
BRANCH  33  34
ATOM     34  C   UNL A   1      35.441  35.141  33.666  1.00  0.00     0.202 C 
BRANCH  34  35
ATOM     35  C   UNL A   1      36.839  34.494  33.730  1.00  0.00     0.261 C 
BRANCH  35  36
ATOM     36  O   UNL A   1      36.938  33.097  34.006  1.00  0.00    -0.460 OA
BRANCH  36  37
ATOM     37  C   UNL A   1      36.274  32.280  33.154  1.00  0.00     0.338 C 
ATOM     38  O   UNL A   1      35.071  32.193  32.993  1.00  0.00    -0.246 OA
BRANCH  37  39
ATOM     39  C   UNL A   1      37.262  31.596  32.300  1.00  0.00     0.060 A 
ATOM     40  C   UNL A   1      38.049  30.587  32.866  1.00  0.00     0.016 A 
ATOM     41  C   UNL A   1      37.437  31.979  30.969  1.00  0.00     0.016 A 
ATOM     42  C   UNL A   1      39.039  29.970  32.102  1.00  0.00     0.010 A 
ATOM     43  C   UNL A   1      38.440  31.370  30.210  1.00  0.00     0.010 A 
ATOM     44  C   UNL A   1      39.264  30.384  30.781  1.00  0.00    -0.014 A 
BRANCH  44  45
ATOM     45  C   UNL A   1      40.456  29.895  30.050  1.00  0.00     0.031 A 
ATOM     46  C   UNL A   1      41.604  30.839  29.824  1.00  0.00     0.074 A 
ATOM     47  C   UNL A   1      40.531  28.625  29.616  1.00  0.00     0.049 A 
ATOM     48  N   UNL A   1      42.728  30.639  29.186  1.00  0.00    -0.248 NA
ATOM     49  C   UNL A   1      41.464  32.188  30.394  1.00  0.00     0.031 C 
ATOM     50  C   UNL A   1      39.504  27.604  29.810  1.00  0.00     0.029 A 
ATOM     51  N   UNL A   1      41.521  27.982  28.915  1.00  0.00    -0.354 N 
ATOM     52  C   UNL A   1      43.429  31.835  29.277  1.00  0.00     0.074 A 
ATOM     53  C   UNL A   1      42.592  32.765  30.003  1.00  0.00     0.031 C 
ATOM     54  C   UNL A   1      39.915  26.460  29.236  1.00  0.00     0.029 A 
ATOM     55  C   UNL A   1      41.218  26.678  28.608  1.00  0.00     0.049 A 
ATOM     56  H   UNL A   1      42.366  28.413  28.658  1.00  0.00     0.167 HD
ATOM     57  C   UNL A   1      44.663  32.126  28.806  1.00  0.00     0.037 A 
ATOM     58  C   UNL A   1      41.905  25.771  27.885  1.00  0.00     0.037 A 
ATOM     59  C   UNL A   1      45.494  31.202  28.082  1.00  0.00     0.049 A 
ATOM     60  C   UNL A   1      43.241  26.145  27.300  1.00  0.00     0.074 A 
ATOM     61  C   UNL A   1      46.767  31.402  27.579  1.00  0.00     0.029 A 
ATOM     62  N   UNL A   1      45.131  29.906  27.749  1.00  0.00    -0.354 N 
ATOM     63  N   UNL A   1      43.905  27.270  27.407  1.00  0.00    -0.248 NA
ATOM     64  C   UNL A   1      43.925  25.122  26.493  1.00  0.00     0.031 C 
ATOM     65  C   UNL A   1      47.155  30.247  26.897  1.00  0.00     0.029 A 
ATOM     66  C   UNL A   1      46.147  29.304  27.023  1.00  0.00     0.049 A 
ATOM     67  H   UNL A   1      44.280  29.476  27.992  1.00  0.00     0.167 HD
ATOM     68  C   UNL A   1      45.089  27.085  26.704  1.00  0.00     0.074 A 
ATOM     69  C   UNL A   1      45.060  25.736  26.183  1.00  0.00     0.031 C 
ATOM     70  C   UNL A   1      46.110  27.958  26.512  1.00  0.00     0.037 A 
BRANCH  57  71
ATOM     71  C   UNL A   1      45.191  33.509  29.047  1.00  0.00     0.057 A 
ATOM     72  C   UNL A   1      45.856  33.821  30.240  1.00  0.00     0.134 A 
ATOM     73  C   UNL A   1      44.989  34.547  28.128  1.00  0.00     0.134 A 
ATOM     74  F   UNL A   1      46.079  32.873  31.163  1.00  0.00    -0.206 F 
ATOM     75  C   UNL A   1      46.289  35.118  30.516  1.00  0.00     0.040 A 
ATOM     76  C   UNL A   1      45.439  35.843  28.382  1.00  0.00     0.040 A 
ATOM     77  F   UNL A   1      44.372  34.310  26.961  1.00  0.00    -0.206 F 
ATOM     78  C   UNL A   1      46.082  36.133  29.584  1.00  0.00     0.006 A 
ENDBRANCH  57  71
BRANCH  58  79
ATOM     79  C   UNL A   1      41.336  24.416  27.674  1.00  0.00     0.057 A 
ATOM     80  C   UNL A   1      41.776  23.314  28.418  1.00  0.00     0.134 A 
ATOM     81  C   UNL A   1      40.346  24.190  26.711  1.00  0.00     0.134 A 
ATOM     82  F   UNL A   1      42.722  23.467  29.357  1.00  0.00    -0.206 F 
ATOM     83  C   UNL A   1      41.269  22.033  28.198  1.00  0.00     0.040 A 
ATOM     84  C   UNL A   1      39.813  22.918  26.498  1.00  0.00     0.040 A 
ATOM     85  F   UNL A   1      39.865  25.209  25.985  1.00  0.00    -0.206 F 
ATOM     86  C   UNL A   1      40.281  21.832  27.237  1.00  0.00     0.006 A 
ENDBRANCH  58  79
BRANCH  70  87
ATOM     87  C   UNL A   1      47.298  27.486  25.725  1.00  0.00     0.057 A 
ATOM     88  C   UNL A   1      47.310  27.582  24.327  1.00  0.00     0.134 A 
ATOM     89  C   UNL A   1      48.387  26.855  26.339  1.00  0.00     0.134 A 
ATOM     90  F   UNL A   1      46.292  28.162  23.675  1.00  0.00    -0.206 F 
ATOM     91  C   UNL A   1      48.354  27.051  23.567  1.00  0.00     0.040 A 
ATOM     92  C   UNL A   1      49.449  26.344  25.592  1.00  0.00     0.040 A 
ATOM     93  F   UNL A   1      48.440  26.739  27.674  1.00  0.00    -0.206 F 
ATOM     94  C   UNL A   1      49.429  26.430  24.201  1.00  0.00     0.006 A 
ENDBRANCH  70  87
ENDBRANCH  44  45
ENDBRANCH  37  39
ENDBRANCH  36  37
ENDBRANCH  35  36
ENDBRANCH  34  35
ENDBRANCH  33  34
ENDBRANCH  32  33
ENDBRANCH   1  32
TORSDOF 21
ENDMDL
MODEL 3
REMARK VINA RESULT:     -10.7      1.186      6.024
REMARK SMILES Cc1nc(-c2ccccc2F)sc1C(=O)NCc1ccc(C(=O)OCCOCCOCCOC(=O)c2ccc(-c3c4nc(c(-c5c(F)cccc5F)c5ccc([nH]5)c(-c5c(F)cccc5F)c5nc(c(-c6c(F)cccc6F)c6ccc3[nH]6)C=C5)C=C4)cc2)cc1
REMARK SMILES IDX 28 1 27 2 26 3 25 4 24 5 22 6 23 7 21 8 18 9 19 10 91 11
REMARK SMILES IDX 20 12 90 13 17 14 16 15 14 16 15 17 13 19 1 20 2 21 3 22
REMARK SMILES IDX 4 23 12 24 5 25 6 26 10 27 7 28 9 29 11 30 8 31 29 32 30 33
REMARK SMILES IDX 31 34 32 35 33 36 34 37 35 38 36 39 37 40 89 41 38 42 88 43
REMARK SMILES IDX 39 44 40 45 41 46 82 47 42 48 87 49 81 50 83 51 43 52 86 53
REMARK SMILES IDX 80 54 79 55 44 57 70 58 53 59 69 60 54 61 57 62 68 63 84 64
REMARK SMILES IDX 55 65 56 66 67 68 85 69 58 70 45 71 46 72 51 73 47 74 48 75
REMARK SMILES IDX 50 76 52 77 49 78 71 79 72 80 77 81 73 82 74 83 76 84 78 85
REMARK SMILES IDX 75 86 59 87 60 88 65 89 61 90 62 91 64 92 66 93 63 94
REMARK H PARENT 16 18 83 56 57 67
REMARK Flexibility Score: inf
ROOT
ATOM      1  C   UNL A   1      33.442  35.785  31.698  1.00  0.00     0.188 C 
ENDROOT
BRANCH   1   2
ATOM      2  O   UNL A   1      33.303  36.770  30.685  1.00  0.00    -0.376 OA
BRANCH   2   3
ATOM      3  C   UNL A   1      33.058  36.375  29.341  1.00  0.00     0.202 C 
BRANCH   3   4
ATOM      4  C   UNL A   1      32.922  34.891  28.973  1.00  0.00     0.261 C 
BRANCH   4   5
ATOM      5  O   UNL A   1      33.932  34.409  28.075  1.00  0.00    -0.460 OA
BRANCH   5   6
ATOM      6  C   UNL A   1      34.835  33.560  28.625  1.00  0.00     0.338 C 
ATOM      7  O   UNL A   1      35.626  33.807  29.519  1.00  0.00    -0.246 OA
BRANCH   6   8
ATOM      8  C   UNL A   1      34.602  32.188  28.128  1.00  0.00     0.060 A 
ATOM      9  C   UNL A   1      34.303  29.561  27.183  1.00  0.00    -0.029 A 
ATOM     10  C   UNL A   1      35.515  29.981  27.739  1.00  0.00     0.006 A 
ATOM     11  C   UNL A   1      33.227  30.467  27.143  1.00  0.00     0.006 A 
ATOM     12  C   UNL A   1      35.669  31.287  28.198  1.00  0.00     0.016 A 
ATOM     13  C   UNL A   1      33.369  31.773  27.622  1.00  0.00     0.016 A 
BRANCH   9  14
ATOM     14  C   UNL A   1      34.161  28.199  26.555  1.00  0.00     0.152 C 
BRANCH  14  15
ATOM     15  N   UNL A   1      32.834  27.680  26.767  1.00  0.00    -0.347 N 
ATOM     16  C   UNL A   1      32.030  26.681  26.304  1.00  0.00     0.263 C 
ATOM     17  O   UNL A   1      30.899  26.787  26.805  1.00  0.00    -0.268 OA
ATOM     18  H   UNL A   1      32.366  28.207  27.454  1.00  0.00     0.164 HD
BRANCH  16  19
ATOM     19  C   UNL A   1      32.355  25.595  25.377  1.00  0.00     0.115 A 
ATOM     20  C   UNL A   1      32.554  26.176  22.789  1.00  0.00     0.068 C 
ATOM     21  C   UNL A   1      32.586  25.356  24.022  1.00  0.00     0.062 A 
ATOM     22  N   UNL A   1      32.939  24.046  23.703  1.00  0.00    -0.240 NA
ATOM     23  C   UNL A   1      32.931  23.259  24.747  1.00  0.00     0.127 A 
ATOM     24  S   UNL A   1      32.542  24.034  26.201  1.00  0.00    -0.108 S 
BRANCH  23  25
ATOM     25  C   UNL A   1      33.304  21.850  24.669  1.00  0.00     0.046 A 
ATOM     26  C   UNL A   1      32.282  20.885  24.638  1.00  0.00     0.014 A 
ATOM     27  C   UNL A   1      34.628  21.412  24.736  1.00  0.00     0.133 A 
ATOM     28  C   UNL A   1      32.582  19.521  24.679  1.00  0.00     0.001 A 
ATOM     29  C   UNL A   1      34.934  20.051  24.785  1.00  0.00     0.040 A 
ATOM     30  F   UNL A   1      35.641  22.290  24.804  1.00  0.00    -0.206 F 
ATOM     31  C   UNL A   1      33.909  19.104  24.761  1.00  0.00     0.003 A 
ENDBRANCH  23  25
ENDBRANCH  16  19
ENDBRANCH  14  15
ENDBRANCH   9  14
ENDBRANCH   6   8
ENDBRANCH   5   6
ENDBRANCH   4   5
ENDBRANCH   3   4
ENDBRANCH   2   3
ENDBRANCH   1   2
BRANCH   1  32
ATOM     32  C   UNL A   1      34.248  36.095  32.978  1.00  0.00     0.188 C 
BRANCH  32  33
ATOM     33  O   UNL A   1      35.491  35.451  33.096  1.00  0.00    -0.376 OA
BRANCH  33  34
ATOM     34  C   UNL A   1      35.732  34.520  34.136  1.00  0.00     0.202 C 
BRANCH  34  35
ATOM     35  C   UNL A   1      36.940  33.568  34.253  1.00  0.00     0.261 C 
BRANCH  35  36
ATOM     36  O   UNL A   1      36.721  32.163  34.137  1.00  0.00    -0.460 OA
BRANCH  36  37
ATOM     37  C   UNL A   1      36.477  31.706  32.886  1.00  0.00     0.338 C 
ATOM     38  O   UNL A   1      35.399  31.597  32.332  1.00  0.00    -0.246 OA
BRANCH  37  39
ATOM     39  C   UNL A   1      37.768  31.500  32.205  1.00  0.00     0.060 A 
ATOM     40  C   UNL A   1      37.917  31.972  30.896  1.00  0.00     0.016 A 
ATOM     41  C   UNL A   1      38.803  30.810  32.840  1.00  0.00     0.016 A 
ATOM     42  C   UNL A   1      39.103  31.731  30.204  1.00  0.00     0.010 A 
ATOM     43  C   UNL A   1      39.985  30.556  32.138  1.00  0.00     0.010 A 
ATOM     44  C   UNL A   1      40.129  30.990  30.808  1.00  0.00    -0.014 A 
BRANCH  44  45
ATOM     45  C   UNL A   1      41.285  30.539  29.999  1.00  0.00     0.031 A 
ATOM     46  C   UNL A   1      41.282  29.141  29.449  1.00  0.00     0.074 A 
ATOM     47  C   UNL A   1      42.311  31.367  29.735  1.00  0.00     0.049 A 
ATOM     48  N   UNL A   1      42.196  28.525  28.745  1.00  0.00    -0.248 NA
ATOM     49  C   UNL A   1      40.087  28.329  29.729  1.00  0.00     0.031 C 
ATOM     50  C   UNL A   1      42.412  32.756  30.177  1.00  0.00     0.029 A 
ATOM     51  N   UNL A   1      43.470  31.149  29.032  1.00  0.00    -0.354 N 
ATOM     52  C   UNL A   1      41.689  27.255  28.498  1.00  0.00     0.074 A 
ATOM     53  C   UNL A   1      40.401  27.177  29.153  1.00  0.00     0.031 C 
ATOM     54  C   UNL A   1      43.575  33.268  29.737  1.00  0.00     0.029 A 
ATOM     55  C   UNL A   1      44.313  32.234  29.013  1.00  0.00     0.049 A 
ATOM     56  H   UNL A   1      43.677  30.299  28.584  1.00  0.00     0.167 HD
ATOM     57  C   UNL A   1      42.243  26.251  27.781  1.00  0.00     0.037 A 
ATOM     58  C   UNL A   1      45.547  32.369  28.488  1.00  0.00     0.037 A 
ATOM     59  C   UNL A   1      43.524  26.329  27.132  1.00  0.00     0.049 A 
ATOM     60  C   UNL A   1      46.178  31.209  27.765  1.00  0.00     0.074 A 
ATOM     61  C   UNL A   1      44.160  25.366  26.369  1.00  0.00     0.029 A 
ATOM     62  N   UNL A   1      44.368  27.428  27.177  1.00  0.00    -0.354 N 
ATOM     63  N   UNL A   1      45.684  30.019  27.520  1.00  0.00    -0.248 NA
ATOM     64  C   UNL A   1      47.539  31.409  27.244  1.00  0.00     0.031 C 
ATOM     65  C   UNL A   1      45.412  25.862  25.995  1.00  0.00     0.029 A 
ATOM     66  C   UNL A   1      45.532  27.156  26.476  1.00  0.00     0.049 A 
ATOM     67  H   UNL A   1      44.170  28.275  27.636  1.00  0.00     0.167 HD
ATOM     68  C   UNL A   1      46.659  29.339  26.800  1.00  0.00     0.074 A 
ATOM     69  C   UNL A   1      47.771  30.252  26.637  1.00  0.00     0.031 C 
ATOM     70  C   UNL A   1      46.632  28.073  26.317  1.00  0.00     0.037 A 
BRANCH  57  71
ATOM     71  C   UNL A   1      41.472  24.970  27.669  1.00  0.00     0.057 A 
ATOM     72  C   UNL A   1      41.811  23.862  28.457  1.00  0.00     0.134 A 
ATOM     73  C   UNL A   1      40.436  24.810  26.740  1.00  0.00     0.134 A 
ATOM     74  F   UNL A   1      42.796  23.948  29.363  1.00  0.00    -0.206 F 
ATOM     75  C   UNL A   1      41.156  22.638  28.315  1.00  0.00     0.040 A 
ATOM     76  C   UNL A   1      39.756  23.599  26.606  1.00  0.00     0.040 A 
ATOM     77  F   UNL A   1      40.054  25.836  25.965  1.00  0.00    -0.206 F 
ATOM     78  C   UNL A   1      40.124  22.506  27.389  1.00  0.00     0.006 A 
ENDBRANCH  57  71
BRANCH  58  79
ATOM     79  C   UNL A   1      46.268  33.659  28.629  1.00  0.00     0.057 A 
ATOM     80  C   UNL A   1      46.270  34.611  27.602  1.00  0.00     0.134 A 
ATOM     81  C   UNL A   1      46.985  33.962  29.792  1.00  0.00     0.134 A 
ATOM     82  F   UNL A   1      45.601  34.380  26.464  1.00  0.00    -0.206 F 
ATOM     83  C   UNL A   1      46.976  35.809  27.718  1.00  0.00     0.040 A 
ATOM     84  C   UNL A   1      47.675  35.167  29.930  1.00  0.00     0.040 A 
ATOM     85  F   UNL A   1      46.999  33.102  30.820  1.00  0.00    -0.206 F 
ATOM     86  C   UNL A   1      47.679  36.092  28.887  1.00  0.00     0.006 A 
ENDBRANCH  58  79
BRANCH  70  87
ATOM     87  C   UNL A   1      47.825  27.591  25.542  1.00  0.00     0.057 A 
ATOM     88  C   UNL A   1      47.827  27.628  24.141  1.00  0.00     0.134 A 
ATOM     89  C   UNL A   1      48.929  27.008  26.175  1.00  0.00     0.134 A 
ATOM     90  F   UNL A   1      46.794  28.161  23.472  1.00  0.00    -0.206 F 
ATOM     91  C   UNL A   1      48.877  27.086  23.397  1.00  0.00     0.040 A 
ATOM     92  C   UNL A   1      49.997  26.486  25.443  1.00  0.00     0.040 A 
ATOM     93  F   UNL A   1      48.992  26.949  27.514  1.00  0.00    -0.206 F 
ATOM     94  C   UNL A   1      49.967  26.513  24.050  1.00  0.00     0.006 A 
ENDBRANCH  70  87
ENDBRANCH  44  45
ENDBRANCH  37  39
ENDBRANCH  36  37
ENDBRANCH  35  36
ENDBRANCH  34  35
ENDBRANCH  33  34
ENDBRANCH  32  33
ENDBRANCH   1  32
TORSDOF 21
ENDMDL
