MODEL 1
REMARK VINA RESULT:     -10.8      0.000      0.000
REMARK SMILES CC(C)(C)c1cc2c(cc1Cl)C=C(C(=O)OCCOCCOCCOC(=O)c1ccc(-c3c4nc(c(-c5c(F)cccc5F)c5ccc([nH]5)c(-c5c(F)cccc5F)c5nc(c(-c6c(F)cccc6F)c6ccc3[nH]6)C=C5)C=C4)cc1)[C@H](C(F)(F)F)O2
REMARK SMILES IDX 21 1 20 2 19 3 18 4 17 5 16 6 14 7 15 8 13 9 5 10 6 11 10 12
REMARK SMILES IDX 7 13 9 14 11 15 8 16 87 17 12 18 82 19 2 20 1 21 3 22 4 23
REMARK SMILES IDX 83 24 84 25 85 26 86 27 22 28 23 29 24 30 25 31 26 32 27 33
REMARK SMILES IDX 28 34 29 35 81 36 30 37 80 38 31 39 32 40 33 41 74 42 34 43
REMARK SMILES IDX 79 44 73 45 75 46 35 47 78 48 72 49 71 50 36 52 62 53 45 54
REMARK SMILES IDX 61 55 46 56 49 57 60 58 76 59 47 60 48 61 59 63 77 64 50 65
REMARK SMILES IDX 37 66 38 67 43 68 39 69 40 70 42 71 44 72 41 73 63 74 64 75
REMARK SMILES IDX 69 76 65 77 66 78 68 79 70 80 67 81 51 82 52 83 57 84 53 85
REMARK SMILES IDX 54 86 56 87 58 88 55 89
REMARK H PARENT 75 51 49 62
REMARK Flexibility Score: inf
ROOT
ATOM      1  C   UNL A   1      42.750  21.781  27.172  1.00  0.00     0.188 C 
ENDROOT
BRANCH   1   2
ATOM      2  C   UNL A   1      41.256  22.098  26.967  1.00  0.00     0.188 C 
BRANCH   2   3
ATOM      3  O   UNL A   1      40.347  21.026  27.041  1.00  0.00    -0.376 OA
BRANCH   3   4
ATOM      4  C   UNL A   1      39.330  20.860  26.066  1.00  0.00     0.202 C 
BRANCH   4   5
ATOM      5  C   UNL A   1      38.364  21.954  25.574  1.00  0.00     0.261 C 
BRANCH   5   6
ATOM      6  O   UNL A   1      37.002  21.863  26.005  1.00  0.00    -0.460 OA
BRANCH   6   7
ATOM      7  C   UNL A   1      36.192  21.120  25.220  1.00  0.00     0.338 C 
ATOM      8  O   UNL A   1      36.349  19.948  24.915  1.00  0.00    -0.246 OA
BRANCH   7   9
ATOM      9  C   UNL A   1      34.964  21.864  24.896  1.00  0.00     0.087 C 
ATOM     10  C   UNL A   1      31.951  25.802  23.895  1.00  0.00    -0.020 A 
ATOM     11  C   UNL A   1      31.866  24.625  24.679  1.00  0.00     0.053 A 
ATOM     12  C   UNL A   1      33.101  25.919  23.077  1.00  0.00     0.045 A 
ATOM     13  C   UNL A   1      32.884  23.667  24.713  1.00  0.00     0.128 A 
ATOM     14  C   UNL A   1      34.108  24.938  23.090  1.00  0.00     0.032 A 
ATOM     15  Cl  UNL A   1      33.444  27.269  22.053  1.00  0.00    -0.084 Cl
ATOM     16  C   UNL A   1      34.017  23.830  23.930  1.00  0.00     0.019 A 
ATOM     17  O   UNL A   1      32.733  22.658  25.625  1.00  0.00    -0.475 OA
ATOM     18  C   UNL A   1      35.141  22.931  24.103  1.00  0.00     0.027 C 
ATOM     19  C   UNL A   1      33.660  21.532  25.571  1.00  0.00     0.316 C 
BRANCH  10  20
ATOM     20  C   UNL A   1      30.880  26.910  24.068  1.00  0.00    -0.012 C 
ATOM     21  C   UNL A   1      30.357  27.480  22.719  1.00  0.00     0.016 C 
ATOM     22  C   UNL A   1      31.397  28.140  24.845  1.00  0.00     0.016 C 
ATOM     23  C   UNL A   1      29.646  26.308  24.778  1.00  0.00     0.016 C 
ENDBRANCH  10  20
BRANCH  19  24
ATOM     24  C   UNL A   1      32.900  20.313  25.016  1.00  0.00     0.430 C 
ATOM     25  F   UNL A   1      31.563  20.488  25.045  1.00  0.00    -0.167 F 
ATOM     26  F   UNL A   1      33.226  20.105  23.713  1.00  0.00    -0.167 F 
ATOM     27  F   UNL A   1      33.201  19.177  25.684  1.00  0.00    -0.167 F 
ENDBRANCH  19  24
ENDBRANCH   7   9
ENDBRANCH   6   7
ENDBRANCH   5   6
ENDBRANCH   4   5
ENDBRANCH   3   4
ENDBRANCH   2   3
ENDBRANCH   1   2
BRANCH   1  28
ATOM     28  O   UNL A   1      43.499  21.104  26.182  1.00  0.00    -0.376 OA
BRANCH  28  29
ATOM     29  C   UNL A   1      43.633  21.671  24.889  1.00  0.00     0.202 C 
BRANCH  29  30
ATOM     30  C   UNL A   1      44.587  22.844  24.615  1.00  0.00     0.261 C 
BRANCH  30  31
ATOM     31  O   UNL A   1      43.987  24.144  24.629  1.00  0.00    -0.460 OA
BRANCH  31  32
ATOM     32  C   UNL A   1      44.778  25.142  25.106  1.00  0.00     0.338 C 
ATOM     33  O   UNL A   1      45.834  25.534  24.658  1.00  0.00    -0.246 OA
BRANCH  32  34
ATOM     34  C   UNL A   1      44.037  25.836  26.179  1.00  0.00     0.060 A 
ATOM     35  C   UNL A   1      42.962  25.212  26.808  1.00  0.00     0.016 A 
ATOM     36  C   UNL A   1      44.431  27.132  26.548  1.00  0.00     0.016 A 
ATOM     37  C   UNL A   1      42.290  25.882  27.830  1.00  0.00     0.010 A 
ATOM     38  C   UNL A   1      43.747  27.806  27.562  1.00  0.00     0.010 A 
ATOM     39  C   UNL A   1      42.687  27.175  28.225  1.00  0.00    -0.014 A 
BRANCH  39  40
ATOM     40  C   UNL A   1      42.087  27.770  29.441  1.00  0.00     0.031 A 
ATOM     41  C   UNL A   1      42.714  27.623  30.792  1.00  0.00     0.074 A 
ATOM     42  C   UNL A   1      40.959  28.488  29.293  1.00  0.00     0.049 A 
ATOM     43  N   UNL A   1      42.403  28.228  31.911  1.00  0.00    -0.248 NA
ATOM     44  C   UNL A   1      43.826  26.671  30.908  1.00  0.00     0.031 C 
ATOM     45  C   UNL A   1      40.233  28.658  28.033  1.00  0.00     0.029 A 
ATOM     46  N   UNL A   1      40.242  29.228  30.196  1.00  0.00    -0.354 N 
ATOM     47  C   UNL A   1      43.299  27.758  32.860  1.00  0.00     0.074 A 
ATOM     48  C   UNL A   1      44.126  26.769  32.198  1.00  0.00     0.031 C 
ATOM     49  C   UNL A   1      39.200  29.489  28.232  1.00  0.00     0.029 A 
ATOM     50  C   UNL A   1      39.180  29.891  29.635  1.00  0.00     0.049 A 
ATOM     51  H   UNL A   1      40.467  29.279  31.153  1.00  0.00     0.167 HD
ATOM     52  C   UNL A   1      43.429  28.134  34.158  1.00  0.00     0.037 A 
ATOM     53  C   UNL A   1      38.297  30.743  30.186  1.00  0.00     0.037 A 
ATOM     54  C   UNL A   1      42.573  29.091  34.818  1.00  0.00     0.049 A 
ATOM     55  C   UNL A   1      38.440  31.107  31.638  1.00  0.00     0.074 A 
ATOM     56  C   UNL A   1      42.641  29.558  36.120  1.00  0.00     0.029 A 
ATOM     57  N   UNL A   1      41.477  29.711  34.233  1.00  0.00    -0.354 N 
ATOM     58  N   UNL A   1      39.353  30.734  32.501  1.00  0.00    -0.248 NA
ATOM     59  C   UNL A   1      37.435  32.028  32.183  1.00  0.00     0.031 C 
ATOM     60  C   UNL A   1      41.555  30.414  36.340  1.00  0.00     0.029 A 
ATOM     61  C   UNL A   1      40.847  30.534  35.156  1.00  0.00     0.049 A 
ATOM     62  H   UNL A   1      41.190  29.585  33.301  1.00  0.00     0.167 HD
ATOM     63  C   UNL A   1      39.051  31.400  33.683  1.00  0.00     0.074 A 
ATOM     64  C   UNL A   1      37.886  32.217  33.414  1.00  0.00     0.031 C 
ATOM     65  C   UNL A   1      39.684  31.341  34.881  1.00  0.00     0.037 A 
BRANCH  52  66
ATOM     66  C   UNL A   1      44.541  27.505  34.949  1.00  0.00     0.057 A 
ATOM     67  C   UNL A   1      44.333  26.324  35.674  1.00  0.00     0.134 A 
ATOM     68  C   UNL A   1      45.813  28.089  35.024  1.00  0.00     0.134 A 
ATOM     69  F   UNL A   1      43.137  25.717  35.660  1.00  0.00    -0.206 F 
ATOM     70  C   UNL A   1      45.349  25.747  36.439  1.00  0.00     0.040 A 
ATOM     71  C   UNL A   1      46.846  27.506  35.762  1.00  0.00     0.040 A 
ATOM     72  F   UNL A   1      46.084  29.219  34.353  1.00  0.00    -0.206 F 
ATOM     73  C   UNL A   1      46.613  26.333  36.476  1.00  0.00     0.006 A 
ENDBRANCH  52  66
BRANCH  53  74
ATOM     74  C   UNL A   1      37.218  31.339  29.360  1.00  0.00     0.057 A 
ATOM     75  C   UNL A   1      36.055  30.623  29.056  1.00  0.00     0.134 A 
ATOM     76  C   UNL A   1      37.309  32.653  28.888  1.00  0.00     0.134 A 
ATOM     77  F   UNL A   1      35.913  29.355  29.470  1.00  0.00    -0.206 F 
ATOM     78  C   UNL A   1      35.018  31.193  28.318  1.00  0.00     0.040 A 
ATOM     79  C   UNL A   1      36.268  33.247  28.175  1.00  0.00     0.040 A 
ATOM     80  F   UNL A   1      38.395  33.394  29.157  1.00  0.00    -0.206 F 
ATOM     81  C   UNL A   1      35.118  32.514  27.888  1.00  0.00     0.006 A 
ENDBRANCH  53  74
BRANCH  65  82
ATOM     82  C   UNL A   1      39.144  32.222  35.975  1.00  0.00     0.057 A 
ATOM     83  C   UNL A   1      39.562  33.556  36.084  1.00  0.00     0.134 A 
ATOM     84  C   UNL A   1      38.200  31.767  36.906  1.00  0.00     0.134 A 
ATOM     85  F   UNL A   1      40.469  34.058  35.234  1.00  0.00    -0.206 F 
ATOM     86  C   UNL A   1      39.054  34.404  37.070  1.00  0.00     0.040 A 
ATOM     87  C   UNL A   1      37.658  32.615  37.873  1.00  0.00     0.040 A 
ATOM     88  F   UNL A   1      37.744  30.506  36.851  1.00  0.00    -0.206 F 
ATOM     89  C   UNL A   1      38.087  33.938  37.959  1.00  0.00     0.006 A 
ENDBRANCH  65  82
ENDBRANCH  39  40
ENDBRANCH  32  34
ENDBRANCH  31  32
ENDBRANCH  30  31
ENDBRANCH  29  30
ENDBRANCH  28  29
ENDBRANCH   1  28
TORSDOF 19
ENDMDL
MODEL 2
REMARK VINA RESULT:     -10.6      1.621      6.632
REMARK SMILES CC(C)(C)c1cc2c(cc1Cl)C=C(C(=O)OCCOCCOCCOC(=O)c1ccc(-c3c4nc(c(-c5c(F)cccc5F)c5ccc([nH]5)c(-c5c(F)cccc5F)c5nc(c(-c6c(F)cccc6F)c6ccc3[nH]6)C=C5)C=C4)cc1)[C@H](C(F)(F)F)O2
REMARK SMILES IDX 21 1 20 2 19 3 18 4 17 5 16 6 14 7 15 8 13 9 5 10 6 11 10 12
REMARK SMILES IDX 7 13 9 14 11 15 8 16 87 17 12 18 82 19 2 20 1 21 3 22 4 23
REMARK SMILES IDX 83 24 84 25 85 26 86 27 22 28 23 29 24 30 25 31 26 32 27 33
REMARK SMILES IDX 28 34 29 35 81 36 30 37 80 38 31 39 32 40 33 41 74 42 34 43
REMARK SMILES IDX 79 44 73 45 75 46 35 47 78 48 72 49 71 50 36 52 62 53 45 54
REMARK SMILES IDX 61 55 46 56 49 57 60 58 76 59 47 60 48 61 59 63 77 64 50 65
REMARK SMILES IDX 37 66 38 67 43 68 39 69 40 70 42 71 44 72 41 73 63 74 64 75
REMARK SMILES IDX 69 76 65 77 66 78 68 79 70 80 67 81 51 82 52 83 57 84 53 85
REMARK SMILES IDX 54 86 56 87 58 88 55 89
REMARK H PARENT 75 51 49 62
REMARK Flexibility Score: inf
ROOT
ATOM      1  C   UNL A   1      37.785  22.549  25.059  1.00  0.00     0.188 C 
ENDROOT
BRANCH   1   2
ATOM      2  C   UNL A   1      36.996  21.231  24.935  1.00  0.00     0.188 C 
BRANCH   2   3
ATOM      3  O   UNL A   1      35.866  21.067  25.757  1.00  0.00    -0.376 OA
BRANCH   3   4
ATOM      4  C   UNL A   1      34.907  22.103  25.899  1.00  0.00     0.202 C 
BRANCH   4   5
ATOM      5  C   UNL A   1      33.695  22.086  26.850  1.00  0.00     0.261 C 
BRANCH   5   6
ATOM      6  O   UNL A   1      33.123  23.350  27.200  1.00  0.00    -0.460 OA
BRANCH   6   7
ATOM      7  C   UNL A   1      31.797  23.470  26.978  1.00  0.00     0.338 C 
ATOM      8  O   UNL A   1      30.900  22.953  27.626  1.00  0.00    -0.246 OA
BRANCH   7   9
ATOM      9  C   UNL A   1      31.539  24.467  25.926  1.00  0.00     0.087 C 
ATOM     10  C   UNL A   1      30.137  28.837  23.799  1.00  0.00    -0.020 A 
ATOM     11  C   UNL A   1      29.964  27.460  23.512  1.00  0.00     0.053 A 
ATOM     12  C   UNL A   1      30.996  29.140  24.883  1.00  0.00     0.045 A 
ATOM     13  C   UNL A   1      30.537  26.451  24.291  1.00  0.00     0.128 A 
ATOM     14  C   UNL A   1      31.596  28.122  25.645  1.00  0.00     0.032 A 
ATOM     15  Cl  UNL A   1      31.345  30.739  25.442  1.00  0.00    -0.084 Cl
ATOM     16  C   UNL A   1      31.342  26.780  25.371  1.00  0.00     0.019 A 
ATOM     17  O   UNL A   1      30.165  25.169  23.987  1.00  0.00    -0.475 OA
ATOM     18  C   UNL A   1      31.784  25.737  26.277  1.00  0.00     0.027 C 
ATOM     19  C   UNL A   1      30.876  24.071  24.633  1.00  0.00     0.316 C 
BRANCH  10  20
ATOM     20  C   UNL A   1      29.306  29.888  23.017  1.00  0.00    -0.012 C 
ATOM     21  C   UNL A   1      29.903  30.235  21.624  1.00  0.00     0.016 C 
ATOM     22  C   UNL A   1      29.193  31.241  23.750  1.00  0.00     0.016 C 
ATOM     23  C   UNL A   1      27.899  29.309  22.741  1.00  0.00     0.016 C 
ENDBRANCH  10  20
BRANCH  19  24
ATOM     24  C   UNL A   1      31.782  23.403  23.583  1.00  0.00     0.430 C 
ATOM     25  F   UNL A   1      31.441  23.743  22.323  1.00  0.00    -0.167 F 
ATOM     26  F   UNL A   1      33.071  23.802  23.747  1.00  0.00    -0.167 F 
ATOM     27  F   UNL A   1      31.771  22.055  23.683  1.00  0.00    -0.167 F 
ENDBRANCH  19  24
ENDBRANCH   7   9
ENDBRANCH   6   7
ENDBRANCH   5   6
ENDBRANCH   4   5
ENDBRANCH   3   4
ENDBRANCH   2   3
ENDBRANCH   1   2
BRANCH   1  28
ATOM     28  O   UNL A   1      38.863  22.675  25.963  1.00  0.00    -0.376 OA
BRANCH  28  29
ATOM     29  C   UNL A   1      39.639  21.537  26.299  1.00  0.00     0.202 C 
BRANCH  29  30
ATOM     30  C   UNL A   1      41.165  21.517  26.120  1.00  0.00     0.261 C 
BRANCH  30  31
ATOM     31  O   UNL A   1      41.892  22.455  26.920  1.00  0.00    -0.460 OA
BRANCH  31  32
ATOM     32  C   UNL A   1      42.296  23.580  26.271  1.00  0.00     0.338 C 
ATOM     33  O   UNL A   1      42.701  23.679  25.133  1.00  0.00    -0.246 OA
BRANCH  32  34
ATOM     34  C   UNL A   1      41.972  24.740  27.127  1.00  0.00     0.060 A 
ATOM     35  C   UNL A   1      40.841  24.719  27.940  1.00  0.00     0.016 A 
ATOM     36  C   UNL A   1      42.817  25.861  27.102  1.00  0.00     0.016 A 
ATOM     37  C   UNL A   1      40.566  25.821  28.750  1.00  0.00     0.010 A 
ATOM     38  C   UNL A   1      42.532  26.967  27.904  1.00  0.00     0.010 A 
ATOM     39  C   UNL A   1      41.417  26.943  28.751  1.00  0.00    -0.014 A 
BRANCH  39  40
ATOM     40  C   UNL A   1      41.210  28.000  29.767  1.00  0.00     0.031 A 
ATOM     41  C   UNL A   1      40.129  29.027  29.642  1.00  0.00     0.074 A 
ATOM     42  C   UNL A   1      42.015  27.994  30.846  1.00  0.00     0.049 A 
ATOM     43  N   UNL A   1      39.719  29.899  30.528  1.00  0.00    -0.248 NA
ATOM     44  C   UNL A   1      39.422  29.092  28.356  1.00  0.00     0.031 C 
ATOM     45  C   UNL A   1      43.134  27.072  31.052  1.00  0.00     0.029 A 
ATOM     46  N   UNL A   1      42.003  28.766  31.978  1.00  0.00    -0.354 N 
ATOM     47  C   UNL A   1      38.683  30.598  29.924  1.00  0.00     0.074 A 
ATOM     48  C   UNL A   1      38.571  30.088  28.572  1.00  0.00     0.031 C 
ATOM     49  C   UNL A   1      43.672  27.300  32.258  1.00  0.00     0.029 A 
ATOM     50  C   UNL A   1      42.951  28.395  32.899  1.00  0.00     0.049 A 
ATOM     51  H   UNL A   1      41.376  29.511  32.117  1.00  0.00     0.167 HD
ATOM     52  C   UNL A   1      37.889  31.560  30.458  1.00  0.00     0.037 A 
ATOM     53  C   UNL A   1      43.200  28.873  34.131  1.00  0.00     0.037 A 
ATOM     54  C   UNL A   1      38.037  32.088  31.794  1.00  0.00     0.049 A 
ATOM     55  C   UNL A   1      42.331  29.970  34.680  1.00  0.00     0.074 A 
ATOM     56  C   UNL A   1      37.266  33.044  32.436  1.00  0.00     0.029 A 
ATOM     57  N   UNL A   1      39.036  31.723  32.685  1.00  0.00    -0.354 N 
ATOM     58  N   UNL A   1      41.290  30.554  34.137  1.00  0.00    -0.248 NA
ATOM     59  C   UNL A   1      42.667  30.460  36.022  1.00  0.00     0.031 C 
ATOM     60  C   UNL A   1      37.832  33.298  33.691  1.00  0.00     0.029 A 
ATOM     61  C   UNL A   1      38.917  32.454  33.860  1.00  0.00     0.049 A 
ATOM     62  H   UNL A   1      39.727  31.046  32.510  1.00  0.00     0.167 HD
ATOM     63  C   UNL A   1      40.826  31.457  35.086  1.00  0.00     0.074 A 
ATOM     64  C   UNL A   1      41.687  31.323  36.244  1.00  0.00     0.031 C 
ATOM     65  C   UNL A   1      39.781  32.317  35.007  1.00  0.00     0.037 A 
BRANCH  52  66
ATOM     66  C   UNL A   1      36.788  32.104  29.592  1.00  0.00     0.057 A 
ATOM     67  C   UNL A   1      36.993  33.230  28.785  1.00  0.00     0.134 A 
ATOM     68  C   UNL A   1      35.508  31.533  29.584  1.00  0.00     0.134 A 
ATOM     69  F   UNL A   1      38.189  33.837  28.753  1.00  0.00    -0.206 F 
ATOM     70  C   UNL A   1      35.969  33.764  28.000  1.00  0.00     0.040 A 
ATOM     71  C   UNL A   1      34.483  32.040  28.782  1.00  0.00     0.040 A 
ATOM     72  F   UNL A   1      35.240  30.450  30.331  1.00  0.00    -0.206 F 
ATOM     73  C   UNL A   1      34.712  33.163  27.990  1.00  0.00     0.006 A 
ENDBRANCH  52  66
BRANCH  53  74
ATOM     74  C   UNL A   1      44.299  28.300  34.947  1.00  0.00     0.057 A 
ATOM     75  C   UNL A   1      45.578  28.868  34.947  1.00  0.00     0.134 A 
ATOM     76  C   UNL A   1      44.085  27.192  35.775  1.00  0.00     0.134 A 
ATOM     77  F   UNL A   1      45.850  29.924  34.166  1.00  0.00    -0.206 F 
ATOM     78  C   UNL A   1      46.602  28.361  35.746  1.00  0.00     0.040 A 
ATOM     79  C   UNL A   1      45.091  26.692  36.602  1.00  0.00     0.040 A 
ATOM     80  F   UNL A   1      42.877  26.611  35.827  1.00  0.00    -0.206 F 
ATOM     81  C   UNL A   1      46.355  27.278  36.587  1.00  0.00     0.006 A 
ENDBRANCH  53  74
BRANCH  65  82
ATOM     82  C   UNL A   1      39.492  33.147  36.228  1.00  0.00     0.057 A 
ATOM     83  C   UNL A   1      40.053  34.424  36.368  1.00  0.00     0.134 A 
ATOM     84  C   UNL A   1      38.648  32.699  37.254  1.00  0.00     0.134 A 
ATOM     85  F   UNL A   1      40.876  34.915  35.431  1.00  0.00    -0.206 F 
ATOM     86  C   UNL A   1      39.776  35.227  37.476  1.00  0.00     0.040 A 
ATOM     87  C   UNL A   1      38.335  33.507  38.349  1.00  0.00     0.040 A 
ATOM     88  F   UNL A   1      38.065  31.494  37.178  1.00  0.00    -0.206 F 
ATOM     89  C   UNL A   1      38.902  34.775  38.464  1.00  0.00     0.006 A 
ENDBRANCH  65  82
ENDBRANCH  39  40
ENDBRANCH  32  34
ENDBRANCH  31  32
ENDBRANCH  30  31
ENDBRANCH  29  30
ENDBRANCH  28  29
ENDBRANCH   1  28
TORSDOF 19
ENDMDL
MODEL 3
REMARK VINA RESULT:     -10.3      1.976      3.326
REMARK SMILES CC(C)(C)c1cc2c(cc1Cl)C=C(C(=O)OCCOCCOCCOC(=O)c1ccc(-c3c4nc(c(-c5c(F)cccc5F)c5ccc([nH]5)c(-c5c(F)cccc5F)c5nc(c(-c6c(F)cccc6F)c6ccc3[nH]6)C=C5)C=C4)cc1)[C@H](C(F)(F)F)O2
REMARK SMILES IDX 21 1 20 2 19 3 18 4 17 5 16 6 14 7 15 8 13 9 5 10 6 11 10 12
REMARK SMILES IDX 7 13 9 14 11 15 8 16 87 17 12 18 82 19 2 20 1 21 3 22 4 23
REMARK SMILES IDX 83 24 84 25 85 26 86 27 22 28 23 29 24 30 25 31 26 32 27 33
REMARK SMILES IDX 28 34 29 35 81 36 30 37 80 38 31 39 32 40 33 41 74 42 34 43
REMARK SMILES IDX 79 44 73 45 75 46 35 47 78 48 72 49 71 50 36 52 62 53 45 54
REMARK SMILES IDX 61 55 46 56 49 57 60 58 76 59 47 60 48 61 59 63 77 64 50 65
REMARK SMILES IDX 37 66 38 67 43 68 39 69 40 70 42 71 44 72 41 73 63 74 64 75
REMARK SMILES IDX 69 76 65 77 66 78 68 79 70 80 67 81 51 82 52 83 57 84 53 85
REMARK SMILES IDX 54 86 56 87 58 88 55 89
REMARK H PARENT 75 51 49 62
REMARK Flexibility Score: inf
ROOT
ATOM      1  C   UNL A   1      37.247  23.048  24.927  1.00  0.00     0.188 C 
ENDROOT
BRANCH   1   2
ATOM      2  C   UNL A   1      36.693  21.654  24.574  1.00  0.00     0.188 C 
BRANCH   2   3
ATOM      3  O   UNL A   1      35.527  21.229  25.237  1.00  0.00    -0.376 OA
BRANCH   3   4
ATOM      4  C   UNL A   1      35.126  21.819  26.463  1.00  0.00     0.202 C 
BRANCH   4   5
ATOM      5  C   UNL A   1      33.673  22.094  26.899  1.00  0.00     0.261 C 
BRANCH   5   6
ATOM      6  O   UNL A   1      33.241  23.458  26.904  1.00  0.00    -0.460 OA
BRANCH   6   7
ATOM      7  C   UNL A   1      31.906  23.646  26.841  1.00  0.00     0.338 C 
ATOM      8  O   UNL A   1      31.069  23.186  27.602  1.00  0.00    -0.246 OA
BRANCH   7   9
ATOM      9  C   UNL A   1      31.574  24.640  25.808  1.00  0.00     0.087 C 
ATOM     10  C   UNL A   1      29.955  28.979  23.772  1.00  0.00    -0.020 A 
ATOM     11  C   UNL A   1      29.810  27.599  23.483  1.00  0.00     0.053 A 
ATOM     12  C   UNL A   1      30.852  29.301  24.819  1.00  0.00     0.045 A 
ATOM     13  C   UNL A   1      30.445  26.603  24.230  1.00  0.00     0.128 A 
ATOM     14  C   UNL A   1      31.513  28.297  25.548  1.00  0.00     0.032 A 
ATOM     15  Cl  UNL A   1      31.178  30.906  25.374  1.00  0.00    -0.084 Cl
ATOM     16  C   UNL A   1      31.286  26.950  25.277  1.00  0.00     0.019 A 
ATOM     17  O   UNL A   1      30.097  25.312  23.935  1.00  0.00    -0.475 OA
ATOM     18  C   UNL A   1      31.798  25.915  26.156  1.00  0.00     0.027 C 
ATOM     19  C   UNL A   1      30.866  24.232  24.542  1.00  0.00     0.316 C 
BRANCH  10  20
ATOM     20  C   UNL A   1      29.061  30.009  23.034  1.00  0.00    -0.012 C 
ATOM     21  C   UNL A   1      29.595  30.393  21.625  1.00  0.00     0.016 C 
ATOM     22  C   UNL A   1      28.928  31.349  23.788  1.00  0.00     0.016 C 
ATOM     23  C   UNL A   1      27.666  29.385  22.801  1.00  0.00     0.016 C 
ENDBRANCH  10  20
BRANCH  19  24
ATOM     24  C   UNL A   1      31.745  23.596  23.450  1.00  0.00     0.430 C 
ATOM     25  F   UNL A   1      32.998  23.343  23.884  1.00  0.00    -0.167 F 
ATOM     26  F   UNL A   1      31.230  22.399  23.065  1.00  0.00    -0.167 F 
ATOM     27  F   UNL A   1      31.821  24.367  22.342  1.00  0.00    -0.167 F 
ENDBRANCH  19  24
ENDBRANCH   7   9
ENDBRANCH   6   7
ENDBRANCH   5   6
ENDBRANCH   4   5
ENDBRANCH   3   4
ENDBRANCH   2   3
ENDBRANCH   1   2
BRANCH   1  28
ATOM     28  O   UNL A   1      38.276  23.207  25.884  1.00  0.00    -0.376 OA
BRANCH  28  29
ATOM     29  C   UNL A   1      39.161  22.133  26.152  1.00  0.00     0.202 C 
BRANCH  29  30
ATOM     30  C   UNL A   1      40.686  22.302  26.065  1.00  0.00     0.261 C 
BRANCH  30  31
ATOM     31  O   UNL A   1      41.265  23.186  27.031  1.00  0.00    -0.460 OA
BRANCH  31  32
ATOM     32  C   UNL A   1      41.695  24.379  26.540  1.00  0.00     0.338 C 
ATOM     33  O   UNL A   1      42.109  24.621  25.427  1.00  0.00    -0.246 OA
BRANCH  32  34
ATOM     34  C   UNL A   1      41.388  25.421  27.542  1.00  0.00     0.060 A 
ATOM     35  C   UNL A   1      40.154  25.432  28.188  1.00  0.00     0.016 A 
ATOM     36  C   UNL A   1      42.355  26.398  27.825  1.00  0.00     0.016 A 
ATOM     37  C   UNL A   1      39.894  26.416  29.141  1.00  0.00     0.010 A 
ATOM     38  C   UNL A   1      42.088  27.390  28.770  1.00  0.00     0.010 A 
ATOM     39  C   UNL A   1      40.863  27.391  29.451  1.00  0.00    -0.014 A 
BRANCH  39  40
ATOM     40  C   UNL A   1      40.636  28.289  30.606  1.00  0.00     0.031 A 
ATOM     41  C   UNL A   1      41.450  28.199  31.858  1.00  0.00     0.074 A 
ATOM     42  C   UNL A   1      39.680  29.229  30.486  1.00  0.00     0.049 A 
ATOM     43  N   UNL A   1      41.483  29.022  32.876  1.00  0.00    -0.248 NA
ATOM     44  C   UNL A   1      42.334  27.034  31.993  1.00  0.00     0.031 C 
ATOM     45  C   UNL A   1      38.792  29.378  29.332  1.00  0.00     0.029 A 
ATOM     46  N   UNL A   1      39.313  30.247  31.326  1.00  0.00    -0.354 N 
ATOM     47  C   UNL A   1      42.413  28.497  33.761  1.00  0.00     0.074 A 
ATOM     48  C   UNL A   1      42.875  27.249  33.186  1.00  0.00     0.031 C 
ATOM     49  C   UNL A   1      38.014  30.455  29.515  1.00  0.00     0.029 A 
ATOM     50  C   UNL A   1      38.335  31.056  30.805  1.00  0.00     0.049 A 
ATOM     51  H   UNL A   1      39.713  30.385  32.215  1.00  0.00     0.167 HD
ATOM     52  C   UNL A   1      42.853  29.021  34.933  1.00  0.00     0.037 A 
ATOM     53  C   UNL A   1      37.770  32.170  31.305  1.00  0.00     0.037 A 
ATOM     54  C   UNL A   1      42.356  30.245  35.516  1.00  0.00     0.049 A 
ATOM     55  C   UNL A   1      38.247  32.702  32.628  1.00  0.00     0.074 A 
ATOM     56  C   UNL A   1      42.756  30.872  36.684  1.00  0.00     0.029 A 
ATOM     57  N   UNL A   1      41.332  31.017  34.985  1.00  0.00    -0.354 N 
ATOM     58  N   UNL A   1      39.199  32.252  33.409  1.00  0.00    -0.248 NA
ATOM     59  C   UNL A   1      37.579  33.910  33.126  1.00  0.00     0.031 C 
ATOM     60  C   UNL A   1      41.937  31.989  36.890  1.00  0.00     0.029 A 
ATOM     61  C   UNL A   1      41.070  32.098  35.816  1.00  0.00     0.049 A 
ATOM     62  H   UNL A   1      40.860  30.826  34.143  1.00  0.00     0.167 HD
ATOM     63  C   UNL A   1      39.266  33.141  34.475  1.00  0.00     0.074 A 
ATOM     64  C   UNL A   1      38.274  34.167  34.223  1.00  0.00     0.031 C 
ATOM     65  C   UNL A   1      40.077  33.112  35.561  1.00  0.00     0.037 A 
BRANCH  52  66
ATOM     66  C   UNL A   1      43.928  28.267  35.664  1.00  0.00     0.057 A 
ATOM     67  C   UNL A   1      43.607  27.324  36.649  1.00  0.00     0.134 A 
ATOM     68  C   UNL A   1      45.288  28.501  35.418  1.00  0.00     0.134 A 
ATOM     69  F   UNL A   1      42.326  27.058  36.947  1.00  0.00    -0.206 F 
ATOM     70  C   UNL A   1      44.597  26.640  37.358  1.00  0.00     0.040 A 
ATOM     71  C   UNL A   1      46.288  27.803  36.100  1.00  0.00     0.040 A 
ATOM     72  F   UNL A   1      45.669  29.389  34.487  1.00  0.00    -0.206 F 
ATOM     73  C   UNL A   1      45.942  26.872  37.077  1.00  0.00     0.006 A 
ENDBRANCH  52  66
BRANCH  53  74
ATOM     74  C   UNL A   1      36.713  32.879  30.542  1.00  0.00     0.057 A 
ATOM     75  C   UNL A   1      37.033  33.761  29.505  1.00  0.00     0.134 A 
ATOM     76  C   UNL A   1      35.357  32.660  30.809  1.00  0.00     0.134 A 
ATOM     77  F   UNL A   1      38.314  34.023  29.208  1.00  0.00    -0.206 F 
ATOM     78  C   UNL A   1      36.043  34.396  28.755  1.00  0.00     0.040 A 
ATOM     79  C   UNL A   1      34.355  33.263  30.048  1.00  0.00     0.040 A 
ATOM     80  F   UNL A   1      34.988  31.815  31.784  1.00  0.00    -0.206 F 
ATOM     81  C   UNL A   1      34.699  34.136  29.017  1.00  0.00     0.006 A 
ENDBRANCH  53  74
BRANCH  65  82
ATOM     82  C   UNL A   1      39.946  34.251  36.535  1.00  0.00     0.057 A 
ATOM     83  C   UNL A   1      40.680  35.431  36.351  1.00  0.00     0.134 A 
ATOM     84  C   UNL A   1      39.083  34.197  37.638  1.00  0.00     0.134 A 
ATOM     85  F   UNL A   1      41.532  35.551  35.323  1.00  0.00    -0.206 F 
ATOM     86  C   UNL A   1      40.554  36.515  37.222  1.00  0.00     0.040 A 
ATOM     87  C   UNL A   1      38.921  35.288  38.495  1.00  0.00     0.040 A 
ATOM     88  F   UNL A   1      38.337  33.105  37.866  1.00  0.00    -0.206 F 
ATOM     89  C   UNL A   1      39.660  36.451  38.289  1.00  0.00     0.006 A 
ENDBRANCH  65  82
ENDBRANCH  39  40
ENDBRANCH  32  34
ENDBRANCH  31  32
ENDBRANCH  30  31
ENDBRANCH  29  30
ENDBRANCH  28  29
ENDBRANCH   1  28
TORSDOF 19
ENDMDL
