MODEL 1
REMARK VINA RESULT:     -10.5      0.000      0.000
REMARK SMILES C[C@@H](C(=O)OCCOCCOCCOC(=O)c1ccc(-c2c3nc(c(-c4c(F)cccc4F)c4ccc([nH]4)c(-c4c(F)cccc4F)c4nc(c(-c5c(F)cccc5F)c5ccc2[nH]5)C=C4)C=C3)cc1)c1cccc(C(=O)c2ccccc2)c1
REMARK SMILES IDX 9 1 8 2 7 3 6 4 5 5 3 6 4 7 2 8 1 9 71 10 72 11 84 12 73 13
REMARK SMILES IDX 75 14 74 15 76 16 77 17 78 18 79 19 83 20 80 21 82 22 81 23
REMARK SMILES IDX 10 24 11 25 12 26 13 27 14 28 15 29 16 30 17 31 18 32 70 33
REMARK SMILES IDX 19 34 69 35 20 36 21 37 22 38 63 39 23 40 68 41 62 42 64 43
REMARK SMILES IDX 24 44 67 45 61 46 60 47 25 49 51 50 34 51 50 52 35 53 38 54
REMARK SMILES IDX 49 55 65 56 36 57 37 58 48 60 66 61 39 62 26 63 27 64 32 65
REMARK SMILES IDX 28 66 29 67 31 68 33 69 30 70 52 71 53 72 58 73 54 74 55 75
REMARK SMILES IDX 57 76 59 77 56 78 40 79 41 80 46 81 42 82 43 83 45 84 47 85
REMARK SMILES IDX 44 86
REMARK H PARENT 64 48 38 59
REMARK Flexibility Score: inf
ROOT
ATOM      1  C   UNL A   1      32.446  29.554  24.798  1.00  0.00     0.188 C 
ENDROOT
BRANCH   1   2
ATOM      2  O   UNL A   1      33.163  29.225  23.614  1.00  0.00    -0.376 OA
BRANCH   2   3
ATOM      3  C   UNL A   1      33.680  27.900  23.482  1.00  0.00     0.202 C 
BRANCH   3   4
ATOM      4  C   UNL A   1      33.658  27.225  22.096  1.00  0.00     0.261 C 
BRANCH   4   5
ATOM      5  O   UNL A   1      34.159  25.872  22.089  1.00  0.00    -0.463 OA
BRANCH   5   6
ATOM      6  C   UNL A   1      33.269  24.890  21.787  1.00  0.00     0.313 C 
ATOM      7  O   UNL A   1      32.915  24.622  20.643  1.00  0.00    -0.252 OA
BRANCH   6   8
ATOM      8  C   UNL A   1      32.827  24.057  23.005  1.00  0.00     0.126 C 
ATOM      9  C   UNL A   1      32.363  22.639  22.628  1.00  0.00     0.025 C 
BRANCH   8  10
ATOM     10  C   UNL A   1      31.911  24.809  23.987  1.00  0.00    -0.033 A 
ATOM     11  C   UNL A   1      32.269  25.018  25.331  1.00  0.00     0.004 A 
ATOM     12  C   UNL A   1      30.723  25.422  23.539  1.00  0.00     0.016 A 
ATOM     13  C   UNL A   1      31.466  25.780  26.191  1.00  0.00     0.001 A 
ATOM     14  C   UNL A   1      29.899  26.165  24.402  1.00  0.00     0.023 A 
ATOM     15  C   UNL A   1      30.282  26.353  25.730  1.00  0.00     0.012 A 
BRANCH  14  16
ATOM     16  C   UNL A   1      28.664  26.831  23.904  1.00  0.00     0.193 C 
ATOM     17  O   UNL A   1      27.564  26.331  24.123  1.00  0.00    -0.289 OA
BRANCH  16  18
ATOM     18  C   UNL A   1      28.735  28.126  23.186  1.00  0.00     0.022 A 
ATOM     19  C   UNL A   1      29.954  28.504  22.617  1.00  0.00     0.012 A 
ATOM     20  C   UNL A   1      27.612  28.950  23.052  1.00  0.00     0.012 A 
ATOM     21  C   UNL A   1      30.033  29.672  21.859  1.00  0.00     0.001 A 
ATOM     22  C   UNL A   1      27.692  30.113  22.287  1.00  0.00     0.001 A 
ATOM     23  C   UNL A   1      28.899  30.467  21.682  1.00  0.00     0.000 A 
ENDBRANCH  16  18
ENDBRANCH  14  16
ENDBRANCH   8  10
ENDBRANCH   6   8
ENDBRANCH   5   6
ENDBRANCH   4   5
ENDBRANCH   3   4
ENDBRANCH   2   3
ENDBRANCH   1   2
BRANCH   1  24
ATOM     24  C   UNL A   1      33.209  29.720  26.122  1.00  0.00     0.188 C 
BRANCH  24  25
ATOM     25  O   UNL A   1      32.585  30.573  27.049  1.00  0.00    -0.376 OA
BRANCH  25  26
ATOM     26  C   UNL A   1      31.668  31.545  26.585  1.00  0.00     0.202 C 
BRANCH  26  27
ATOM     27  C   UNL A   1      31.692  33.005  27.080  1.00  0.00     0.261 C 
BRANCH  27  28
ATOM     28  O   UNL A   1      32.954  33.689  27.102  1.00  0.00    -0.460 OA
BRANCH  28  29
ATOM     29  C   UNL A   1      33.390  34.145  28.296  1.00  0.00     0.338 C 
ATOM     30  O   UNL A   1      32.822  34.941  29.033  1.00  0.00    -0.246 OA
BRANCH  29  31
ATOM     31  C   UNL A   1      34.568  33.340  28.684  1.00  0.00     0.060 A 
ATOM     32  C   UNL A   1      34.378  32.029  29.146  1.00  0.00     0.016 A 
ATOM     33  C   UNL A   1      35.854  33.872  28.583  1.00  0.00     0.016 A 
ATOM     34  C   UNL A   1      35.475  31.255  29.528  1.00  0.00     0.010 A 
ATOM     35  C   UNL A   1      36.949  33.104  28.990  1.00  0.00     0.010 A 
ATOM     36  C   UNL A   1      36.763  31.803  29.490  1.00  0.00    -0.014 A 
BRANCH  36  37
ATOM     37  C   UNL A   1      37.892  31.090  30.140  1.00  0.00     0.031 A 
ATOM     38  C   UNL A   1      38.172  31.365  31.590  1.00  0.00     0.074 A 
ATOM     39  C   UNL A   1      38.656  30.216  29.464  1.00  0.00     0.049 A 
ATOM     40  N   UNL A   1      39.140  30.921  32.347  1.00  0.00    -0.248 NA
ATOM     41  C   UNL A   1      37.236  32.271  32.273  1.00  0.00     0.031 C 
ATOM     42  C   UNL A   1      38.467  29.835  28.067  1.00  0.00     0.029 A 
ATOM     43  N   UNL A   1      39.751  29.491  29.868  1.00  0.00    -0.354 N 
ATOM     44  C   UNL A   1      38.947  31.512  33.589  1.00  0.00     0.074 A 
ATOM     45  C   UNL A   1      37.778  32.358  33.478  1.00  0.00     0.031 C 
ATOM     46  C   UNL A   1      39.415  28.942  27.732  1.00  0.00     0.029 A 
ATOM     47  C   UNL A   1      40.296  28.717  28.874  1.00  0.00     0.049 A 
ATOM     48  H   UNL A   1      40.110  29.525  30.784  1.00  0.00     0.167 HD
ATOM     49  C   UNL A   1      39.680  31.368  34.718  1.00  0.00     0.037 A 
ATOM     50  C   UNL A   1      41.393  27.933  28.880  1.00  0.00     0.037 A 
ATOM     51  C   UNL A   1      40.846  30.530  34.826  1.00  0.00     0.049 A 
ATOM     52  C   UNL A   1      42.225  27.834  30.132  1.00  0.00     0.074 A 
ATOM     53  C   UNL A   1      41.645  30.309  35.934  1.00  0.00     0.029 A 
ATOM     54  N   UNL A   1      41.385  29.784  33.789  1.00  0.00    -0.354 N 
ATOM     55  N   UNL A   1      42.027  28.383  31.307  1.00  0.00    -0.248 NA
ATOM     56  C   UNL A   1      43.443  27.011  30.057  1.00  0.00     0.031 C 
ATOM     57  C   UNL A   1      42.702  29.477  35.551  1.00  0.00     0.029 A 
ATOM     58  C   UNL A   1      42.525  29.126  34.224  1.00  0.00     0.049 A 
ATOM     59  H   UNL A   1      41.013  29.730  32.878  1.00  0.00     0.167 HD
ATOM     60  C   UNL A   1      43.076  27.954  32.112  1.00  0.00     0.074 A 
ATOM     61  C   UNL A   1      43.898  27.084  31.299  1.00  0.00     0.031 C 
ATOM     62  C   UNL A   1      43.335  28.257  33.409  1.00  0.00     0.037 A 
BRANCH  49  63
ATOM     63  C   UNL A   1      39.269  32.175  35.913  1.00  0.00     0.057 A 
ATOM     64  C   UNL A   1      39.773  33.459  36.158  1.00  0.00     0.134 A 
ATOM     65  C   UNL A   1      38.336  31.663  36.825  1.00  0.00     0.134 A 
ATOM     66  F   UNL A   1      40.684  34.000  35.335  1.00  0.00    -0.206 F 
ATOM     67  C   UNL A   1      39.384  34.194  37.279  1.00  0.00     0.040 A 
ATOM     68  C   UNL A   1      37.916  32.400  37.933  1.00  0.00     0.040 A 
ATOM     69  F   UNL A   1      37.812  30.440  36.650  1.00  0.00    -0.206 F 
ATOM     70  C   UNL A   1      38.446  33.667  38.166  1.00  0.00     0.006 A 
ENDBRANCH  49  63
BRANCH  50  71
ATOM     71  C   UNL A   1      41.786  27.182  27.656  1.00  0.00     0.057 A 
ATOM     72  C   UNL A   1      42.568  27.781  26.661  1.00  0.00     0.134 A 
ATOM     73  C   UNL A   1      41.361  25.867  27.433  1.00  0.00     0.134 A 
ATOM     74  F   UNL A   1      42.975  29.053  26.795  1.00  0.00    -0.206 F 
ATOM     75  C   UNL A   1      42.896  27.108  25.482  1.00  0.00     0.040 A 
ATOM     76  C   UNL A   1      41.708  25.171  26.274  1.00  0.00     0.040 A 
ATOM     77  F   UNL A   1      40.599  25.237  28.341  1.00  0.00    -0.206 F 
ATOM     78  C   UNL A   1      42.471  25.795  25.290  1.00  0.00     0.006 A 
ENDBRANCH  50  71
BRANCH  62  79
ATOM     79  C   UNL A   1      44.535  27.613  34.045  1.00  0.00     0.057 A 
ATOM     80  C   UNL A   1      44.469  26.355  34.656  1.00  0.00     0.134 A 
ATOM     81  C   UNL A   1      45.786  28.246  34.007  1.00  0.00     0.134 A 
ATOM     82  F   UNL A   1      43.302  25.697  34.736  1.00  0.00    -0.206 F 
ATOM     83  C   UNL A   1      45.596  25.760  35.228  1.00  0.00     0.040 A 
ATOM     84  C   UNL A   1      46.925  27.648  34.548  1.00  0.00     0.040 A 
ATOM     85  F   UNL A   1      45.925  29.447  33.427  1.00  0.00    -0.206 F 
ATOM     86  C   UNL A   1      46.831  26.404  35.168  1.00  0.00     0.006 A 
ENDBRANCH  62  79
ENDBRANCH  36  37
ENDBRANCH  29  31
ENDBRANCH  28  29
ENDBRANCH  27  28
ENDBRANCH  26  27
ENDBRANCH  25  26
ENDBRANCH  24  25
ENDBRANCH   1  24
TORSDOF 20
ENDMDL
MODEL 2
REMARK VINA RESULT:     -10.5      0.515      6.087
REMARK SMILES C[C@@H](C(=O)OCCOCCOCCOC(=O)c1ccc(-c2c3nc(c(-c4c(F)cccc4F)c4ccc([nH]4)c(-c4c(F)cccc4F)c4nc(c(-c5c(F)cccc5F)c5ccc2[nH]5)C=C4)C=C3)cc1)c1cccc(C(=O)c2ccccc2)c1
REMARK SMILES IDX 9 1 8 2 7 3 6 4 5 5 3 6 4 7 2 8 1 9 71 10 72 11 84 12 73 13
REMARK SMILES IDX 75 14 74 15 76 16 77 17 78 18 79 19 83 20 80 21 82 22 81 23
REMARK SMILES IDX 10 24 11 25 12 26 13 27 14 28 15 29 16 30 17 31 18 32 70 33
REMARK SMILES IDX 19 34 69 35 20 36 21 37 22 38 63 39 23 40 68 41 62 42 64 43
REMARK SMILES IDX 24 44 67 45 61 46 60 47 25 49 51 50 34 51 50 52 35 53 38 54
REMARK SMILES IDX 49 55 65 56 36 57 37 58 48 60 66 61 39 62 26 63 27 64 32 65
REMARK SMILES IDX 28 66 29 67 31 68 33 69 30 70 52 71 53 72 58 73 54 74 55 75
REMARK SMILES IDX 57 76 59 77 56 78 40 79 41 80 46 81 42 82 43 83 45 84 47 85
REMARK SMILES IDX 44 86
REMARK H PARENT 64 48 38 59
REMARK Flexibility Score: inf
ROOT
ATOM      1  C   UNL A   1      32.925  29.555  24.650  1.00  0.00     0.188 C 
ENDROOT
BRANCH   1   2
ATOM      2  O   UNL A   1      33.735  28.918  23.668  1.00  0.00    -0.376 OA
BRANCH   2   3
ATOM      3  C   UNL A   1      33.771  27.490  23.642  1.00  0.00     0.202 C 
BRANCH   3   4
ATOM      4  C   UNL A   1      33.462  26.760  22.321  1.00  0.00     0.261 C 
BRANCH   4   5
ATOM      5  O   UNL A   1      34.047  25.444  22.220  1.00  0.00    -0.463 OA
BRANCH   5   6
ATOM      6  C   UNL A   1      33.210  24.424  21.896  1.00  0.00     0.313 C 
ATOM      7  O   UNL A   1      32.966  24.084  20.743  1.00  0.00    -0.252 OA
BRANCH   6   8
ATOM      8  C   UNL A   1      32.679  23.646  23.117  1.00  0.00     0.126 C 
ATOM      9  C   UNL A   1      32.108  22.266  22.748  1.00  0.00     0.025 C 
BRANCH   8  10
ATOM     10  C   UNL A   1      31.810  24.484  24.071  1.00  0.00    -0.033 A 
ATOM     11  C   UNL A   1      32.171  24.700  25.414  1.00  0.00     0.004 A 
ATOM     12  C   UNL A   1      30.672  25.167  23.597  1.00  0.00     0.016 A 
ATOM     13  C   UNL A   1      31.416  25.536  26.247  1.00  0.00     0.001 A 
ATOM     14  C   UNL A   1      29.894  25.986  24.434  1.00  0.00     0.023 A 
ATOM     15  C   UNL A   1      30.278  26.179  25.761  1.00  0.00     0.012 A 
BRANCH  14  16
ATOM     16  C   UNL A   1      28.713  26.725  23.908  1.00  0.00     0.193 C 
ATOM     17  O   UNL A   1      27.578  26.327  24.155  1.00  0.00    -0.289 OA
BRANCH  16  18
ATOM     18  C   UNL A   1      28.882  27.973  23.127  1.00  0.00     0.022 A 
ATOM     19  C   UNL A   1      27.756  28.763  22.885  1.00  0.00     0.012 A 
ATOM     20  C   UNL A   1      30.136  28.375  22.655  1.00  0.00     0.012 A 
ATOM     21  C   UNL A   1      27.894  29.987  22.230  1.00  0.00     0.001 A 
ATOM     22  C   UNL A   1      30.273  29.604  22.008  1.00  0.00     0.001 A 
ATOM     23  C   UNL A   1      29.154  30.412  21.807  1.00  0.00     0.000 A 
ENDBRANCH  16  18
ENDBRANCH  14  16
ENDBRANCH   8  10
ENDBRANCH   6   8
ENDBRANCH   5   6
ENDBRANCH   4   5
ENDBRANCH   3   4
ENDBRANCH   2   3
ENDBRANCH   1   2
BRANCH   1  24
ATOM     24  C   UNL A   1      33.276  29.396  26.137  1.00  0.00     0.188 C 
BRANCH  24  25
ATOM     25  O   UNL A   1      32.463  30.142  27.009  1.00  0.00    -0.376 OA
BRANCH  25  26
ATOM     26  C   UNL A   1      31.725  31.236  26.499  1.00  0.00     0.202 C 
BRANCH  26  27
ATOM     27  C   UNL A   1      31.624  32.583  27.243  1.00  0.00     0.261 C 
BRANCH  27  28
ATOM     28  O   UNL A   1      32.686  33.531  27.065  1.00  0.00    -0.460 OA
BRANCH  28  29
ATOM     29  C   UNL A   1      33.121  34.187  28.163  1.00  0.00     0.338 C 
ATOM     30  O   UNL A   1      32.532  35.070  28.776  1.00  0.00    -0.246 OA
BRANCH  29  31
ATOM     31  C   UNL A   1      34.334  33.498  28.651  1.00  0.00     0.060 A 
ATOM     32  C   UNL A   1      34.238  32.167  29.083  1.00  0.00     0.016 A 
ATOM     33  C   UNL A   1      35.563  34.159  28.672  1.00  0.00     0.016 A 
ATOM     34  C   UNL A   1      35.368  31.500  29.557  1.00  0.00     0.010 A 
ATOM     35  C   UNL A   1      36.690  33.498  29.171  1.00  0.00     0.010 A 
ATOM     36  C   UNL A   1      36.592  32.175  29.641  1.00  0.00    -0.014 A 
BRANCH  36  37
ATOM     37  C   UNL A   1      37.724  31.568  30.385  1.00  0.00     0.031 A 
ATOM     38  C   UNL A   1      38.593  30.568  29.678  1.00  0.00     0.074 A 
ATOM     39  C   UNL A   1      37.982  31.895  31.663  1.00  0.00     0.049 A 
ATOM     40  N   UNL A   1      39.588  29.857  30.141  1.00  0.00    -0.248 NA
ATOM     41  C   UNL A   1      38.290  30.333  28.257  1.00  0.00     0.031 C 
ATOM     42  C   UNL A   1      37.240  32.875  32.450  1.00  0.00     0.029 A 
ATOM     43  N   UNL A   1      38.945  31.427  32.524  1.00  0.00    -0.354 N 
ATOM     44  C   UNL A   1      40.014  29.072  29.078  1.00  0.00     0.074 A 
ATOM     45  C   UNL A   1      39.160  29.383  27.951  1.00  0.00     0.031 C 
ATOM     46  C   UNL A   1      37.778  32.938  33.680  1.00  0.00     0.029 A 
ATOM     47  C   UNL A   1      38.875  31.980  33.780  1.00  0.00     0.049 A 
ATOM     48  H   UNL A   1      39.620  30.759  32.265  1.00  0.00     0.167 HD
ATOM     49  C   UNL A   1      41.022  28.168  29.044  1.00  0.00     0.037 A 
ATOM     50  C   UNL A   1      39.601  31.727  34.887  1.00  0.00     0.037 A 
ATOM     51  C   UNL A   1      41.869  27.856  30.166  1.00  0.00     0.049 A 
ATOM     52  C   UNL A   1      40.681  30.676  34.840  1.00  0.00     0.074 A 
ATOM     53  C   UNL A   1      42.926  26.966  30.223  1.00  0.00     0.029 A 
ATOM     54  N   UNL A   1      41.748  28.415  31.430  1.00  0.00    -0.354 N 
ATOM     55  N   UNL A   1      41.089  29.949  33.828  1.00  0.00    -0.248 NA
ATOM     56  C   UNL A   1      41.396  30.402  36.097  1.00  0.00     0.031 C 
ATOM     57  C   UNL A   1      43.407  26.941  31.536  1.00  0.00     0.029 A 
ATOM     58  C   UNL A   1      42.693  27.865  32.281  1.00  0.00     0.049 A 
ATOM     59  H   UNL A   1      41.089  29.101  31.684  1.00  0.00     0.167 HD
ATOM     60  C   UNL A   1      42.119  29.154  34.317  1.00  0.00     0.074 A 
ATOM     61  C   UNL A   1      42.288  29.501  35.712  1.00  0.00     0.031 C 
ATOM     62  C   UNL A   1      42.858  28.220  33.668  1.00  0.00     0.037 A 
BRANCH  49  63
ATOM     63  C   UNL A   1      41.232  27.418  27.763  1.00  0.00     0.057 A 
ATOM     64  C   UNL A   1      42.053  27.905  26.738  1.00  0.00     0.134 A 
ATOM     65  C   UNL A   1      40.615  26.176  27.561  1.00  0.00     0.134 A 
ATOM     66  F   UNL A   1      42.658  29.097  26.858  1.00  0.00    -0.206 F 
ATOM     67  C   UNL A   1      42.233  27.197  25.548  1.00  0.00     0.040 A 
ATOM     68  C   UNL A   1      40.811  25.444  26.390  1.00  0.00     0.040 A 
ATOM     69  F   UNL A   1      39.817  25.650  28.503  1.00  0.00    -0.206 F 
ATOM     70  C   UNL A   1      41.617  25.958  25.375  1.00  0.00     0.006 A 
ENDBRANCH  49  63
BRANCH  50  71
ATOM     71  C   UNL A   1      39.331  32.469  36.148  1.00  0.00     0.057 A 
ATOM     72  C   UNL A   1      38.411  31.986  37.087  1.00  0.00     0.134 A 
ATOM     73  C   UNL A   1      39.952  33.691  36.429  1.00  0.00     0.134 A 
ATOM     74  F   UNL A   1      37.752  30.839  36.860  1.00  0.00    -0.206 F 
ATOM     75  C   UNL A   1      38.105  32.699  38.248  1.00  0.00     0.040 A 
ATOM     76  C   UNL A   1      39.679  34.400  37.600  1.00  0.00     0.040 A 
ATOM     77  F   UNL A   1      40.835  34.217  35.566  1.00  0.00    -0.206 F 
ATOM     78  C   UNL A   1      38.746  33.909  38.510  1.00  0.00     0.006 A 
ENDBRANCH  50  71
BRANCH  62  79
ATOM     79  C   UNL A   1      43.944  27.531  34.446  1.00  0.00     0.057 A 
ATOM     80  C   UNL A   1      43.738  26.303  35.086  1.00  0.00     0.134 A 
ATOM     81  C   UNL A   1      45.230  28.086  34.517  1.00  0.00     0.134 A 
ATOM     82  F   UNL A   1      42.530  25.719  35.067  1.00  0.00    -0.206 F 
ATOM     83  C   UNL A   1      44.762  25.665  35.791  1.00  0.00     0.040 A 
ATOM     84  C   UNL A   1      46.269  27.443  35.191  1.00  0.00     0.040 A 
ATOM     85  F   UNL A   1      45.502  29.254  33.915  1.00  0.00    -0.206 F 
ATOM     86  C   UNL A   1      46.034  26.232  35.837  1.00  0.00     0.006 A 
ENDBRANCH  62  79
ENDBRANCH  36  37
ENDBRANCH  29  31
ENDBRANCH  28  29
ENDBRANCH  27  28
ENDBRANCH  26  27
ENDBRANCH  25  26
ENDBRANCH  24  25
ENDBRANCH   1  24
TORSDOF 20
ENDMDL
MODEL 3
REMARK VINA RESULT:     -10.5      2.702      7.764
REMARK SMILES C[C@@H](C(=O)OCCOCCOCCOC(=O)c1ccc(-c2c3nc(c(-c4c(F)cccc4F)c4ccc([nH]4)c(-c4c(F)cccc4F)c4nc(c(-c5c(F)cccc5F)c5ccc2[nH]5)C=C4)C=C3)cc1)c1cccc(C(=O)c2ccccc2)c1
REMARK SMILES IDX 9 1 8 2 7 3 6 4 5 5 3 6 4 7 2 8 1 9 71 10 72 11 84 12 73 13
REMARK SMILES IDX 75 14 74 15 76 16 77 17 78 18 79 19 83 20 80 21 82 22 81 23
REMARK SMILES IDX 10 24 11 25 12 26 13 27 14 28 15 29 16 30 17 31 18 32 70 33
REMARK SMILES IDX 19 34 69 35 20 36 21 37 22 38 63 39 23 40 68 41 62 42 64 43
REMARK SMILES IDX 24 44 67 45 61 46 60 47 25 49 51 50 34 51 50 52 35 53 38 54
REMARK SMILES IDX 49 55 65 56 36 57 37 58 48 60 66 61 39 62 26 63 27 64 32 65
REMARK SMILES IDX 28 66 29 67 31 68 33 69 30 70 52 71 53 72 58 73 54 74 55 75
REMARK SMILES IDX 57 76 59 77 56 78 40 79 41 80 46 81 42 82 43 83 45 84 47 85
REMARK SMILES IDX 44 86
REMARK H PARENT 64 48 38 59
REMARK Flexibility Score: inf
ROOT
ATOM      1  C   UNL A   1      36.538  22.758  25.639  1.00  0.00     0.188 C 
ENDROOT
BRANCH   1   2
ATOM      2  O   UNL A   1      36.189  24.039  25.128  1.00  0.00    -0.376 OA
BRANCH   2   3
ATOM      3  C   UNL A   1      34.840  24.485  25.281  1.00  0.00     0.202 C 
BRANCH   3   4
ATOM      4  C   UNL A   1      34.007  23.949  26.462  1.00  0.00     0.261 C 
BRANCH   4   5
ATOM      5  O   UNL A   1      32.883  23.133  26.072  1.00  0.00    -0.463 OA
BRANCH   5   6
ATOM      6  C   UNL A   1      31.655  23.711  26.133  1.00  0.00     0.313 C 
ATOM      7  O   UNL A   1      31.153  24.135  27.170  1.00  0.00    -0.252 OA
BRANCH   6   8
ATOM      8  C   UNL A   1      30.987  23.898  24.757  1.00  0.00     0.126 C 
ATOM      9  C   UNL A   1      31.593  22.996  23.668  1.00  0.00     0.025 C 
BRANCH   8  10
ATOM     10  C   UNL A   1      30.776  25.368  24.351  1.00  0.00    -0.033 A 
ATOM     11  C   UNL A   1      29.502  25.885  24.055  1.00  0.00     0.004 A 
ATOM     12  C   UNL A   1      31.848  26.283  24.376  1.00  0.00     0.016 A 
ATOM     13  C   UNL A   1      29.313  27.245  23.771  1.00  0.00     0.001 A 
ATOM     14  C   UNL A   1      31.671  27.643  24.067  1.00  0.00     0.023 A 
ATOM     15  C   UNL A   1      30.394  28.125  23.776  1.00  0.00     0.012 A 
BRANCH  14  16
ATOM     16  C   UNL A   1      32.809  28.602  24.129  1.00  0.00     0.193 C 
ATOM     17  O   UNL A   1      33.373  28.955  23.097  1.00  0.00    -0.289 OA
BRANCH  16  18
ATOM     18  C   UNL A   1      33.244  29.183  25.421  1.00  0.00     0.022 A 
ATOM     19  C   UNL A   1      34.383  28.657  26.035  1.00  0.00     0.012 A 
ATOM     20  C   UNL A   1      32.555  30.247  26.013  1.00  0.00     0.012 A 
ATOM     21  C   UNL A   1      34.872  29.239  27.205  1.00  0.00     0.001 A 
ATOM     22  C   UNL A   1      33.051  30.832  27.178  1.00  0.00     0.001 A 
ATOM     23  C   UNL A   1      34.214  30.335  27.766  1.00  0.00     0.000 A 
ENDBRANCH  16  18
ENDBRANCH  14  16
ENDBRANCH   8  10
ENDBRANCH   6   8
ENDBRANCH   5   6
ENDBRANCH   4   5
ENDBRANCH   3   4
ENDBRANCH   2   3
ENDBRANCH   1   2
BRANCH   1  24
ATOM     24  C   UNL A   1      37.370  21.800  24.771  1.00  0.00     0.188 C 
BRANCH  24  25
ATOM     25  O   UNL A   1      38.535  21.318  25.391  1.00  0.00    -0.376 OA
BRANCH  25  26
ATOM     26  C   UNL A   1      39.212  22.139  26.324  1.00  0.00     0.202 C 
BRANCH  26  27
ATOM     27  C   UNL A   1      40.724  22.426  26.229  1.00  0.00     0.261 C 
BRANCH  27  28
ATOM     28  O   UNL A   1      41.273  23.436  27.088  1.00  0.00    -0.460 OA
BRANCH  28  29
ATOM     29  C   UNL A   1      41.571  24.629  26.529  1.00  0.00     0.338 C 
ATOM     30  O   UNL A   1      41.888  24.839  25.365  1.00  0.00    -0.246 OA
BRANCH  29  31
ATOM     31  C   UNL A   1      41.220  25.685  27.503  1.00  0.00     0.060 A 
ATOM     32  C   UNL A   1      42.041  26.817  27.609  1.00  0.00     0.016 A 
ATOM     33  C   UNL A   1      40.081  25.563  28.300  1.00  0.00     0.016 A 
ATOM     34  C   UNL A   1      41.735  27.822  28.529  1.00  0.00     0.010 A 
ATOM     35  C   UNL A   1      39.790  26.557  29.239  1.00  0.00     0.010 A 
ATOM     36  C   UNL A   1      40.630  27.677  29.377  1.00  0.00    -0.014 A 
BRANCH  36  37
ATOM     37  C   UNL A   1      40.453  28.598  30.528  1.00  0.00     0.031 A 
ATOM     38  C   UNL A   1      39.394  29.660  30.440  1.00  0.00     0.074 A 
ATOM     39  C   UNL A   1      41.212  28.500  31.632  1.00  0.00     0.049 A 
ATOM     40  N   UNL A   1      39.104  30.617  31.282  1.00  0.00    -0.248 NA
ATOM     41  C   UNL A   1      38.554  29.642  29.231  1.00  0.00     0.031 C 
ATOM     42  C   UNL A   1      42.246  27.495  31.858  1.00  0.00     0.029 A 
ATOM     43  N   UNL A   1      41.228  29.265  32.773  1.00  0.00    -0.354 N 
ATOM     44  C   UNL A   1      38.068  31.332  30.696  1.00  0.00     0.074 A 
ATOM     45  C   UNL A   1      37.790  30.707  29.421  1.00  0.00     0.031 C 
ATOM     46  C   UNL A   1      42.795  27.704  33.067  1.00  0.00     0.029 A 
ATOM     47  C   UNL A   1      42.179  28.875  33.683  1.00  0.00     0.049 A 
ATOM     48  H   UNL A   1      40.615  30.021  32.922  1.00  0.00     0.167 HD
ATOM     49  C   UNL A   1      37.411  32.415  31.174  1.00  0.00     0.037 A 
ATOM     50  C   UNL A   1      42.527  29.415  34.869  1.00  0.00     0.037 A 
ATOM     51  C   UNL A   1      37.691  33.039  32.441  1.00  0.00     0.049 A 
ATOM     52  C   UNL A   1      41.819  30.654  35.354  1.00  0.00     0.074 A 
ATOM     53  C   UNL A   1      37.068  34.131  33.017  1.00  0.00     0.029 A 
ATOM     54  N   UNL A   1      38.683  32.634  33.322  1.00  0.00    -0.354 N 
ATOM     55  N   UNL A   1      40.829  31.315  34.802  1.00  0.00    -0.248 NA
ATOM     56  C   UNL A   1      42.285  31.231  36.625  1.00  0.00     0.031 C 
ATOM     57  C   UNL A   1      37.721  34.425  34.219  1.00  0.00     0.029 A 
ATOM     58  C   UNL A   1      38.707  33.474  34.424  1.00  0.00     0.049 A 
ATOM     59  H   UNL A   1      39.280  31.863  33.186  1.00  0.00     0.167 HD
ATOM     60  C   UNL A   1      40.540  32.364  35.667  1.00  0.00     0.074 A 
ATOM     61  C   UNL A   1      41.446  32.242  36.790  1.00  0.00     0.031 C 
ATOM     62  C   UNL A   1      39.609  33.342  35.540  1.00  0.00     0.037 A 
BRANCH  49  63
ATOM     63  C   UNL A   1      36.356  33.023  30.299  1.00  0.00     0.057 A 
ATOM     64  C   UNL A   1      34.988  32.839  30.540  1.00  0.00     0.134 A 
ATOM     65  C   UNL A   1      36.717  33.821  29.206  1.00  0.00     0.134 A 
ATOM     66  F   UNL A   1      34.574  32.070  31.559  1.00  0.00    -0.206 F 
ATOM     67  C   UNL A   1      34.019  33.407  29.711  1.00  0.00     0.040 A 
ATOM     68  C   UNL A   1      35.758  34.420  28.388  1.00  0.00     0.040 A 
ATOM     69  F   UNL A   1      38.010  34.039  28.918  1.00  0.00    -0.206 F 
ATOM     70  C   UNL A   1      34.403  34.207  28.636  1.00  0.00     0.006 A 
ENDBRANCH  49  63
BRANCH  50  71
ATOM     71  C   UNL A   1      43.608  28.801  35.686  1.00  0.00     0.057 A 
ATOM     72  C   UNL A   1      44.942  29.201  35.537  1.00  0.00     0.134 A 
ATOM     73  C   UNL A   1      43.344  27.777  36.603  1.00  0.00     0.134 A 
ATOM     74  F   UNL A   1      45.268  30.150  34.646  1.00  0.00    -0.206 F 
ATOM     75  C   UNL A   1      45.974  28.593  36.256  1.00  0.00     0.040 A 
ATOM     76  C   UNL A   1      44.362  27.182  37.352  1.00  0.00     0.040 A 
ATOM     77  F   UNL A   1      42.089  27.337  36.786  1.00  0.00    -0.206 F 
ATOM     78  C   UNL A   1      45.683  27.584  37.172  1.00  0.00     0.006 A 
ENDBRANCH  50  71
BRANCH  62  79
ATOM     79  C   UNL A   1      39.491  34.338  36.661  1.00  0.00     0.057 A 
ATOM     80  C   UNL A   1      38.850  34.030  37.867  1.00  0.00     0.134 A 
ATOM     81  C   UNL A   1      40.067  35.611  36.544  1.00  0.00     0.134 A 
ATOM     82  F   UNL A   1      38.269  32.833  38.043  1.00  0.00    -0.206 F 
ATOM     83  C   UNL A   1      38.763  34.959  38.907  1.00  0.00     0.040 A 
ATOM     84  C   UNL A   1      40.014  36.536  37.588  1.00  0.00     0.040 A 
ATOM     85  F   UNL A   1      40.708  35.969  35.422  1.00  0.00    -0.206 F 
ATOM     86  C   UNL A   1      39.354  36.214  38.771  1.00  0.00     0.006 A 
ENDBRANCH  62  79
ENDBRANCH  36  37
ENDBRANCH  29  31
ENDBRANCH  28  29
ENDBRANCH  27  28
ENDBRANCH  26  27
ENDBRANCH  25  26
ENDBRANCH  24  25
ENDBRANCH   1  24
TORSDOF 20
ENDMDL
