MODEL 1
REMARK VINA RESULT:     -11.2      0.000      0.000
REMARK SMILES Cc1cc(OC(F)(F)F)cc2c1O[C@H](C(F)(F)F)C(C(=O)OCCOCCOCCOC(=O)c1ccc(-c3c4nc(c(-c5c(F)cccc5F)c5ccc([nH]5)c(-c5c(F)cccc5F)c5nc(c(-c6c(F)cccc6F)c6ccc3[nH]6)C=C5)C=C4)cc1)=C2
REMARK SMILES IDX 26 1 25 2 24 3 23 4 22 5 20 6 21 7 19 8 1 9 2 10 3 11 12 12
REMARK SMILES IDX 4 13 11 14 13 15 10 16 88 17 14 18 5 19 6 20 7 21 8 22 9 23
REMARK SMILES IDX 15 24 16 25 17 26 18 27 27 28 28 29 29 30 30 31 31 32 32 33
REMARK SMILES IDX 33 34 34 35 35 36 87 37 36 38 86 39 37 40 38 41 39 42 80 43
REMARK SMILES IDX 40 44 85 45 79 46 81 47 41 48 84 49 78 50 77 51 42 53 68 54
REMARK SMILES IDX 51 55 67 56 52 57 55 58 66 59 82 60 53 61 54 62 65 64 83 65
REMARK SMILES IDX 56 66 43 67 44 68 49 69 45 70 46 71 48 72 50 73 47 74 69 75
REMARK SMILES IDX 70 76 75 77 71 78 72 79 74 80 76 81 73 82 57 83 58 84 63 85
REMARK SMILES IDX 59 86 60 87 62 88 64 89 61 90
REMARK H PARENT 81 52 55 63
REMARK Flexibility Score: inf
ROOT
ATOM      1  C   UNL A   1      31.219  29.311  24.638  1.00  0.00     0.188 C 
ENDROOT
BRANCH   1   2
ATOM      2  O   UNL A   1      31.545  28.985  23.301  1.00  0.00    -0.376 OA
BRANCH   2   3
ATOM      3  C   UNL A   1      30.965  27.853  22.675  1.00  0.00     0.202 C 
BRANCH   3   4
ATOM      4  C   UNL A   1      31.844  26.725  22.135  1.00  0.00     0.261 C 
BRANCH   4   5
ATOM      5  O   UNL A   1      31.286  25.418  22.334  1.00  0.00    -0.460 OA
BRANCH   5   6
ATOM      6  C   UNL A   1      31.282  24.985  23.617  1.00  0.00     0.338 C 
ATOM      7  O   UNL A   1      30.469  25.266  24.481  1.00  0.00    -0.246 OA
BRANCH   6   8
ATOM      8  C   UNL A   1      32.351  23.986  23.808  1.00  0.00     0.087 C 
ATOM      9  C   UNL A   1      36.626  21.504  25.103  1.00  0.00     0.048 C 
ATOM     10  C   UNL A   1      35.226  21.104  24.730  1.00  0.00    -0.005 A 
ATOM     11  C   UNL A   1      34.833  19.757  24.836  1.00  0.00     0.054 A 
ATOM     12  C   UNL A   1      34.284  22.071  24.345  1.00  0.00     0.131 A 
ATOM     13  C   UNL A   1      33.524  19.372  24.542  1.00  0.00     0.130 A 
ATOM     14  C   UNL A   1      32.966  21.694  24.081  1.00  0.00     0.021 A 
ATOM     15  O   UNL A   1      34.722  23.363  24.259  1.00  0.00    -0.475 OA
ATOM     16  C   UNL A   1      32.600  20.345  24.154  1.00  0.00     0.058 A 
ATOM     17  C   UNL A   1      31.963  22.706  23.806  1.00  0.00     0.027 C 
ATOM     18  C   UNL A   1      33.773  24.433  24.001  1.00  0.00     0.316 C 
BRANCH  13  19
ATOM     19  O   UNL A   1      33.017  18.106  24.603  1.00  0.00    -0.406 OA
BRANCH  19  20
ATOM     20  C   UNL A   1      33.449  17.173  23.625  1.00  0.00     0.573 C 
ATOM     21  F   UNL A   1      33.063  15.920  23.949  1.00  0.00    -0.132 F 
ATOM     22  F   UNL A   1      32.970  17.491  22.404  1.00  0.00    -0.132 F 
ATOM     23  F   UNL A   1      34.798  17.197  23.568  1.00  0.00    -0.132 F 
ENDBRANCH  19  20
ENDBRANCH  13  19
BRANCH  18  24
ATOM     24  C   UNL A   1      33.920  25.475  25.118  1.00  0.00     0.430 C 
ATOM     25  F   UNL A   1      33.785  26.734  24.637  1.00  0.00    -0.167 F 
ATOM     26  F   UNL A   1      32.976  25.325  26.076  1.00  0.00    -0.167 F 
ATOM     27  F   UNL A   1      35.126  25.399  25.724  1.00  0.00    -0.167 F 
ENDBRANCH  18  24
ENDBRANCH   6   8
ENDBRANCH   5   6
ENDBRANCH   4   5
ENDBRANCH   3   4
ENDBRANCH   2   3
ENDBRANCH   1   2
BRANCH   1  28
ATOM     28  C   UNL A   1      32.296  29.808  25.627  1.00  0.00     0.188 C 
BRANCH  28  29
ATOM     29  O   UNL A   1      31.949  30.569  26.762  1.00  0.00    -0.376 OA
BRANCH  29  30
ATOM     30  C   UNL A   1      31.436  31.885  26.631  1.00  0.00     0.202 C 
BRANCH  30  31
ATOM     31  C   UNL A   1      32.259  33.157  26.875  1.00  0.00     0.261 C 
BRANCH  31  32
ATOM     32  O   UNL A   1      32.178  33.725  28.184  1.00  0.00    -0.460 OA
BRANCH  32  33
ATOM     33  C   UNL A   1      33.195  34.565  28.502  1.00  0.00     0.338 C 
ATOM     34  O   UNL A   1      33.158  35.776  28.609  1.00  0.00    -0.246 OA
BRANCH  33  35
ATOM     35  C   UNL A   1      34.373  33.764  28.864  1.00  0.00     0.060 A 
ATOM     36  C   UNL A   1      34.201  32.642  29.685  1.00  0.00     0.016 A 
ATOM     37  C   UNL A   1      35.643  34.162  28.448  1.00  0.00     0.016 A 
ATOM     38  C   UNL A   1      35.311  31.918  30.113  1.00  0.00     0.010 A 
ATOM     39  C   UNL A   1      36.757  33.459  28.907  1.00  0.00     0.010 A 
ATOM     40  C   UNL A   1      36.595  32.355  29.763  1.00  0.00    -0.014 A 
BRANCH  40  41
ATOM     41  C   UNL A   1      37.780  31.809  30.459  1.00  0.00     0.031 A 
ATOM     42  C   UNL A   1      38.591  30.760  29.754  1.00  0.00     0.074 A 
ATOM     43  C   UNL A   1      38.106  32.207  31.699  1.00  0.00     0.049 A 
ATOM     44  N   UNL A   1      39.588  30.042  30.198  1.00  0.00    -0.248 NA
ATOM     45  C   UNL A   1      38.222  30.484  28.354  1.00  0.00     0.031 C 
ATOM     46  C   UNL A   1      37.428  33.253  32.460  1.00  0.00     0.029 A 
ATOM     47  N   UNL A   1      39.084  31.750  32.544  1.00  0.00    -0.354 N 
ATOM     48  C   UNL A   1      39.968  29.233  29.135  1.00  0.00     0.074 A 
ATOM     49  C   UNL A   1      39.080  29.530  28.033  1.00  0.00     0.031 C 
ATOM     50  C   UNL A   1      37.996  33.340  33.677  1.00  0.00     0.029 A 
ATOM     51  C   UNL A   1      39.044  32.327  33.790  1.00  0.00     0.049 A 
ATOM     52  H   UNL A   1      39.751  31.074  32.283  1.00  0.00     0.167 HD
ATOM     53  C   UNL A   1      40.969  28.322  29.084  1.00  0.00     0.037 A 
ATOM     54  C   UNL A   1      39.748  32.035  34.899  1.00  0.00     0.037 A 
ATOM     55  C   UNL A   1      41.822  28.001  30.195  1.00  0.00     0.049 A 
ATOM     56  C   UNL A   1      40.759  30.918  34.860  1.00  0.00     0.074 A 
ATOM     57  C   UNL A   1      42.870  27.100  30.249  1.00  0.00     0.029 A 
ATOM     58  N   UNL A   1      41.708  28.561  31.458  1.00  0.00    -0.354 N 
ATOM     59  N   UNL A   1      41.132  30.171  33.847  1.00  0.00    -0.248 NA
ATOM     60  C   UNL A   1      41.433  30.590  36.125  1.00  0.00     0.031 C 
ATOM     61  C   UNL A   1      43.353  27.073  31.561  1.00  0.00     0.029 A 
ATOM     62  C   UNL A   1      42.640  27.993  32.312  1.00  0.00     0.049 A 
ATOM     63  H   UNL A   1      41.061  29.258  31.711  1.00  0.00     0.167 HD
ATOM     64  C   UNL A   1      42.094  29.302  34.347  1.00  0.00     0.074 A 
ATOM     65  C   UNL A   1      42.260  29.625  35.750  1.00  0.00     0.031 C 
ATOM     66  C   UNL A   1      42.781  28.324  33.707  1.00  0.00     0.037 A 
BRANCH  53  67
ATOM     67  C   UNL A   1      41.154  27.587  27.791  1.00  0.00     0.057 A 
ATOM     68  C   UNL A   1      41.994  28.097  26.793  1.00  0.00     0.134 A 
ATOM     69  C   UNL A   1      40.504  26.372  27.532  1.00  0.00     0.134 A 
ATOM     70  F   UNL A   1      42.646  29.254  26.978  1.00  0.00    -0.206 F 
ATOM     71  C   UNL A   1      42.184  27.423  25.585  1.00  0.00     0.040 A 
ATOM     72  C   UNL A   1      40.706  25.677  26.339  1.00  0.00     0.040 A 
ATOM     73  F   UNL A   1      39.702  25.821  28.455  1.00  0.00    -0.206 F 
ATOM     74  C   UNL A   1      41.544  26.205  25.359  1.00  0.00     0.006 A 
ENDBRANCH  53  67
BRANCH  54  75
ATOM     75  C   UNL A   1      39.499  32.774  36.162  1.00  0.00     0.057 A 
ATOM     76  C   UNL A   1      40.200  33.943  36.477  1.00  0.00     0.134 A 
ATOM     77  C   UNL A   1      38.517  32.349  37.065  1.00  0.00     0.134 A 
ATOM     78  F   UNL A   1      41.149  34.407  35.649  1.00  0.00    -0.206 F 
ATOM     79  C   UNL A   1      39.941  34.661  37.645  1.00  0.00     0.040 A 
ATOM     80  C   UNL A   1      38.231  33.069  38.226  1.00  0.00     0.040 A 
ATOM     81  F   UNL A   1      37.792  31.251  36.805  1.00  0.00    -0.206 F 
ATOM     82  C   UNL A   1      38.947  34.227  38.520  1.00  0.00     0.006 A 
ENDBRANCH  54  75
BRANCH  66  83
ATOM     83  C   UNL A   1      43.777  27.543  34.514  1.00  0.00     0.057 A 
ATOM     84  C   UNL A   1      43.404  26.354  35.155  1.00  0.00     0.134 A 
ATOM     85  C   UNL A   1      45.094  27.987  34.687  1.00  0.00     0.134 A 
ATOM     86  F   UNL A   1      42.155  25.878  35.037  1.00  0.00    -0.206 F 
ATOM     87  C   UNL A   1      44.306  25.637  35.944  1.00  0.00     0.040 A 
ATOM     88  C   UNL A   1      46.012  27.264  35.452  1.00  0.00     0.040 A 
ATOM     89  F   UNL A   1      45.517  29.110  34.087  1.00  0.00    -0.206 F 
ATOM     90  C   UNL A   1      45.615  26.090  36.089  1.00  0.00     0.006 A 
ENDBRANCH  66  83
ENDBRANCH  40  41
ENDBRANCH  33  35
ENDBRANCH  32  33
ENDBRANCH  31  32
ENDBRANCH  30  31
ENDBRANCH  29  30
ENDBRANCH  28  29
ENDBRANCH   1  28
TORSDOF 20
ENDMDL
MODEL 2
REMARK VINA RESULT:     -11.1      4.492      8.873
REMARK SMILES Cc1cc(OC(F)(F)F)cc2c1O[C@H](C(F)(F)F)C(C(=O)OCCOCCOCCOC(=O)c1ccc(-c3c4nc(c(-c5c(F)cccc5F)c5ccc([nH]5)c(-c5c(F)cccc5F)c5nc(c(-c6c(F)cccc6F)c6ccc3[nH]6)C=C5)C=C4)cc1)=C2
REMARK SMILES IDX 26 1 25 2 24 3 23 4 22 5 20 6 21 7 19 8 1 9 2 10 3 11 12 12
REMARK SMILES IDX 4 13 11 14 13 15 10 16 88 17 14 18 5 19 6 20 7 21 8 22 9 23
REMARK SMILES IDX 15 24 16 25 17 26 18 27 27 28 28 29 29 30 30 31 31 32 32 33
REMARK SMILES IDX 33 34 34 35 35 36 87 37 36 38 86 39 37 40 38 41 39 42 80 43
REMARK SMILES IDX 40 44 85 45 79 46 81 47 41 48 84 49 78 50 77 51 42 53 68 54
REMARK SMILES IDX 51 55 67 56 52 57 55 58 66 59 82 60 53 61 54 62 65 64 83 65
REMARK SMILES IDX 56 66 43 67 44 68 49 69 45 70 46 71 48 72 50 73 47 74 69 75
REMARK SMILES IDX 70 76 75 77 71 78 72 79 74 80 76 81 73 82 57 83 58 84 63 85
REMARK SMILES IDX 59 86 60 87 62 88 64 89 61 90
REMARK H PARENT 81 52 55 63
REMARK Flexibility Score: inf
ROOT
ATOM      1  C   UNL A   1      34.268  30.852  27.264  1.00  0.00     0.188 C 
ENDROOT
BRANCH   1   2
ATOM      2  O   UNL A   1      33.999  29.489  27.525  1.00  0.00    -0.376 OA
BRANCH   2   3
ATOM      3  C   UNL A   1      33.105  28.762  26.699  1.00  0.00     0.202 C 
BRANCH   3   4
ATOM      4  C   UNL A   1      33.629  27.911  25.541  1.00  0.00     0.261 C 
BRANCH   4   5
ATOM      5  O   UNL A   1      33.122  26.569  25.541  1.00  0.00    -0.460 OA
BRANCH   5   6
ATOM      6  C   UNL A   1      32.762  26.093  24.325  1.00  0.00     0.338 C 
ATOM      7  O   UNL A   1      33.357  25.263  23.660  1.00  0.00    -0.246 OA
BRANCH   6   8
ATOM      8  C   UNL A   1      31.437  26.625  23.955  1.00  0.00     0.087 C 
ATOM      9  C   UNL A   1      26.475  27.835  23.746  1.00  0.00     0.048 C 
ATOM     10  C   UNL A   1      27.746  28.422  23.196  1.00  0.00    -0.005 A 
ATOM     11  C   UNL A   1      27.715  29.669  22.546  1.00  0.00     0.054 A 
ATOM     12  C   UNL A   1      28.976  27.773  23.388  1.00  0.00     0.131 A 
ATOM     13  C   UNL A   1      28.890  30.255  22.073  1.00  0.00     0.130 A 
ATOM     14  C   UNL A   1      30.156  28.370  22.943  1.00  0.00     0.021 A 
ATOM     15  O   UNL A   1      28.946  26.564  24.025  1.00  0.00    -0.475 OA
ATOM     16  C   UNL A   1      30.105  29.593  22.265  1.00  0.00     0.058 A 
ATOM     17  C   UNL A   1      31.438  27.762  23.250  1.00  0.00     0.027 C 
ATOM     18  C   UNL A   1      30.189  25.901  24.379  1.00  0.00     0.316 C 
BRANCH  13  19
ATOM     19  O   UNL A   1      28.997  31.453  21.427  1.00  0.00    -0.406 OA
BRANCH  19  20
ATOM     20  C   UNL A   1      28.349  32.575  22.004  1.00  0.00     0.573 C 
ATOM     21  F   UNL A   1      29.248  33.442  22.516  1.00  0.00    -0.132 F 
ATOM     22  F   UNL A   1      27.576  33.211  21.097  1.00  0.00    -0.132 F 
ATOM     23  F   UNL A   1      27.554  32.149  23.009  1.00  0.00    -0.132 F 
ENDBRANCH  19  20
ENDBRANCH  13  19
BRANCH  18  24
ATOM     24  C   UNL A   1      30.158  25.609  25.886  1.00  0.00     0.430 C 
ATOM     25  F   UNL A   1      30.564  26.684  26.603  1.00  0.00    -0.167 F 
ATOM     26  F   UNL A   1      28.911  25.307  26.316  1.00  0.00    -0.167 F 
ATOM     27  F   UNL A   1      30.962  24.573  26.216  1.00  0.00    -0.167 F 
ENDBRANCH  18  24
ENDBRANCH   6   8
ENDBRANCH   5   6
ENDBRANCH   4   5
ENDBRANCH   3   4
ENDBRANCH   2   3
ENDBRANCH   1   2
BRANCH   1  28
ATOM     28  C   UNL A   1      33.972  31.943  28.316  1.00  0.00     0.188 C 
BRANCH  28  29
ATOM     29  O   UNL A   1      34.283  33.296  28.072  1.00  0.00    -0.376 OA
BRANCH  29  30
ATOM     30  C   UNL A   1      33.991  34.298  29.032  1.00  0.00     0.202 C 
BRANCH  30  31
ATOM     31  C   UNL A   1      34.261  34.154  30.536  1.00  0.00     0.261 C 
BRANCH  31  32
ATOM     32  O   UNL A   1      35.606  33.857  30.914  1.00  0.00    -0.460 OA
BRANCH  32  33
ATOM     33  C   UNL A   1      35.736  32.818  31.777  1.00  0.00     0.338 C 
ATOM     34  O   UNL A   1      35.056  32.568  32.754  1.00  0.00    -0.246 OA
BRANCH  33  35
ATOM     35  C   UNL A   1      36.767  31.904  31.263  1.00  0.00     0.060 A 
ATOM     36  C   UNL A   1      37.591  31.233  32.177  1.00  0.00     0.016 A 
ATOM     37  C   UNL A   1      36.958  31.769  29.888  1.00  0.00     0.016 A 
ATOM     38  C   UNL A   1      38.630  30.430  31.713  1.00  0.00     0.010 A 
ATOM     39  C   UNL A   1      38.022  30.994  29.426  1.00  0.00     0.010 A 
ATOM     40  C   UNL A   1      38.877  30.348  30.337  1.00  0.00    -0.014 A 
BRANCH  40  41
ATOM     41  C   UNL A   1      40.149  29.778  29.844  1.00  0.00     0.031 A 
ATOM     42  C   UNL A   1      41.327  30.699  29.702  1.00  0.00     0.074 A 
ATOM     43  C   UNL A   1      40.245  28.485  29.497  1.00  0.00     0.049 A 
ATOM     44  N   UNL A   1      42.501  30.471  29.177  1.00  0.00    -0.248 NA
ATOM     45  C   UNL A   1      41.152  32.065  30.224  1.00  0.00     0.031 C 
ATOM     46  C   UNL A   1      39.189  27.486  29.641  1.00  0.00     0.029 A 
ATOM     47  N   UNL A   1      41.286  27.800  28.924  1.00  0.00    -0.354 N 
ATOM     48  C   UNL A   1      43.206  31.661  29.307  1.00  0.00     0.074 A 
ATOM     49  C   UNL A   1      42.321  32.615  29.938  1.00  0.00     0.031 C 
ATOM     50  C   UNL A   1      39.628  26.317  29.141  1.00  0.00     0.029 A 
ATOM     51  C   UNL A   1      40.976  26.501  28.606  1.00  0.00     0.049 A 
ATOM     52  H   UNL A   1      42.170  28.201  28.757  1.00  0.00     0.167 HD
ATOM     53  C   UNL A   1      44.478  31.934  28.932  1.00  0.00     0.037 A 
ATOM     54  C   UNL A   1      41.689  25.587  27.922  1.00  0.00     0.037 A 
ATOM     55  C   UNL A   1      45.340  30.995  28.268  1.00  0.00     0.049 A 
ATOM     56  C   UNL A   1      43.048  25.958  27.388  1.00  0.00     0.074 A 
ATOM     57  C   UNL A   1      46.648  31.166  27.852  1.00  0.00     0.029 A 
ATOM     58  N   UNL A   1      44.968  29.710  27.905  1.00  0.00    -0.354 N 
ATOM     59  N   UNL A   1      43.720  27.075  27.533  1.00  0.00    -0.248 NA
ATOM     60  C   UNL A   1      43.740  24.945  26.577  1.00  0.00     0.031 C 
ATOM     61  C   UNL A   1      47.047  30.002  27.186  1.00  0.00     0.029 A 
ATOM     62  C   UNL A   1      46.007  29.089  27.231  1.00  0.00     0.049 A 
ATOM     63  H   UNL A   1      44.094  29.299  28.098  1.00  0.00     0.167 HD
ATOM     64  C   UNL A   1      44.917  26.893  26.851  1.00  0.00     0.074 A 
ATOM     65  C   UNL A   1      44.887  25.552  26.306  1.00  0.00     0.031 C 
ATOM     66  C   UNL A   1      45.951  27.756  26.688  1.00  0.00     0.037 A 
BRANCH  53  67
ATOM     67  C   UNL A   1      44.984  33.319  29.201  1.00  0.00     0.057 A 
ATOM     68  C   UNL A   1      45.690  33.606  30.376  1.00  0.00     0.134 A 
ATOM     69  C   UNL A   1      44.777  34.369  28.296  1.00  0.00     0.134 A 
ATOM     70  F   UNL A   1      45.923  32.646  31.282  1.00  0.00    -0.206 F 
ATOM     71  C   UNL A   1      46.175  34.888  30.640  1.00  0.00     0.040 A 
ATOM     72  C   UNL A   1      45.279  35.649  28.538  1.00  0.00     0.040 A 
ATOM     73  F   UNL A   1      44.126  34.154  27.143  1.00  0.00    -0.206 F 
ATOM     74  C   UNL A   1      45.975  35.912  29.715  1.00  0.00     0.006 A 
ENDBRANCH  53  67
BRANCH  54  75
ATOM     75  C   UNL A   1      41.124  24.239  27.656  1.00  0.00     0.057 A 
ATOM     76  C   UNL A   1      40.144  24.037  26.677  1.00  0.00     0.134 A 
ATOM     77  C   UNL A   1      41.588  23.114  28.346  1.00  0.00     0.134 A 
ATOM     78  F   UNL A   1      39.663  25.073  25.976  1.00  0.00    -0.206 F 
ATOM     79  C   UNL A   1      39.640  22.766  26.399  1.00  0.00     0.040 A 
ATOM     80  C   UNL A   1      41.110  21.833  28.062  1.00  0.00     0.040 A 
ATOM     81  F   UNL A   1      42.547  23.241  29.275  1.00  0.00    -0.206 F 
ATOM     82  C   UNL A   1      40.130  21.658  27.087  1.00  0.00     0.006 A 
ENDBRANCH  54  75
BRANCH  66  83
ATOM     83  C   UNL A   1      47.132  27.271  25.899  1.00  0.00     0.057 A 
ATOM     84  C   UNL A   1      48.199  26.621  26.534  1.00  0.00     0.134 A 
ATOM     85  C   UNL A   1      47.230  27.479  24.517  1.00  0.00     0.134 A 
ATOM     86  F   UNL A   1      48.171  26.397  27.857  1.00  0.00    -0.206 F 
ATOM     87  C   UNL A   1      49.323  26.200  25.823  1.00  0.00     0.040 A 
ATOM     88  C   UNL A   1      48.339  27.040  23.792  1.00  0.00     0.040 A 
ATOM     89  F   UNL A   1      46.236  28.082  23.850  1.00  0.00    -0.206 F 
ATOM     90  C   UNL A   1      49.393  26.405  24.447  1.00  0.00     0.006 A 
ENDBRANCH  66  83
ENDBRANCH  40  41
ENDBRANCH  33  35
ENDBRANCH  32  33
ENDBRANCH  31  32
ENDBRANCH  30  31
ENDBRANCH  29  30
ENDBRANCH  28  29
ENDBRANCH   1  28
TORSDOF 20
ENDMDL
MODEL 3
REMARK VINA RESULT:     -10.8      1.135      6.058
REMARK SMILES Cc1cc(OC(F)(F)F)cc2c1O[C@H](C(F)(F)F)C(C(=O)OCCOCCOCCOC(=O)c1ccc(-c3c4nc(c(-c5c(F)cccc5F)c5ccc([nH]5)c(-c5c(F)cccc5F)c5nc(c(-c6c(F)cccc6F)c6ccc3[nH]6)C=C5)C=C4)cc1)=C2
REMARK SMILES IDX 26 1 25 2 24 3 23 4 22 5 20 6 21 7 19 8 1 9 2 10 3 11 12 12
REMARK SMILES IDX 4 13 11 14 13 15 10 16 88 17 14 18 5 19 6 20 7 21 8 22 9 23
REMARK SMILES IDX 15 24 16 25 17 26 18 27 27 28 28 29 29 30 30 31 31 32 32 33
REMARK SMILES IDX 33 34 34 35 35 36 87 37 36 38 86 39 37 40 38 41 39 42 80 43
REMARK SMILES IDX 40 44 85 45 79 46 81 47 41 48 84 49 78 50 77 51 42 53 68 54
REMARK SMILES IDX 51 55 67 56 52 57 55 58 66 59 82 60 53 61 54 62 65 64 83 65
REMARK SMILES IDX 56 66 43 67 44 68 49 69 45 70 46 71 48 72 50 73 47 74 69 75
REMARK SMILES IDX 70 76 75 77 71 78 72 79 74 80 76 81 73 82 57 83 58 84 63 85
REMARK SMILES IDX 59 86 60 87 62 88 64 89 61 90
REMARK H PARENT 81 52 55 63
REMARK Flexibility Score: inf
ROOT
ATOM      1  C   UNL A   1      31.345  29.085  24.820  1.00  0.00     0.188 C 
ENDROOT
BRANCH   1   2
ATOM      2  O   UNL A   1      31.775  28.695  23.531  1.00  0.00    -0.376 OA
BRANCH   2   3
ATOM      3  C   UNL A   1      31.128  27.634  22.848  1.00  0.00     0.202 C 
BRANCH   3   4
ATOM      4  C   UNL A   1      31.921  26.416  22.371  1.00  0.00     0.261 C 
BRANCH   4   5
ATOM      5  O   UNL A   1      31.286  25.166  22.672  1.00  0.00    -0.460 OA
BRANCH   5   6
ATOM      6  C   UNL A   1      31.396  24.762  23.960  1.00  0.00     0.338 C 
ATOM      7  O   UNL A   1      30.673  25.075  24.889  1.00  0.00    -0.246 OA
BRANCH   6   8
ATOM      8  C   UNL A   1      32.462  23.748  24.072  1.00  0.00     0.087 C 
ATOM      9  C   UNL A   1      36.764  21.188  25.104  1.00  0.00     0.048 C 
ATOM     10  C   UNL A   1      35.346  20.813  24.776  1.00  0.00    -0.005 A 
ATOM     11  C   UNL A   1      34.945  19.467  24.854  1.00  0.00     0.054 A 
ATOM     12  C   UNL A   1      34.398  21.800  24.464  1.00  0.00     0.131 A 
ATOM     13  C   UNL A   1      33.621  19.102  24.603  1.00  0.00     0.130 A 
ATOM     14  C   UNL A   1      33.067  21.442  24.243  1.00  0.00     0.021 A 
ATOM     15  O   UNL A   1      34.844  23.090  24.403  1.00  0.00    -0.475 OA
ATOM     16  C   UNL A   1      32.691  20.095  24.286  1.00  0.00     0.058 A 
ATOM     17  C   UNL A   1      32.063  22.471  24.043  1.00  0.00     0.027 C 
ATOM     18  C   UNL A   1      33.896  24.176  24.220  1.00  0.00     0.316 C 
BRANCH  13  19
ATOM     19  O   UNL A   1      33.105  17.839  24.642  1.00  0.00    -0.406 OA
BRANCH  19  20
ATOM     20  C   UNL A   1      33.817  16.813  23.969  1.00  0.00     0.573 C 
ATOM     21  F   UNL A   1      34.193  17.214  22.736  1.00  0.00    -0.132 F 
ATOM     22  F   UNL A   1      34.906  16.434  24.671  1.00  0.00    -0.132 F 
ATOM     23  F   UNL A   1      33.008  15.740  23.835  1.00  0.00    -0.132 F 
ENDBRANCH  19  20
ENDBRANCH  13  19
BRANCH  18  24
ATOM     24  C   UNL A   1      34.099  25.179  25.365  1.00  0.00     0.430 C 
ATOM     25  F   UNL A   1      33.324  24.868  26.433  1.00  0.00    -0.167 F 
ATOM     26  F   UNL A   1      35.378  25.190  25.806  1.00  0.00    -0.167 F 
ATOM     27  F   UNL A   1      33.789  26.440  24.991  1.00  0.00    -0.167 F 
ENDBRANCH  18  24
ENDBRANCH   6   8
ENDBRANCH   5   6
ENDBRANCH   4   5
ENDBRANCH   3   4
ENDBRANCH   2   3
ENDBRANCH   1   2
BRANCH   1  28
ATOM     28  C   UNL A   1      32.302  29.794  25.803  1.00  0.00     0.188 C 
BRANCH  28  29
ATOM     29  O   UNL A   1      31.808  30.585  26.860  1.00  0.00    -0.376 OA
BRANCH  29  30
ATOM     30  C   UNL A   1      31.492  31.953  26.663  1.00  0.00     0.202 C 
BRANCH  30  31
ATOM     31  C   UNL A   1      32.407  33.116  27.072  1.00  0.00     0.261 C 
BRANCH  31  32
ATOM     32  O   UNL A   1      32.227  33.632  28.392  1.00  0.00    -0.460 OA
BRANCH  32  33
ATOM     33  C   UNL A   1      32.984  34.719  28.684  1.00  0.00     0.338 C 
ATOM     34  O   UNL A   1      32.701  35.892  28.527  1.00  0.00    -0.246 OA
BRANCH  33  35
ATOM     35  C   UNL A   1      34.195  34.275  29.391  1.00  0.00     0.060 A 
ATOM     36  C   UNL A   1      35.425  34.329  28.722  1.00  0.00     0.016 A 
ATOM     37  C   UNL A   1      34.099  33.749  30.678  1.00  0.00     0.016 A 
ATOM     38  C   UNL A   1      36.572  33.833  29.338  1.00  0.00     0.010 A 
ATOM     39  C   UNL A   1      35.240  33.221  31.280  1.00  0.00     0.010 A 
ATOM     40  C   UNL A   1      36.471  33.234  30.599  1.00  0.00    -0.014 A 
BRANCH  40  41
ATOM     41  C   UNL A   1      37.589  32.422  31.126  1.00  0.00     0.031 A 
ATOM     42  C   UNL A   1      38.314  32.924  32.343  1.00  0.00     0.074 A 
ATOM     43  C   UNL A   1      37.975  31.289  30.519  1.00  0.00     0.049 A 
ATOM     44  N   UNL A   1      39.396  32.465  32.914  1.00  0.00    -0.248 NA
ATOM     45  C   UNL A   1      37.736  34.108  33.002  1.00  0.00     0.031 C 
ATOM     46  C   UNL A   1      37.317  30.676  29.368  1.00  0.00     0.029 A 
ATOM     47  N   UNL A   1      39.039  30.465  30.782  1.00  0.00    -0.354 N 
ATOM     48  C   UNL A   1      39.627  33.300  34.000  1.00  0.00     0.074 A 
ATOM     49  C   UNL A   1      38.589  34.307  33.994  1.00  0.00     0.031 C 
ATOM     50  C   UNL A   1      38.012  29.583  29.003  1.00  0.00     0.029 A 
ATOM     51  C   UNL A   1      39.182  29.449  29.869  1.00  0.00     0.049 A 
ATOM     52  H   UNL A   1      39.642  30.590  31.550  1.00  0.00     0.167 HD
ATOM     53  C   UNL A   1      40.618  33.233  34.919  1.00  0.00     0.037 A 
ATOM     54  C   UNL A   1      40.171  28.546  29.731  1.00  0.00     0.037 A 
ATOM     55  C   UNL A   1      41.671  32.256  34.897  1.00  0.00     0.049 A 
ATOM     56  C   UNL A   1      41.341  28.580  30.681  1.00  0.00     0.074 A 
ATOM     57  C   UNL A   1      42.721  32.094  35.784  1.00  0.00     0.029 A 
ATOM     58  N   UNL A   1      41.818  31.283  33.920  1.00  0.00    -0.354 N 
ATOM     59  N   UNL A   1      41.544  29.355  31.720  1.00  0.00    -0.248 NA
ATOM     60  C   UNL A   1      42.428  27.624  30.426  1.00  0.00     0.031 C 
ATOM     61  C   UNL A   1      43.534  31.058  35.311  1.00  0.00     0.029 A 
ATOM     62  C   UNL A   1      42.965  30.543  34.158  1.00  0.00     0.049 A 
ATOM     63  H   UNL A   1      41.198  31.139  33.169  1.00  0.00     0.167 HD
ATOM     64  C   UNL A   1      42.768  28.968  32.251  1.00  0.00     0.074 A 
ATOM     65  C   UNL A   1      43.255  27.878  31.431  1.00  0.00     0.031 C 
ATOM     66  C   UNL A   1      43.434  29.468  33.322  1.00  0.00     0.037 A 
BRANCH  53  67
ATOM     67  C   UNL A   1      40.620  34.277  35.995  1.00  0.00     0.057 A 
ATOM     68  C   UNL A   1      40.005  34.033  37.229  1.00  0.00     0.134 A 
ATOM     69  C   UNL A   1      41.233  35.525  35.813  1.00  0.00     0.134 A 
ATOM     70  F   UNL A   1      39.401  32.859  37.468  1.00  0.00    -0.206 F 
ATOM     71  C   UNL A   1      40.002  34.990  38.245  1.00  0.00     0.040 A 
ATOM     72  C   UNL A   1      41.259  36.480  36.830  1.00  0.00     0.040 A 
ATOM     73  F   UNL A   1      41.858  35.812  34.661  1.00  0.00    -0.206 F 
ATOM     74  C   UNL A   1      40.637  36.216  38.048  1.00  0.00     0.006 A 
ENDBRANCH  53  67
BRANCH  54  75
ATOM     75  C   UNL A   1      40.134  27.555  28.626  1.00  0.00     0.057 A 
ATOM     76  C   UNL A   1      40.754  27.806  27.397  1.00  0.00     0.134 A 
ATOM     77  C   UNL A   1      39.514  26.311  28.794  1.00  0.00     0.134 A 
ATOM     78  F   UNL A   1      41.372  28.976  27.176  1.00  0.00    -0.206 F 
ATOM     79  C   UNL A   1      40.755  26.860  26.371  1.00  0.00     0.040 A 
ATOM     80  C   UNL A   1      39.527  25.347  27.784  1.00  0.00     0.040 A 
ATOM     81  F   UNL A   1      38.929  26.002  29.960  1.00  0.00    -0.206 F 
ATOM     82  C   UNL A   1      40.146  25.622  26.567  1.00  0.00     0.006 A 
ENDBRANCH  54  75
BRANCH  66  83
ATOM     83  C   UNL A   1      44.750  28.835  33.669  1.00  0.00     0.057 A 
ATOM     84  C   UNL A   1      45.943  29.308  33.106  1.00  0.00     0.134 A 
ATOM     85  C   UNL A   1      44.832  27.734  34.531  1.00  0.00     0.134 A 
ATOM     86  F   UNL A   1      45.932  30.354  32.266  1.00  0.00    -0.206 F 
ATOM     87  C   UNL A   1      47.170  28.705  33.385  1.00  0.00     0.040 A 
ATOM     88  C   UNL A   1      46.058  27.139  34.838  1.00  0.00     0.040 A 
ATOM     89  F   UNL A   1      43.728  27.243  35.113  1.00  0.00    -0.206 F 
ATOM     90  C   UNL A   1      47.230  27.620  34.257  1.00  0.00     0.006 A 
ENDBRANCH  66  83
ENDBRANCH  40  41
ENDBRANCH  33  35
ENDBRANCH  32  33
ENDBRANCH  31  32
ENDBRANCH  30  31
ENDBRANCH  29  30
ENDBRANCH  28  29
ENDBRANCH   1  28
TORSDOF 20
ENDMDL
