MODEL 1
REMARK VINA RESULT:     -10.1      0.000      0.000
REMARK SMILES CCOC(=O)NC(=O)COc1csc(C(=O)OCCOCCOCCOC(=O)c2ccc(-c3c4nc(c(-c5c(F)cccc5F)c5ccc([nH]5)c(-c5c(F)cccc5F)c5nc(c(-c6c(F)cccc6F)c6ccc3[nH]6)C=C5)C=C4)cc2)c1
REMARK SMILES IDX 20 1 19 2 18 3 17 4 15 5 16 6 14 7 11 8 12 9 83 10 13 11
REMARK SMILES IDX 10 12 9 13 7 14 4 15 5 16 6 17 8 19 3 20 2 21 1 22 21 23
REMARK SMILES IDX 22 24 23 25 24 26 25 27 26 28 27 29 28 30 29 31 30 32 82 33
REMARK SMILES IDX 31 34 81 35 32 36 33 37 34 38 75 39 35 40 80 41 74 42 76 43
REMARK SMILES IDX 36 44 79 45 73 46 72 47 37 49 63 50 46 51 62 52 47 53 50 54
REMARK SMILES IDX 61 55 77 56 48 57 49 58 60 60 78 61 51 62 38 63 39 64 44 65
REMARK SMILES IDX 40 66 41 67 43 68 45 69 42 70 64 71 65 72 70 73 66 74 67 75
REMARK SMILES IDX 69 76 71 77 68 78 52 79 53 80 58 81 54 82 55 83 57 84 59 85
REMARK SMILES IDX 56 86
REMARK H PARENT 6 18 76 48 50 59
REMARK Flexibility Score: inf
ROOT
ATOM      1  O   UNL A   1      40.721  20.702  26.900  1.00  0.00    -0.376 OA
ENDROOT
BRANCH   1   2
ATOM      2  C   UNL A   1      40.328  21.871  26.192  1.00  0.00     0.202 C 
BRANCH   2   3
ATOM      3  C   UNL A   1      38.910  22.416  26.406  1.00  0.00     0.261 C 
BRANCH   3   4
ATOM      4  O   UNL A   1      38.136  22.550  25.202  1.00  0.00    -0.459 OA
BRANCH   4   5
ATOM      5  C   UNL A   1      37.393  21.457  24.851  1.00  0.00     0.348 C 
ATOM      6  O   UNL A   1      37.726  20.295  25.049  1.00  0.00    -0.245 OA
BRANCH   5   7
ATOM      7  C   UNL A   1      36.108  21.885  24.336  1.00  0.00     0.116 A 
ATOM      8  C   UNL A   1      34.387  22.904  23.119  1.00  0.00     0.131 A 
ATOM      9  C   UNL A   1      33.686  22.326  24.151  1.00  0.00     0.112 A 
ATOM     10  C   UNL A   1      35.795  22.697  23.263  1.00  0.00     0.074 A 
ATOM     11  S   UNL A   1      34.693  21.389  25.168  1.00  0.00    -0.133 S 
BRANCH   8  12
ATOM     12  O   UNL A   1      33.898  23.584  22.054  1.00  0.00    -0.483 OA
BRANCH  12  13
ATOM     13  C   UNL A   1      33.227  24.805  22.280  1.00  0.00     0.329 C 
BRANCH  13  14
ATOM     14  C   UNL A   1      32.692  25.721  21.167  1.00  0.00     0.267 C 
ATOM     15  C   UNL A   1      31.160  27.198  22.550  1.00  0.00     0.413 C 
ATOM     16  O   UNL A   1      30.415  28.169  22.489  1.00  0.00    -0.224 OA
ATOM     17  N   UNL A   1      31.803  26.736  21.426  1.00  0.00    -0.258 N 
ATOM     18  H   UNL A   1      31.573  27.251  20.619  1.00  0.00     0.176 HD
ATOM     19  O   UNL A   1      33.042  25.546  19.994  1.00  0.00    -0.271 OA
BRANCH  15  20
ATOM     20  O   UNL A   1      31.425  26.495  23.670  1.00  0.00    -0.450 OA
BRANCH  20  21
ATOM     21  C   UNL A   1      31.722  27.265  24.845  1.00  0.00     0.231 C 
ATOM     22  C   UNL A   1      33.210  27.250  25.148  1.00  0.00     0.049 C 
ENDBRANCH  20  21
ENDBRANCH  15  20
ENDBRANCH  13  14
ENDBRANCH  12  13
ENDBRANCH   8  12
ENDBRANCH   5   7
ENDBRANCH   4   5
ENDBRANCH   3   4
ENDBRANCH   2   3
ENDBRANCH   1   2
BRANCH   1  23
ATOM     23  C   UNL A   1      41.135  19.542  26.188  1.00  0.00     0.188 C 
BRANCH  23  24
ATOM     24  C   UNL A   1      42.633  19.186  26.077  1.00  0.00     0.188 C 
BRANCH  24  25
ATOM     25  O   UNL A   1      43.285  19.804  24.984  1.00  0.00    -0.376 OA
BRANCH  25  26
ATOM     26  C   UNL A   1      44.184  20.858  25.284  1.00  0.00     0.202 C 
BRANCH  26  27
ATOM     27  C   UNL A   1      44.077  22.144  24.449  1.00  0.00     0.261 C 
BRANCH  27  28
ATOM     28  O   UNL A   1      43.460  23.270  25.093  1.00  0.00    -0.460 OA
BRANCH  28  29
ATOM     29  C   UNL A   1      44.200  24.393  25.224  1.00  0.00     0.338 C 
ATOM     30  O   UNL A   1      45.192  24.701  24.591  1.00  0.00    -0.246 OA
BRANCH  29  31
ATOM     31  C   UNL A   1      43.502  25.277  26.182  1.00  0.00     0.060 A 
ATOM     32  C   UNL A   1      43.823  26.640  26.211  1.00  0.00     0.016 A 
ATOM     33  C   UNL A   1      42.535  24.759  27.048  1.00  0.00     0.016 A 
ATOM     34  C   UNL A   1      43.191  27.486  27.129  1.00  0.00     0.010 A 
ATOM     35  C   UNL A   1      41.916  25.604  27.975  1.00  0.00     0.010 A 
ATOM     36  C   UNL A   1      42.260  26.965  28.039  1.00  0.00    -0.014 A 
BRANCH  36  37
ATOM     37  C   UNL A   1      41.767  27.800  29.163  1.00  0.00     0.031 A 
ATOM     38  C   UNL A   1      42.485  27.730  30.482  1.00  0.00     0.074 A 
ATOM     39  C   UNL A   1      40.702  28.608  29.022  1.00  0.00     0.049 A 
ATOM     40  N   UNL A   1      42.217  28.334  31.611  1.00  0.00    -0.248 NA
ATOM     41  C   UNL A   1      43.668  26.855  30.531  1.00  0.00     0.031 C 
ATOM     42  C   UNL A   1      39.940  28.798  27.791  1.00  0.00     0.029 A 
ATOM     43  N   UNL A   1      40.076  29.418  29.937  1.00  0.00    -0.354 N 
ATOM     44  C   UNL A   1      43.194  27.912  32.504  1.00  0.00     0.074 A 
ATOM     45  C   UNL A   1      44.038  26.974  31.796  1.00  0.00     0.031 C 
ATOM     46  C   UNL A   1      38.944  29.670  28.028  1.00  0.00     0.029 A 
ATOM     47  C   UNL A   1      38.981  30.074  29.432  1.00  0.00     0.049 A 
ATOM     48  H   UNL A   1      40.384  29.519  30.867  1.00  0.00     0.167 HD
ATOM     49  C   UNL A   1      43.378  28.278  33.795  1.00  0.00     0.037 A 
ATOM     50  C   UNL A   1      38.102  30.893  30.041  1.00  0.00     0.037 A 
ATOM     51  C   UNL A   1      42.530  29.197  34.507  1.00  0.00     0.049 A 
ATOM     52  C   UNL A   1      38.269  31.213  31.503  1.00  0.00     0.074 A 
ATOM     53  C   UNL A   1      42.644  29.643  35.813  1.00  0.00     0.029 A 
ATOM     54  N   UNL A   1      41.400  29.799  33.976  1.00  0.00    -0.354 N 
ATOM     55  N   UNL A   1      39.210  30.833  32.332  1.00  0.00    -0.248 NA
ATOM     56  C   UNL A   1      37.245  32.075  32.113  1.00  0.00     0.031 C 
ATOM     57  C   UNL A   1      41.552  30.475  36.087  1.00  0.00     0.029 A 
ATOM     58  C   UNL A   1      40.787  30.589  34.936  1.00  0.00     0.049 A 
ATOM     59  H   UNL A   1      41.079  29.683  33.052  1.00  0.00     0.167 HD
ATOM     60  C   UNL A   1      38.913  31.433  33.551  1.00  0.00     0.074 A 
ATOM     61  C   UNL A   1      37.703  32.206  33.351  1.00  0.00     0.031 C 
ATOM     62  C   UNL A   1      39.585  31.355  34.726  1.00  0.00     0.037 A 
BRANCH  49  63
ATOM     63  C   UNL A   1      44.529  27.645  34.523  1.00  0.00     0.057 A 
ATOM     64  C   UNL A   1      45.803  28.227  34.543  1.00  0.00     0.134 A 
ATOM     65  C   UNL A   1      44.363  26.430  35.198  1.00  0.00     0.134 A 
ATOM     66  F   UNL A   1      46.034  29.382  33.901  1.00  0.00    -0.206 F 
ATOM     67  C   UNL A   1      46.881  27.603  35.177  1.00  0.00     0.040 A 
ATOM     68  C   UNL A   1      45.426  25.811  35.860  1.00  0.00     0.040 A 
ATOM     69  F   UNL A   1      43.169  25.820  35.223  1.00  0.00    -0.206 F 
ATOM     70  C   UNL A   1      46.691  26.393  35.840  1.00  0.00     0.006 A 
ENDBRANCH  49  63
BRANCH  50  71
ATOM     71  C   UNL A   1      36.981  31.482  29.265  1.00  0.00     0.057 A 
ATOM     72  C   UNL A   1      37.032  32.806  28.816  1.00  0.00     0.134 A 
ATOM     73  C   UNL A   1      35.835  30.739  28.957  1.00  0.00     0.134 A 
ATOM     74  F   UNL A   1      38.092  33.575  29.104  1.00  0.00    -0.206 F 
ATOM     75  C   UNL A   1      35.982  33.374  28.093  1.00  0.00     0.040 A 
ATOM     76  C   UNL A   1      34.786  31.288  28.217  1.00  0.00     0.040 A 
ATOM     77  F   UNL A   1      35.722  29.467  29.365  1.00  0.00    -0.206 F 
ATOM     78  C   UNL A   1      34.857  32.611  27.786  1.00  0.00     0.006 A 
ENDBRANCH  50  71
BRANCH  62  79
ATOM     79  C   UNL A   1      39.052  32.154  35.882  1.00  0.00     0.057 A 
ATOM     80  C   UNL A   1      38.186  31.598  36.832  1.00  0.00     0.134 A 
ATOM     81  C   UNL A   1      39.445  33.486  36.068  1.00  0.00     0.134 A 
ATOM     82  F   UNL A   1      37.761  30.331  36.706  1.00  0.00    -0.206 F 
ATOM     83  C   UNL A   1      37.714  32.343  37.915  1.00  0.00     0.040 A 
ATOM     84  C   UNL A   1      39.001  34.233  37.161  1.00  0.00     0.040 A 
ATOM     85  F   UNL A   1      40.280  34.077  35.200  1.00  0.00    -0.206 F 
ATOM     86  C   UNL A   1      38.129  33.663  38.086  1.00  0.00     0.006 A 
ENDBRANCH  62  79
ENDBRANCH  36  37
ENDBRANCH  29  31
ENDBRANCH  28  29
ENDBRANCH  27  28
ENDBRANCH  26  27
ENDBRANCH  25  26
ENDBRANCH  24  25
ENDBRANCH  23  24
ENDBRANCH   1  23
TORSDOF 22
ENDMDL
MODEL 2
REMARK VINA RESULT:     -10.1      1.408      2.294
REMARK SMILES CCOC(=O)NC(=O)COc1csc(C(=O)OCCOCCOCCOC(=O)c2ccc(-c3c4nc(c(-c5c(F)cccc5F)c5ccc([nH]5)c(-c5c(F)cccc5F)c5nc(c(-c6c(F)cccc6F)c6ccc3[nH]6)C=C5)C=C4)cc2)c1
REMARK SMILES IDX 20 1 19 2 18 3 17 4 15 5 16 6 14 7 11 8 12 9 83 10 13 11
REMARK SMILES IDX 10 12 9 13 7 14 4 15 5 16 6 17 8 19 3 20 2 21 1 22 21 23
REMARK SMILES IDX 22 24 23 25 24 26 25 27 26 28 27 29 28 30 29 31 30 32 82 33
REMARK SMILES IDX 31 34 81 35 32 36 33 37 34 38 75 39 35 40 80 41 74 42 76 43
REMARK SMILES IDX 36 44 79 45 73 46 72 47 37 49 63 50 46 51 62 52 47 53 50 54
REMARK SMILES IDX 61 55 77 56 48 57 49 58 60 60 78 61 51 62 38 63 39 64 44 65
REMARK SMILES IDX 40 66 41 67 43 68 45 69 42 70 64 71 65 72 70 73 66 74 67 75
REMARK SMILES IDX 69 76 71 77 68 78 52 79 53 80 58 81 54 82 55 83 57 84 59 85
REMARK SMILES IDX 56 86
REMARK H PARENT 6 18 76 48 50 59
REMARK Flexibility Score: inf
ROOT
ATOM      1  O   UNL A   1      40.300  20.790  26.828  1.00  0.00    -0.376 OA
ENDROOT
BRANCH   1   2
ATOM      2  C   UNL A   1      39.855  21.906  26.068  1.00  0.00     0.202 C 
BRANCH   2   3
ATOM      3  C   UNL A   1      38.371  22.291  26.130  1.00  0.00     0.261 C 
BRANCH   3   4
ATOM      4  O   UNL A   1      37.612  21.919  24.967  1.00  0.00    -0.459 OA
BRANCH   4   5
ATOM      5  C   UNL A   1      36.986  20.704  25.032  1.00  0.00     0.348 C 
ATOM      6  O   UNL A   1      37.535  19.626  24.840  1.00  0.00    -0.245 OA
BRANCH   5   7
ATOM      7  C   UNL A   1      35.622  20.881  25.488  1.00  0.00     0.116 A 
ATOM      8  C   UNL A   1      33.690  21.541  26.633  1.00  0.00     0.131 A 
ATOM      9  C   UNL A   1      33.205  20.524  25.845  1.00  0.00     0.112 A 
ATOM     10  C   UNL A   1      35.101  21.704  26.467  1.00  0.00     0.074 A 
ATOM     11  S   UNL A   1      34.398  19.908  24.784  1.00  0.00    -0.133 S 
BRANCH   8  12
ATOM     12  O   UNL A   1      32.999  22.349  27.474  1.00  0.00    -0.483 OA
BRANCH  12  13
ATOM     13  C   UNL A   1      32.294  23.445  26.933  1.00  0.00     0.329 C 
BRANCH  13  14
ATOM     14  C   UNL A   1      30.792  23.435  26.605  1.00  0.00     0.267 C 
ATOM     15  C   UNL A   1      30.884  24.302  24.222  1.00  0.00     0.413 C 
ATOM     16  O   UNL A   1      30.193  24.551  23.241  1.00  0.00    -0.224 OA
ATOM     17  N   UNL A   1      30.313  23.823  25.378  1.00  0.00    -0.258 N 
ATOM     18  H   UNL A   1      29.334  23.737  25.310  1.00  0.00     0.176 HD
ATOM     19  O   UNL A   1      29.969  23.092  27.463  1.00  0.00    -0.271 OA
BRANCH  15  20
ATOM     20  O   UNL A   1      32.221  24.464  24.289  1.00  0.00    -0.450 OA
BRANCH  20  21
ATOM     21  C   UNL A   1      32.934  24.351  23.048  1.00  0.00     0.231 C 
ATOM     22  C   UNL A   1      34.048  23.323  23.147  1.00  0.00     0.049 C 
ENDBRANCH  20  21
ENDBRANCH  15  20
ENDBRANCH  13  14
ENDBRANCH  12  13
ENDBRANCH   8  12
ENDBRANCH   5   7
ENDBRANCH   4   5
ENDBRANCH   3   4
ENDBRANCH   2   3
ENDBRANCH   1   2
BRANCH   1  23
ATOM     23  C   UNL A   1      40.724  19.601  26.170  1.00  0.00     0.188 C 
BRANCH  23  24
ATOM     24  C   UNL A   1      42.208  19.178  26.201  1.00  0.00     0.188 C 
BRANCH  24  25
ATOM     25  O   UNL A   1      42.972  19.704  25.133  1.00  0.00    -0.376 OA
BRANCH  25  26
ATOM     26  C   UNL A   1      44.180  20.365  25.470  1.00  0.00     0.202 C 
BRANCH  26  27
ATOM     27  C   UNL A   1      44.430  21.750  24.853  1.00  0.00     0.261 C 
BRANCH  27  28
ATOM     28  O   UNL A   1      43.715  22.847  25.442  1.00  0.00    -0.460 OA
BRANCH  28  29
ATOM     29  C   UNL A   1      44.214  24.088  25.252  1.00  0.00     0.338 C 
ATOM     30  O   UNL A   1      44.991  24.447  24.386  1.00  0.00    -0.246 OA
BRANCH  29  31
ATOM     31  C   UNL A   1      43.530  24.994  26.199  1.00  0.00     0.060 A 
ATOM     32  C   UNL A   1      43.874  26.351  26.215  1.00  0.00     0.016 A 
ATOM     33  C   UNL A   1      42.553  24.502  27.069  1.00  0.00     0.016 A 
ATOM     34  C   UNL A   1      43.255  27.217  27.123  1.00  0.00     0.010 A 
ATOM     35  C   UNL A   1      41.947  25.366  27.986  1.00  0.00     0.010 A 
ATOM     36  C   UNL A   1      42.314  26.722  28.037  1.00  0.00    -0.014 A 
BRANCH  36  37
ATOM     37  C   UNL A   1      41.833  27.576  29.151  1.00  0.00     0.031 A 
ATOM     38  C   UNL A   1      42.557  27.518  30.468  1.00  0.00     0.074 A 
ATOM     39  C   UNL A   1      40.775  28.392  29.004  1.00  0.00     0.049 A 
ATOM     40  N   UNL A   1      42.299  28.140  31.590  1.00  0.00    -0.248 NA
ATOM     41  C   UNL A   1      43.732  26.634  30.524  1.00  0.00     0.031 C 
ATOM     42  C   UNL A   1      40.009  28.571  27.774  1.00  0.00     0.029 A 
ATOM     43  N   UNL A   1      40.160  29.220  29.910  1.00  0.00    -0.354 N 
ATOM     44  C   UNL A   1      43.276  27.723  32.484  1.00  0.00     0.074 A 
ATOM     45  C   UNL A   1      44.109  26.768  31.786  1.00  0.00     0.031 C 
ATOM     46  C   UNL A   1      39.022  29.455  28.002  1.00  0.00     0.029 A 
ATOM     47  C   UNL A   1      39.069  29.879  29.401  1.00  0.00     0.049 A 
ATOM     48  H   UNL A   1      40.472  29.331  30.837  1.00  0.00     0.167 HD
ATOM     49  C   UNL A   1      43.469  28.105  33.769  1.00  0.00     0.037 A 
ATOM     50  C   UNL A   1      38.199  30.714  30.002  1.00  0.00     0.037 A 
ATOM     51  C   UNL A   1      42.633  29.041  34.472  1.00  0.00     0.049 A 
ATOM     52  C   UNL A   1      38.375  31.053  31.459  1.00  0.00     0.074 A 
ATOM     53  C   UNL A   1      42.756  29.504  35.771  1.00  0.00     0.029 A 
ATOM     54  N   UNL A   1      41.505  29.645  33.938  1.00  0.00    -0.354 N 
ATOM     55  N   UNL A   1      39.317  30.676  32.289  1.00  0.00    -0.248 NA
ATOM     56  C   UNL A   1      37.362  31.932  32.061  1.00  0.00     0.031 C 
ATOM     57  C   UNL A   1      41.672  30.350  36.038  1.00  0.00     0.029 A 
ATOM     58  C   UNL A   1      40.904  30.454  34.889  1.00  0.00     0.049 A 
ATOM     59  H   UNL A   1      41.179  29.519  33.016  1.00  0.00     0.167 HD
ATOM     60  C   UNL A   1      39.030  31.296  33.500  1.00  0.00     0.074 A 
ATOM     61  C   UNL A   1      37.827  32.076  33.295  1.00  0.00     0.031 C 
ATOM     62  C   UNL A   1      39.707  31.228  34.674  1.00  0.00     0.037 A 
BRANCH  49  63
ATOM     63  C   UNL A   1      44.617  27.471  34.501  1.00  0.00     0.057 A 
ATOM     64  C   UNL A   1      45.884  28.068  34.549  1.00  0.00     0.134 A 
ATOM     65  C   UNL A   1      44.457  26.242  35.151  1.00  0.00     0.134 A 
ATOM     66  F   UNL A   1      46.110  29.237  33.931  1.00  0.00    -0.206 F 
ATOM     67  C   UNL A   1      46.961  27.445  35.186  1.00  0.00     0.040 A 
ATOM     68  C   UNL A   1      45.518  25.624  35.816  1.00  0.00     0.040 A 
ATOM     69  F   UNL A   1      43.270  25.618  35.148  1.00  0.00    -0.206 F 
ATOM     70  C   UNL A   1      46.777  26.221  35.824  1.00  0.00     0.006 A 
ENDBRANCH  49  63
BRANCH  50  71
ATOM     71  C   UNL A   1      37.080  31.301  29.223  1.00  0.00     0.057 A 
ATOM     72  C   UNL A   1      35.943  30.546  28.913  1.00  0.00     0.134 A 
ATOM     73  C   UNL A   1      37.120  32.625  28.767  1.00  0.00     0.134 A 
ATOM     74  F   UNL A   1      35.860  29.264  29.298  1.00  0.00    -0.206 F 
ATOM     75  C   UNL A   1      34.888  31.083  28.175  1.00  0.00     0.040 A 
ATOM     76  C   UNL A   1      36.062  33.181  28.046  1.00  0.00     0.040 A 
ATOM     77  F   UNL A   1      38.184  33.398  29.026  1.00  0.00    -0.206 F 
ATOM     78  C   UNL A   1      34.943  32.408  27.745  1.00  0.00     0.006 A 
ENDBRANCH  50  71
BRANCH  62  79
ATOM     79  C   UNL A   1      39.186  32.047  35.820  1.00  0.00     0.057 A 
ATOM     80  C   UNL A   1      39.552  33.387  36.001  1.00  0.00     0.134 A 
ATOM     81  C   UNL A   1      38.272  31.499  36.729  1.00  0.00     0.134 A 
ATOM     82  F   UNL A   1      40.433  33.970  35.173  1.00  0.00    -0.206 F 
ATOM     83  C   UNL A   1      39.044  34.146  37.058  1.00  0.00     0.040 A 
ATOM     84  C   UNL A   1      37.737  32.256  37.774  1.00  0.00     0.040 A 
ATOM     85  F   UNL A   1      37.872  30.225  36.608  1.00  0.00    -0.206 F 
ATOM     86  C   UNL A   1      38.127  33.582  37.943  1.00  0.00     0.006 A 
ENDBRANCH  62  79
ENDBRANCH  36  37
ENDBRANCH  29  31
ENDBRANCH  28  29
ENDBRANCH  27  28
ENDBRANCH  26  27
ENDBRANCH  25  26
ENDBRANCH  24  25
ENDBRANCH  23  24
ENDBRANCH   1  23
TORSDOF 22
ENDMDL
MODEL 3
REMARK VINA RESULT:      -9.9      1.242      2.137
REMARK SMILES CCOC(=O)NC(=O)COc1csc(C(=O)OCCOCCOCCOC(=O)c2ccc(-c3c4nc(c(-c5c(F)cccc5F)c5ccc([nH]5)c(-c5c(F)cccc5F)c5nc(c(-c6c(F)cccc6F)c6ccc3[nH]6)C=C5)C=C4)cc2)c1
REMARK SMILES IDX 20 1 19 2 18 3 17 4 15 5 16 6 14 7 11 8 12 9 83 10 13 11
REMARK SMILES IDX 10 12 9 13 7 14 4 15 5 16 6 17 8 19 3 20 2 21 1 22 21 23
REMARK SMILES IDX 22 24 23 25 24 26 25 27 26 28 27 29 28 30 29 31 30 32 82 33
REMARK SMILES IDX 31 34 81 35 32 36 33 37 34 38 75 39 35 40 80 41 74 42 76 43
REMARK SMILES IDX 36 44 79 45 73 46 72 47 37 49 63 50 46 51 62 52 47 53 50 54
REMARK SMILES IDX 61 55 77 56 48 57 49 58 60 60 78 61 51 62 38 63 39 64 44 65
REMARK SMILES IDX 40 66 41 67 43 68 45 69 42 70 64 71 65 72 70 73 66 74 67 75
REMARK SMILES IDX 69 76 71 77 68 78 52 79 53 80 58 81 54 82 55 83 57 84 59 85
REMARK SMILES IDX 56 86
REMARK H PARENT 6 18 76 48 50 59
REMARK Flexibility Score: inf
ROOT
ATOM      1  O   UNL A   1      38.314  20.983  25.378  1.00  0.00    -0.376 OA
ENDROOT
BRANCH   1   2
ATOM      2  C   UNL A   1      37.018  21.466  25.051  1.00  0.00     0.202 C 
BRANCH   2   3
ATOM      3  C   UNL A   1      36.625  22.878  25.507  1.00  0.00     0.261 C 
BRANCH   3   4
ATOM      4  O   UNL A   1      35.980  23.670  24.496  1.00  0.00    -0.459 OA
BRANCH   4   5
ATOM      5  C   UNL A   1      34.989  24.503  24.938  1.00  0.00     0.348 C 
ATOM      6  O   UNL A   1      34.938  24.991  26.061  1.00  0.00    -0.245 OA
BRANCH   5   7
ATOM      7  C   UNL A   1      34.093  24.820  23.845  1.00  0.00     0.116 A 
ATOM      8  C   UNL A   1      32.632  25.885  22.357  1.00  0.00     0.131 A 
ATOM      9  C   UNL A   1      32.539  24.577  21.941  1.00  0.00     0.112 A 
ATOM     10  C   UNL A   1      33.486  26.012  23.497  1.00  0.00     0.074 A 
ATOM     11  S   UNL A   1      33.614  23.554  22.793  1.00  0.00    -0.133 S 
BRANCH   8  12
ATOM     12  O   UNL A   1      32.044  26.979  21.814  1.00  0.00    -0.483 OA
BRANCH  12  13
ATOM     13  C   UNL A   1      30.884  27.498  22.425  1.00  0.00     0.329 C 
BRANCH  13  14
ATOM     14  C   UNL A   1      30.520  28.992  22.470  1.00  0.00     0.267 C 
ATOM     15  C   UNL A   1      31.317  29.539  24.817  1.00  0.00     0.413 C 
ATOM     16  O   UNL A   1      31.451  30.456  25.619  1.00  0.00    -0.224 OA
ATOM     17  N   UNL A   1      30.776  29.769  23.574  1.00  0.00    -0.258 N 
ATOM     18  H   UNL A   1      30.511  30.708  23.444  1.00  0.00     0.176 HD
ATOM     19  O   UNL A   1      29.960  29.526  21.506  1.00  0.00    -0.271 OA
BRANCH  15  20
ATOM     20  O   UNL A   1      31.662  28.255  25.044  1.00  0.00    -0.450 OA
BRANCH  20  21
ATOM     21  C   UNL A   1      31.618  27.821  26.412  1.00  0.00     0.231 C 
ATOM     22  C   UNL A   1      31.460  26.313  26.504  1.00  0.00     0.049 C 
ENDBRANCH  20  21
ENDBRANCH  15  20
ENDBRANCH  13  14
ENDBRANCH  12  13
ENDBRANCH   8  12
ENDBRANCH   5   7
ENDBRANCH   4   5
ENDBRANCH   3   4
ENDBRANCH   2   3
ENDBRANCH   1   2
BRANCH   1  23
ATOM     23  C   UNL A   1      39.201  21.784  26.152  1.00  0.00     0.188 C 
BRANCH  23  24
ATOM     24  C   UNL A   1      40.437  21.153  26.827  1.00  0.00     0.188 C 
BRANCH  24  25
ATOM     25  O   UNL A   1      41.308  20.503  25.922  1.00  0.00    -0.376 OA
BRANCH  25  26
ATOM     26  C   UNL A   1      42.692  20.528  26.231  1.00  0.00     0.202 C 
BRANCH  26  27
ATOM     27  C   UNL A   1      43.583  21.488  25.427  1.00  0.00     0.261 C 
BRANCH  27  28
ATOM     28  O   UNL A   1      42.970  22.713  24.994  1.00  0.00    -0.460 OA
BRANCH  28  29
ATOM     29  C   UNL A   1      43.734  23.827  25.002  1.00  0.00     0.338 C 
ATOM     30  O   UNL A   1      44.681  24.077  24.280  1.00  0.00    -0.246 OA
BRANCH  29  31
ATOM     31  C   UNL A   1      43.123  24.780  25.953  1.00  0.00     0.060 A 
ATOM     32  C   UNL A   1      43.620  26.087  26.024  1.00  0.00     0.016 A 
ATOM     33  C   UNL A   1      42.062  24.381  26.771  1.00  0.00     0.016 A 
ATOM     34  C   UNL A   1      43.071  26.993  26.937  1.00  0.00     0.010 A 
ATOM     35  C   UNL A   1      41.525  25.284  27.693  1.00  0.00     0.010 A 
ATOM     36  C   UNL A   1      42.044  26.586  27.800  1.00  0.00    -0.014 A 
BRANCH  36  37
ATOM     37  C   UNL A   1      41.622  27.459  28.924  1.00  0.00     0.031 A 
ATOM     38  C   UNL A   1      42.385  27.390  30.217  1.00  0.00     0.074 A 
ATOM     39  C   UNL A   1      40.581  28.302  28.805  1.00  0.00     0.049 A 
ATOM     40  N   UNL A   1      42.180  28.025  31.342  1.00  0.00    -0.248 NA
ATOM     41  C   UNL A   1      43.538  26.475  30.241  1.00  0.00     0.031 C 
ATOM     42  C   UNL A   1      39.781  28.495  27.598  1.00  0.00     0.029 A 
ATOM     43  N   UNL A   1      40.018  29.152  29.725  1.00  0.00    -0.354 N 
ATOM     44  C   UNL A   1      43.174  27.587  32.208  1.00  0.00     0.074 A 
ATOM     45  C   UNL A   1      43.959  26.606  31.489  1.00  0.00     0.031 C 
ATOM     46  C   UNL A   1      38.826  29.406  27.853  1.00  0.00     0.029 A 
ATOM     47  C   UNL A   1      38.929  29.837  29.246  1.00  0.00     0.049 A 
ATOM     48  H   UNL A   1      40.363  29.260  30.640  1.00  0.00     0.167 HD
ATOM     49  C   UNL A   1      43.419  27.971  33.483  1.00  0.00     0.037 A 
ATOM     50  C   UNL A   1      38.101  30.698  29.869  1.00  0.00     0.037 A 
ATOM     51  C   UNL A   1      42.630  28.934  34.206  1.00  0.00     0.049 A 
ATOM     52  C   UNL A   1      38.333  31.040  31.317  1.00  0.00     0.074 A 
ATOM     53  C   UNL A   1      42.807  29.401  35.497  1.00  0.00     0.029 A 
ATOM     54  N   UNL A   1      41.503  29.565  33.704  1.00  0.00    -0.354 N 
ATOM     55  N   UNL A   1      39.291  30.644  32.119  1.00  0.00    -0.248 NA
ATOM     56  C   UNL A   1      37.363  31.950  31.946  1.00  0.00     0.031 C 
ATOM     57  C   UNL A   1      41.756  30.277  35.793  1.00  0.00     0.029 A 
ATOM     58  C   UNL A   1      40.954  30.395  34.669  1.00  0.00     0.049 A 
ATOM     59  H   UNL A   1      41.144  29.442  32.795  1.00  0.00     0.167 HD
ATOM     60  C   UNL A   1      39.059  31.278  33.335  1.00  0.00     0.074 A 
ATOM     61  C   UNL A   1      37.871  32.088  33.163  1.00  0.00     0.031 C 
ATOM     62  C   UNL A   1      39.771  31.199  34.487  1.00  0.00     0.037 A 
BRANCH  49  63
ATOM     63  C   UNL A   1      44.573  27.312  34.182  1.00  0.00     0.057 A 
ATOM     64  C   UNL A   1      44.423  26.109  34.886  1.00  0.00     0.134 A 
ATOM     65  C   UNL A   1      45.844  27.896  34.164  1.00  0.00     0.134 A 
ATOM     66  F   UNL A   1      43.227  25.506  34.958  1.00  0.00    -0.206 F 
ATOM     67  C   UNL A   1      45.490  25.532  35.579  1.00  0.00     0.040 A 
ATOM     68  C   UNL A   1      46.925  27.313  34.830  1.00  0.00     0.040 A 
ATOM     69  F   UNL A   1      46.058  29.045  33.506  1.00  0.00    -0.206 F 
ATOM     70  C   UNL A   1      46.746  26.134  35.548  1.00  0.00     0.006 A 
ENDBRANCH  49  63
BRANCH  50  71
ATOM     71  C   UNL A   1      36.974  31.310  29.122  1.00  0.00     0.057 A 
ATOM     72  C   UNL A   1      37.045  32.631  28.664  1.00  0.00     0.134 A 
ATOM     73  C   UNL A   1      35.801  30.596  28.852  1.00  0.00     0.134 A 
ATOM     74  F   UNL A   1      38.132  33.374  28.917  1.00  0.00    -0.206 F 
ATOM     75  C   UNL A   1      35.989  33.222  27.969  1.00  0.00     0.040 A 
ATOM     76  C   UNL A   1      34.745  31.167  28.139  1.00  0.00     0.040 A 
ATOM     77  F   UNL A   1      35.668  29.329  29.270  1.00  0.00    -0.206 F 
ATOM     78  C   UNL A   1      34.837  32.485  27.698  1.00  0.00     0.006 A 
ENDBRANCH  50  71
BRANCH  62  79
ATOM     79  C   UNL A   1      39.309  32.039  35.644  1.00  0.00     0.057 A 
ATOM     80  C   UNL A   1      38.406  31.554  36.598  1.00  0.00     0.134 A 
ATOM     81  C   UNL A   1      39.810  33.334  35.827  1.00  0.00     0.134 A 
ATOM     82  F   UNL A   1      37.880  30.326  36.475  1.00  0.00    -0.206 F 
ATOM     83  C   UNL A   1      38.001  32.336  37.682  1.00  0.00     0.040 A 
ATOM     84  C   UNL A   1      39.433  34.115  36.921  1.00  0.00     0.040 A 
ATOM     85  F   UNL A   1      40.686  33.856  34.955  1.00  0.00    -0.206 F 
ATOM     86  C   UNL A   1      38.521  33.618  37.850  1.00  0.00     0.006 A 
ENDBRANCH  62  79
ENDBRANCH  36  37
ENDBRANCH  29  31
ENDBRANCH  28  29
ENDBRANCH  27  28
ENDBRANCH  26  27
ENDBRANCH  25  26
ENDBRANCH  24  25
ENDBRANCH  23  24
ENDBRANCH   1  23
TORSDOF 22
ENDMDL
