MODEL 1
REMARK VINA RESULT:     -10.8      0.000      0.000
REMARK SMILES C#Cc1cc(Cl)c2c(c1)C=C(C(=O)OCCOCCOCCOC(=O)c1ccc(-c3c4nc(c(-c5c(F)cccc5F)c5ccc([nH]5)c(-c5c(F)cccc5F)c5nc(c(-c6c(F)cccc6F)c6ccc3[nH]6)C=C5)C=C4)cc1)[C@@H](C(F)(F)F)O2
REMARK SMILES IDX 19 1 18 2 17 3 16 4 15 5 14 6 12 7 13 8 11 9 3 10 4 11 9 12
REMARK SMILES IDX 5 13 8 14 6 15 7 16 10 17 85 18 80 19 2 20 1 21 81 22 82 23
REMARK SMILES IDX 83 24 84 25 20 26 21 27 22 28 23 29 24 30 25 31 26 32 27 33
REMARK SMILES IDX 79 34 28 35 78 36 29 37 30 38 31 39 72 40 32 41 77 42 71 43
REMARK SMILES IDX 73 44 33 45 76 46 70 47 69 48 34 50 60 51 43 52 59 53 44 54
REMARK SMILES IDX 47 55 58 56 74 57 45 58 46 59 57 61 75 62 48 63 35 64 36 65
REMARK SMILES IDX 41 66 37 67 38 68 40 69 42 70 39 71 61 72 62 73 67 74 63 75
REMARK SMILES IDX 64 76 66 77 68 78 65 79 49 80 50 81 55 82 51 83 52 84 54 85
REMARK SMILES IDX 56 86 53 87
REMARK H PARENT 73 49 47 60
REMARK Flexibility Score: inf
ROOT
ATOM      1  C   UNL A   1      41.669  20.439  27.033  1.00  0.00     0.188 C 
ENDROOT
BRANCH   1   2
ATOM      2  C   UNL A   1      40.458  21.394  27.093  1.00  0.00     0.188 C 
BRANCH   2   3
ATOM      3  O   UNL A   1      39.250  20.998  26.484  1.00  0.00    -0.376 OA
BRANCH   3   4
ATOM      4  C   UNL A   1      38.523  21.892  25.659  1.00  0.00     0.202 C 
BRANCH   4   5
ATOM      5  C   UNL A   1      36.986  22.030  25.641  1.00  0.00     0.261 C 
BRANCH   5   6
ATOM      6  O   UNL A   1      36.437  23.323  25.919  1.00  0.00    -0.460 OA
BRANCH   6   7
ATOM      7  C   UNL A   1      35.122  23.349  26.244  1.00  0.00     0.338 C 
ATOM      8  O   UNL A   1      34.589  22.768  27.173  1.00  0.00    -0.246 OA
BRANCH   7   9
ATOM      9  C   UNL A   1      34.427  24.346  25.399  1.00  0.00     0.087 C 
ATOM     10  C   UNL A   1      32.273  28.637  25.045  1.00  0.00     0.027 A 
ATOM     11  C   UNL A   1      31.747  28.274  23.806  1.00  0.00     0.041 A 
ATOM     12  C   UNL A   1      33.139  27.771  25.717  1.00  0.00     0.029 A 
ATOM     13  C   UNL A   1      32.111  27.056  23.228  1.00  0.00     0.084 A 
ATOM     14  C   UNL A   1      33.464  26.526  25.160  1.00  0.00     0.020 A 
ATOM     15  Cl  UNL A   1      31.428  26.644  21.695  1.00  0.00    -0.080 Cl
ATOM     16  C   UNL A   1      32.975  26.177  23.898  1.00  0.00     0.146 A 
ATOM     17  C   UNL A   1      34.233  25.561  25.930  1.00  0.00     0.027 C 
ATOM     18  O   UNL A   1      33.300  25.003  23.276  1.00  0.00    -0.474 OA
ATOM     19  C   UNL A   1      33.992  23.960  24.012  1.00  0.00     0.316 C 
BRANCH  10  20
ATOM     20  C   UNL A   1      31.882  29.875  25.649  1.00  0.00    -0.070 C 
ATOM     21  C   UNL A   1      31.550  30.920  26.133  1.00  0.00     0.010 C 
ENDBRANCH  10  20
BRANCH  19  22
ATOM     22  C   UNL A   1      33.117  22.701  24.014  1.00  0.00     0.430 C 
ATOM     23  F   UNL A   1      32.118  22.793  24.922  1.00  0.00    -0.167 F 
ATOM     24  F   UNL A   1      32.532  22.496  22.811  1.00  0.00    -0.167 F 
ATOM     25  F   UNL A   1      33.836  21.593  24.307  1.00  0.00    -0.167 F 
ENDBRANCH  19  22
ENDBRANCH   7   9
ENDBRANCH   6   7
ENDBRANCH   5   6
ENDBRANCH   4   5
ENDBRANCH   3   4
ENDBRANCH   2   3
ENDBRANCH   1   2
BRANCH   1  26
ATOM     26  O   UNL A   1      42.226  20.170  25.771  1.00  0.00    -0.376 OA
BRANCH  26  27
ATOM     27  C   UNL A   1      43.608  20.416  25.556  1.00  0.00     0.202 C 
BRANCH  27  28
ATOM     28  C   UNL A   1      44.228  21.736  25.037  1.00  0.00     0.261 C 
BRANCH  28  29
ATOM     29  O   UNL A   1      43.456  22.943  25.109  1.00  0.00    -0.460 OA
BRANCH  29  30
ATOM     30  C   UNL A   1      44.158  24.101  25.211  1.00  0.00     0.338 C 
ATOM     31  O   UNL A   1      45.121  24.442  24.547  1.00  0.00    -0.246 OA
BRANCH  30  32
ATOM     32  C   UNL A   1      43.441  25.013  26.130  1.00  0.00     0.060 A 
ATOM     33  C   UNL A   1      43.802  26.370  26.168  1.00  0.00     0.016 A 
ATOM     34  C   UNL A   1      42.430  24.531  26.960  1.00  0.00     0.016 A 
ATOM     35  C   UNL A   1      43.149  27.248  27.033  1.00  0.00     0.010 A 
ATOM     36  C   UNL A   1      41.805  25.405  27.855  1.00  0.00     0.010 A 
ATOM     37  C   UNL A   1      42.175  26.763  27.912  1.00  0.00    -0.014 A 
BRANCH  37  38
ATOM     38  C   UNL A   1      41.688  27.622  29.019  1.00  0.00     0.031 A 
ATOM     39  C   UNL A   1      42.425  27.580  30.331  1.00  0.00     0.074 A 
ATOM     40  C   UNL A   1      40.636  28.447  28.864  1.00  0.00     0.049 A 
ATOM     41  N   UNL A   1      42.151  28.187  31.456  1.00  0.00    -0.248 NA
ATOM     42  C   UNL A   1      43.633  26.740  30.378  1.00  0.00     0.031 C 
ATOM     43  C   UNL A   1      39.874  28.623  27.630  1.00  0.00     0.029 A 
ATOM     44  N   UNL A   1      40.022  29.287  29.762  1.00  0.00    -0.354 N 
ATOM     45  C   UNL A   1      43.148  27.800  32.343  1.00  0.00     0.074 A 
ATOM     46  C   UNL A   1      44.013  26.880  31.640  1.00  0.00     0.031 C 
ATOM     47  C   UNL A   1      38.887  29.511  27.851  1.00  0.00     0.029 A 
ATOM     48  C   UNL A   1      38.923  29.934  29.250  1.00  0.00     0.049 A 
ATOM     49  H   UNL A   1      40.340  29.413  30.685  1.00  0.00     0.167 HD
ATOM     50  C   UNL A   1      43.335  28.190  33.625  1.00  0.00     0.037 A 
ATOM     51  C   UNL A   1      38.035  30.754  29.851  1.00  0.00     0.037 A 
ATOM     52  C   UNL A   1      42.476  29.109  34.323  1.00  0.00     0.049 A 
ATOM     53  C   UNL A   1      38.208  31.092  31.312  1.00  0.00     0.074 A 
ATOM     54  C   UNL A   1      42.591  29.568  35.624  1.00  0.00     0.029 A 
ATOM     55  N   UNL A   1      41.348  29.706  33.785  1.00  0.00    -0.354 N 
ATOM     56  N   UNL A   1      39.164  30.737  32.137  1.00  0.00    -0.248 NA
ATOM     57  C   UNL A   1      37.179  31.945  31.927  1.00  0.00     0.031 C 
ATOM     58  C   UNL A   1      41.497  30.393  35.893  1.00  0.00     0.029 A 
ATOM     59  C   UNL A   1      40.740  30.506  34.739  1.00  0.00     0.049 A 
ATOM     60  H   UNL A   1      41.027  29.580  32.863  1.00  0.00     0.167 HD
ATOM     61  C   UNL A   1      38.870  31.348  33.351  1.00  0.00     0.074 A 
ATOM     62  C   UNL A   1      37.658  32.112  33.152  1.00  0.00     0.031 C 
ATOM     63  C   UNL A   1      39.544  31.279  34.527  1.00  0.00     0.037 A 
BRANCH  50  64
ATOM     64  C   UNL A   1      44.509  27.627  34.372  1.00  0.00     0.057 A 
ATOM     65  C   UNL A   1      44.431  26.406  35.052  1.00  0.00     0.134 A 
ATOM     66  C   UNL A   1      45.757  28.262  34.322  1.00  0.00     0.134 A 
ATOM     67  F   UNL A   1      43.263  25.754  35.149  1.00  0.00    -0.206 F 
ATOM     68  C   UNL A   1      45.553  25.836  35.655  1.00  0.00     0.040 A 
ATOM     69  C   UNL A   1      46.891  27.688  34.896  1.00  0.00     0.040 A 
ATOM     70  F   UNL A   1      45.900  29.433  33.683  1.00  0.00    -0.206 F 
ATOM     71  C   UNL A   1      46.791  26.471  35.565  1.00  0.00     0.006 A 
ENDBRANCH  50  64
BRANCH  51  72
ATOM     72  C   UNL A   1      36.889  31.312  29.082  1.00  0.00     0.057 A 
ATOM     73  C   UNL A   1      36.884  32.646  28.657  1.00  0.00     0.134 A 
ATOM     74  C   UNL A   1      35.761  30.539  28.779  1.00  0.00     0.134 A 
ATOM     75  F   UNL A   1      37.921  33.449  28.939  1.00  0.00    -0.206 F 
ATOM     76  C   UNL A   1      35.796  33.196  27.975  1.00  0.00     0.040 A 
ATOM     77  C   UNL A   1      34.680  31.066  28.069  1.00  0.00     0.040 A 
ATOM     78  F   UNL A   1      35.696  29.255  29.162  1.00  0.00    -0.206 F 
ATOM     79  C   UNL A   1      34.692  32.401  27.673  1.00  0.00     0.006 A 
ENDBRANCH  51  72
BRANCH  63  80
ATOM     80  C   UNL A   1      39.017  32.070  35.691  1.00  0.00     0.057 A 
ATOM     81  C   UNL A   1      38.210  31.489  36.677  1.00  0.00     0.134 A 
ATOM     82  C   UNL A   1      39.400  33.407  35.877  1.00  0.00     0.134 A 
ATOM     83  F   UNL A   1      37.803  30.217  36.560  1.00  0.00    -0.206 F 
ATOM     84  C   UNL A   1      37.792  32.211  37.797  1.00  0.00     0.040 A 
ATOM     85  C   UNL A   1      39.016  34.128  37.008  1.00  0.00     0.040 A 
ATOM     86  F   UNL A   1      40.184  34.022  34.979  1.00  0.00    -0.206 F 
ATOM     87  C   UNL A   1      38.206  33.531  37.970  1.00  0.00     0.006 A 
ENDBRANCH  63  80
ENDBRANCH  37  38
ENDBRANCH  30  32
ENDBRANCH  29  30
ENDBRANCH  28  29
ENDBRANCH  27  28
ENDBRANCH  26  27
ENDBRANCH   1  26
TORSDOF 19
ENDMDL
MODEL 2
REMARK VINA RESULT:     -10.7      1.948      3.736
REMARK SMILES C#Cc1cc(Cl)c2c(c1)C=C(C(=O)OCCOCCOCCOC(=O)c1ccc(-c3c4nc(c(-c5c(F)cccc5F)c5ccc([nH]5)c(-c5c(F)cccc5F)c5nc(c(-c6c(F)cccc6F)c6ccc3[nH]6)C=C5)C=C4)cc1)[C@@H](C(F)(F)F)O2
REMARK SMILES IDX 19 1 18 2 17 3 16 4 15 5 14 6 12 7 13 8 11 9 3 10 4 11 9 12
REMARK SMILES IDX 5 13 8 14 6 15 7 16 10 17 85 18 80 19 2 20 1 21 81 22 82 23
REMARK SMILES IDX 83 24 84 25 20 26 21 27 22 28 23 29 24 30 25 31 26 32 27 33
REMARK SMILES IDX 79 34 28 35 78 36 29 37 30 38 31 39 72 40 32 41 77 42 71 43
REMARK SMILES IDX 73 44 33 45 76 46 70 47 69 48 34 50 60 51 43 52 59 53 44 54
REMARK SMILES IDX 47 55 58 56 74 57 45 58 46 59 57 61 75 62 48 63 35 64 36 65
REMARK SMILES IDX 41 66 37 67 38 68 40 69 42 70 39 71 61 72 62 73 67 74 63 75
REMARK SMILES IDX 64 76 66 77 68 78 65 79 49 80 50 81 55 82 51 83 52 84 54 85
REMARK SMILES IDX 56 86 53 87
REMARK H PARENT 73 49 47 60
REMARK Flexibility Score: inf
ROOT
ATOM      1  C   UNL A   1      40.778  20.887  26.452  1.00  0.00     0.188 C 
ENDROOT
BRANCH   1   2
ATOM      2  C   UNL A   1      39.344  21.163  25.952  1.00  0.00     0.188 C 
BRANCH   2   3
ATOM      3  O   UNL A   1      38.703  22.352  26.352  1.00  0.00    -0.376 OA
BRANCH   3   4
ATOM      4  C   UNL A   1      37.675  22.926  25.563  1.00  0.00     0.202 C 
BRANCH   4   5
ATOM      5  C   UNL A   1      36.466  23.710  26.116  1.00  0.00     0.261 C 
BRANCH   5   6
ATOM      6  O   UNL A   1      35.369  22.950  26.634  1.00  0.00    -0.460 OA
BRANCH   6   7
ATOM      7  C   UNL A   1      34.138  23.329  26.215  1.00  0.00     0.338 C 
ATOM      8  O   UNL A   1      33.626  24.427  26.355  1.00  0.00    -0.246 OA
BRANCH   7   9
ATOM      9  C   UNL A   1      33.549  22.255  25.385  1.00  0.00     0.087 C 
ATOM     10  C   UNL A   1      32.592  17.572  24.807  1.00  0.00     0.027 A 
ATOM     11  C   UNL A   1      32.297  17.794  23.462  1.00  0.00     0.041 A 
ATOM     12  C   UNL A   1      32.903  18.648  25.641  1.00  0.00     0.029 A 
ATOM     13  C   UNL A   1      32.289  19.098  22.961  1.00  0.00     0.084 A 
ATOM     14  C   UNL A   1      32.946  19.951  25.126  1.00  0.00     0.020 A 
ATOM     15  Cl  UNL A   1      31.928  19.326  21.287  1.00  0.00    -0.080 Cl
ATOM     16  C   UNL A   1      32.608  20.184  23.790  1.00  0.00     0.146 A 
ATOM     17  C   UNL A   1      33.426  21.047  25.953  1.00  0.00     0.027 C 
ATOM     18  O   UNL A   1      32.574  21.437  23.242  1.00  0.00    -0.474 OA
ATOM     19  C   UNL A   1      33.117  22.565  23.978  1.00  0.00     0.316 C 
BRANCH  10  20
ATOM     20  C   UNL A   1      32.623  16.234  25.316  1.00  0.00    -0.070 C 
ATOM     21  C   UNL A   1      32.629  15.118  25.753  1.00  0.00     0.010 C 
ENDBRANCH  10  20
BRANCH  19  22
ATOM     22  C   UNL A   1      34.250  23.187  23.152  1.00  0.00     0.430 C 
ATOM     23  F   UNL A   1      34.485  24.468  23.520  1.00  0.00    -0.167 F 
ATOM     24  F   UNL A   1      35.414  22.515  23.315  1.00  0.00    -0.167 F 
ATOM     25  F   UNL A   1      33.964  23.186  21.830  1.00  0.00    -0.167 F 
ENDBRANCH  19  22
ENDBRANCH   7   9
ENDBRANCH   6   7
ENDBRANCH   5   6
ENDBRANCH   4   5
ENDBRANCH   3   4
ENDBRANCH   2   3
ENDBRANCH   1   2
BRANCH   1  26
ATOM     26  O   UNL A   1      41.577  20.015  25.693  1.00  0.00    -0.376 OA
BRANCH  26  27
ATOM     27  C   UNL A   1      42.990  20.090  25.810  1.00  0.00     0.202 C 
BRANCH  27  28
ATOM     28  C   UNL A   1      43.878  21.281  25.375  1.00  0.00     0.261 C 
BRANCH  28  29
ATOM     29  O   UNL A   1      43.928  22.451  26.202  1.00  0.00    -0.460 OA
BRANCH  29  30
ATOM     30  C   UNL A   1      43.880  23.646  25.559  1.00  0.00     0.338 C 
ATOM     31  O   UNL A   1      44.155  23.867  24.393  1.00  0.00    -0.246 OA
BRANCH  30  32
ATOM     32  C   UNL A   1      43.229  24.637  26.443  1.00  0.00     0.060 A 
ATOM     33  C   UNL A   1      43.747  25.942  26.508  1.00  0.00     0.016 A 
ATOM     34  C   UNL A   1      42.124  24.281  27.214  1.00  0.00     0.016 A 
ATOM     35  C   UNL A   1      43.158  26.893  27.341  1.00  0.00     0.010 A 
ATOM     36  C   UNL A   1      41.560  25.225  28.079  1.00  0.00     0.010 A 
ATOM     37  C   UNL A   1      42.087  26.528  28.164  1.00  0.00    -0.014 A 
BRANCH  37  38
ATOM     38  C   UNL A   1      41.647  27.440  29.248  1.00  0.00     0.031 A 
ATOM     39  C   UNL A   1      42.388  27.401  30.557  1.00  0.00     0.074 A 
ATOM     40  C   UNL A   1      40.633  28.309  29.074  1.00  0.00     0.049 A 
ATOM     41  N   UNL A   1      42.149  28.051  31.666  1.00  0.00    -0.248 NA
ATOM     42  C   UNL A   1      43.555  26.506  30.624  1.00  0.00     0.031 C 
ATOM     43  C   UNL A   1      39.874  28.486  27.838  1.00  0.00     0.029 A 
ATOM     44  N   UNL A   1      40.064  29.202  29.950  1.00  0.00    -0.354 N 
ATOM     45  C   UNL A   1      43.132  27.644  32.559  1.00  0.00     0.074 A 
ATOM     46  C   UNL A   1      43.948  26.663  31.879  1.00  0.00     0.031 C 
ATOM     47  C   UNL A   1      38.931  29.425  28.038  1.00  0.00     0.029 A 
ATOM     48  C   UNL A   1      38.994  29.886  29.425  1.00  0.00     0.049 A 
ATOM     49  H   UNL A   1      40.393  29.339  30.867  1.00  0.00     0.167 HD
ATOM     50  C   UNL A   1      43.343  28.060  33.829  1.00  0.00     0.037 A 
ATOM     51  C   UNL A   1      38.149  30.762  30.006  1.00  0.00     0.037 A 
ATOM     52  C   UNL A   1      42.533  29.038  34.504  1.00  0.00     0.049 A 
ATOM     53  C   UNL A   1      38.346  31.134  31.456  1.00  0.00     0.074 A 
ATOM     54  C   UNL A   1      42.677  29.527  35.791  1.00  0.00     0.029 A 
ATOM     55  N   UNL A   1      41.431  29.672  33.953  1.00  0.00    -0.354 N 
ATOM     56  N   UNL A   1      39.289  30.758  32.286  1.00  0.00    -0.248 NA
ATOM     57  C   UNL A   1      37.362  32.052  32.050  1.00  0.00     0.031 C 
ATOM     58  C   UNL A   1      41.624  30.410  36.041  1.00  0.00     0.029 A 
ATOM     59  C   UNL A   1      40.867  30.526  34.887  1.00  0.00     0.049 A 
ATOM     60  H   UNL A   1      41.099  29.535  33.037  1.00  0.00     0.167 HD
ATOM     61  C   UNL A   1      39.031  31.416  33.484  1.00  0.00     0.074 A 
ATOM     62  C   UNL A   1      37.855  32.230  33.268  1.00  0.00     0.031 C 
ATOM     63  C   UNL A   1      39.707  31.348  34.658  1.00  0.00     0.037 A 
BRANCH  50  64
ATOM     64  C   UNL A   1      44.494  27.464  34.586  1.00  0.00     0.057 A 
ATOM     65  C   UNL A   1      44.359  26.273  35.310  1.00  0.00     0.134 A 
ATOM     66  C   UNL A   1      45.772  28.031  34.505  1.00  0.00     0.134 A 
ATOM     67  F   UNL A   1      43.161  25.687  35.439  1.00  0.00    -0.206 F 
ATOM     68  C   UNL A   1      45.456  25.668  35.925  1.00  0.00     0.040 A 
ATOM     69  C   UNL A   1      46.881  27.420  35.090  1.00  0.00     0.040 A 
ATOM     70  F   UNL A   1      45.970  29.170  33.822  1.00  0.00    -0.206 F 
ATOM     71  C   UNL A   1      46.724  26.234  35.803  1.00  0.00     0.006 A 
ENDBRANCH  50  64
BRANCH  51  72
ATOM     72  C   UNL A   1      37.027  31.352  29.226  1.00  0.00     0.057 A 
ATOM     73  C   UNL A   1      35.886  30.601  28.917  1.00  0.00     0.134 A 
ATOM     74  C   UNL A   1      37.078  32.667  28.744  1.00  0.00     0.134 A 
ATOM     75  F   UNL A   1      35.786  29.327  29.324  1.00  0.00    -0.206 F 
ATOM     76  C   UNL A   1      34.847  31.128  28.147  1.00  0.00     0.040 A 
ATOM     77  C   UNL A   1      36.031  33.217  28.001  1.00  0.00     0.040 A 
ATOM     78  F   UNL A   1      38.144  33.441  28.997  1.00  0.00    -0.206 F 
ATOM     79  C   UNL A   1      34.915  32.443  27.693  1.00  0.00     0.006 A 
ENDBRANCH  51  72
BRANCH  63  80
ATOM     80  C   UNL A   1      39.225  32.196  35.801  1.00  0.00     0.057 A 
ATOM     81  C   UNL A   1      39.644  33.522  35.968  1.00  0.00     0.134 A 
ATOM     82  C   UNL A   1      38.258  31.710  36.693  1.00  0.00     0.134 A 
ATOM     83  F   UNL A   1      40.570  34.050  35.154  1.00  0.00    -0.206 F 
ATOM     84  C   UNL A   1      39.131  34.328  36.987  1.00  0.00     0.040 A 
ATOM     85  C   UNL A   1      37.714  32.515  37.694  1.00  0.00     0.040 A 
ATOM     86  F   UNL A   1      37.800  30.453  36.584  1.00  0.00    -0.206 F 
ATOM     87  C   UNL A   1      38.153  33.828  37.845  1.00  0.00     0.006 A 
ENDBRANCH  63  80
ENDBRANCH  37  38
ENDBRANCH  30  32
ENDBRANCH  29  30
ENDBRANCH  28  29
ENDBRANCH  27  28
ENDBRANCH  26  27
ENDBRANCH   1  26
TORSDOF 19
ENDMDL
MODEL 3
REMARK VINA RESULT:     -10.3      2.367      6.980
REMARK SMILES C#Cc1cc(Cl)c2c(c1)C=C(C(=O)OCCOCCOCCOC(=O)c1ccc(-c3c4nc(c(-c5c(F)cccc5F)c5ccc([nH]5)c(-c5c(F)cccc5F)c5nc(c(-c6c(F)cccc6F)c6ccc3[nH]6)C=C5)C=C4)cc1)[C@@H](C(F)(F)F)O2
REMARK SMILES IDX 19 1 18 2 17 3 16 4 15 5 14 6 12 7 13 8 11 9 3 10 4 11 9 12
REMARK SMILES IDX 5 13 8 14 6 15 7 16 10 17 85 18 80 19 2 20 1 21 81 22 82 23
REMARK SMILES IDX 83 24 84 25 20 26 21 27 22 28 23 29 24 30 25 31 26 32 27 33
REMARK SMILES IDX 79 34 28 35 78 36 29 37 30 38 31 39 72 40 32 41 77 42 71 43
REMARK SMILES IDX 73 44 33 45 76 46 70 47 69 48 34 50 60 51 43 52 59 53 44 54
REMARK SMILES IDX 47 55 58 56 74 57 45 58 46 59 57 61 75 62 48 63 35 64 36 65
REMARK SMILES IDX 41 66 37 67 38 68 40 69 42 70 39 71 61 72 62 73 67 74 63 75
REMARK SMILES IDX 64 76 66 77 68 78 65 79 49 80 50 81 55 82 51 83 52 84 54 85
REMARK SMILES IDX 56 86 53 87
REMARK H PARENT 73 49 47 60
REMARK Flexibility Score: inf
ROOT
ATOM      1  C   UNL A   1      37.324  21.995  24.585  1.00  0.00     0.188 C 
ENDROOT
BRANCH   1   2
ATOM      2  C   UNL A   1      35.797  21.841  24.742  1.00  0.00     0.188 C 
BRANCH   2   3
ATOM      3  O   UNL A   1      34.952  22.438  23.785  1.00  0.00    -0.376 OA
BRANCH   3   4
ATOM      4  C   UNL A   1      34.412  23.731  23.996  1.00  0.00     0.202 C 
BRANCH   4   5
ATOM      5  C   UNL A   1      33.232  24.337  23.208  1.00  0.00     0.261 C 
BRANCH   5   6
ATOM      6  O   UNL A   1      33.329  25.715  22.832  1.00  0.00    -0.460 OA
BRANCH   6   7
ATOM      7  C   UNL A   1      32.955  26.613  23.775  1.00  0.00     0.338 C 
ATOM      8  O   UNL A   1      33.674  27.139  24.607  1.00  0.00    -0.246 OA
BRANCH   7   9
ATOM      9  C   UNL A   1      31.550  27.015  23.540  1.00  0.00     0.087 C 
ATOM     10  C   UNL A   1      28.442  30.297  21.883  1.00  0.00     0.027 A 
ATOM     11  C   UNL A   1      27.398  29.644  22.536  1.00  0.00     0.041 A 
ATOM     12  C   UNL A   1      29.729  29.756  21.908  1.00  0.00     0.029 A 
ATOM     13  C   UNL A   1      27.640  28.435  23.193  1.00  0.00     0.084 A 
ATOM     14  C   UNL A   1      29.982  28.569  22.610  1.00  0.00     0.020 A 
ATOM     15  Cl  UNL A   1      26.319  27.665  23.997  1.00  0.00    -0.080 Cl
ATOM     16  C   UNL A   1      28.931  27.888  23.229  1.00  0.00     0.146 A 
ATOM     17  C   UNL A   1      31.347  28.094  22.772  1.00  0.00     0.027 C 
ATOM     18  O   UNL A   1      29.102  26.697  23.881  1.00  0.00    -0.474 OA
ATOM     19  C   UNL A   1      30.440  26.205  24.153  1.00  0.00     0.316 C 
BRANCH  10  20
ATOM     20  C   UNL A   1      28.200  31.548  21.229  1.00  0.00    -0.070 C 
ATOM     21  C   UNL A   1      27.983  32.601  20.700  1.00  0.00     0.010 C 
ENDBRANCH  10  20
BRANCH  19  22
ATOM     22  C   UNL A   1      30.608  26.057  25.671  1.00  0.00     0.430 C 
ATOM     23  F   UNL A   1      30.971  27.227  26.245  1.00  0.00    -0.167 F 
ATOM     24  F   UNL A   1      29.454  25.672  26.265  1.00  0.00    -0.167 F 
ATOM     25  F   UNL A   1      31.550  25.138  25.982  1.00  0.00    -0.167 F 
ENDBRANCH  19  22
ENDBRANCH   7   9
ENDBRANCH   6   7
ENDBRANCH   5   6
ENDBRANCH   4   5
ENDBRANCH   3   4
ENDBRANCH   2   3
ENDBRANCH   1   2
BRANCH   1  26
ATOM     26  O   UNL A   1      38.136  21.574  25.653  1.00  0.00    -0.376 OA
BRANCH  26  27
ATOM     27  C   UNL A   1      38.998  22.512  26.280  1.00  0.00     0.202 C 
BRANCH  27  28
ATOM     28  C   UNL A   1      40.542  22.424  26.350  1.00  0.00     0.261 C 
BRANCH  28  29
ATOM     29  O   UNL A   1      41.253  23.334  27.201  1.00  0.00    -0.460 OA
BRANCH  29  30
ATOM     30  C   UNL A   1      41.618  24.518  26.644  1.00  0.00     0.338 C 
ATOM     31  O   UNL A   1      41.998  24.711  25.503  1.00  0.00    -0.246 OA
BRANCH  30  32
ATOM     32  C   UNL A   1      41.281  25.609  27.584  1.00  0.00     0.060 A 
ATOM     33  C   UNL A   1      42.154  26.704  27.704  1.00  0.00     0.016 A 
ATOM     34  C   UNL A   1      40.121  25.549  28.354  1.00  0.00     0.016 A 
ATOM     35  C   UNL A   1      41.865  27.742  28.590  1.00  0.00     0.010 A 
ATOM     36  C   UNL A   1      39.855  26.570  29.272  1.00  0.00     0.010 A 
ATOM     37  C   UNL A   1      40.735  27.660  29.411  1.00  0.00    -0.014 A 
BRANCH  37  38
ATOM     38  C   UNL A   1      40.578  28.606  30.544  1.00  0.00     0.031 A 
ATOM     39  C   UNL A   1      39.543  29.691  30.428  1.00  0.00     0.074 A 
ATOM     40  C   UNL A   1      41.312  28.493  31.667  1.00  0.00     0.049 A 
ATOM     41  N   UNL A   1      39.268  30.668  31.252  1.00  0.00    -0.248 NA
ATOM     42  C   UNL A   1      38.704  29.671  29.217  1.00  0.00     0.031 C 
ATOM     43  C   UNL A   1      42.306  27.453  31.927  1.00  0.00     0.029 A 
ATOM     44  N   UNL A   1      41.337  29.274  32.797  1.00  0.00    -0.354 N 
ATOM     45  C   UNL A   1      38.230  31.377  30.660  1.00  0.00     0.074 A 
ATOM     46  C   UNL A   1      37.947  30.744  29.392  1.00  0.00     0.031 C 
ATOM     47  C   UNL A   1      42.851  27.667  33.139  1.00  0.00     0.029 A 
ATOM     48  C   UNL A   1      42.274  28.878  33.721  1.00  0.00     0.049 A 
ATOM     49  H   UNL A   1      40.740  30.044  32.932  1.00  0.00     0.167 HD
ATOM     50  C   UNL A   1      37.563  32.453  31.139  1.00  0.00     0.037 A 
ATOM     51  C   UNL A   1      42.640  29.444  34.890  1.00  0.00     0.037 A 
ATOM     52  C   UNL A   1      37.842  33.080  32.403  1.00  0.00     0.049 A 
ATOM     53  C   UNL A   1      41.949  30.704  35.353  1.00  0.00     0.074 A 
ATOM     54  C   UNL A   1      37.211  34.172  32.974  1.00  0.00     0.029 A 
ATOM     55  N   UNL A   1      38.829  32.677  33.287  1.00  0.00    -0.354 N 
ATOM     56  N   UNL A   1      40.956  31.356  34.797  1.00  0.00    -0.248 NA
ATOM     57  C   UNL A   1      42.427  31.306  36.608  1.00  0.00     0.031 C 
ATOM     58  C   UNL A   1      37.859  34.469  34.175  1.00  0.00     0.029 A 
ATOM     59  C   UNL A   1      38.845  33.520  34.388  1.00  0.00     0.049 A 
ATOM     60  H   UNL A   1      39.429  31.908  33.154  1.00  0.00     0.167 HD
ATOM     61  C   UNL A   1      40.672  32.420  35.646  1.00  0.00     0.074 A 
ATOM     62  C   UNL A   1      41.583  32.317  36.765  1.00  0.00     0.031 C 
ATOM     63  C   UNL A   1      39.742  33.398  35.507  1.00  0.00     0.037 A 
BRANCH  50  64
ATOM     64  C   UNL A   1      36.462  33.033  30.299  1.00  0.00     0.057 A 
ATOM     65  C   UNL A   1      36.734  33.839  29.187  1.00  0.00     0.134 A 
ATOM     66  C   UNL A   1      35.125  32.698  30.545  1.00  0.00     0.134 A 
ATOM     67  F   UNL A   1      37.991  34.208  28.904  1.00  0.00    -0.206 F 
ATOM     68  C   UNL A   1      35.713  34.289  28.349  1.00  0.00     0.040 A 
ATOM     69  C   UNL A   1      34.099  33.117  29.698  1.00  0.00     0.040 A 
ATOM     70  F   UNL A   1      34.798  31.925  31.593  1.00  0.00    -0.206 F 
ATOM     71  C   UNL A   1      34.393  33.916  28.595  1.00  0.00     0.006 A 
ENDBRANCH  50  64
BRANCH  51  72
ATOM     72  C   UNL A   1      43.722  28.837  35.712  1.00  0.00     0.057 A 
ATOM     73  C   UNL A   1      43.441  27.851  36.666  1.00  0.00     0.134 A 
ATOM     74  C   UNL A   1      45.056  29.245  35.588  1.00  0.00     0.134 A 
ATOM     75  F   UNL A   1      42.180  27.435  36.856  1.00  0.00    -0.206 F 
ATOM     76  C   UNL A   1      44.440  27.307  37.476  1.00  0.00     0.040 A 
ATOM     77  C   UNL A   1      46.071  28.685  36.367  1.00  0.00     0.040 A 
ATOM     78  F   UNL A   1      45.396  30.190  34.698  1.00  0.00    -0.206 F 
ATOM     79  C   UNL A   1      45.762  27.719  37.322  1.00  0.00     0.006 A 
ENDBRANCH  51  72
BRANCH  63  80
ATOM     80  C   UNL A   1      39.625  34.423  36.601  1.00  0.00     0.057 A 
ATOM     81  C   UNL A   1      38.922  34.165  37.784  1.00  0.00     0.134 A 
ATOM     82  C   UNL A   1      40.301  35.648  36.506  1.00  0.00     0.134 A 
ATOM     83  F   UNL A   1      38.248  33.017  37.939  1.00  0.00    -0.206 F 
ATOM     84  C   UNL A   1      38.885  35.093  38.828  1.00  0.00     0.040 A 
ATOM     85  C   UNL A   1      40.300  36.568  37.555  1.00  0.00     0.040 A 
ATOM     86  F   UNL A   1      41.007  35.954  35.407  1.00  0.00    -0.206 F 
ATOM     87  C   UNL A   1      39.586  36.293  38.719  1.00  0.00     0.006 A 
ENDBRANCH  63  80
ENDBRANCH  37  38
ENDBRANCH  30  32
ENDBRANCH  29  30
ENDBRANCH  28  29
ENDBRANCH  27  28
ENDBRANCH  26  27
ENDBRANCH   1  26
TORSDOF 19
ENDMDL
