MODEL 1
REMARK VINA RESULT:     -10.5      0.000      0.000
REMARK SMILES Cc1cc(N2CCOC[C@H]2C(=O)OCCOCCOCCOC(=O)c2ccc(-c3c4nc(c(-c5c(F)cccc5F)c5ccc([nH]5)c(-c5c(F)cccc5F)c5nc(c(-c6c(F)cccc6F)c6ccc3[nH]6)C=C5)C=C4)cc2)ncc1[N+](=O)[O-]
REMARK SMILES IDX 17 1 16 2 15 3 14 4 13 5 11 6 12 7 10 8 5 9 6 10 7 11 9 12
REMARK SMILES IDX 8 13 4 14 1 15 2 16 3 17 81 18 80 19 79 20 82 21 83 22 84 23
REMARK SMILES IDX 18 24 19 25 20 26 21 27 22 28 23 29 24 30 25 31 26 32 78 33
REMARK SMILES IDX 27 34 77 35 28 36 29 37 30 38 71 39 31 40 76 41 70 42 72 43
REMARK SMILES IDX 32 44 75 45 69 46 68 47 33 49 59 50 42 51 58 52 43 53 46 54
REMARK SMILES IDX 57 55 73 56 44 57 45 58 56 60 74 61 47 62 34 63 35 64 40 65
REMARK SMILES IDX 36 66 37 67 39 68 41 69 38 70 60 71 61 72 66 73 62 74 63 75
REMARK SMILES IDX 65 76 67 77 64 78 48 79 49 80 54 81 50 82 51 83 53 84 55 85
REMARK SMILES IDX 52 86
REMARK H PARENT 72 48 46 59
REMARK Flexibility Score: inf
ROOT
ATOM      1  C   UNL A   1      31.235  26.841  26.370  1.00  0.00     0.188 C 
ENDROOT
BRANCH   1   2
ATOM      2  O   UNL A   1      31.242  25.555  26.982  1.00  0.00    -0.376 OA
BRANCH   2   3
ATOM      3  C   UNL A   1      30.753  24.461  26.210  1.00  0.00     0.202 C 
BRANCH   3   4
ATOM      4  C   UNL A   1      31.062  23.091  26.809  1.00  0.00     0.261 C 
BRANCH   4   5
ATOM      5  O   UNL A   1      32.226  23.165  27.654  1.00  0.00    -0.462 OA
BRANCH   5   6
ATOM      6  C   UNL A   1      33.309  22.428  27.297  1.00  0.00     0.331 C 
ATOM      7  O   UNL A   1      33.996  21.781  28.083  1.00  0.00    -0.250 OA
BRANCH   6   8
ATOM      8  C   UNL A   1      33.636  22.505  25.803  1.00  0.00     0.220 C 
ATOM      9  N   UNL A   1      34.206  23.810  25.352  1.00  0.00    -0.339 N 
ATOM     10  C   UNL A   1      35.658  23.978  25.561  1.00  0.00     0.147 C 
ATOM     11  C   UNL A   1      36.442  22.725  25.161  1.00  0.00     0.181 C 
ATOM     12  C   UNL A   1      34.567  21.327  25.463  1.00  0.00     0.197 C 
ATOM     13  O   UNL A   1      35.934  21.565  25.839  1.00  0.00    -0.377 OA
BRANCH   9  14
ATOM     14  C   UNL A   1      33.721  24.301  24.142  1.00  0.00     0.130 A 
ATOM     15  C   UNL A   1      33.766  27.609  22.270  1.00  0.00     0.052 C 
ATOM     16  C   UNL A   1      33.493  26.170  22.587  1.00  0.00     0.032 A 
ATOM     17  C   UNL A   1      33.851  25.664  23.851  1.00  0.00     0.057 A 
ATOM     18  C   UNL A   1      32.929  25.268  21.683  1.00  0.00     0.290 A 
ATOM     19  C   UNL A   1      32.808  23.936  22.038  1.00  0.00     0.199 A 
ATOM     20  N   UNL A   1      33.204  23.444  23.240  1.00  0.00    -0.232 NA
BRANCH  18  21
ATOM     21  N   UNL A   1      32.461  25.660  20.369  1.00  0.00     0.064 N 
ATOM     22  O   UNL A   1      31.308  26.100  20.290  1.00  0.00    -0.258 OA
ATOM     23  O   UNL A   1      33.254  25.549  19.426  1.00  0.00    -0.258 OA
ENDBRANCH  18  21
ENDBRANCH   9  14
ENDBRANCH   6   8
ENDBRANCH   5   6
ENDBRANCH   4   5
ENDBRANCH   3   4
ENDBRANCH   2   3
ENDBRANCH   1   2
BRANCH   1  24
ATOM     24  C   UNL A   1      32.527  27.670  26.479  1.00  0.00     0.188 C 
BRANCH  24  25
ATOM     25  O   UNL A   1      32.376  29.059  26.757  1.00  0.00    -0.376 OA
BRANCH  25  26
ATOM     26  C   UNL A   1      33.538  29.874  26.612  1.00  0.00     0.202 C 
BRANCH  26  27
ATOM     27  C   UNL A   1      33.577  31.038  27.595  1.00  0.00     0.261 C 
BRANCH  27  28
ATOM     28  O   UNL A   1      34.922  31.542  27.675  1.00  0.00    -0.460 OA
BRANCH  28  29
ATOM     29  C   UNL A   1      35.539  31.275  28.840  1.00  0.00     0.338 C 
ATOM     30  O   UNL A   1      35.339  31.816  29.921  1.00  0.00    -0.246 OA
BRANCH  29  31
ATOM     31  C   UNL A   1      36.518  30.192  28.664  1.00  0.00     0.060 A 
ATOM     32  C   UNL A   1      36.920  29.410  29.749  1.00  0.00     0.016 A 
ATOM     33  C   UNL A   1      37.192  30.100  27.446  1.00  0.00     0.016 A 
ATOM     34  C   UNL A   1      38.092  28.651  29.660  1.00  0.00     0.010 A 
ATOM     35  C   UNL A   1      38.326  29.294  27.344  1.00  0.00     0.010 A 
ATOM     36  C   UNL A   1      38.843  28.638  28.476  1.00  0.00    -0.014 A 
BRANCH  36  37
ATOM     37  C   UNL A   1      40.253  28.151  28.454  1.00  0.00     0.031 A 
ATOM     38  C   UNL A   1      41.360  29.115  28.821  1.00  0.00     0.074 A 
ATOM     39  C   UNL A   1      40.582  26.875  28.175  1.00  0.00     0.049 A 
ATOM     40  N   UNL A   1      42.645  29.033  28.596  1.00  0.00    -0.248 NA
ATOM     41  C   UNL A   1      40.954  30.344  29.525  1.00  0.00     0.031 C 
ATOM     42  C   UNL A   1      39.644  25.785  27.919  1.00  0.00     0.029 A 
ATOM     43  N   UNL A   1      41.819  26.283  28.073  1.00  0.00    -0.354 N 
ATOM     44  C   UNL A   1      43.184  30.237  29.036  1.00  0.00     0.074 A 
ATOM     45  C   UNL A   1      42.092  31.020  29.573  1.00  0.00     0.031 C 
ATOM     46  C   UNL A   1      40.336  24.649  27.728  1.00  0.00     0.029 A 
ATOM     47  C   UNL A   1      41.766  24.949  27.751  1.00  0.00     0.049 A 
ATOM     48  H   UNL A   1      42.662  26.769  28.217  1.00  0.00     0.167 HD
ATOM     49  C   UNL A   1      44.468  30.659  28.979  1.00  0.00     0.037 A 
ATOM     50  C   UNL A   1      42.753  24.080  27.458  1.00  0.00     0.037 A 
ATOM     51  C   UNL A   1      45.570  29.843  28.544  1.00  0.00     0.049 A 
ATOM     52  C   UNL A   1      44.178  24.562  27.402  1.00  0.00     0.074 A 
ATOM     53  C   UNL A   1      46.906  30.184  28.422  1.00  0.00     0.029 A 
ATOM     54  N   UNL A   1      45.466  28.505  28.206  1.00  0.00    -0.354 N 
ATOM     55  N   UNL A   1      44.661  25.754  27.658  1.00  0.00    -0.248 NA
ATOM     56  C   UNL A   1      45.192  23.584  26.980  1.00  0.00     0.031 C 
ATOM     57  C   UNL A   1      47.611  29.051  28.003  1.00  0.00     0.029 A 
ATOM     58  C   UNL A   1      46.716  28.000  27.889  1.00  0.00     0.049 A 
ATOM     59  H   UNL A   1      44.629  27.988  28.193  1.00  0.00     0.167 HD
ATOM     60  C   UNL A   1      46.029  25.667  27.432  1.00  0.00     0.074 A 
ATOM     61  C   UNL A   1      46.305  24.299  27.045  1.00  0.00     0.031 C 
ATOM     62  C   UNL A   1      46.973  26.634  27.523  1.00  0.00     0.037 A 
BRANCH  49  63
ATOM     63  C   UNL A   1      44.753  32.083  29.349  1.00  0.00     0.057 A 
ATOM     64  C   UNL A   1      44.649  33.133  28.431  1.00  0.00     0.134 A 
ATOM     65  C   UNL A   1      45.094  32.407  30.669  1.00  0.00     0.134 A 
ATOM     66  F   UNL A   1      44.346  32.886  27.148  1.00  0.00    -0.206 F 
ATOM     67  C   UNL A   1      44.883  34.456  28.812  1.00  0.00     0.040 A 
ATOM     68  C   UNL A   1      45.308  33.726  31.067  1.00  0.00     0.040 A 
ATOM     69  F   UNL A   1      45.209  31.444  31.598  1.00  0.00    -0.206 F 
ATOM     70  C   UNL A   1      45.205  34.756  30.136  1.00  0.00     0.006 A 
ENDBRANCH  49  63
BRANCH  50  71
ATOM     71  C   UNL A   1      42.432  22.668  27.131  1.00  0.00     0.057 A 
ATOM     72  C   UNL A   1      42.092  21.755  28.136  1.00  0.00     0.134 A 
ATOM     73  C   UNL A   1      42.485  22.190  25.816  1.00  0.00     0.134 A 
ATOM     74  F   UNL A   1      42.055  22.146  29.419  1.00  0.00    -0.206 F 
ATOM     75  C   UNL A   1      41.829  20.416  27.848  1.00  0.00     0.040 A 
ATOM     76  C   UNL A   1      42.197  20.859  25.510  1.00  0.00     0.040 A 
ATOM     77  F   UNL A   1      42.810  23.014  24.809  1.00  0.00    -0.206 F 
ATOM     78  C   UNL A   1      41.874  19.966  26.529  1.00  0.00     0.006 A 
ENDBRANCH  50  71
BRANCH  62  79
ATOM     79  C   UNL A   1      48.388  26.240  27.231  1.00  0.00     0.057 A 
ATOM     80  C   UNL A   1      49.206  25.666  28.212  1.00  0.00     0.134 A 
ATOM     81  C   UNL A   1      48.929  26.411  25.952  1.00  0.00     0.134 A 
ATOM     82  F   UNL A   1      48.748  25.487  29.461  1.00  0.00    -0.206 F 
ATOM     83  C   UNL A   1      50.522  25.295  27.935  1.00  0.00     0.040 A 
ATOM     84  C   UNL A   1      50.237  26.027  25.658  1.00  0.00     0.040 A 
ATOM     85  F   UNL A   1      48.192  26.948  24.968  1.00  0.00    -0.206 F 
ATOM     86  C   UNL A   1      51.041  25.472  26.653  1.00  0.00     0.006 A 
ENDBRANCH  62  79
ENDBRANCH  36  37
ENDBRANCH  29  31
ENDBRANCH  28  29
ENDBRANCH  27  28
ENDBRANCH  26  27
ENDBRANCH  25  26
ENDBRANCH  24  25
ENDBRANCH   1  24
TORSDOF 19
ENDMDL
MODEL 2
REMARK VINA RESULT:     -10.5      5.857      8.228
REMARK SMILES Cc1cc(N2CCOC[C@H]2C(=O)OCCOCCOCCOC(=O)c2ccc(-c3c4nc(c(-c5c(F)cccc5F)c5ccc([nH]5)c(-c5c(F)cccc5F)c5nc(c(-c6c(F)cccc6F)c6ccc3[nH]6)C=C5)C=C4)cc2)ncc1[N+](=O)[O-]
REMARK SMILES IDX 17 1 16 2 15 3 14 4 13 5 11 6 12 7 10 8 5 9 6 10 7 11 9 12
REMARK SMILES IDX 8 13 4 14 1 15 2 16 3 17 81 18 80 19 79 20 82 21 83 22 84 23
REMARK SMILES IDX 18 24 19 25 20 26 21 27 22 28 23 29 24 30 25 31 26 32 78 33
REMARK SMILES IDX 27 34 77 35 28 36 29 37 30 38 71 39 31 40 76 41 70 42 72 43
REMARK SMILES IDX 32 44 75 45 69 46 68 47 33 49 59 50 42 51 58 52 43 53 46 54
REMARK SMILES IDX 57 55 73 56 44 57 45 58 56 60 74 61 47 62 34 63 35 64 40 65
REMARK SMILES IDX 36 66 37 67 39 68 41 69 38 70 60 71 61 72 66 73 62 74 63 75
REMARK SMILES IDX 65 76 67 77 64 78 48 79 49 80 54 81 50 82 51 83 53 84 55 85
REMARK SMILES IDX 52 86
REMARK H PARENT 72 48 46 59
REMARK Flexibility Score: inf
ROOT
ATOM      1  C   UNL A   1      34.024  30.950  27.560  1.00  0.00     0.188 C 
ENDROOT
BRANCH   1   2
ATOM      2  O   UNL A   1      32.636  30.891  27.243  1.00  0.00    -0.376 OA
BRANCH   2   3
ATOM      3  C   UNL A   1      32.000  29.620  27.330  1.00  0.00     0.202 C 
BRANCH   3   4
ATOM      4  C   UNL A   1      32.920  28.443  27.014  1.00  0.00     0.261 C 
BRANCH   4   5
ATOM      5  O   UNL A   1      32.535  27.826  25.771  1.00  0.00    -0.462 OA
BRANCH   5   6
ATOM      6  C   UNL A   1      31.443  27.019  25.782  1.00  0.00     0.331 C 
ATOM      7  O   UNL A   1      31.232  26.151  26.625  1.00  0.00    -0.250 OA
BRANCH   6   8
ATOM      8  C   UNL A   1      30.492  27.258  24.605  1.00  0.00     0.220 C 
ATOM      9  N   UNL A   1      31.092  28.000  23.456  1.00  0.00    -0.339 N 
ATOM     10  C   UNL A   1      31.876  27.182  22.508  1.00  0.00     0.147 C 
ATOM     11  C   UNL A   1      31.170  25.867  22.167  1.00  0.00     0.181 C 
ATOM     12  C   UNL A   1      29.927  25.893  24.171  1.00  0.00     0.197 C 
ATOM     13  O   UNL A   1      30.843  25.138  23.361  1.00  0.00    -0.377 OA
BRANCH   9  14
ATOM     14  C   UNL A   1      30.285  28.974  22.872  1.00  0.00     0.130 A 
ATOM     15  C   UNL A   1      27.236  31.016  23.861  1.00  0.00     0.052 C 
ATOM     16  C   UNL A   1      28.379  30.489  23.046  1.00  0.00     0.032 A 
ATOM     17  C   UNL A   1      29.141  29.416  23.545  1.00  0.00     0.057 A 
ATOM     18  C   UNL A   1      28.770  31.025  21.818  1.00  0.00     0.290 A 
ATOM     19  C   UNL A   1      29.900  30.530  21.191  1.00  0.00     0.199 A 
ATOM     20  N   UNL A   1      30.662  29.530  21.702  1.00  0.00    -0.232 NA
BRANCH  18  21
ATOM     21  N   UNL A   1      28.046  32.091  21.158  1.00  0.00     0.064 N 
ATOM     22  O   UNL A   1      28.171  33.230  21.625  1.00  0.00    -0.258 OA
ATOM     23  O   UNL A   1      27.375  31.793  20.162  1.00  0.00    -0.258 OA
ENDBRANCH  18  21
ENDBRANCH   9  14
ENDBRANCH   6   8
ENDBRANCH   5   6
ENDBRANCH   4   5
ENDBRANCH   3   4
ENDBRANCH   2   3
ENDBRANCH   1   2
BRANCH   1  24
ATOM     24  C   UNL A   1      34.447  31.957  28.644  1.00  0.00     0.188 C 
BRANCH  24  25
ATOM     25  O   UNL A   1      34.631  33.307  28.227  1.00  0.00    -0.376 OA
BRANCH  25  26
ATOM     26  C   UNL A   1      33.456  34.105  28.096  1.00  0.00     0.202 C 
BRANCH  26  27
ATOM     27  C   UNL A   1      33.418  35.278  29.069  1.00  0.00     0.261 C 
BRANCH  27  28
ATOM     28  O   UNL A   1      32.620  34.917  30.211  1.00  0.00    -0.460 OA
BRANCH  28  29
ATOM     29  C   UNL A   1      32.767  35.742  31.263  1.00  0.00     0.338 C 
ATOM     30  O   UNL A   1      32.199  36.812  31.448  1.00  0.00    -0.246 OA
BRANCH  29  31
ATOM     31  C   UNL A   1      33.724  35.175  32.227  1.00  0.00     0.060 A 
ATOM     32  C   UNL A   1      34.923  35.832  32.512  1.00  0.00     0.016 A 
ATOM     33  C   UNL A   1      33.512  33.875  32.684  1.00  0.00     0.016 A 
ATOM     34  C   UNL A   1      35.969  35.132  33.122  1.00  0.00     0.010 A 
ATOM     35  C   UNL A   1      34.538  33.199  33.347  1.00  0.00     0.010 A 
ATOM     36  C   UNL A   1      35.808  33.788  33.486  1.00  0.00    -0.014 A 
BRANCH  36  37
ATOM     37  C   UNL A   1      36.981  32.919  33.795  1.00  0.00     0.031 A 
ATOM     38  C   UNL A   1      37.632  33.037  35.156  1.00  0.00     0.074 A 
ATOM     39  C   UNL A   1      37.453  31.993  32.938  1.00  0.00     0.049 A 
ATOM     40  N   UNL A   1      38.809  32.629  35.555  1.00  0.00    -0.248 NA
ATOM     41  C   UNL A   1      36.852  33.723  36.201  1.00  0.00     0.031 C 
ATOM     42  C   UNL A   1      36.878  31.657  31.639  1.00  0.00     0.029 A 
ATOM     43  N   UNL A   1      38.535  31.153  33.053  1.00  0.00    -0.354 N 
ATOM     44  C   UNL A   1      38.950  33.096  36.858  1.00  0.00     0.074 A 
ATOM     45  C   UNL A   1      37.725  33.788  37.195  1.00  0.00     0.031 C 
ATOM     46  C   UNL A   1      37.588  30.656  31.092  1.00  0.00     0.029 A 
ATOM     47  C   UNL A   1      38.724  30.347  31.958  1.00  0.00     0.049 A 
ATOM     48  H   UNL A   1      39.118  31.130  33.845  1.00  0.00     0.167 HD
ATOM     49  C   UNL A   1      40.010  32.975  37.689  1.00  0.00     0.037 A 
ATOM     50  C   UNL A   1      39.724  29.494  31.661  1.00  0.00     0.037 A 
ATOM     51  C   UNL A   1      41.185  32.199  37.395  1.00  0.00     0.049 A 
ATOM     52  C   UNL A   1      40.897  29.366  32.597  1.00  0.00     0.074 A 
ATOM     53  C   UNL A   1      42.328  32.034  38.158  1.00  0.00     0.029 A 
ATOM     54  N   UNL A   1      41.342  31.416  36.264  1.00  0.00    -0.354 N 
ATOM     55  N   UNL A   1      41.100  29.945  33.755  1.00  0.00    -0.248 NA
ATOM     56  C   UNL A   1      41.998  28.492  32.163  1.00  0.00     0.031 C 
ATOM     57  C   UNL A   1      43.182  31.154  37.483  1.00  0.00     0.029 A 
ATOM     58  C   UNL A   1      42.557  30.755  36.313  1.00  0.00     0.049 A 
ATOM     59  H   UNL A   1      40.687  31.342  35.533  1.00  0.00     0.167 HD
ATOM     60  C   UNL A   1      42.344  29.503  34.189  1.00  0.00     0.074 A 
ATOM     61  C   UNL A   1      42.839  28.587  33.182  1.00  0.00     0.031 C 
ATOM     62  C   UNL A   1      43.025  29.836  35.312  1.00  0.00     0.037 A 
BRANCH  49  63
ATOM     63  C   UNL A   1      39.978  33.738  38.978  1.00  0.00     0.057 A 
ATOM     64  C   UNL A   1      39.388  33.227  40.138  1.00  0.00     0.134 A 
ATOM     65  C   UNL A   1      40.595  34.994  39.063  1.00  0.00     0.134 A 
ATOM     66  F   UNL A   1      38.765  32.040  40.117  1.00  0.00    -0.206 F 
ATOM     67  C   UNL A   1      39.406  33.943  41.338  1.00  0.00     0.040 A 
ATOM     68  C   UNL A   1      40.638  35.709  40.260  1.00  0.00     0.040 A 
ATOM     69  F   UNL A   1      41.180  35.538  37.984  1.00  0.00    -0.206 F 
ATOM     70  C   UNL A   1      40.040  35.183  41.402  1.00  0.00     0.006 A 
ENDBRANCH  49  63
BRANCH  50  71
ATOM     71  C   UNL A   1      39.701  28.729  30.389  1.00  0.00     0.057 A 
ATOM     72  C   UNL A   1      39.124  27.456  30.323  1.00  0.00     0.134 A 
ATOM     73  C   UNL A   1      40.279  29.236  29.219  1.00  0.00     0.134 A 
ATOM     74  F   UNL A   1      38.583  26.903  31.419  1.00  0.00    -0.206 F 
ATOM     75  C   UNL A   1      39.132  26.709  29.144  1.00  0.00     0.040 A 
ATOM     76  C   UNL A   1      40.270  28.513  28.026  1.00  0.00     0.040 A 
ATOM     77  F   UNL A   1      40.853  30.448  29.218  1.00  0.00    -0.206 F 
ATOM     78  C   UNL A   1      39.701  27.242  27.988  1.00  0.00     0.006 A 
ENDBRANCH  50  71
BRANCH  62  79
ATOM     79  C   UNL A   1      44.355  29.182  35.525  1.00  0.00     0.057 A 
ATOM     80  C   UNL A   1      44.475  27.970  36.215  1.00  0.00     0.134 A 
ATOM     81  C   UNL A   1      45.523  29.757  35.012  1.00  0.00     0.134 A 
ATOM     82  F   UNL A   1      43.392  27.377  36.740  1.00  0.00    -0.206 F 
ATOM     83  C   UNL A   1      45.716  27.362  36.407  1.00  0.00     0.040 A 
ATOM     84  C   UNL A   1      46.768  29.149  35.180  1.00  0.00     0.040 A 
ATOM     85  F   UNL A   1      45.473  30.914  34.334  1.00  0.00    -0.206 F 
ATOM     86  C   UNL A   1      46.867  27.951  35.886  1.00  0.00     0.006 A 
ENDBRANCH  62  79
ENDBRANCH  36  37
ENDBRANCH  29  31
ENDBRANCH  28  29
ENDBRANCH  27  28
ENDBRANCH  26  27
ENDBRANCH  25  26
ENDBRANCH  24  25
ENDBRANCH   1  24
TORSDOF 19
ENDMDL
MODEL 3
REMARK VINA RESULT:     -10.4      2.472      7.115
REMARK SMILES Cc1cc(N2CCOC[C@H]2C(=O)OCCOCCOCCOC(=O)c2ccc(-c3c4nc(c(-c5c(F)cccc5F)c5ccc([nH]5)c(-c5c(F)cccc5F)c5nc(c(-c6c(F)cccc6F)c6ccc3[nH]6)C=C5)C=C4)cc2)ncc1[N+](=O)[O-]
REMARK SMILES IDX 17 1 16 2 15 3 14 4 13 5 11 6 12 7 10 8 5 9 6 10 7 11 9 12
REMARK SMILES IDX 8 13 4 14 1 15 2 16 3 17 81 18 80 19 79 20 82 21 83 22 84 23
REMARK SMILES IDX 18 24 19 25 20 26 21 27 22 28 23 29 24 30 25 31 26 32 78 33
REMARK SMILES IDX 27 34 77 35 28 36 29 37 30 38 71 39 31 40 76 41 70 42 72 43
REMARK SMILES IDX 32 44 75 45 69 46 68 47 33 49 59 50 42 51 58 52 43 53 46 54
REMARK SMILES IDX 57 55 73 56 44 57 45 58 56 60 74 61 47 62 34 63 35 64 40 65
REMARK SMILES IDX 36 66 37 67 39 68 41 69 38 70 60 71 61 72 66 73 62 74 63 75
REMARK SMILES IDX 65 76 67 77 64 78 48 79 49 80 54 81 50 82 51 83 53 84 55 85
REMARK SMILES IDX 52 86
REMARK H PARENT 72 48 46 59
REMARK Flexibility Score: inf
ROOT
ATOM      1  C   UNL A   1      32.472  20.919  24.359  1.00  0.00     0.188 C 
ENDROOT
BRANCH   1   2
ATOM      2  O   UNL A   1      31.476  20.980  25.376  1.00  0.00    -0.376 OA
BRANCH   2   3
ATOM      3  C   UNL A   1      31.264  22.239  26.008  1.00  0.00     0.202 C 
BRANCH   3   4
ATOM      4  C   UNL A   1      32.419  23.222  25.834  1.00  0.00     0.261 C 
BRANCH   4   5
ATOM      5  O   UNL A   1      31.974  24.400  25.135  1.00  0.00    -0.462 OA
BRANCH   5   6
ATOM      6  C   UNL A   1      32.862  25.417  24.989  1.00  0.00     0.331 C 
ATOM      7  O   UNL A   1      33.934  25.320  24.397  1.00  0.00    -0.250 OA
BRANCH   6   8
ATOM      8  C   UNL A   1      32.425  26.715  25.675  1.00  0.00     0.220 C 
ATOM      9  N   UNL A   1      32.925  27.965  25.028  1.00  0.00    -0.339 N 
ATOM     10  C   UNL A   1      32.136  28.444  23.874  1.00  0.00     0.147 C 
ATOM     11  C   UNL A   1      30.630  28.379  24.145  1.00  0.00     0.181 C 
ATOM     12  C   UNL A   1      30.890  26.699  25.779  1.00  0.00     0.197 C 
ATOM     13  O   UNL A   1      30.239  27.057  24.548  1.00  0.00    -0.377 OA
BRANCH   9  14
ATOM     14  C   UNL A   1      33.377  28.960  25.890  1.00  0.00     0.130 A 
ATOM     15  C   UNL A   1      36.453  29.593  28.032  1.00  0.00     0.052 C 
ATOM     16  C   UNL A   1      35.117  29.799  27.384  1.00  0.00     0.032 A 
ATOM     17  C   UNL A   1      34.563  28.764  26.606  1.00  0.00     0.057 A 
ATOM     18  C   UNL A   1      34.385  30.984  27.470  1.00  0.00     0.290 A 
ATOM     19  C   UNL A   1      33.207  31.110  26.754  1.00  0.00     0.199 A 
ATOM     20  N   UNL A   1      32.705  30.127  25.964  1.00  0.00    -0.232 NA
BRANCH  18  21
ATOM     21  N   UNL A   1      34.804  32.110  28.279  1.00  0.00     0.064 N 
ATOM     22  O   UNL A   1      35.526  32.956  27.738  1.00  0.00    -0.258 OA
ATOM     23  O   UNL A   1      34.390  32.159  29.445  1.00  0.00    -0.258 OA
ENDBRANCH  18  21
ENDBRANCH   9  14
ENDBRANCH   6   8
ENDBRANCH   5   6
ENDBRANCH   4   5
ENDBRANCH   3   4
ENDBRANCH   2   3
ENDBRANCH   1   2
BRANCH   1  24
ATOM     24  C   UNL A   1      33.635  19.936  24.585  1.00  0.00     0.188 C 
BRANCH  24  25
ATOM     25  O   UNL A   1      34.643  20.337  25.508  1.00  0.00    -0.376 OA
BRANCH  25  26
ATOM     26  C   UNL A   1      35.565  21.330  25.063  1.00  0.00     0.202 C 
BRANCH  26  27
ATOM     27  C   UNL A   1      36.994  20.811  24.955  1.00  0.00     0.261 C 
BRANCH  27  28
ATOM     28  O   UNL A   1      37.908  21.913  25.104  1.00  0.00    -0.460 OA
BRANCH  28  29
ATOM     29  C   UNL A   1      38.982  21.633  25.865  1.00  0.00     0.338 C 
ATOM     30  O   UNL A   1      39.597  20.574  25.912  1.00  0.00    -0.246 OA
BRANCH  29  31
ATOM     31  C   UNL A   1      39.364  22.810  26.661  1.00  0.00     0.060 A 
ATOM     32  C   UNL A   1      38.837  24.070  26.370  1.00  0.00     0.016 A 
ATOM     33  C   UNL A   1      40.417  22.683  27.567  1.00  0.00     0.016 A 
ATOM     34  C   UNL A   1      39.465  25.216  26.868  1.00  0.00     0.010 A 
ATOM     35  C   UNL A   1      41.002  23.827  28.110  1.00  0.00     0.010 A 
ATOM     36  C   UNL A   1      40.595  25.107  27.690  1.00  0.00    -0.014 A 
BRANCH  36  37
ATOM     37  C   UNL A   1      41.493  26.273  27.940  1.00  0.00     0.031 A 
ATOM     38  C   UNL A   1      40.998  27.391  28.831  1.00  0.00     0.074 A 
ATOM     39  C   UNL A   1      42.746  26.349  27.452  1.00  0.00     0.049 A 
ATOM     40  N   UNL A   1      41.445  28.613  28.960  1.00  0.00    -0.248 NA
ATOM     41  C   UNL A   1      39.832  27.089  29.679  1.00  0.00     0.031 C 
ATOM     42  C   UNL A   1      43.429  25.315  26.679  1.00  0.00     0.029 A 
ATOM     43  N   UNL A   1      43.673  27.359  27.553  1.00  0.00    -0.354 N 
ATOM     44  C   UNL A   1      40.558  29.252  29.821  1.00  0.00     0.074 A 
ATOM     45  C   UNL A   1      39.567  28.273  30.211  1.00  0.00     0.031 C 
ATOM     46  C   UNL A   1      44.679  25.726  26.409  1.00  0.00     0.029 A 
ATOM     47  C   UNL A   1      44.853  27.089  26.905  1.00  0.00     0.049 A 
ATOM     48  H   UNL A   1      43.508  28.196  28.044  1.00  0.00     0.167 HD
ATOM     49  C   UNL A   1      40.560  30.541  30.232  1.00  0.00     0.037 A 
ATOM     50  C   UNL A   1      45.931  27.869  26.690  1.00  0.00     0.037 A 
ATOM     51  C   UNL A   1      41.601  31.485  29.931  1.00  0.00     0.049 A 
ATOM     52  C   UNL A   1      45.921  29.301  27.156  1.00  0.00     0.074 A 
ATOM     53  C   UNL A   1      41.685  32.824  30.276  1.00  0.00     0.029 A 
ATOM     54  N   UNL A   1      42.767  31.174  29.252  1.00  0.00    -0.354 N 
ATOM     55  N   UNL A   1      44.999  29.947  27.827  1.00  0.00    -0.248 NA
ATOM     56  C   UNL A   1      47.089  30.121  26.801  1.00  0.00     0.031 C 
ATOM     57  C   UNL A   1      42.901  33.324  29.799  1.00  0.00     0.029 A 
ATOM     58  C   UNL A   1      43.583  32.290  29.179  1.00  0.00     0.049 A 
ATOM     59  H   UNL A   1      42.984  30.291  28.876  1.00  0.00     0.167 HD
ATOM     60  C   UNL A   1      45.477  31.243  27.978  1.00  0.00     0.074 A 
ATOM     61  C   UNL A   1      46.782  31.286  27.352  1.00  0.00     0.031 C 
ATOM     62  C   UNL A   1      44.884  32.309  28.568  1.00  0.00     0.037 A 
BRANCH  49  63
ATOM     63  C   UNL A   1      39.376  31.026  31.012  1.00  0.00     0.057 A 
ATOM     64  C   UNL A   1      38.315  31.715  30.417  1.00  0.00     0.134 A 
ATOM     65  C   UNL A   1      39.284  30.753  32.384  1.00  0.00     0.134 A 
ATOM     66  F   UNL A   1      38.353  32.024  29.112  1.00  0.00    -0.206 F 
ATOM     67  C   UNL A   1      37.206  32.123  31.161  1.00  0.00     0.040 A 
ATOM     68  C   UNL A   1      38.172  31.136  33.133  1.00  0.00     0.040 A 
ATOM     69  F   UNL A   1      40.270  30.094  33.014  1.00  0.00    -0.206 F 
ATOM     70  C   UNL A   1      37.129  31.825  32.521  1.00  0.00     0.006 A 
ENDBRANCH  49  63
BRANCH  50  71
ATOM     71  C   UNL A   1      47.099  27.339  25.942  1.00  0.00     0.057 A 
ATOM     72  C   UNL A   1      48.175  26.745  26.613  1.00  0.00     0.134 A 
ATOM     73  C   UNL A   1      47.184  27.438  24.548  1.00  0.00     0.134 A 
ATOM     74  F   UNL A   1      48.166  26.649  27.951  1.00  0.00    -0.206 F 
ATOM     75  C   UNL A   1      49.296  26.279  25.926  1.00  0.00     0.040 A 
ATOM     76  C   UNL A   1      48.287  26.952  23.846  1.00  0.00     0.040 A 
ATOM     77  F   UNL A   1      46.188  28.002  23.849  1.00  0.00    -0.206 F 
ATOM     78  C   UNL A   1      49.351  26.376  24.536  1.00  0.00     0.006 A 
ENDBRANCH  50  71
BRANCH  62  79
ATOM     79  C   UNL A   1      45.653  33.594  28.593  1.00  0.00     0.057 A 
ATOM     80  C   UNL A   1      45.511  34.553  27.583  1.00  0.00     0.134 A 
ATOM     81  C   UNL A   1      46.522  33.885  29.651  1.00  0.00     0.134 A 
ATOM     82  F   UNL A   1      44.702  34.325  26.538  1.00  0.00    -0.206 F 
ATOM     83  C   UNL A   1      46.226  35.751  27.614  1.00  0.00     0.040 A 
ATOM     84  C   UNL A   1      47.228  35.087  29.702  1.00  0.00     0.040 A 
ATOM     85  F   UNL A   1      46.694  33.009  30.652  1.00  0.00    -0.206 F 
ATOM     86  C   UNL A   1      47.086  36.022  28.678  1.00  0.00     0.006 A 
ENDBRANCH  62  79
ENDBRANCH  36  37
ENDBRANCH  29  31
ENDBRANCH  28  29
ENDBRANCH  27  28
ENDBRANCH  26  27
ENDBRANCH  25  26
ENDBRANCH  24  25
ENDBRANCH   1  24
TORSDOF 19
ENDMDL
