MODEL 1
REMARK VINA RESULT:     -11.8      0.000      0.000
REMARK SMILES NS(=O)(=O)c1ccc(-c2cc(Cl)cc3c2O[C@H](C(F)(F)F)C(C(=O)OCCOCCOCCOC(=O)c2ccc(-c4c5nc(c(-c6c(F)cccc6F)c6ccc([nH]6)c(-c6c(F)cccc6F)c6nc(c(-c7c(F)cccc7F)c7ccc4[nH]7)C=C6)C=C5)cc2)=C3)cc1
REMARK SMILES IDX 29 1 28 2 27 3 26 4 25 5 23 6 24 7 22 8 9 9 10 10 15 11
REMARK SMILES IDX 11 12 14 13 16 14 12 15 13 16 91 17 17 18 8 19 5 20 6 21
REMARK SMILES IDX 93 22 7 23 92 24 2 25 3 26 4 27 1 28 18 31 19 32 20 33 21 34
REMARK SMILES IDX 30 35 31 36 32 37 33 38 34 39 35 40 36 41 37 42 38 43 90 44
REMARK SMILES IDX 39 45 89 46 40 47 41 48 42 49 83 50 43 51 88 52 82 53 84 54
REMARK SMILES IDX 44 55 87 56 81 57 80 58 45 60 71 61 54 62 70 63 55 64 58 65
REMARK SMILES IDX 69 66 85 67 56 68 57 69 68 71 86 72 59 73 46 74 47 75 52 76
REMARK SMILES IDX 48 77 49 78 51 79 53 80 50 81 72 82 73 83 78 84 74 85 75 86
REMARK SMILES IDX 77 87 79 88 76 89 60 90 61 91 66 92 62 93 63 94 65 95 67 96
REMARK SMILES IDX 64 97
REMARK H PARENT 1 29 1 30 84 59 58 70
REMARK Flexibility Score: inf
ROOT
ATOM      1  C   UNL A   1      34.272  31.213  28.236  1.00  0.00     0.188 C 
ENDROOT
BRANCH   1   2
ATOM      2  O   UNL A   1      33.720  30.376  27.238  1.00  0.00    -0.376 OA
BRANCH   2   3
ATOM      3  C   UNL A   1      32.400  30.695  26.802  1.00  0.00     0.202 C 
BRANCH   3   4
ATOM      4  C   UNL A   1      31.794  29.779  25.725  1.00  0.00     0.261 C 
BRANCH   4   5
ATOM      5  O   UNL A   1      31.782  28.380  26.122  1.00  0.00    -0.460 OA
BRANCH   5   6
ATOM      6  C   UNL A   1      31.393  27.513  25.164  1.00  0.00     0.338 C 
ATOM      7  O   UNL A   1      30.286  27.517  24.640  1.00  0.00    -0.246 OA
BRANCH   6   8
ATOM      8  C   UNL A   1      32.493  26.616  24.710  1.00  0.00     0.087 C 
ATOM      9  C   UNL A   1      32.200  22.484  24.624  1.00  0.00     0.026 A 
ATOM     10  C   UNL A   1      31.166  22.208  25.551  1.00  0.00     0.033 A 
ATOM     11  C   UNL A   1      32.621  23.820  24.597  1.00  0.00     0.135 A 
ATOM     12  C   UNL A   1      30.714  23.131  26.496  1.00  0.00     0.042 A 
ATOM     13  C   UNL A   1      32.357  24.642  25.714  1.00  0.00     0.019 A 
ATOM     14  O   UNL A   1      33.129  24.487  23.483  1.00  0.00    -0.475 OA
ATOM     15  Cl  UNL A   1      29.397  22.780  27.537  1.00  0.00    -0.084 Cl
ATOM     16  C   UNL A   1      31.374  24.329  26.639  1.00  0.00     0.032 A 
ATOM     17  C   UNL A   1      33.017  25.964  25.759  1.00  0.00     0.027 C 
ATOM     18  C   UNL A   1      32.534  25.882  23.370  1.00  0.00     0.316 C 
BRANCH   9  19
ATOM     19  C   UNL A   1      32.860  21.248  24.090  1.00  0.00    -0.015 A 
ATOM     20  C   UNL A   1      33.574  18.472  23.997  1.00  0.00     0.082 A 
ATOM     21  C   UNL A   1      32.478  18.938  23.278  1.00  0.00     0.022 A 
ATOM     22  C   UNL A   1      34.355  19.384  24.712  1.00  0.00     0.022 A 
ATOM     23  C   UNL A   1      32.148  20.308  23.320  1.00  0.00     0.010 A 
ATOM     24  C   UNL A   1      34.008  20.753  24.745  1.00  0.00     0.010 A 
BRANCH  20  25
ATOM     25  S   UNL A   1      33.931  16.730  24.100  1.00  0.00     0.238 S 
ATOM     26  O   UNL A   1      34.947  16.521  25.103  1.00  0.00    -0.207 OA
ATOM     27  O   UNL A   1      34.072  16.228  22.753  1.00  0.00    -0.207 OA
BRANCH  25  28
ATOM     28  N   UNL A   1      32.534  16.041  24.718  1.00  0.00    -0.225 NA
ATOM     29  H   UNL A   1      32.603  15.986  25.734  1.00  0.00     0.137 HD
ATOM     30  H   UNL A   1      32.418  15.103  24.334  1.00  0.00     0.137 HD
ENDBRANCH  25  28
ENDBRANCH  20  25
ENDBRANCH   9  19
BRANCH  18  31
ATOM     31  C   UNL A   1      33.289  26.762  22.366  1.00  0.00     0.430 C 
ATOM     32  F   UNL A   1      32.730  27.987  22.244  1.00  0.00    -0.167 F 
ATOM     33  F   UNL A   1      34.584  26.926  22.711  1.00  0.00    -0.167 F 
ATOM     34  F   UNL A   1      33.281  26.195  21.132  1.00  0.00    -0.167 F 
ENDBRANCH  18  31
ENDBRANCH   6   8
ENDBRANCH   5   6
ENDBRANCH   4   5
ENDBRANCH   3   4
ENDBRANCH   2   3
ENDBRANCH   1   2
BRANCH   1  35
ATOM     35  C   UNL A   1      34.125  32.726  27.960  1.00  0.00     0.188 C 
BRANCH  35  36
ATOM     36  O   UNL A   1      33.558  33.575  28.945  1.00  0.00    -0.376 OA
BRANCH  36  37
ATOM     37  C   UNL A   1      33.881  34.961  28.933  1.00  0.00     0.202 C 
BRANCH  37  38
ATOM     38  C   UNL A   1      32.897  35.970  29.548  1.00  0.00     0.261 C 
BRANCH  38  39
ATOM     39  O   UNL A   1      33.248  36.451  30.862  1.00  0.00    -0.460 OA
BRANCH  39  40
ATOM     40  C   UNL A   1      32.823  35.682  31.895  1.00  0.00     0.338 C 
ATOM     41  O   UNL A   1      31.671  35.428  32.202  1.00  0.00    -0.246 OA
BRANCH  40  42
ATOM     42  C   UNL A   1      33.965  34.998  32.540  1.00  0.00     0.060 A 
ATOM     43  C   UNL A   1      35.218  35.602  32.441  1.00  0.00     0.016 A 
ATOM     44  C   UNL A   1      33.849  33.736  33.127  1.00  0.00     0.016 A 
ATOM     45  C   UNL A   1      36.348  34.940  32.924  1.00  0.00     0.010 A 
ATOM     46  C   UNL A   1      34.995  33.078  33.616  1.00  0.00     0.010 A 
ATOM     47  C   UNL A   1      36.261  33.674  33.524  1.00  0.00    -0.014 A 
BRANCH  47  48
ATOM     48  C   UNL A   1      37.513  32.955  33.917  1.00  0.00     0.031 A 
ATOM     49  C   UNL A   1      38.163  32.024  32.939  1.00  0.00     0.074 A 
ATOM     50  C   UNL A   1      38.110  33.142  35.112  1.00  0.00     0.049 A 
ATOM     51  N   UNL A   1      39.250  31.307  33.078  1.00  0.00    -0.248 NA
ATOM     52  C   UNL A   1      37.481  31.851  31.649  1.00  0.00     0.031 C 
ATOM     53  C   UNL A   1      37.589  33.995  36.162  1.00  0.00     0.029 A 
ATOM     54  N   UNL A   1      39.304  32.679  35.626  1.00  0.00    -0.354 N 
ATOM     55  C   UNL A   1      39.334  30.532  31.931  1.00  0.00     0.074 A 
ATOM     56  C   UNL A   1      38.229  30.918  31.080  1.00  0.00     0.031 C 
ATOM     57  C   UNL A   1      38.513  34.113  37.132  1.00  0.00     0.029 A 
ATOM     58  C   UNL A   1      39.658  33.264  36.825  1.00  0.00     0.049 A 
ATOM     59  H   UNL A   1      39.853  31.994  35.179  1.00  0.00     0.167 HD
ATOM     60  C   UNL A   1      40.217  29.546  31.647  1.00  0.00     0.037 A 
ATOM     61  C   UNL A   1      40.765  33.137  37.592  1.00  0.00     0.037 A 
ATOM     62  C   UNL A   1      41.314  29.158  32.495  1.00  0.00     0.049 A 
ATOM     63  C   UNL A   1      41.775  32.076  37.230  1.00  0.00     0.074 A 
ATOM     64  C   UNL A   1      42.266  28.178  32.270  1.00  0.00     0.029 A 
ATOM     65  N   UNL A   1      41.593  29.706  33.738  1.00  0.00    -0.354 N 
ATOM     66  N   UNL A   1      41.836  31.330  36.151  1.00  0.00    -0.248 NA
ATOM     67  C   UNL A   1      42.834  31.789  38.211  1.00  0.00     0.031 C 
ATOM     68  C   UNL A   1      43.094  28.105  33.395  1.00  0.00     0.029 A 
ATOM     69  C   UNL A   1      42.705  29.087  34.292  1.00  0.00     0.049 A 
ATOM     70  H   UNL A   1      41.079  30.429  34.165  1.00  0.00     0.167 HD
ATOM     71  C   UNL A   1      42.892  30.449  36.353  1.00  0.00     0.074 A 
ATOM     72  C   UNL A   1      43.503  30.810  37.614  1.00  0.00     0.031 C 
ATOM     73  C   UNL A   1      43.302  29.427  35.562  1.00  0.00     0.037 A 
BRANCH  60  74
ATOM     74  C   UNL A   1      39.956  28.745  30.406  1.00  0.00     0.057 A 
ATOM     75  C   UNL A   1      39.128  27.617  30.394  1.00  0.00     0.134 A 
ATOM     76  C   UNL A   1      40.570  29.112  29.199  1.00  0.00     0.134 A 
ATOM     77  F   UNL A   1      38.530  27.201  31.520  1.00  0.00    -0.206 F 
ATOM     78  C   UNL A   1      38.948  26.860  29.233  1.00  0.00     0.040 A 
ATOM     79  C   UNL A   1      40.373  28.382  28.028  1.00  0.00     0.040 A 
ATOM     80  F   UNL A   1      41.375  30.184  29.144  1.00  0.00    -0.206 F 
ATOM     81  C   UNL A   1      39.568  27.245  28.046  1.00  0.00     0.006 A 
ENDBRANCH  60  74
BRANCH  61  82
ATOM     82  C   UNL A   1      40.988  34.001  38.793  1.00  0.00     0.057 A 
ATOM     83  C   UNL A   1      40.462  33.640  40.043  1.00  0.00     0.134 A 
ATOM     84  C   UNL A   1      41.701  35.203  38.746  1.00  0.00     0.134 A 
ATOM     85  F   UNL A   1      39.729  32.529  40.169  1.00  0.00    -0.206 F 
ATOM     86  C   UNL A   1      40.633  34.424  41.186  1.00  0.00     0.040 A 
ATOM     87  C   UNL A   1      41.916  35.981  39.889  1.00  0.00     0.040 A 
ATOM     88  F   UNL A   1      42.216  35.640  37.587  1.00  0.00    -0.206 F 
ATOM     89  C   UNL A   1      41.377  35.595  41.113  1.00  0.00     0.006 A 
ENDBRANCH  61  82
BRANCH  73  90
ATOM     90  C   UNL A   1      44.478  28.614  36.028  1.00  0.00     0.057 A 
ATOM     91  C   UNL A   1      44.321  27.449  36.791  1.00  0.00     0.134 A 
ATOM     92  C   UNL A   1      45.781  28.970  35.657  1.00  0.00     0.134 A 
ATOM     93  F   UNL A   1      43.101  27.057  37.191  1.00  0.00    -0.206 F 
ATOM     94  C   UNL A   1      45.418  26.676  37.178  1.00  0.00     0.040 A 
ATOM     95  C   UNL A   1      46.883  28.191  36.013  1.00  0.00     0.040 A 
ATOM     96  F   UNL A   1      46.000  30.068  34.918  1.00  0.00    -0.206 F 
ATOM     97  C   UNL A   1      46.703  27.041  36.779  1.00  0.00     0.006 A 
ENDBRANCH  73  90
ENDBRANCH  47  48
ENDBRANCH  40  42
ENDBRANCH  39  40
ENDBRANCH  38  39
ENDBRANCH  37  38
ENDBRANCH  36  37
ENDBRANCH  35  36
ENDBRANCH   1  35
TORSDOF 21
ENDMDL
MODEL 2
REMARK VINA RESULT:     -11.0      6.250      8.931
REMARK SMILES NS(=O)(=O)c1ccc(-c2cc(Cl)cc3c2O[C@H](C(F)(F)F)C(C(=O)OCCOCCOCCOC(=O)c2ccc(-c4c5nc(c(-c6c(F)cccc6F)c6ccc([nH]6)c(-c6c(F)cccc6F)c6nc(c(-c7c(F)cccc7F)c7ccc4[nH]7)C=C6)C=C5)cc2)=C3)cc1
REMARK SMILES IDX 29 1 28 2 27 3 26 4 25 5 23 6 24 7 22 8 9 9 10 10 15 11
REMARK SMILES IDX 11 12 14 13 16 14 12 15 13 16 91 17 17 18 8 19 5 20 6 21
REMARK SMILES IDX 93 22 7 23 92 24 2 25 3 26 4 27 1 28 18 31 19 32 20 33 21 34
REMARK SMILES IDX 30 35 31 36 32 37 33 38 34 39 35 40 36 41 37 42 38 43 90 44
REMARK SMILES IDX 39 45 89 46 40 47 41 48 42 49 83 50 43 51 88 52 82 53 84 54
REMARK SMILES IDX 44 55 87 56 81 57 80 58 45 60 71 61 54 62 70 63 55 64 58 65
REMARK SMILES IDX 69 66 85 67 56 68 57 69 68 71 86 72 59 73 46 74 47 75 52 76
REMARK SMILES IDX 48 77 49 78 51 79 53 80 50 81 72 82 73 83 78 84 74 85 75 86
REMARK SMILES IDX 77 87 79 88 76 89 60 90 61 91 66 92 62 93 63 94 65 95 67 96
REMARK SMILES IDX 64 97
REMARK H PARENT 1 29 1 30 84 59 58 70
REMARK Flexibility Score: inf
ROOT
ATOM      1  C   UNL A   1      37.860  32.157  29.425  1.00  0.00     0.188 C 
ENDROOT
BRANCH   1   2
ATOM      2  O   UNL A   1      37.771  31.220  28.369  1.00  0.00    -0.376 OA
BRANCH   2   3
ATOM      3  C   UNL A   1      38.157  29.882  28.675  1.00  0.00     0.202 C 
BRANCH   3   4
ATOM      4  C   UNL A   1      39.643  29.654  29.001  1.00  0.00     0.261 C 
BRANCH   4   5
ATOM      5  O   UNL A   1      40.487  29.690  27.818  1.00  0.00    -0.460 OA
BRANCH   5   6
ATOM      6  C   UNL A   1      41.448  28.744  27.768  1.00  0.00     0.338 C 
ATOM      7  O   UNL A   1      42.536  28.838  28.323  1.00  0.00    -0.246 OA
BRANCH   6   8
ATOM      8  C   UNL A   1      41.008  27.504  27.067  1.00  0.00     0.087 C 
ATOM      9  C   UNL A   1      43.625  24.666  25.561  1.00  0.00     0.026 A 
ATOM     10  C   UNL A   1      44.834  25.386  25.401  1.00  0.00     0.033 A 
ATOM     11  C   UNL A   1      42.515  25.453  25.897  1.00  0.00     0.135 A 
ATOM     12  C   UNL A   1      44.904  26.779  25.393  1.00  0.00     0.042 A 
ATOM     13  C   UNL A   1      42.549  26.837  25.617  1.00  0.00     0.019 A 
ATOM     14  O   UNL A   1      41.425  25.033  26.658  1.00  0.00    -0.475 OA
ATOM     15  Cl  UNL A   1      46.404  27.603  25.286  1.00  0.00    -0.084 Cl
ATOM     16  C   UNL A   1      43.741  27.514  25.413  1.00  0.00     0.032 A 
ATOM     17  C   UNL A   1      41.288  27.592  25.758  1.00  0.00     0.027 C 
ATOM     18  C   UNL A   1      41.029  26.099  27.669  1.00  0.00     0.316 C 
BRANCH   9  19
ATOM     19  C   UNL A   1      43.696  23.266  25.030  1.00  0.00    -0.015 A 
ATOM     20  C   UNL A   1      44.644  20.567  24.833  1.00  0.00     0.082 A 
ATOM     21  C   UNL A   1      43.537  20.864  25.621  1.00  0.00     0.022 A 
ATOM     22  C   UNL A   1      45.246  21.587  24.092  1.00  0.00     0.022 A 
ATOM     23  C   UNL A   1      43.071  22.194  25.696  1.00  0.00     0.010 A 
ATOM     24  C   UNL A   1      44.768  22.914  24.182  1.00  0.00     0.010 A 
BRANCH  20  25
ATOM     25  S   UNL A   1      45.359  18.935  24.835  1.00  0.00     0.238 S 
ATOM     26  O   UNL A   1      45.836  18.634  23.507  1.00  0.00    -0.207 OA
ATOM     27  O   UNL A   1      44.453  18.056  25.539  1.00  0.00    -0.207 OA
BRANCH  25  28
ATOM     28  N   UNL A   1      46.729  19.068  25.791  1.00  0.00    -0.225 NA
ATOM     29  H   UNL A   1      46.755  19.993  26.221  1.00  0.00     0.137 HD
ATOM     30  H   UNL A   1      47.561  18.938  25.214  1.00  0.00     0.137 HD
ENDBRANCH  25  28
ENDBRANCH  20  25
ENDBRANCH   9  19
BRANCH  18  31
ATOM     31  C   UNL A   1      39.657  25.828  28.299  1.00  0.00     0.430 C 
ATOM     32  F   UNL A   1      38.667  26.497  27.665  1.00  0.00    -0.167 F 
ATOM     33  F   UNL A   1      39.347  24.514  28.290  1.00  0.00    -0.167 F 
ATOM     34  F   UNL A   1      39.639  26.226  29.597  1.00  0.00    -0.167 F 
ENDBRANCH  18  31
ENDBRANCH   6   8
ENDBRANCH   5   6
ENDBRANCH   4   5
ENDBRANCH   3   4
ENDBRANCH   2   3
ENDBRANCH   1   2
BRANCH   1  35
ATOM     35  C   UNL A   1      36.499  32.604  30.005  1.00  0.00     0.188 C 
BRANCH  35  36
ATOM     36  O   UNL A   1      36.444  33.654  30.958  1.00  0.00    -0.376 OA
BRANCH  36  37
ATOM     37  C   UNL A   1      35.191  34.002  31.533  1.00  0.00     0.202 C 
BRANCH  37  38
ATOM     38  C   UNL A   1      34.828  33.473  32.929  1.00  0.00     0.261 C 
BRANCH  38  39
ATOM     39  O   UNL A   1      35.598  32.338  33.378  1.00  0.00    -0.460 OA
BRANCH  39  40
ATOM     40  C   UNL A   1      36.643  32.629  34.192  1.00  0.00     0.338 C 
ATOM     41  O   UNL A   1      36.623  33.305  35.207  1.00  0.00    -0.246 OA
BRANCH  40  42
ATOM     42  C   UNL A   1      37.840  31.853  33.802  1.00  0.00     0.060 A 
ATOM     43  C   UNL A   1      39.076  32.286  34.282  1.00  0.00     0.016 A 
ATOM     44  C   UNL A   1      37.782  30.794  32.892  1.00  0.00     0.016 A 
ATOM     45  C   UNL A   1      40.246  31.664  33.846  1.00  0.00     0.010 A 
ATOM     46  C   UNL A   1      38.970  30.169  32.462  1.00  0.00     0.010 A 
ATOM     47  C   UNL A   1      40.219  30.595  32.937  1.00  0.00    -0.014 A 
BRANCH  47  48
ATOM     48  C   UNL A   1      41.505  30.040  32.409  1.00  0.00     0.031 A 
ATOM     49  C   UNL A   1      42.276  30.819  31.387  1.00  0.00     0.074 A 
ATOM     50  C   UNL A   1      42.026  28.876  32.849  1.00  0.00     0.049 A 
ATOM     51  N   UNL A   1      43.410  30.521  30.804  1.00  0.00    -0.248 NA
ATOM     52  C   UNL A   1      41.674  32.082  30.937  1.00  0.00     0.031 C 
ATOM     53  C   UNL A   1      41.386  28.008  33.819  1.00  0.00     0.029 A 
ATOM     54  N   UNL A   1      43.227  28.249  32.588  1.00  0.00    -0.354 N 
ATOM     55  C   UNL A   1      43.613  31.512  29.856  1.00  0.00     0.074 A 
ATOM     56  C   UNL A   1      42.523  32.455  29.992  1.00  0.00     0.031 C 
ATOM     57  C   UNL A   1      42.249  27.042  34.181  1.00  0.00     0.029 A 
ATOM     58  C   UNL A   1      43.473  27.159  33.397  1.00  0.00     0.049 A 
ATOM     59  H   UNL A   1      43.851  28.552  31.888  1.00  0.00     0.167 HD
ATOM     60  C   UNL A   1      44.586  31.591  28.918  1.00  0.00     0.037 A 
ATOM     61  C   UNL A   1      44.548  26.344  33.501  1.00  0.00     0.037 A 
ATOM     62  C   UNL A   1      45.669  30.651  28.779  1.00  0.00     0.049 A 
ATOM     63  C   UNL A   1      45.658  26.482  32.489  1.00  0.00     0.074 A 
ATOM     64  C   UNL A   1      46.707  30.671  27.864  1.00  0.00     0.029 A 
ATOM     65  N   UNL A   1      45.841  29.514  29.554  1.00  0.00    -0.354 N 
ATOM     66  N   UNL A   1      45.832  27.413  31.579  1.00  0.00    -0.248 NA
ATOM     67  C   UNL A   1      46.688  25.431  32.467  1.00  0.00     0.031 C 
ATOM     68  C   UNL A   1      47.482  29.522  28.057  1.00  0.00     0.029 A 
ATOM     69  C   UNL A   1      46.971  28.823  29.139  1.00  0.00     0.049 A 
ATOM     70  H   UNL A   1      45.249  29.237  30.290  1.00  0.00     0.167 HD
ATOM     71  C   UNL A   1      46.946  27.025  30.842  1.00  0.00     0.074 A 
ATOM     72  C   UNL A   1      47.463  25.826  31.465  1.00  0.00     0.031 C 
ATOM     73  C   UNL A   1      47.476  27.613  29.741  1.00  0.00     0.037 A 
BRANCH  60  74
ATOM     74  C   UNL A   1      44.452  32.683  27.898  1.00  0.00     0.057 A 
ATOM     75  C   UNL A   1      43.911  32.467  26.626  1.00  0.00     0.134 A 
ATOM     76  C   UNL A   1      44.898  33.977  28.202  1.00  0.00     0.134 A 
ATOM     77  F   UNL A   1      43.487  31.246  26.266  1.00  0.00    -0.206 F 
ATOM     78  C   UNL A   1      43.849  33.492  25.679  1.00  0.00     0.040 A 
ATOM     79  C   UNL A   1      44.814  35.015  27.275  1.00  0.00     0.040 A 
ATOM     80  F   UNL A   1      45.428  34.249  29.404  1.00  0.00    -0.206 F 
ATOM     81  C   UNL A   1      44.298  34.771  26.005  1.00  0.00     0.006 A 
ENDBRANCH  60  74
BRANCH  61  82
ATOM     82  C   UNL A   1      44.641  25.304  34.573  1.00  0.00     0.057 A 
ATOM     83  C   UNL A   1      44.219  23.988  34.332  1.00  0.00     0.134 A 
ATOM     84  C   UNL A   1      45.124  25.574  35.858  1.00  0.00     0.134 A 
ATOM     85  F   UNL A   1      43.701  23.653  33.146  1.00  0.00    -0.206 F 
ATOM     86  C   UNL A   1      44.274  22.990  35.309  1.00  0.00     0.040 A 
ATOM     87  C   UNL A   1      45.224  24.578  36.836  1.00  0.00     0.040 A 
ATOM     88  F   UNL A   1      45.524  26.812  36.185  1.00  0.00    -0.206 F 
ATOM     89  C   UNL A   1      44.793  23.282  36.564  1.00  0.00     0.006 A 
ENDBRANCH  61  82
BRANCH  73  90
ATOM     90  C   UNL A   1      48.690  26.973  29.128  1.00  0.00     0.057 A 
ATOM     91  C   UNL A   1      49.990  27.298  29.539  1.00  0.00     0.134 A 
ATOM     92  C   UNL A   1      48.554  25.973  28.156  1.00  0.00     0.134 A 
ATOM     93  F   UNL A   1      50.193  28.255  30.457  1.00  0.00    -0.206 F 
ATOM     94  C   UNL A   1      51.108  26.662  28.995  1.00  0.00     0.040 A 
ATOM     95  C   UNL A   1      49.662  25.310  27.626  1.00  0.00     0.040 A 
ATOM     96  F   UNL A   1      47.337  25.607  27.726  1.00  0.00    -0.206 F 
ATOM     97  C   UNL A   1      50.945  25.657  28.044  1.00  0.00     0.006 A 
ENDBRANCH  73  90
ENDBRANCH  47  48
ENDBRANCH  40  42
ENDBRANCH  39  40
ENDBRANCH  38  39
ENDBRANCH  37  38
ENDBRANCH  36  37
ENDBRANCH  35  36
ENDBRANCH   1  35
TORSDOF 21
ENDMDL
MODEL 3
REMARK VINA RESULT:     -10.8      1.014      5.861
REMARK SMILES NS(=O)(=O)c1ccc(-c2cc(Cl)cc3c2O[C@H](C(F)(F)F)C(C(=O)OCCOCCOCCOC(=O)c2ccc(-c4c5nc(c(-c6c(F)cccc6F)c6ccc([nH]6)c(-c6c(F)cccc6F)c6nc(c(-c7c(F)cccc7F)c7ccc4[nH]7)C=C6)C=C5)cc2)=C3)cc1
REMARK SMILES IDX 29 1 28 2 27 3 26 4 25 5 23 6 24 7 22 8 9 9 10 10 15 11
REMARK SMILES IDX 11 12 14 13 16 14 12 15 13 16 91 17 17 18 8 19 5 20 6 21
REMARK SMILES IDX 93 22 7 23 92 24 2 25 3 26 4 27 1 28 18 31 19 32 20 33 21 34
REMARK SMILES IDX 30 35 31 36 32 37 33 38 34 39 35 40 36 41 37 42 38 43 90 44
REMARK SMILES IDX 39 45 89 46 40 47 41 48 42 49 83 50 43 51 88 52 82 53 84 54
REMARK SMILES IDX 44 55 87 56 81 57 80 58 45 60 71 61 54 62 70 63 55 64 58 65
REMARK SMILES IDX 69 66 85 67 56 68 57 69 68 71 86 72 59 73 46 74 47 75 52 76
REMARK SMILES IDX 48 77 49 78 51 79 53 80 50 81 72 82 73 83 78 84 74 85 75 86
REMARK SMILES IDX 77 87 79 88 76 89 60 90 61 91 66 92 62 93 63 94 65 95 67 96
REMARK SMILES IDX 64 97
REMARK H PARENT 1 29 1 30 84 59 58 70
REMARK Flexibility Score: inf
ROOT
ATOM      1  C   UNL A   1      34.035  32.663  28.374  1.00  0.00     0.188 C 
ENDROOT
BRANCH   1   2
ATOM      2  O   UNL A   1      33.328  31.688  27.633  1.00  0.00    -0.376 OA
BRANCH   2   3
ATOM      3  C   UNL A   1      32.102  32.109  27.038  1.00  0.00     0.202 C 
BRANCH   3   4
ATOM      4  C   UNL A   1      31.377  31.076  26.158  1.00  0.00     0.261 C 
BRANCH   4   5
ATOM      5  O   UNL A   1      32.119  29.833  26.028  1.00  0.00    -0.460 OA
BRANCH   5   6
ATOM      6  C   UNL A   1      31.743  29.043  25.000  1.00  0.00     0.338 C 
ATOM      7  O   UNL A   1      30.712  29.195  24.356  1.00  0.00    -0.246 OA
BRANCH   6   8
ATOM      8  C   UNL A   1      32.775  28.030  24.637  1.00  0.00     0.087 C 
ATOM      9  C   UNL A   1      32.037  23.957  24.479  1.00  0.00     0.026 A 
ATOM     10  C   UNL A   1      30.898  23.796  25.305  1.00  0.00     0.033 A 
ATOM     11  C   UNL A   1      32.603  25.237  24.504  1.00  0.00     0.135 A 
ATOM     12  C   UNL A   1      30.467  24.761  26.216  1.00  0.00     0.042 A 
ATOM     13  C   UNL A   1      32.331  26.083  25.603  1.00  0.00     0.019 A 
ATOM     14  O   UNL A   1      33.281  25.845  23.449  1.00  0.00    -0.475 OA
ATOM     15  Cl  UNL A   1      29.030  24.557  27.128  1.00  0.00    -0.084 Cl
ATOM     16  C   UNL A   1      31.239  25.879  26.431  1.00  0.00     0.032 A 
ATOM     17  C   UNL A   1      33.125  27.323  25.722  1.00  0.00     0.027 C 
ATOM     18  C   UNL A   1      32.856  27.298  23.298  1.00  0.00     0.316 C 
BRANCH   9  19
ATOM     19  C   UNL A   1      32.602  22.655  23.993  1.00  0.00    -0.015 A 
ATOM     20  C   UNL A   1      32.766  19.811  23.665  1.00  0.00     0.082 A 
ATOM     21  C   UNL A   1      32.121  20.590  22.711  1.00  0.00     0.022 A 
ATOM     22  C   UNL A   1      33.385  20.439  24.749  1.00  0.00     0.022 A 
ATOM     23  C   UNL A   1      32.061  21.990  22.876  1.00  0.00     0.010 A 
ATOM     24  C   UNL A   1      33.313  21.842  24.901  1.00  0.00     0.010 A 
BRANCH  20  25
ATOM     25  S   UNL A   1      32.726  18.032  23.577  1.00  0.00     0.238 S 
ATOM     26  O   UNL A   1      31.888  17.532  24.640  1.00  0.00    -0.207 OA
ATOM     27  O   UNL A   1      34.082  17.569  23.392  1.00  0.00    -0.207 OA
BRANCH  25  28
ATOM     28  N   UNL A   1      31.909  17.691  22.155  1.00  0.00    -0.225 NA
ATOM     29  H   UNL A   1      32.286  16.837  21.742  1.00  0.00     0.137 HD
ATOM     30  H   UNL A   1      32.027  18.465  21.500  1.00  0.00     0.137 HD
ENDBRANCH  25  28
ENDBRANCH  20  25
ENDBRANCH   9  19
BRANCH  18  31
ATOM     31  C   UNL A   1      33.792  28.090  22.377  1.00  0.00     0.430 C 
ATOM     32  F   UNL A   1      34.851  28.600  23.046  1.00  0.00    -0.167 F 
ATOM     33  F   UNL A   1      34.264  27.333  21.363  1.00  0.00    -0.167 F 
ATOM     34  F   UNL A   1      33.136  29.136  21.812  1.00  0.00    -0.167 F 
ENDBRANCH  18  31
ENDBRANCH   6   8
ENDBRANCH   5   6
ENDBRANCH   4   5
ENDBRANCH   3   4
ENDBRANCH   2   3
ENDBRANCH   1   2
BRANCH   1  35
ATOM     35  C   UNL A   1      33.703  34.124  27.994  1.00  0.00     0.188 C 
BRANCH  35  36
ATOM     36  O   UNL A   1      32.924  34.925  28.870  1.00  0.00    -0.376 OA
BRANCH  36  37
ATOM     37  C   UNL A   1      33.385  36.227  29.210  1.00  0.00     0.202 C 
BRANCH  37  38
ATOM     38  C   UNL A   1      32.657  37.022  30.306  1.00  0.00     0.261 C 
BRANCH  38  39
ATOM     39  O   UNL A   1      33.192  36.870  31.637  1.00  0.00    -0.460 OA
BRANCH  39  40
ATOM     40  C   UNL A   1      32.813  35.744  32.292  1.00  0.00     0.338 C 
ATOM     41  O   UNL A   1      31.690  35.275  32.364  1.00  0.00    -0.246 OA
BRANCH  40  42
ATOM     42  C   UNL A   1      33.995  35.006  32.786  1.00  0.00     0.060 A 
ATOM     43  C   UNL A   1      35.239  35.625  32.667  1.00  0.00     0.016 A 
ATOM     44  C   UNL A   1      33.917  33.689  33.247  1.00  0.00     0.016 A 
ATOM     45  C   UNL A   1      36.398  34.924  33.005  1.00  0.00     0.010 A 
ATOM     46  C   UNL A   1      35.093  32.992  33.590  1.00  0.00     0.010 A 
ATOM     47  C   UNL A   1      36.350  33.602  33.476  1.00  0.00    -0.014 A 
BRANCH  47  48
ATOM     48  C   UNL A   1      37.625  32.855  33.710  1.00  0.00     0.031 A 
ATOM     49  C   UNL A   1      38.306  32.963  35.041  1.00  0.00     0.074 A 
ATOM     50  C   UNL A   1      38.173  32.048  32.778  1.00  0.00     0.049 A 
ATOM     51  N   UNL A   1      39.413  32.398  35.451  1.00  0.00    -0.248 NA
ATOM     52  C   UNL A   1      37.675  33.851  36.027  1.00  0.00     0.031 C 
ATOM     53  C   UNL A   1      37.639  31.859  31.443  1.00  0.00     0.029 A 
ATOM     54  N   UNL A   1      39.258  31.196  32.822  1.00  0.00    -0.354 N 
ATOM     55  C   UNL A   1      39.660  32.929  36.707  1.00  0.00     0.074 A 
ATOM     56  C   UNL A   1      38.551  33.806  37.020  1.00  0.00     0.031 C 
ATOM     57  C   UNL A   1      38.300  30.853  30.843  1.00  0.00     0.029 A 
ATOM     58  C   UNL A   1      39.375  30.387  31.711  1.00  0.00     0.049 A 
ATOM     59  H   UNL A   1      39.890  31.169  33.577  1.00  0.00     0.167 HD
ATOM     60  C   UNL A   1      40.744  32.749  37.498  1.00  0.00     0.037 A 
ATOM     61  C   UNL A   1      40.241  29.390  31.415  1.00  0.00     0.037 A 
ATOM     62  C   UNL A   1      41.850  31.881  37.187  1.00  0.00     0.049 A 
ATOM     63  C   UNL A   1      41.412  29.155  32.337  1.00  0.00     0.074 A 
ATOM     64  C   UNL A   1      42.981  31.629  37.945  1.00  0.00     0.029 A 
ATOM     65  N   UNL A   1      41.982  31.145  36.019  1.00  0.00    -0.354 N 
ATOM     66  N   UNL A   1      41.649  29.679  33.517  1.00  0.00    -0.248 NA
ATOM     67  C   UNL A   1      42.468  28.243  31.869  1.00  0.00     0.031 C 
ATOM     68  C   UNL A   1      43.815  30.775  37.217  1.00  0.00     0.029 A 
ATOM     69  C   UNL A   1      43.175  30.436  36.036  1.00  0.00     0.049 A 
ATOM     70  H   UNL A   1      41.325  31.128  35.285  1.00  0.00     0.167 HD
ATOM     71  C   UNL A   1      42.903  29.213  33.898  1.00  0.00     0.074 A 
ATOM     72  C   UNL A   1      43.337  28.294  32.870  1.00  0.00     0.031 C 
ATOM     73  C   UNL A   1      43.625  29.537  35.000  1.00  0.00     0.037 A 
BRANCH  60  74
ATOM     74  C   UNL A   1      40.828  33.600  38.731  1.00  0.00     0.057 A 
ATOM     75  C   UNL A   1      40.184  33.264  39.927  1.00  0.00     0.134 A 
ATOM     76  C   UNL A   1      41.560  34.796  38.702  1.00  0.00     0.134 A 
ATOM     77  F   UNL A   1      39.449  32.144  40.012  1.00  0.00    -0.206 F 
ATOM     78  C   UNL A   1      40.236  34.105  41.041  1.00  0.00     0.040 A 
ATOM     79  C   UNL A   1      41.644  35.628  39.817  1.00  0.00     0.040 A 
ATOM     80  F   UNL A   1      42.200  35.174  37.585  1.00  0.00    -0.206 F 
ATOM     81  C   UNL A   1      40.971  35.288  40.989  1.00  0.00     0.006 A 
ENDBRANCH  60  74
BRANCH  61  82
ATOM     82  C   UNL A   1      40.074  28.545  30.191  1.00  0.00     0.057 A 
ATOM     83  C   UNL A   1      40.676  28.915  28.979  1.00  0.00     0.134 A 
ATOM     84  C   UNL A   1      39.309  27.374  30.171  1.00  0.00     0.134 A 
ATOM     85  F   UNL A   1      41.387  30.043  28.897  1.00  0.00    -0.206 F 
ATOM     86  C   UNL A   1      40.534  28.163  27.809  1.00  0.00     0.040 A 
ATOM     87  C   UNL A   1      39.188  26.589  29.019  1.00  0.00     0.040 A 
ATOM     88  F   UNL A   1      38.674  26.961  31.278  1.00  0.00    -0.206 F 
ATOM     89  C   UNL A   1      39.797  26.986  27.832  1.00  0.00     0.006 A 
ENDBRANCH  61  82
BRANCH  73  90
ATOM     90  C   UNL A   1      44.971  28.889  35.164  1.00  0.00     0.057 A 
ATOM     91  C   UNL A   1      45.122  27.626  35.752  1.00  0.00     0.134 A 
ATOM     92  C   UNL A   1      46.126  29.511  34.671  1.00  0.00     0.134 A 
ATOM     93  F   UNL A   1      44.059  26.979  36.255  1.00  0.00    -0.206 F 
ATOM     94  C   UNL A   1      46.373  27.013  35.855  1.00  0.00     0.040 A 
ATOM     95  C   UNL A   1      47.377  28.897  34.743  1.00  0.00     0.040 A 
ATOM     96  F   UNL A   1      46.049  30.717  34.088  1.00  0.00    -0.206 F 
ATOM     97  C   UNL A   1      47.503  27.645  35.340  1.00  0.00     0.006 A 
ENDBRANCH  73  90
ENDBRANCH  47  48
ENDBRANCH  40  42
ENDBRANCH  39  40
ENDBRANCH  38  39
ENDBRANCH  37  38
ENDBRANCH  36  37
ENDBRANCH  35  36
ENDBRANCH   1  35
TORSDOF 21
ENDMDL
