MODEL 1
REMARK VINA RESULT:     -11.2      0.000      0.000
REMARK SMILES C[C@@H]1[C@H](C(=O)OCCOCCOCCOC(=O)c2ccc(-c3c4nc(c(-c5c(F)cccc5F)c5ccc([nH]5)c(-c5c(F)cccc5F)c5nc(c(-c6c(F)cccc6F)c6ccc3[nH]6)C=C5)C=C4)cc2)CCN1S(=O)(=O)c1cc(F)cc(F)c1
REMARK SMILES IDX 10 1 9 2 8 3 7 4 6 5 4 6 5 7 3 8 1 9 2 10 74 11 72 12 73 13
REMARK SMILES IDX 75 14 76 15 77 16 78 17 79 18 85 19 80 20 83 21 81 22 82 23
REMARK SMILES IDX 84 24 11 25 12 26 13 27 14 28 15 29 16 30 17 31 18 32 19 33
REMARK SMILES IDX 71 34 20 35 70 36 21 37 22 38 23 39 64 40 24 41 69 42 63 43
REMARK SMILES IDX 65 44 25 45 68 46 62 47 61 48 26 50 52 51 35 52 51 53 36 54
REMARK SMILES IDX 39 55 50 56 66 57 37 58 38 59 49 61 67 62 40 63 27 64 28 65
REMARK SMILES IDX 33 66 29 67 30 68 32 69 34 70 31 71 53 72 54 73 59 74 55 75
REMARK SMILES IDX 56 76 58 77 60 78 57 79 41 80 42 81 47 82 43 83 44 84 46 85
REMARK SMILES IDX 48 86 45 87
REMARK H PARENT 65 49 39 60
REMARK Flexibility Score: inf
ROOT
ATOM      1  C   UNL A   1      34.313  33.405  28.003  1.00  0.00     0.188 C 
ENDROOT
BRANCH   1   2
ATOM      2  O   UNL A   1      33.982  32.031  28.082  1.00  0.00    -0.376 OA
BRANCH   2   3
ATOM      3  C   UNL A   1      35.029  31.092  27.822  1.00  0.00     0.202 C 
BRANCH   3   4
ATOM      4  C   UNL A   1      34.631  29.729  27.246  1.00  0.00     0.261 C 
BRANCH   4   5
ATOM      5  O   UNL A   1      33.370  29.843  26.554  1.00  0.00    -0.463 OA
BRANCH   5   6
ATOM      6  C   UNL A   1      33.233  29.096  25.434  1.00  0.00     0.310 C 
ATOM      7  O   UNL A   1      33.023  29.560  24.320  1.00  0.00    -0.252 OA
BRANCH   6   8
ATOM      8  C   UNL A   1      33.532  27.631  25.679  1.00  0.00     0.118 C 
ATOM      9  C   UNL A   1      31.051  27.066  26.142  1.00  0.00     0.027 C 
ATOM     10  C   UNL A   1      32.513  26.752  26.429  1.00  0.00     0.084 C 
ATOM     11  N   UNL A   1      32.927  25.352  26.050  1.00  0.00    -0.194 NA
ATOM     12  C   UNL A   1      33.698  26.894  24.363  1.00  0.00     0.034 C 
ATOM     13  C   UNL A   1      33.716  25.437  24.778  1.00  0.00     0.104 C 
BRANCH  11  14
ATOM     14  S   UNL A   1      31.931  23.978  26.108  1.00  0.00     0.243 S 
ATOM     15  O   UNL A   1      31.491  23.779  27.471  1.00  0.00    -0.207 OA
ATOM     16  O   UNL A   1      30.953  24.166  25.051  1.00  0.00    -0.207 OA
BRANCH  14  17
ATOM     17  C   UNL A   1      32.851  22.536  25.635  1.00  0.00     0.088 A 
ATOM     18  C   UNL A   1      34.142  22.410  26.171  1.00  0.00     0.061 A 
ATOM     19  C   UNL A   1      32.382  21.572  24.745  1.00  0.00     0.061 A 
ATOM     20  C   UNL A   1      34.949  21.341  25.798  1.00  0.00     0.127 A 
ATOM     21  C   UNL A   1      33.213  20.511  24.389  1.00  0.00     0.127 A 
ATOM     22  F   UNL A   1      36.188  21.245  26.297  1.00  0.00    -0.207 F 
ATOM     23  C   UNL A   1      34.496  20.385  24.904  1.00  0.00     0.078 A 
ATOM     24  F   UNL A   1      32.771  19.606  23.508  1.00  0.00    -0.207 F 
ENDBRANCH  14  17
ENDBRANCH  11  14
ENDBRANCH   6   8
ENDBRANCH   5   6
ENDBRANCH   4   5
ENDBRANCH   3   4
ENDBRANCH   2   3
ENDBRANCH   1   2
BRANCH   1  25
ATOM     25  C   UNL A   1      33.260  34.423  28.442  1.00  0.00     0.188 C 
BRANCH  25  26
ATOM     26  O   UNL A   1      32.975  34.635  29.805  1.00  0.00    -0.376 OA
BRANCH  26  27
ATOM     27  C   UNL A   1      33.995  34.854  30.776  1.00  0.00     0.202 C 
BRANCH  27  28
ATOM     28  C   UNL A   1      34.309  33.984  32.016  1.00  0.00     0.261 C 
BRANCH  28  29
ATOM     29  O   UNL A   1      34.993  32.751  31.824  1.00  0.00    -0.460 OA
BRANCH  29  30
ATOM     30  C   UNL A   1      35.949  32.452  32.738  1.00  0.00     0.338 C 
ATOM     31  O   UNL A   1      35.867  32.529  33.946  1.00  0.00    -0.246 OA
BRANCH  30  32
ATOM     32  C   UNL A   1      37.024  31.744  32.004  1.00  0.00     0.060 A 
ATOM     33  C   UNL A   1      37.880  30.910  32.738  1.00  0.00     0.016 A 
ATOM     34  C   UNL A   1      37.114  31.804  30.610  1.00  0.00     0.016 A 
ATOM     35  C   UNL A   1      38.846  30.151  32.079  1.00  0.00     0.010 A 
ATOM     36  C   UNL A   1      38.097  31.062  29.954  1.00  0.00     0.010 A 
ATOM     37  C   UNL A   1      38.984  30.254  30.689  1.00  0.00    -0.014 A 
BRANCH  37  38
ATOM     38  C   UNL A   1      40.191  29.711  30.026  1.00  0.00     0.031 A 
ATOM     39  C   UNL A   1      41.356  30.642  29.831  1.00  0.00     0.074 A 
ATOM     40  C   UNL A   1      40.263  28.436  29.609  1.00  0.00     0.049 A 
ATOM     41  N   UNL A   1      42.488  30.440  29.212  1.00  0.00    -0.248 NA
ATOM     42  C   UNL A   1      41.217  31.986  30.417  1.00  0.00     0.031 C 
ATOM     43  C   UNL A   1      39.224  27.423  29.782  1.00  0.00     0.029 A 
ATOM     44  N   UNL A   1      41.266  27.780  28.938  1.00  0.00    -0.354 N 
ATOM     45  C   UNL A   1      43.195  31.629  29.332  1.00  0.00     0.074 A 
ATOM     46  C   UNL A   1      42.355  32.557  30.056  1.00  0.00     0.031 C 
ATOM     47  C   UNL A   1      39.640  26.274  29.216  1.00  0.00     0.029 A 
ATOM     48  C   UNL A   1      40.956  26.482  28.614  1.00  0.00     0.049 A 
ATOM     49  H   UNL A   1      42.126  28.202  28.711  1.00  0.00     0.167 HD
ATOM     50  C   UNL A   1      44.438  31.922  28.888  1.00  0.00     0.037 A 
ATOM     51  C   UNL A   1      41.650  25.580  27.893  1.00  0.00     0.037 A 
ATOM     52  C   UNL A   1      45.269  31.006  28.156  1.00  0.00     0.049 A 
ATOM     53  C   UNL A   1      42.993  25.962  27.321  1.00  0.00     0.074 A 
ATOM     54  C   UNL A   1      46.541  31.211  27.652  1.00  0.00     0.029 A 
ATOM     55  N   UNL A   1      44.906  29.713  27.817  1.00  0.00    -0.354 N 
ATOM     56  N   UNL A   1      43.659  27.085  27.448  1.00  0.00    -0.248 NA
ATOM     57  C   UNL A   1      43.678  24.950  26.503  1.00  0.00     0.031 C 
ATOM     58  C   UNL A   1      46.932  30.053  26.972  1.00  0.00     0.029 A 
ATOM     59  C   UNL A   1      45.922  29.112  27.094  1.00  0.00     0.049 A 
ATOM     60  H   UNL A   1      44.052  29.285  28.055  1.00  0.00     0.167 HD
ATOM     61  C   UNL A   1      44.852  26.902  26.757  1.00  0.00     0.074 A 
ATOM     62  C   UNL A   1      44.822  25.558  26.219  1.00  0.00     0.031 C 
ATOM     63  C   UNL A   1      45.881  27.767  26.582  1.00  0.00     0.037 A 
BRANCH  50  64
ATOM     64  C   UNL A   1      44.957  33.299  29.164  1.00  0.00     0.057 A 
ATOM     65  C   UNL A   1      44.715  34.366  28.288  1.00  0.00     0.134 A 
ATOM     66  C   UNL A   1      45.694  33.567  30.323  1.00  0.00     0.134 A 
ATOM     67  F   UNL A   1      44.035  34.168  27.148  1.00  0.00    -0.206 F 
ATOM     68  C   UNL A   1      45.205  35.646  28.547  1.00  0.00     0.040 A 
ATOM     69  C   UNL A   1      46.168  34.848  30.606  1.00  0.00     0.040 A 
ATOM     70  F   UNL A   1      45.962  32.588  31.200  1.00  0.00    -0.206 F 
ATOM     71  C   UNL A   1      45.928  35.892  29.713  1.00  0.00     0.006 A 
ENDBRANCH  50  64
BRANCH  51  72
ATOM     72  C   UNL A   1      41.092  24.227  27.640  1.00  0.00     0.057 A 
ATOM     73  C   UNL A   1      41.600  23.099  28.297  1.00  0.00     0.134 A 
ATOM     74  C   UNL A   1      40.077  24.020  26.697  1.00  0.00     0.134 A 
ATOM     75  F   UNL A   1      42.592  23.230  29.189  1.00  0.00    -0.206 F 
ATOM     76  C   UNL A   1      41.135  21.815  28.011  1.00  0.00     0.040 A 
ATOM     77  C   UNL A   1      39.587  22.743  26.420  1.00  0.00     0.040 A 
ATOM     78  F   UNL A   1      39.551  25.057  26.030  1.00  0.00    -0.206 F 
ATOM     79  C   UNL A   1      40.123  21.635  27.071  1.00  0.00     0.006 A 
ENDBRANCH  51  72
BRANCH  63  80
ATOM     80  C   UNL A   1      47.079  27.276  25.825  1.00  0.00     0.057 A 
ATOM     81  C   UNL A   1      48.102  26.547  26.445  1.00  0.00     0.134 A 
ATOM     82  C   UNL A   1      47.184  27.491  24.444  1.00  0.00     0.134 A 
ATOM     83  F   UNL A   1      48.066  26.316  27.766  1.00  0.00    -0.206 F 
ATOM     84  C   UNL A   1      49.195  26.066  25.723  1.00  0.00     0.040 A 
ATOM     85  C   UNL A   1      48.260  26.993  23.706  1.00  0.00     0.040 A 
ATOM     86  F   UNL A   1      46.234  28.172  23.787  1.00  0.00    -0.206 F 
ATOM     87  C   UNL A   1      49.272  26.283  24.348  1.00  0.00     0.006 A 
ENDBRANCH  63  80
ENDBRANCH  37  38
ENDBRANCH  30  32
ENDBRANCH  29  30
ENDBRANCH  28  29
ENDBRANCH  27  28
ENDBRANCH  26  27
ENDBRANCH  25  26
ENDBRANCH   1  25
TORSDOF 19
ENDMDL
MODEL 2
REMARK VINA RESULT:     -11.1      2.863      4.088
REMARK SMILES C[C@@H]1[C@H](C(=O)OCCOCCOCCOC(=O)c2ccc(-c3c4nc(c(-c5c(F)cccc5F)c5ccc([nH]5)c(-c5c(F)cccc5F)c5nc(c(-c6c(F)cccc6F)c6ccc3[nH]6)C=C5)C=C4)cc2)CCN1S(=O)(=O)c1cc(F)cc(F)c1
REMARK SMILES IDX 10 1 9 2 8 3 7 4 6 5 4 6 5 7 3 8 1 9 2 10 74 11 72 12 73 13
REMARK SMILES IDX 75 14 76 15 77 16 78 17 79 18 85 19 80 20 83 21 81 22 82 23
REMARK SMILES IDX 84 24 11 25 12 26 13 27 14 28 15 29 16 30 17 31 18 32 19 33
REMARK SMILES IDX 71 34 20 35 70 36 21 37 22 38 23 39 64 40 24 41 69 42 63 43
REMARK SMILES IDX 65 44 25 45 68 46 62 47 61 48 26 50 52 51 35 52 51 53 36 54
REMARK SMILES IDX 39 55 50 56 66 57 37 58 38 59 49 61 67 62 40 63 27 64 28 65
REMARK SMILES IDX 33 66 29 67 30 68 32 69 34 70 31 71 53 72 54 73 59 74 55 75
REMARK SMILES IDX 56 76 58 77 60 78 57 79 41 80 42 81 47 82 43 83 44 84 46 85
REMARK SMILES IDX 48 86 45 87
REMARK H PARENT 65 49 39 60
REMARK Flexibility Score: inf
ROOT
ATOM      1  C   UNL A   1      34.202  33.449  28.015  1.00  0.00     0.188 C 
ENDROOT
BRANCH   1   2
ATOM      2  O   UNL A   1      34.139  32.163  28.600  1.00  0.00    -0.376 OA
BRANCH   2   3
ATOM      3  C   UNL A   1      34.727  31.084  27.869  1.00  0.00     0.202 C 
BRANCH   3   4
ATOM      4  C   UNL A   1      33.818  30.289  26.926  1.00  0.00     0.261 C 
BRANCH   4   5
ATOM      5  O   UNL A   1      33.693  28.932  27.399  1.00  0.00    -0.463 OA
BRANCH   5   6
ATOM      6  C   UNL A   1      33.454  27.991  26.458  1.00  0.00     0.310 C 
ATOM      7  O   UNL A   1      34.291  27.191  26.057  1.00  0.00    -0.252 OA
BRANCH   6   8
ATOM      8  C   UNL A   1      31.991  27.924  26.069  1.00  0.00     0.118 C 
ATOM      9  C   UNL A   1      32.430  28.931  23.728  1.00  0.00     0.027 C 
ATOM     10  C   UNL A   1      31.466  28.773  24.896  1.00  0.00     0.084 C 
ATOM     11  N   UNL A   1      30.170  28.091  24.535  1.00  0.00    -0.194 NA
ATOM     12  C   UNL A   1      31.614  26.515  25.651  1.00  0.00     0.034 C 
ATOM     13  C   UNL A   1      30.234  26.685  25.051  1.00  0.00     0.104 C 
BRANCH  11  14
ATOM     14  S   UNL A   1      29.380  28.200  23.036  1.00  0.00     0.243 S 
ATOM     15  O   UNL A   1      30.280  27.742  22.001  1.00  0.00    -0.207 OA
ATOM     16  O   UNL A   1      28.100  27.543  23.227  1.00  0.00    -0.207 OA
BRANCH  14  17
ATOM     17  C   UNL A   1      28.981  29.892  22.677  1.00  0.00     0.088 A 
ATOM     18  C   UNL A   1      28.316  30.138  21.466  1.00  0.00     0.061 A 
ATOM     19  C   UNL A   1      29.327  30.963  23.499  1.00  0.00     0.061 A 
ATOM     20  C   UNL A   1      28.027  31.443  21.085  1.00  0.00     0.127 A 
ATOM     21  C   UNL A   1      29.023  32.261  23.090  1.00  0.00     0.127 A 
ATOM     22  F   UNL A   1      27.415  31.667  19.915  1.00  0.00    -0.207 F 
ATOM     23  C   UNL A   1      28.378  32.515  21.888  1.00  0.00     0.078 A 
ATOM     24  F   UNL A   1      29.388  33.289  23.866  1.00  0.00    -0.207 F 
ENDBRANCH  14  17
ENDBRANCH  11  14
ENDBRANCH   6   8
ENDBRANCH   5   6
ENDBRANCH   4   5
ENDBRANCH   3   4
ENDBRANCH   2   3
ENDBRANCH   1   2
BRANCH   1  25
ATOM     25  C   UNL A   1      33.215  34.510  28.505  1.00  0.00     0.188 C 
BRANCH  25  26
ATOM     26  O   UNL A   1      33.092  34.812  29.876  1.00  0.00    -0.376 OA
BRANCH  26  27
ATOM     27  C   UNL A   1      34.162  34.631  30.799  1.00  0.00     0.202 C 
BRANCH  27  28
ATOM     28  C   UNL A   1      34.185  33.702  32.035  1.00  0.00     0.261 C 
BRANCH  28  29
ATOM     29  O   UNL A   1      34.912  32.481  31.953  1.00  0.00    -0.460 OA
BRANCH  29  30
ATOM     30  C   UNL A   1      35.960  32.355  32.804  1.00  0.00     0.338 C 
ATOM     31  O   UNL A   1      35.967  32.547  34.003  1.00  0.00    -0.246 OA
BRANCH  30  32
ATOM     32  C   UNL A   1      37.033  31.665  32.049  1.00  0.00     0.060 A 
ATOM     33  C   UNL A   1      37.912  30.841  32.765  1.00  0.00     0.016 A 
ATOM     34  C   UNL A   1      37.097  31.731  30.654  1.00  0.00     0.016 A 
ATOM     35  C   UNL A   1      38.878  30.098  32.087  1.00  0.00     0.010 A 
ATOM     36  C   UNL A   1      38.079  31.005  29.978  1.00  0.00     0.010 A 
ATOM     37  C   UNL A   1      38.990  30.208  30.695  1.00  0.00    -0.014 A 
BRANCH  37  38
ATOM     38  C   UNL A   1      40.193  29.685  30.009  1.00  0.00     0.031 A 
ATOM     39  C   UNL A   1      41.331  30.639  29.777  1.00  0.00     0.074 A 
ATOM     40  C   UNL A   1      40.284  28.407  29.604  1.00  0.00     0.049 A 
ATOM     41  N   UNL A   1      42.453  30.456  29.133  1.00  0.00    -0.248 NA
ATOM     42  C   UNL A   1      41.177  31.987  30.351  1.00  0.00     0.031 C 
ATOM     43  C   UNL A   1      39.273  27.373  29.813  1.00  0.00     0.029 A 
ATOM     44  N   UNL A   1      41.286  27.766  28.916  1.00  0.00    -0.354 N 
ATOM     45  C   UNL A   1      43.135  31.662  29.224  1.00  0.00     0.074 A 
ATOM     46  C   UNL A   1      42.292  32.578  29.957  1.00  0.00     0.031 C 
ATOM     47  C   UNL A   1      39.701  26.228  29.249  1.00  0.00     0.029 A 
ATOM     48  C   UNL A   1      40.998  26.458  28.614  1.00  0.00     0.049 A 
ATOM     49  H   UNL A   1      42.130  28.205  28.664  1.00  0.00     0.167 HD
ATOM     50  C   UNL A   1      44.361  31.977  28.746  1.00  0.00     0.037 A 
ATOM     51  C   UNL A   1      41.695  25.564  27.886  1.00  0.00     0.037 A 
ATOM     52  C   UNL A   1      45.195  31.072  28.004  1.00  0.00     0.049 A 
ATOM     53  C   UNL A   1      43.014  25.970  27.278  1.00  0.00     0.074 A 
ATOM     54  C   UNL A   1      46.450  31.300  27.468  1.00  0.00     0.029 A 
ATOM     55  N   UNL A   1      44.853  29.767  27.688  1.00  0.00    -0.354 N 
ATOM     56  N   UNL A   1      43.658  27.108  27.377  1.00  0.00    -0.248 NA
ATOM     57  C   UNL A   1      43.703  24.964  26.454  1.00  0.00     0.031 C 
ATOM     58  C   UNL A   1      46.850  30.143  26.791  1.00  0.00     0.029 A 
ATOM     59  C   UNL A   1      45.865  29.182  26.947  1.00  0.00     0.049 A 
ATOM     60  H   UNL A   1      44.016  29.323  27.951  1.00  0.00     0.167 HD
ATOM     61  C   UNL A   1      44.838  26.944  26.659  1.00  0.00     0.074 A 
ATOM     62  C   UNL A   1      44.825  25.594  26.136  1.00  0.00     0.031 C 
ATOM     63  C   UNL A   1      45.843  27.830  26.451  1.00  0.00     0.037 A 
BRANCH  50  64
ATOM     64  C   UNL A   1      44.855  33.369  28.995  1.00  0.00     0.057 A 
ATOM     65  C   UNL A   1      44.558  34.422  28.120  1.00  0.00     0.134 A 
ATOM     66  C   UNL A   1      45.623  33.663  30.127  1.00  0.00     0.134 A 
ATOM     67  F   UNL A   1      43.846  34.200  27.005  1.00  0.00    -0.206 F 
ATOM     68  C   UNL A   1      45.025  35.716  28.354  1.00  0.00     0.040 A 
ATOM     69  C   UNL A   1      46.075  34.958  30.385  1.00  0.00     0.040 A 
ATOM     70  F   UNL A   1      45.944  32.698  31.002  1.00  0.00    -0.206 F 
ATOM     71  C   UNL A   1      45.780  35.988  29.493  1.00  0.00     0.006 A 
ENDBRANCH  50  64
BRANCH  51  72
ATOM     72  C   UNL A   1      41.161  24.196  27.661  1.00  0.00     0.057 A 
ATOM     73  C   UNL A   1      41.716  23.086  28.310  1.00  0.00     0.134 A 
ATOM     74  C   UNL A   1      40.124  23.957  26.751  1.00  0.00     0.134 A 
ATOM     75  F   UNL A   1      42.731  23.247  29.171  1.00  0.00    -0.206 F 
ATOM     76  C   UNL A   1      41.273  21.789  28.049  1.00  0.00     0.040 A 
ATOM     77  C   UNL A   1      39.655  22.667  26.499  1.00  0.00     0.040 A 
ATOM     78  F   UNL A   1      39.553  24.976  26.092  1.00  0.00    -0.206 F 
ATOM     79  C   UNL A   1      40.237  21.577  27.142  1.00  0.00     0.006 A 
ENDBRANCH  51  72
BRANCH  63  80
ATOM     80  C   UNL A   1      47.034  27.357  25.670  1.00  0.00     0.057 A 
ATOM     81  C   UNL A   1      48.089  26.662  26.275  1.00  0.00     0.134 A 
ATOM     82  C   UNL A   1      47.099  27.556  24.285  1.00  0.00     0.134 A 
ATOM     83  F   UNL A   1      48.091  26.448  27.599  1.00  0.00    -0.206 F 
ATOM     84  C   UNL A   1      49.175  26.198  25.532  1.00  0.00     0.040 A 
ATOM     85  C   UNL A   1      48.168  27.075  23.527  1.00  0.00     0.040 A 
ATOM     86  F   UNL A   1      46.117  28.205  23.642  1.00  0.00    -0.206 F 
ATOM     87  C   UNL A   1      49.213  26.397  24.152  1.00  0.00     0.006 A 
ENDBRANCH  63  80
ENDBRANCH  37  38
ENDBRANCH  30  32
ENDBRANCH  29  30
ENDBRANCH  28  29
ENDBRANCH  27  28
ENDBRANCH  26  27
ENDBRANCH  25  26
ENDBRANCH   1  25
TORSDOF 19
ENDMDL
MODEL 3
REMARK VINA RESULT:     -10.9      4.513      9.823
REMARK SMILES C[C@@H]1[C@H](C(=O)OCCOCCOCCOC(=O)c2ccc(-c3c4nc(c(-c5c(F)cccc5F)c5ccc([nH]5)c(-c5c(F)cccc5F)c5nc(c(-c6c(F)cccc6F)c6ccc3[nH]6)C=C5)C=C4)cc2)CCN1S(=O)(=O)c1cc(F)cc(F)c1
REMARK SMILES IDX 10 1 9 2 8 3 7 4 6 5 4 6 5 7 3 8 1 9 2 10 74 11 72 12 73 13
REMARK SMILES IDX 75 14 76 15 77 16 78 17 79 18 85 19 80 20 83 21 81 22 82 23
REMARK SMILES IDX 84 24 11 25 12 26 13 27 14 28 15 29 16 30 17 31 18 32 19 33
REMARK SMILES IDX 71 34 20 35 70 36 21 37 22 38 23 39 64 40 24 41 69 42 63 43
REMARK SMILES IDX 65 44 25 45 68 46 62 47 61 48 26 50 52 51 35 52 51 53 36 54
REMARK SMILES IDX 39 55 50 56 66 57 37 58 38 59 49 61 67 62 40 63 27 64 28 65
REMARK SMILES IDX 33 66 29 67 30 68 32 69 34 70 31 71 53 72 54 73 59 74 55 75
REMARK SMILES IDX 56 76 58 77 60 78 57 79 41 80 42 81 47 82 43 83 44 84 46 85
REMARK SMILES IDX 48 86 45 87
REMARK H PARENT 65 49 39 60
REMARK Flexibility Score: inf
ROOT
ATOM      1  C   UNL A   1      39.073  21.559  26.077  1.00  0.00     0.188 C 
ENDROOT
BRANCH   1   2
ATOM      2  O   UNL A   1      38.597  22.891  26.030  1.00  0.00    -0.376 OA
BRANCH   2   3
ATOM      3  C   UNL A   1      37.354  23.116  25.361  1.00  0.00     0.202 C 
BRANCH   3   4
ATOM      4  C   UNL A   1      36.159  22.250  25.775  1.00  0.00     0.261 C 
BRANCH   4   5
ATOM      5  O   UNL A   1      35.577  21.635  24.608  1.00  0.00    -0.463 OA
BRANCH   5   6
ATOM      6  C   UNL A   1      34.264  21.317  24.692  1.00  0.00     0.310 C 
ATOM      7  O   UNL A   1      33.778  20.282  24.251  1.00  0.00    -0.252 OA
BRANCH   6   8
ATOM      8  C   UNL A   1      33.485  22.305  25.535  1.00  0.00     0.118 C 
ATOM      9  C   UNL A   1      32.730  23.673  23.474  1.00  0.00     0.027 C 
ATOM     10  C   UNL A   1      33.096  23.678  24.951  1.00  0.00     0.084 C 
ATOM     11  N   UNL A   1      31.979  24.129  25.859  1.00  0.00    -0.194 NA
ATOM     12  C   UNL A   1      32.142  21.724  25.934  1.00  0.00     0.034 C 
ATOM     13  C   UNL A   1      31.406  22.911  26.520  1.00  0.00     0.104 C 
BRANCH  11  14
ATOM     14  S   UNL A   1      30.791  25.277  25.468  1.00  0.00     0.243 S 
ATOM     15  O   UNL A   1      30.276  24.985  24.149  1.00  0.00    -0.207 OA
ATOM     16  O   UNL A   1      29.891  25.304  26.607  1.00  0.00    -0.207 OA
BRANCH  14  17
ATOM     17  C   UNL A   1      31.507  26.901  25.407  1.00  0.00     0.088 A 
ATOM     18  C   UNL A   1      32.783  27.046  25.974  1.00  0.00     0.061 A 
ATOM     19  C   UNL A   1      30.861  28.015  24.876  1.00  0.00     0.061 A 
ATOM     20  C   UNL A   1      33.382  28.299  26.022  1.00  0.00     0.127 A 
ATOM     21  C   UNL A   1      31.487  29.259  24.938  1.00  0.00     0.127 A 
ATOM     22  F   UNL A   1      34.589  28.431  26.588  1.00  0.00    -0.207 F 
ATOM     23  C   UNL A   1      32.743  29.415  25.509  1.00  0.00     0.078 A 
ATOM     24  F   UNL A   1      30.849  30.333  24.459  1.00  0.00    -0.207 F 
ENDBRANCH  14  17
ENDBRANCH  11  14
ENDBRANCH   6   8
ENDBRANCH   5   6
ENDBRANCH   4   5
ENDBRANCH   3   4
ENDBRANCH   2   3
ENDBRANCH   1   2
BRANCH   1  25
ATOM     25  C   UNL A   1      40.392  21.293  26.804  1.00  0.00     0.188 C 
BRANCH  25  26
ATOM     26  O   UNL A   1      41.336  20.382  26.291  1.00  0.00    -0.376 OA
BRANCH  26  27
ATOM     27  C   UNL A   1      42.723  20.691  26.192  1.00  0.00     0.202 C 
BRANCH  27  28
ATOM     28  C   UNL A   1      43.411  21.580  25.129  1.00  0.00     0.261 C 
BRANCH  28  29
ATOM     29  O   UNL A   1      42.936  22.908  24.945  1.00  0.00    -0.460 OA
BRANCH  29  30
ATOM     30  C   UNL A   1      43.841  23.897  25.147  1.00  0.00     0.338 C 
ATOM     31  O   UNL A   1      44.850  24.118  24.509  1.00  0.00    -0.246 OA
BRANCH  30  32
ATOM     32  C   UNL A   1      43.229  24.836  26.117  1.00  0.00     0.060 A 
ATOM     33  C   UNL A   1      43.696  26.157  26.136  1.00  0.00     0.016 A 
ATOM     34  C   UNL A   1      42.139  24.456  26.906  1.00  0.00     0.016 A 
ATOM     35  C   UNL A   1      43.087  27.100  26.964  1.00  0.00     0.010 A 
ATOM     36  C   UNL A   1      41.545  25.394  27.752  1.00  0.00     0.010 A 
ATOM     37  C   UNL A   1      42.035  26.711  27.804  1.00  0.00    -0.014 A 
BRANCH  37  38
ATOM     38  C   UNL A   1      41.601  27.605  28.901  1.00  0.00     0.031 A 
ATOM     39  C   UNL A   1      42.352  27.527  30.201  1.00  0.00     0.074 A 
ATOM     40  C   UNL A   1      40.576  28.463  28.759  1.00  0.00     0.049 A 
ATOM     41  N   UNL A   1      42.123  28.137  31.333  1.00  0.00    -0.248 NA
ATOM     42  C   UNL A   1      43.523  26.633  30.221  1.00  0.00     0.031 C 
ATOM     43  C   UNL A   1      39.801  28.669  27.538  1.00  0.00     0.029 A 
ATOM     44  N   UNL A   1      40.007  29.319  29.669  1.00  0.00    -0.354 N 
ATOM     45  C   UNL A   1      43.117  27.701  32.199  1.00  0.00     0.074 A 
ATOM     46  C   UNL A   1      43.933  26.754  31.473  1.00  0.00     0.031 C 
ATOM     47  C   UNL A   1      38.844  29.584  27.781  1.00  0.00     0.029 A 
ATOM     48  C   UNL A   1      38.920  30.002  29.180  1.00  0.00     0.049 A 
ATOM     49  H   UNL A   1      40.346  29.432  30.586  1.00  0.00     0.167 HD
ATOM     50  C   UNL A   1      43.338  28.064  33.483  1.00  0.00     0.037 A 
ATOM     51  C   UNL A   1      38.075  30.846  29.803  1.00  0.00     0.037 A 
ATOM     52  C   UNL A   1      42.520  28.994  34.211  1.00  0.00     0.049 A 
ATOM     53  C   UNL A   1      38.282  31.158  31.264  1.00  0.00     0.074 A 
ATOM     54  C   UNL A   1      42.654  29.419  35.520  1.00  0.00     0.029 A 
ATOM     55  N   UNL A   1      41.408  29.637  33.691  1.00  0.00    -0.354 N 
ATOM     56  N   UNL A   1      39.230  30.750  32.074  1.00  0.00    -0.248 NA
ATOM     57  C   UNL A   1      37.297  32.047  31.900  1.00  0.00     0.031 C 
ATOM     58  C   UNL A   1      41.598  30.290  35.806  1.00  0.00     0.029 A 
ATOM     59  C   UNL A   1      40.834  30.443  34.660  1.00  0.00     0.049 A 
ATOM     60  H   UNL A   1      41.075  29.536  32.771  1.00  0.00     0.167 HD
ATOM     61  C   UNL A   1      38.976  31.358  33.298  1.00  0.00     0.074 A 
ATOM     62  C   UNL A   1      37.789  32.169  33.125  1.00  0.00     0.031 C 
ATOM     63  C   UNL A   1      39.663  31.257  34.462  1.00  0.00     0.037 A 
BRANCH  50  64
ATOM     64  C   UNL A   1      44.499  27.428  34.183  1.00  0.00     0.057 A 
ATOM     65  C   UNL A   1      44.385  26.183  34.816  1.00  0.00     0.134 A 
ATOM     66  C   UNL A   1      45.748  28.059  34.214  1.00  0.00     0.134 A 
ATOM     67  F   UNL A   1      43.209  25.539  34.841  1.00  0.00    -0.206 F 
ATOM     68  C   UNL A   1      45.469  25.598  35.471  1.00  0.00     0.040 A 
ATOM     69  C   UNL A   1      46.846  27.473  34.844  1.00  0.00     0.040 A 
ATOM     70  F   UNL A   1      45.921  29.254  33.629  1.00  0.00    -0.206 F 
ATOM     71  C   UNL A   1      46.706  26.240  35.481  1.00  0.00     0.006 A 
ENDBRANCH  50  64
BRANCH  51  72
ATOM     72  C   UNL A   1      36.932  31.447  29.069  1.00  0.00     0.057 A 
ATOM     73  C   UNL A   1      36.953  32.790  28.671  1.00  0.00     0.134 A 
ATOM     74  C   UNL A   1      35.771  30.713  28.796  1.00  0.00     0.134 A 
ATOM     75  F   UNL A   1      38.024  33.552  28.931  1.00  0.00    -0.206 F 
ATOM     76  C   UNL A   1      35.855  33.386  28.049  1.00  0.00     0.040 A 
ATOM     77  C   UNL A   1      34.676  31.290  28.151  1.00  0.00     0.040 A 
ATOM     78  F   UNL A   1      35.686  29.424  29.154  1.00  0.00    -0.206 F 
ATOM     79  C   UNL A   1      34.713  32.633  27.785  1.00  0.00     0.006 A 
ENDBRANCH  51  72
BRANCH  63  80
ATOM     80  C   UNL A   1      39.184  32.076  35.625  1.00  0.00     0.057 A 
ATOM     81  C   UNL A   1      39.551  33.418  35.788  1.00  0.00     0.134 A 
ATOM     82  C   UNL A   1      38.300  31.528  36.564  1.00  0.00     0.134 A 
ATOM     83  F   UNL A   1      40.403  33.998  34.930  1.00  0.00    -0.206 F 
ATOM     84  C   UNL A   1      39.072  34.179  36.855  1.00  0.00     0.040 A 
ATOM     85  C   UNL A   1      37.793  32.287  37.620  1.00  0.00     0.040 A 
ATOM     86  F   UNL A   1      37.899  30.253  36.459  1.00  0.00    -0.206 F 
ATOM     87  C   UNL A   1      38.184  33.616  37.771  1.00  0.00     0.006 A 
ENDBRANCH  63  80
ENDBRANCH  37  38
ENDBRANCH  30  32
ENDBRANCH  29  30
ENDBRANCH  28  29
ENDBRANCH  27  28
ENDBRANCH  26  27
ENDBRANCH  25  26
ENDBRANCH   1  25
TORSDOF 19
ENDMDL
