MODEL 1
REMARK VINA RESULT:      -9.5      0.000      0.000
REMARK SMILES CC(C)[C@H]([NH2+]Cc1ccc(N(C)C)cc1)C(=O)OCCOCCOCCOC(=O)c1ccc(-c2c3nc(c(-c4c(F)cccc4F)c4ccc([nH]4)c(-c4c(F)cccc4F)c4nc(c(-c5c(F)cccc5F)c5ccc2[nH]5)C=C4)C=C3)cc1
REMARK SMILES IDX 22 1 21 2 20 3 19 4 18 5 16 6 17 7 4 8 2 9 1 10 3 11 5 12
REMARK SMILES IDX 6 15 7 16 8 17 15 18 9 19 14 20 10 21 11 22 12 23 13 24
REMARK SMILES IDX 23 25 24 26 25 27 26 28 27 29 28 30 29 31 30 32 31 33 83 34
REMARK SMILES IDX 32 35 82 36 33 37 34 38 35 39 76 40 36 41 81 42 75 43 77 44
REMARK SMILES IDX 37 45 80 46 74 47 73 48 38 50 64 51 47 52 63 53 48 54 51 55
REMARK SMILES IDX 62 56 78 57 49 58 50 59 61 61 79 62 52 63 39 64 40 65 45 66
REMARK SMILES IDX 41 67 42 68 44 69 46 70 43 71 65 72 66 73 71 74 67 75 68 76
REMARK SMILES IDX 70 77 72 78 69 79 53 80 54 81 59 82 55 83 56 84 58 85 60 86
REMARK SMILES IDX 57 87
REMARK H PARENT 5 13 5 14 77 49 51 60
REMARK Flexibility Score: inf
ROOT
ATOM      1  C   UNL A   1      32.551  36.247  30.912  1.00  0.00     0.188 C 
ENDROOT
BRANCH   1   2
ATOM      2  O   UNL A   1      32.410  36.435  29.514  1.00  0.00    -0.376 OA
BRANCH   2   3
ATOM      3  C   UNL A   1      33.146  35.618  28.614  1.00  0.00     0.202 C 
BRANCH   3   4
ATOM      4  C   UNL A   1      33.971  34.417  29.108  1.00  0.00     0.261 C 
BRANCH   4   5
ATOM      5  O   UNL A   1      33.788  33.178  28.397  1.00  0.00    -0.459 OA
BRANCH   5   6
ATOM      6  C   UNL A   1      34.926  32.552  27.989  1.00  0.00     0.365 C 
ATOM      7  O   UNL A   1      35.923  33.139  27.572  1.00  0.00    -0.245 OA
BRANCH   6   8
ATOM      8  C   UNL A   1      34.861  31.007  28.037  1.00  0.00     0.296 C 
BRANCH   8   9
ATOM      9  C   UNL A   1      36.251  30.416  28.394  1.00  0.00     0.053 C 
ATOM     10  C   UNL A   1      36.242  29.420  29.556  1.00  0.00     0.014 C 
ATOM     11  C   UNL A   1      36.873  29.790  27.144  1.00  0.00     0.014 C 
ENDBRANCH   8   9
BRANCH   8  12
ATOM     12  N   UNL A   1      34.238  30.388  26.836  1.00  0.00    -0.331 N 
ATOM     13  H   UNL A   1      34.873  29.680  26.467  1.00  0.00     0.347 HD
ATOM     14  H   UNL A   1      34.066  31.129  26.158  1.00  0.00     0.347 HD
BRANCH  12  15
ATOM     15  C   UNL A   1      32.949  29.751  27.136  1.00  0.00     0.298 C 
BRANCH  15  16
ATOM     16  C   UNL A   1      32.780  28.335  26.630  1.00  0.00     0.006 A 
ATOM     17  C   UNL A   1      31.579  27.656  26.870  1.00  0.00     0.012 A 
ATOM     18  C   UNL A   1      33.824  27.603  26.070  1.00  0.00     0.012 A 
ATOM     19  C   UNL A   1      31.437  26.287  26.575  1.00  0.00     0.026 A 
ATOM     20  C   UNL A   1      33.671  26.233  25.784  1.00  0.00     0.026 A 
ATOM     21  C   UNL A   1      32.483  25.522  26.042  1.00  0.00     0.036 A 
BRANCH  21  22
ATOM     22  N   UNL A   1      32.382  24.154  25.814  1.00  0.00    -0.378 N 
ATOM     23  C   UNL A   1      32.184  23.165  26.868  1.00  0.00     0.143 C 
ATOM     24  C   UNL A   1      32.300  23.638  24.450  1.00  0.00     0.143 C 
ENDBRANCH  21  22
ENDBRANCH  15  16
ENDBRANCH  12  15
ENDBRANCH   8  12
ENDBRANCH   6   8
ENDBRANCH   5   6
ENDBRANCH   4   5
ENDBRANCH   3   4
ENDBRANCH   2   3
ENDBRANCH   1   2
BRANCH   1  25
ATOM     25  C   UNL A   1      33.390  37.243  31.734  1.00  0.00     0.188 C 
BRANCH  25  26
ATOM     26  O   UNL A   1      33.719  36.840  33.040  1.00  0.00    -0.376 OA
BRANCH  26  27
ATOM     27  C   UNL A   1      34.822  35.978  33.251  1.00  0.00     0.202 C 
BRANCH  27  28
ATOM     28  C   UNL A   1      34.830  34.450  33.026  1.00  0.00     0.261 C 
BRANCH  28  29
ATOM     29  O   UNL A   1      36.021  33.832  32.533  1.00  0.00    -0.460 OA
BRANCH  29  30
ATOM     30  C   UNL A   1      35.876  32.613  31.950  1.00  0.00     0.338 C 
ATOM     31  O   UNL A   1      34.842  32.037  31.686  1.00  0.00    -0.246 OA
BRANCH  30  32
ATOM     32  C   UNL A   1      37.213  32.163  31.507  1.00  0.00     0.060 A 
ATOM     33  C   UNL A   1      37.760  32.682  30.324  1.00  0.00     0.016 A 
ATOM     34  C   UNL A   1      37.922  31.235  32.268  1.00  0.00     0.016 A 
ATOM     35  C   UNL A   1      39.024  32.268  29.895  1.00  0.00     0.010 A 
ATOM     36  C   UNL A   1      39.171  30.798  31.821  1.00  0.00     0.010 A 
ATOM     37  C   UNL A   1      39.718  31.295  30.623  1.00  0.00    -0.014 A 
BRANCH  37  38
ATOM     38  C   UNL A   1      40.923  30.638  30.059  1.00  0.00     0.031 A 
ATOM     39  C   UNL A   1      42.142  31.486  29.821  1.00  0.00     0.074 A 
ATOM     40  C   UNL A   1      40.927  29.338  29.720  1.00  0.00     0.049 A 
ATOM     41  N   UNL A   1      43.247  31.195  29.186  1.00  0.00    -0.248 NA
ATOM     42  C   UNL A   1      42.098  32.852  30.367  1.00  0.00     0.031 C 
ATOM     43  C   UNL A   1      39.833  28.398  29.946  1.00  0.00     0.029 A 
ATOM     44  N   UNL A   1      41.889  28.592  29.081  1.00  0.00    -0.354 N 
ATOM     45  C   UNL A   1      44.020  32.348  29.236  1.00  0.00     0.074 A 
ATOM     46  C   UNL A   1      43.251  33.346  29.945  1.00  0.00     0.031 C 
ATOM     47  C   UNL A   1      40.171  27.204  29.425  1.00  0.00     0.029 A 
ATOM     48  C   UNL A   1      41.485  27.312  28.791  1.00  0.00     0.049 A 
ATOM     49  H   UNL A   1      42.780  28.943  28.853  1.00  0.00     0.167 HD
ATOM     50  C   UNL A   1      45.261  32.554  28.736  1.00  0.00     0.037 A 
ATOM     51  C   UNL A   1      42.091  26.353  28.062  1.00  0.00     0.037 A 
ATOM     52  C   UNL A   1      46.020  31.560  28.026  1.00  0.00     0.049 A 
ATOM     53  C   UNL A   1      43.435  26.634  27.436  1.00  0.00     0.074 A 
ATOM     54  C   UNL A   1      47.293  31.666  27.492  1.00  0.00     0.029 A 
ATOM     55  N   UNL A   1      45.571  30.279  27.739  1.00  0.00    -0.354 N 
ATOM     56  N   UNL A   1      44.170  27.719  27.500  1.00  0.00    -0.248 NA
ATOM     57  C   UNL A   1      44.033  25.557  26.632  1.00  0.00     0.031 C 
ATOM     58  C   UNL A   1      47.590  30.471  26.832  1.00  0.00     0.029 A 
ATOM     59  C   UNL A   1      46.530  29.596  27.011  1.00  0.00     0.049 A 
ATOM     60  H   UNL A   1      44.700  29.912  28.011  1.00  0.00     0.167 HD
ATOM     61  C   UNL A   1      45.327  27.442  26.779  1.00  0.00     0.074 A 
ATOM     62  C   UNL A   1      45.200  26.085  26.292  1.00  0.00     0.031 C 
ATOM     63  C   UNL A   1      46.399  28.238  26.547  1.00  0.00     0.037 A 
BRANCH  50  64
ATOM     64  C   UNL A   1      45.857  33.921  28.908  1.00  0.00     0.057 A 
ATOM     65  C   UNL A   1      45.564  34.976  28.035  1.00  0.00     0.134 A 
ATOM     66  C   UNL A   1      46.717  34.190  29.981  1.00  0.00     0.134 A 
ATOM     67  F   UNL A   1      44.760  34.782  26.978  1.00  0.00    -0.206 F 
ATOM     68  C   UNL A   1      46.124  36.242  28.207  1.00  0.00     0.040 A 
ATOM     69  C   UNL A   1      47.259  35.461  30.181  1.00  0.00     0.040 A 
ATOM     70  F   UNL A   1      47.037  33.227  30.857  1.00  0.00    -0.206 F 
ATOM     71  C   UNL A   1      46.968  36.489  29.288  1.00  0.00     0.006 A 
ENDBRANCH  50  64
BRANCH  51  72
ATOM     72  C   UNL A   1      41.428  25.039  27.854  1.00  0.00     0.057 A 
ATOM     73  C   UNL A   1      41.860  23.894  28.533  1.00  0.00     0.134 A 
ATOM     74  C   UNL A   1      40.373  24.888  26.945  1.00  0.00     0.134 A 
ATOM     75  F   UNL A   1      42.885  23.967  29.394  1.00  0.00    -0.206 F 
ATOM     76  C   UNL A   1      41.281  22.644  28.304  1.00  0.00     0.040 A 
ATOM     77  C   UNL A   1      39.765  23.650  26.728  1.00  0.00     0.040 A 
ATOM     78  F   UNL A   1      39.914  25.943  26.257  1.00  0.00    -0.206 F 
ATOM     79  C   UNL A   1      40.226  22.521  27.403  1.00  0.00     0.006 A 
ENDBRANCH  51  72
BRANCH  63  80
ATOM     80  C   UNL A   1      47.552  27.653  25.779  1.00  0.00     0.057 A 
ATOM     81  C   UNL A   1      47.610  27.686  24.380  1.00  0.00     0.134 A 
ATOM     82  C   UNL A   1      48.650  27.107  26.457  1.00  0.00     0.134 A 
ATOM     83  F   UNL A   1      46.588  28.185  23.669  1.00  0.00    -0.206 F 
ATOM     84  C   UNL A   1      48.710  27.181  23.683  1.00  0.00     0.040 A 
ATOM     85  C   UNL A   1      49.768  26.627  25.774  1.00  0.00     0.040 A 
ATOM     86  F   UNL A   1      48.666  27.055  27.797  1.00  0.00    -0.206 F 
ATOM     87  C   UNL A   1      49.797  26.659  24.382  1.00  0.00     0.006 A 
ENDBRANCH  63  80
ENDBRANCH  37  38
ENDBRANCH  30  32
ENDBRANCH  29  30
ENDBRANCH  28  29
ENDBRANCH  27  28
ENDBRANCH  26  27
ENDBRANCH  25  26
ENDBRANCH   1  25
TORSDOF 22
ENDMDL
MODEL 2
REMARK VINA RESULT:      -9.4      5.403     10.504
REMARK SMILES CC(C)[C@H]([NH2+]Cc1ccc(N(C)C)cc1)C(=O)OCCOCCOCCOC(=O)c1ccc(-c2c3nc(c(-c4c(F)cccc4F)c4ccc([nH]4)c(-c4c(F)cccc4F)c4nc(c(-c5c(F)cccc5F)c5ccc2[nH]5)C=C4)C=C3)cc1
REMARK SMILES IDX 22 1 21 2 20 3 19 4 18 5 16 6 17 7 4 8 2 9 1 10 3 11 5 12
REMARK SMILES IDX 6 15 7 16 8 17 15 18 9 19 14 20 10 21 11 22 12 23 13 24
REMARK SMILES IDX 23 25 24 26 25 27 26 28 27 29 28 30 29 31 30 32 31 33 83 34
REMARK SMILES IDX 32 35 82 36 33 37 34 38 35 39 76 40 36 41 81 42 75 43 77 44
REMARK SMILES IDX 37 45 80 46 74 47 73 48 38 50 64 51 47 52 63 53 48 54 51 55
REMARK SMILES IDX 62 56 78 57 49 58 50 59 61 61 79 62 52 63 39 64 40 65 45 66
REMARK SMILES IDX 41 67 42 68 44 69 46 70 43 71 65 72 66 73 71 74 67 75 68 76
REMARK SMILES IDX 70 77 72 78 69 79 53 80 54 81 59 82 55 83 56 84 58 85 60 86
REMARK SMILES IDX 57 87
REMARK H PARENT 5 13 5 14 77 49 51 60
REMARK Flexibility Score: inf
ROOT
ATOM      1  C   UNL A   1      38.394  22.813  26.077  1.00  0.00     0.188 C 
ENDROOT
BRANCH   1   2
ATOM      2  O   UNL A   1      37.062  22.797  25.595  1.00  0.00    -0.376 OA
BRANCH   2   3
ATOM      3  C   UNL A   1      36.111  23.716  26.116  1.00  0.00     0.202 C 
BRANCH   3   4
ATOM      4  C   UNL A   1      34.691  23.823  25.535  1.00  0.00     0.261 C 
BRANCH   4   5
ATOM      5  O   UNL A   1      34.524  24.700  24.405  1.00  0.00    -0.459 OA
BRANCH   5   6
ATOM      6  C   UNL A   1      34.304  24.092  23.207  1.00  0.00     0.365 C 
ATOM      7  O   UNL A   1      35.045  23.239  22.722  1.00  0.00    -0.245 OA
BRANCH   6   8
ATOM      8  C   UNL A   1      33.052  24.598  22.451  1.00  0.00     0.296 C 
BRANCH   8   9
ATOM      9  C   UNL A   1      32.613  25.984  22.996  1.00  0.00     0.053 C 
ATOM     10  C   UNL A   1      33.406  27.169  22.439  1.00  0.00     0.014 C 
ATOM     11  C   UNL A   1      31.113  26.171  22.758  1.00  0.00     0.014 C 
ENDBRANCH   8   9
BRANCH   8  12
ATOM     12  N   UNL A   1      31.945  23.607  22.377  1.00  0.00    -0.331 N 
ATOM     13  H   UNL A   1      32.209  22.871  21.722  1.00  0.00     0.347 HD
ATOM     14  H   UNL A   1      31.107  24.099  22.072  1.00  0.00     0.347 HD
BRANCH  12  15
ATOM     15  C   UNL A   1      31.652  22.994  23.679  1.00  0.00     0.298 C 
BRANCH  15  16
ATOM     16  C   UNL A   1      32.185  21.592  23.884  1.00  0.00     0.006 A 
ATOM     17  C   UNL A   1      32.204  20.698  22.807  1.00  0.00     0.012 A 
ATOM     18  C   UNL A   1      32.515  21.086  25.138  1.00  0.00     0.012 A 
ATOM     19  C   UNL A   1      32.525  19.339  22.986  1.00  0.00     0.026 A 
ATOM     20  C   UNL A   1      32.829  19.724  25.305  1.00  0.00     0.026 A 
ATOM     21  C   UNL A   1      32.829  18.799  24.243  1.00  0.00     0.036 A 
BRANCH  21  22
ATOM     22  N   UNL A   1      33.076  17.446  24.447  1.00  0.00    -0.378 N 
ATOM     23  C   UNL A   1      33.729  16.581  23.470  1.00  0.00     0.143 C 
ATOM     24  C   UNL A   1      32.837  16.842  25.755  1.00  0.00     0.143 C 
ENDBRANCH  21  22
ENDBRANCH  15  16
ENDBRANCH  12  15
ENDBRANCH   8  12
ENDBRANCH   6   8
ENDBRANCH   5   6
ENDBRANCH   4   5
ENDBRANCH   3   4
ENDBRANCH   2   3
ENDBRANCH   1   2
BRANCH   1  25
ATOM     25  C   UNL A   1      39.206  21.505  26.120  1.00  0.00     0.188 C 
BRANCH  25  26
ATOM     26  O   UNL A   1      40.052  21.342  27.230  1.00  0.00    -0.376 OA
BRANCH  26  27
ATOM     27  C   UNL A   1      41.353  20.813  27.050  1.00  0.00     0.202 C 
BRANCH  27  28
ATOM     28  C   UNL A   1      42.451  21.406  26.139  1.00  0.00     0.261 C 
BRANCH  28  29
ATOM     29  O   UNL A   1      42.140  22.552  25.342  1.00  0.00    -0.460 OA
BRANCH  29  30
ATOM     30  C   UNL A   1      43.078  23.534  25.300  1.00  0.00     0.338 C 
ATOM     31  O   UNL A   1      44.053  23.597  24.580  1.00  0.00    -0.246 OA
BRANCH  30  32
ATOM     32  C   UNL A   1      42.615  24.637  26.168  1.00  0.00     0.060 A 
ATOM     33  C   UNL A   1      43.446  25.749  26.375  1.00  0.00     0.016 A 
ATOM     34  C   UNL A   1      41.360  24.570  26.769  1.00  0.00     0.016 A 
ATOM     35  C   UNL A   1      43.021  26.800  27.191  1.00  0.00     0.010 A 
ATOM     36  C   UNL A   1      40.949  25.607  27.610  1.00  0.00     0.010 A 
ATOM     37  C   UNL A   1      41.785  26.716  27.842  1.00  0.00    -0.014 A 
BRANCH  37  38
ATOM     38  C   UNL A   1      41.425  27.671  28.918  1.00  0.00     0.031 A 
ATOM     39  C   UNL A   1      42.183  27.592  30.214  1.00  0.00     0.074 A 
ATOM     40  C   UNL A   1      40.424  28.557  28.773  1.00  0.00     0.049 A 
ATOM     41  N   UNL A   1      41.949  28.188  31.354  1.00  0.00    -0.248 NA
ATOM     42  C   UNL A   1      43.359  26.707  30.224  1.00  0.00     0.031 C 
ATOM     43  C   UNL A   1      39.649  28.771  27.555  1.00  0.00     0.029 A 
ATOM     44  N   UNL A   1      39.871  29.424  29.685  1.00  0.00    -0.354 N 
ATOM     45  C   UNL A   1      42.933  27.734  32.222  1.00  0.00     0.074 A 
ATOM     46  C   UNL A   1      43.753  26.799  31.484  1.00  0.00     0.031 C 
ATOM     47  C   UNL A   1      38.698  29.690  27.801  1.00  0.00     0.029 A 
ATOM     48  C   UNL A   1      38.770  30.092  29.205  1.00  0.00     0.049 A 
ATOM     49  H   UNL A   1      40.229  29.554  30.592  1.00  0.00     0.167 HD
ATOM     50  C   UNL A   1      43.135  28.067  33.518  1.00  0.00     0.037 A 
ATOM     51  C   UNL A   1      37.900  30.902  29.841  1.00  0.00     0.037 A 
ATOM     52  C   UNL A   1      42.312  28.993  34.250  1.00  0.00     0.049 A 
ATOM     53  C   UNL A   1      38.090  31.190  31.310  1.00  0.00     0.074 A 
ATOM     54  C   UNL A   1      42.443  29.409  35.563  1.00  0.00     0.029 A 
ATOM     55  N   UNL A   1      41.197  29.638  33.735  1.00  0.00    -0.354 N 
ATOM     56  N   UNL A   1      39.031  30.772  32.123  1.00  0.00    -0.248 NA
ATOM     57  C   UNL A   1      37.093  32.060  31.953  1.00  0.00     0.031 C 
ATOM     58  C   UNL A   1      41.374  30.259  35.860  1.00  0.00     0.029 A 
ATOM     59  C   UNL A   1      40.615  30.426  34.713  1.00  0.00     0.049 A 
ATOM     60  H   UNL A   1      40.869  29.547  32.811  1.00  0.00     0.167 HD
ATOM     61  C   UNL A   1      38.761  31.356  33.356  1.00  0.00     0.074 A 
ATOM     62  C   UNL A   1      37.572  32.163  33.184  1.00  0.00     0.031 C 
ATOM     63  C   UNL A   1      39.440  31.238  34.524  1.00  0.00     0.037 A 
BRANCH  50  64
ATOM     64  C   UNL A   1      44.269  27.396  34.236  1.00  0.00     0.057 A 
ATOM     65  C   UNL A   1      44.116  26.159  34.875  1.00  0.00     0.134 A 
ATOM     66  C   UNL A   1      45.539  27.985  34.264  1.00  0.00     0.134 A 
ATOM     67  F   UNL A   1      42.922  25.548  34.899  1.00  0.00    -0.206 F 
ATOM     68  C   UNL A   1      45.179  25.545  35.539  1.00  0.00     0.040 A 
ATOM     69  C   UNL A   1      46.617  27.366  34.899  1.00  0.00     0.040 A 
ATOM     70  F   UNL A   1      45.756  29.167  33.669  1.00  0.00    -0.206 F 
ATOM     71  C   UNL A   1      46.437  26.145  35.544  1.00  0.00     0.006 A 
ENDBRANCH  50  64
BRANCH  51  72
ATOM     72  C   UNL A   1      36.746  31.484  29.107  1.00  0.00     0.057 A 
ATOM     73  C   UNL A   1      35.642  30.700  28.754  1.00  0.00     0.134 A 
ATOM     74  C   UNL A   1      36.734  32.827  28.709  1.00  0.00     0.134 A 
ATOM     75  F   UNL A   1      35.606  29.399  29.080  1.00  0.00    -0.206 F 
ATOM     76  C   UNL A   1      34.577  31.222  28.016  1.00  0.00     0.040 A 
ATOM     77  C   UNL A   1      35.663  33.371  27.997  1.00  0.00     0.040 A 
ATOM     78  F   UNL A   1      37.763  33.633  29.010  1.00  0.00    -0.206 F 
ATOM     79  C   UNL A   1      34.585  32.564  27.641  1.00  0.00     0.006 A 
ENDBRANCH  51  72
BRANCH  63  80
ATOM     80  C   UNL A   1      38.954  32.041  35.699  1.00  0.00     0.057 A 
ATOM     81  C   UNL A   1      38.178  31.475  36.719  1.00  0.00     0.134 A 
ATOM     82  C   UNL A   1      39.327  33.384  35.842  1.00  0.00     0.134 A 
ATOM     83  F   UNL A   1      37.778  30.198  36.640  1.00  0.00    -0.206 F 
ATOM     84  C   UNL A   1      37.776  32.222  37.828  1.00  0.00     0.040 A 
ATOM     85  C   UNL A   1      38.957  34.132  36.960  1.00  0.00     0.040 A 
ATOM     86  F   UNL A   1      40.081  33.985  34.908  1.00  0.00    -0.206 F 
ATOM     87  C   UNL A   1      38.174  33.552  37.955  1.00  0.00     0.006 A 
ENDBRANCH  63  80
ENDBRANCH  37  38
ENDBRANCH  30  32
ENDBRANCH  29  30
ENDBRANCH  28  29
ENDBRANCH  27  28
ENDBRANCH  26  27
ENDBRANCH  25  26
ENDBRANCH   1  25
TORSDOF 22
ENDMDL
MODEL 3
REMARK VINA RESULT:      -9.1      4.923      7.566
REMARK SMILES CC(C)[C@H]([NH2+]Cc1ccc(N(C)C)cc1)C(=O)OCCOCCOCCOC(=O)c1ccc(-c2c3nc(c(-c4c(F)cccc4F)c4ccc([nH]4)c(-c4c(F)cccc4F)c4nc(c(-c5c(F)cccc5F)c5ccc2[nH]5)C=C4)C=C3)cc1
REMARK SMILES IDX 22 1 21 2 20 3 19 4 18 5 16 6 17 7 4 8 2 9 1 10 3 11 5 12
REMARK SMILES IDX 6 15 7 16 8 17 15 18 9 19 14 20 10 21 11 22 12 23 13 24
REMARK SMILES IDX 23 25 24 26 25 27 26 28 27 29 28 30 29 31 30 32 31 33 83 34
REMARK SMILES IDX 32 35 82 36 33 37 34 38 35 39 76 40 36 41 81 42 75 43 77 44
REMARK SMILES IDX 37 45 80 46 74 47 73 48 38 50 64 51 47 52 63 53 48 54 51 55
REMARK SMILES IDX 62 56 78 57 49 58 50 59 61 61 79 62 52 63 39 64 40 65 45 66
REMARK SMILES IDX 41 67 42 68 44 69 46 70 43 71 65 72 66 73 71 74 67 75 68 76
REMARK SMILES IDX 70 77 72 78 69 79 53 80 54 81 59 82 55 83 56 84 58 85 60 86
REMARK SMILES IDX 57 87
REMARK H PARENT 5 13 5 14 77 49 51 60
REMARK Flexibility Score: inf
ROOT
ATOM      1  C   UNL A   1      34.602  32.103  28.930  1.00  0.00     0.188 C 
ENDROOT
BRANCH   1   2
ATOM      2  O   UNL A   1      33.950  31.935  27.683  1.00  0.00    -0.376 OA
BRANCH   2   3
ATOM      3  C   UNL A   1      33.446  30.658  27.316  1.00  0.00     0.202 C 
BRANCH   3   4
ATOM      4  C   UNL A   1      32.441  30.488  26.164  1.00  0.00     0.261 C 
BRANCH   4   5
ATOM      5  O   UNL A   1      32.832  29.604  25.096  1.00  0.00    -0.459 OA
BRANCH   5   6
ATOM      6  C   UNL A   1      31.903  28.685  24.715  1.00  0.00     0.365 C 
ATOM      7  O   UNL A   1      31.470  27.798  25.449  1.00  0.00    -0.245 OA
BRANCH   6   8
ATOM      8  C   UNL A   1      31.454  28.801  23.239  1.00  0.00     0.296 C 
BRANCH   8   9
ATOM      9  C   UNL A   1      29.958  29.208  23.157  1.00  0.00     0.053 C 
ATOM     10  C   UNL A   1      29.618  30.162  22.010  1.00  0.00     0.014 C 
ATOM     11  C   UNL A   1      29.091  27.949  23.094  1.00  0.00     0.014 C 
ENDBRANCH   8   9
BRANCH   8  12
ATOM     12  N   UNL A   1      31.798  27.618  22.404  1.00  0.00    -0.331 N 
ATOM     13  H   UNL A   1      31.571  27.827  21.432  1.00  0.00     0.347 HD
ATOM     14  H   UNL A   1      31.261  26.825  22.753  1.00  0.00     0.347 HD
BRANCH  12  15
ATOM     15  C   UNL A   1      33.221  27.265  22.489  1.00  0.00     0.298 C 
BRANCH  15  16
ATOM     16  C   UNL A   1      33.525  25.869  22.986  1.00  0.00     0.006 A 
ATOM     17  C   UNL A   1      33.105  24.764  22.236  1.00  0.00     0.012 A 
ATOM     18  C   UNL A   1      34.067  25.616  24.243  1.00  0.00     0.012 A 
ATOM     19  C   UNL A   1      33.209  23.453  22.737  1.00  0.00     0.026 A 
ATOM     20  C   UNL A   1      34.161  24.301  24.736  1.00  0.00     0.026 A 
ATOM     21  C   UNL A   1      33.720  23.175  24.013  1.00  0.00     0.036 A 
BRANCH  21  22
ATOM     22  N   UNL A   1      33.762  21.894  24.551  1.00  0.00    -0.378 N 
ATOM     23  C   UNL A   1      34.525  21.535  25.742  1.00  0.00     0.143 C 
ATOM     24  C   UNL A   1      32.883  20.849  24.033  1.00  0.00     0.143 C 
ENDBRANCH  21  22
ENDBRANCH  15  16
ENDBRANCH  12  15
ENDBRANCH   8  12
ENDBRANCH   6   8
ENDBRANCH   5   6
ENDBRANCH   4   5
ENDBRANCH   3   4
ENDBRANCH   2   3
ENDBRANCH   1   2
BRANCH   1  25
ATOM     25  C   UNL A   1      35.059  33.506  29.369  1.00  0.00     0.188 C 
BRANCH  25  26
ATOM     26  O   UNL A   1      34.448  34.587  28.711  1.00  0.00    -0.376 OA
BRANCH  26  27
ATOM     27  C   UNL A   1      33.158  35.014  29.110  1.00  0.00     0.202 C 
BRANCH  27  28
ATOM     28  C   UNL A   1      32.819  36.367  29.773  1.00  0.00     0.261 C 
BRANCH  28  29
ATOM     29  O   UNL A   1      33.269  36.611  31.109  1.00  0.00    -0.460 OA
BRANCH  29  30
ATOM     30  C   UNL A   1      32.808  35.767  32.068  1.00  0.00     0.338 C 
ATOM     31  O   UNL A   1      31.653  35.536  32.359  1.00  0.00    -0.246 OA
BRANCH  30  32
ATOM     32  C   UNL A   1      33.964  35.013  32.598  1.00  0.00     0.060 A 
ATOM     33  C   UNL A   1      35.250  35.566  32.507  1.00  0.00     0.016 A 
ATOM     34  C   UNL A   1      33.770  33.765  33.187  1.00  0.00     0.016 A 
ATOM     35  C   UNL A   1      36.352  34.866  33.007  1.00  0.00     0.010 A 
ATOM     36  C   UNL A   1      34.875  33.052  33.657  1.00  0.00     0.010 A 
ATOM     37  C   UNL A   1      36.172  33.588  33.550  1.00  0.00    -0.014 A 
BRANCH  37  38
ATOM     38  C   UNL A   1      37.335  32.713  33.834  1.00  0.00     0.031 A 
ATOM     39  C   UNL A   1      38.117  32.966  35.093  1.00  0.00     0.074 A 
ATOM     40  C   UNL A   1      37.722  31.749  32.981  1.00  0.00     0.049 A 
ATOM     41  N   UNL A   1      39.260  32.462  35.480  1.00  0.00    -0.248 NA
ATOM     42  C   UNL A   1      37.530  33.929  36.038  1.00  0.00     0.031 C 
ATOM     43  C   UNL A   1      37.024  31.369  31.756  1.00  0.00     0.029 A 
ATOM     44  N   UNL A   1      38.827  30.932  33.009  1.00  0.00    -0.354 N 
ATOM     45  C   UNL A   1      39.540  33.063  36.700  1.00  0.00     0.074 A 
ATOM     46  C   UNL A   1      38.459  33.981  36.980  1.00  0.00     0.031 C 
ATOM     47  C   UNL A   1      37.732  30.412  31.131  1.00  0.00     0.029 A 
ATOM     48  C   UNL A   1      38.955  30.147  31.889  1.00  0.00     0.049 A 
ATOM     49  H   UNL A   1      39.464  30.912  33.758  1.00  0.00     0.167 HD
ATOM     50  C   UNL A   1      40.603  32.865  37.514  1.00  0.00     0.037 A 
ATOM     51  C   UNL A   1      39.964  29.339  31.504  1.00  0.00     0.037 A 
ATOM     52  C   UNL A   1      41.679  31.955  37.228  1.00  0.00     0.049 A 
ATOM     53  C   UNL A   1      41.182  29.202  32.384  1.00  0.00     0.074 A 
ATOM     54  C   UNL A   1      42.795  31.672  37.996  1.00  0.00     0.029 A 
ATOM     55  N   UNL A   1      41.781  31.188  36.077  1.00  0.00    -0.354 N 
ATOM     56  N   UNL A   1      41.435  29.758  33.544  1.00  0.00    -0.248 NA
ATOM     57  C   UNL A   1      42.259  28.326  31.897  1.00  0.00     0.031 C 
ATOM     58  C   UNL A   1      43.601  30.779  37.284  1.00  0.00     0.029 A 
ATOM     59  C   UNL A   1      42.955  30.454  36.102  1.00  0.00     0.049 A 
ATOM     60  H   UNL A   1      41.118  31.170  35.350  1.00  0.00     0.167 HD
ATOM     61  C   UNL A   1      42.677  29.273  33.941  1.00  0.00     0.074 A 
ATOM     62  C   UNL A   1      43.124  28.371  32.901  1.00  0.00     0.031 C 
ATOM     63  C   UNL A   1      43.380  29.546  35.067  1.00  0.00     0.037 A 
BRANCH  50  64
ATOM     64  C   UNL A   1      40.670  33.679  38.773  1.00  0.00     0.057 A 
ATOM     65  C   UNL A   1      40.004  33.293  39.944  1.00  0.00     0.134 A 
ATOM     66  C   UNL A   1      41.435  34.851  38.822  1.00  0.00     0.134 A 
ATOM     67  F   UNL A   1      39.241  32.190  39.961  1.00  0.00    -0.206 F 
ATOM     68  C   UNL A   1      40.075  34.058  41.109  1.00  0.00     0.040 A 
ATOM     69  C   UNL A   1      41.539  35.608  39.990  1.00  0.00     0.040 A 
ATOM     70  F   UNL A   1      42.102  35.275  37.739  1.00  0.00    -0.206 F 
ATOM     71  C   UNL A   1      40.851  35.215  41.136  1.00  0.00     0.006 A 
ENDBRANCH  50  64
BRANCH  51  72
ATOM     72  C   UNL A   1      39.888  28.611  30.211  1.00  0.00     0.057 A 
ATOM     73  C   UNL A   1      39.243  27.373  30.113  1.00  0.00     0.134 A 
ATOM     74  C   UNL A   1      40.489  29.115  29.050  1.00  0.00     0.134 A 
ATOM     75  F   UNL A   1      38.674  26.821  31.195  1.00  0.00    -0.206 F 
ATOM     76  C   UNL A   1      39.214  26.653  28.916  1.00  0.00     0.040 A 
ATOM     77  C   UNL A   1      40.442  28.422  27.840  1.00  0.00     0.040 A 
ATOM     78  F   UNL A   1      41.128  30.294  29.076  1.00  0.00    -0.206 F 
ATOM     79  C   UNL A   1      39.810  27.182  27.774  1.00  0.00     0.006 A 
ENDBRANCH  51  72
BRANCH  63  80
ATOM     80  C   UNL A   1      44.683  28.823  35.270  1.00  0.00     0.057 A 
ATOM     81  C   UNL A   1      45.902  29.338  34.810  1.00  0.00     0.134 A 
ATOM     82  C   UNL A   1      44.722  27.625  35.997  1.00  0.00     0.134 A 
ATOM     83  F   UNL A   1      45.934  30.474  34.099  1.00  0.00    -0.206 F 
ATOM     84  C   UNL A   1      47.109  28.677  35.049  1.00  0.00     0.040 A 
ATOM     85  C   UNL A   1      45.925  26.972  36.269  1.00  0.00     0.040 A 
ATOM     86  F   UNL A   1      43.593  27.083  36.478  1.00  0.00    -0.206 F 
ATOM     87  C   UNL A   1      47.123  27.496  35.790  1.00  0.00     0.006 A 
ENDBRANCH  63  80
ENDBRANCH  37  38
ENDBRANCH  30  32
ENDBRANCH  29  30
ENDBRANCH  28  29
ENDBRANCH  27  28
ENDBRANCH  26  27
ENDBRANCH  25  26
ENDBRANCH   1  25
TORSDOF 22
ENDMDL
