MODEL 1
REMARK VINA RESULT:      -8.6      0.000      0.000
REMARK SMILES Cc1cc(C)cc(Oc2nc3ccccn3c(=O)c2/C=C2\SC(=S)N(CCC(=O)OCCOCCOCCOC(=O)c3ccc(-c4c5nc(c(-c6c(F)cccc6F)c6ccc([nH]6)c(-c6c(F)cccc6F)c6nc(c(-c7c(F)cccc7F)c7ccc4[nH]7)C=C6)C=C5)cc3)C2=O)c1
REMARK SMILES IDX 33 1 32 2 31 3 30 4 28 5 29 6 27 7 26 8 25 9 20 10 21 11
REMARK SMILES IDX 22 12 96 13 23 14 97 15 24 16 19 17 9 18 10 19 11 20 17 21
REMARK SMILES IDX 12 22 16 23 18 24 13 25 15 26 14 27 8 28 7 29 1 30 2 31 3 32
REMARK SMILES IDX 98 33 4 34 5 35 6 36 34 37 35 38 36 39 37 40 38 41 39 42
REMARK SMILES IDX 40 43 41 44 42 45 43 46 95 47 44 48 94 49 45 50 46 51 47 52
REMARK SMILES IDX 88 53 48 54 93 55 87 56 89 57 49 58 92 59 86 60 85 61 50 63
REMARK SMILES IDX 76 64 59 65 75 66 60 67 63 68 74 69 90 70 61 71 62 72 73 74
REMARK SMILES IDX 91 75 64 76 51 77 52 78 57 79 53 80 54 81 56 82 58 83 55 84
REMARK SMILES IDX 77 85 78 86 83 87 79 88 80 89 82 90 84 91 81 92 65 93 66 94
REMARK SMILES IDX 71 95 67 96 68 97 70 98 72 99 69 100
REMARK H PARENT 89 62 63 73
REMARK Flexibility Score: inf
ROOT
ATOM      1  O   UNL A   1      36.572  31.622  28.796  1.00  0.00    -0.376 OA
ENDROOT
BRANCH   1   2
ATOM      2  C   UNL A   1      36.359  30.222  28.979  1.00  0.00     0.202 C 
BRANCH   2   3
ATOM      3  C   UNL A   1      37.639  29.360  29.116  1.00  0.00     0.261 C 
BRANCH   3   4
ATOM      4  O   UNL A   1      37.781  28.639  30.366  1.00  0.00    -0.463 OA
BRANCH   4   5
ATOM      5  C   UNL A   1      38.987  28.107  30.671  1.00  0.00     0.307 C 
ATOM      6  O   UNL A   1      39.436  28.011  31.807  1.00  0.00    -0.252 OA
BRANCH   5   7
ATOM      7  C   UNL A   1      39.747  27.613  29.446  1.00  0.00     0.144 C 
BRANCH   7   8
ATOM      8  C   UNL A   1      41.250  27.926  29.286  1.00  0.00     0.139 C 
BRANCH   8   9
ATOM      9  N   UNL A   1      42.020  27.130  28.311  1.00  0.00    -0.292 N 
ATOM     10  C   UNL A   1      44.270  24.369  27.955  1.00  0.00     0.041 C 
ATOM     11  C   UNL A   1      43.593  25.489  27.664  1.00  0.00     0.081 C 
ATOM     12  S   UNL A   1      43.142  26.179  26.170  1.00  0.00    -0.054 SA
ATOM     13  C   UNL A   1      42.932  26.202  28.765  1.00  0.00     0.266 C 
ATOM     14  C   UNL A   1      42.035  27.325  26.943  1.00  0.00     0.148 C 
ATOM     15  O   UNL A   1      43.186  25.926  29.914  1.00  0.00    -0.268 OA
ATOM     16  S   UNL A   1      41.169  28.435  26.047  1.00  0.00    -0.052 S 
BRANCH  10  17
ATOM     17  C   UNL A   1      44.716  23.388  26.993  1.00  0.00     0.104 A 
ATOM     18  C   UNL A   1      45.968  23.353  26.487  1.00  0.00     0.234 A 
ATOM     19  N   UNL A   1      46.399  22.375  25.629  1.00  0.00    -0.194 NA
ATOM     20  C   UNL A   1      45.598  21.395  25.361  1.00  0.00     0.143 A 
ATOM     21  C   UNL A   1      43.753  22.345  26.543  1.00  0.00     0.269 A 
ATOM     22  C   UNL A   1      46.094  20.276  24.514  1.00  0.00     0.048 A 
ATOM     23  N   UNL A   1      44.292  21.306  25.811  1.00  0.00    -0.267 N 
ATOM     24  O   UNL A   1      42.555  22.457  26.809  1.00  0.00    -0.268 OA
ATOM     25  C   UNL A   1      45.300  19.227  24.261  1.00  0.00     0.005 A 
ATOM     26  C   UNL A   1      43.494  20.211  25.502  1.00  0.00     0.096 A 
ATOM     27  C   UNL A   1      43.956  19.190  24.773  1.00  0.00     0.019 A 
BRANCH  18  28
ATOM     28  O   UNL A   1      46.914  24.360  26.720  1.00  0.00    -0.438 OA
BRANCH  28  29
ATOM     29  C   UNL A   1      47.141  25.385  25.827  1.00  0.00     0.130 A 
ATOM     30  C   UNL A   1      49.035  26.303  22.662  1.00  0.00     0.044 C 
ATOM     31  C   UNL A   1      48.145  26.400  23.864  1.00  0.00    -0.047 A 
ATOM     32  C   UNL A   1      47.610  27.639  24.239  1.00  0.00     0.007 A 
ATOM     33  C   UNL A   1      47.856  25.267  24.636  1.00  0.00     0.050 A 
ATOM     34  C   UNL A   1      46.796  27.754  25.371  1.00  0.00    -0.047 A 
ATOM     35  C   UNL A   1      46.171  29.077  25.703  1.00  0.00     0.044 C 
ATOM     36  C   UNL A   1      46.589  26.625  26.175  1.00  0.00     0.050 A 
ENDBRANCH  28  29
ENDBRANCH  18  28
ENDBRANCH  10  17
ENDBRANCH   8   9
ENDBRANCH   7   8
ENDBRANCH   5   7
ENDBRANCH   4   5
ENDBRANCH   3   4
ENDBRANCH   2   3
ENDBRANCH   1   2
BRANCH   1  37
ATOM     37  C   UNL A   1      35.556  32.269  28.049  1.00  0.00     0.188 C 
BRANCH  37  38
ATOM     38  C   UNL A   1      35.193  33.659  28.521  1.00  0.00     0.188 C 
BRANCH  38  39
ATOM     39  O   UNL A   1      33.961  33.832  29.216  1.00  0.00    -0.376 OA
BRANCH  39  40
ATOM     40  C   UNL A   1      33.928  34.934  30.115  1.00  0.00     0.202 C 
BRANCH  40  41
ATOM     41  C   UNL A   1      34.116  34.597  31.610  1.00  0.00     0.261 C 
BRANCH  41  42
ATOM     42  O   UNL A   1      35.249  35.233  32.231  1.00  0.00    -0.460 OA
BRANCH  42  43
ATOM     43  C   UNL A   1      35.741  34.606  33.334  1.00  0.00     0.338 C 
ATOM     44  O   UNL A   1      35.140  34.364  34.367  1.00  0.00    -0.246 OA
BRANCH  43  45
ATOM     45  C   UNL A   1      37.079  34.031  33.012  1.00  0.00     0.060 A 
ATOM     46  C   UNL A   1      37.143  32.959  32.104  1.00  0.00     0.016 A 
ATOM     47  C   UNL A   1      38.259  34.574  33.521  1.00  0.00     0.016 A 
ATOM     48  C   UNL A   1      38.374  32.434  31.703  1.00  0.00     0.010 A 
ATOM     49  C   UNL A   1      39.490  34.014  33.163  1.00  0.00     0.010 A 
ATOM     50  C   UNL A   1      39.553  32.924  32.273  1.00  0.00    -0.014 A 
BRANCH  50  51
ATOM     51  C   UNL A   1      40.805  32.133  32.170  1.00  0.00     0.031 A 
ATOM     52  C   UNL A   1      41.772  32.514  31.081  1.00  0.00     0.074 A 
ATOM     53  C   UNL A   1      41.102  31.124  33.009  1.00  0.00     0.049 A 
ATOM     54  N   UNL A   1      42.872  31.923  30.693  1.00  0.00    -0.248 NA
ATOM     55  C   UNL A   1      41.444  33.734  30.322  1.00  0.00     0.031 C 
ATOM     56  C   UNL A   1      40.298  30.700  34.152  1.00  0.00     0.029 A 
ATOM     57  N   UNL A   1      42.172  30.260  33.012  1.00  0.00    -0.354 N 
ATOM     58  C   UNL A   1      43.360  32.693  29.644  1.00  0.00     0.074 A 
ATOM     59  C   UNL A   1      42.422  33.772  29.432  1.00  0.00     0.031 C 
ATOM     60  C   UNL A   1      40.893  29.641  34.735  1.00  0.00     0.029 A 
ATOM     61  C   UNL A   1      42.096  29.289  33.980  1.00  0.00     0.049 A 
ATOM     62  H   UNL A   1      42.922  30.332  32.378  1.00  0.00     0.167 HD
ATOM     63  C   UNL A   1      44.495  32.524  28.926  1.00  0.00     0.037 A 
ATOM     64  C   UNL A   1      42.890  28.221  34.204  1.00  0.00     0.037 A 
ATOM     65  C   UNL A   1      45.422  31.444  29.127  1.00  0.00     0.049 A 
ATOM     66  C   UNL A   1      44.083  27.983  33.308  1.00  0.00     0.074 A 
ATOM     67  C   UNL A   1      46.590  31.173  28.437  1.00  0.00     0.029 A 
ATOM     68  N   UNL A   1      45.284  30.455  30.088  1.00  0.00    -0.354 N 
ATOM     69  N   UNL A   1      44.537  28.710  32.315  1.00  0.00    -0.248 NA
ATOM     70  C   UNL A   1      44.874  26.768  33.565  1.00  0.00     0.031 C 
ATOM     71  C   UNL A   1      47.132  29.990  28.947  1.00  0.00     0.029 A 
ATOM     72  C   UNL A   1      46.336  29.561  29.998  1.00  0.00     0.049 A 
ATOM     73  H   UNL A   1      44.548  30.399  30.739  1.00  0.00     0.167 HD
ATOM     74  C   UNL A   1      45.686  28.067  31.863  1.00  0.00     0.074 A 
ATOM     75  C   UNL A   1      45.865  26.897  32.695  1.00  0.00     0.031 C 
ATOM     76  C   UNL A   1      46.519  28.415  30.852  1.00  0.00     0.037 A 
BRANCH  63  77
ATOM     77  C   UNL A   1      44.777  33.518  27.839  1.00  0.00     0.057 A 
ATOM     78  C   UNL A   1      45.438  34.727  28.094  1.00  0.00     0.134 A 
ATOM     79  C   UNL A   1      44.411  33.251  26.513  1.00  0.00     0.134 A 
ATOM     80  F   UNL A   1      45.798  35.052  29.345  1.00  0.00    -0.206 F 
ATOM     81  C   UNL A   1      45.705  35.643  27.076  1.00  0.00     0.040 A 
ATOM     82  C   UNL A   1      44.700  34.145  25.482  1.00  0.00     0.040 A 
ATOM     83  F   UNL A   1      43.775  32.112  26.198  1.00  0.00    -0.206 F 
ATOM     84  C   UNL A   1      45.344  35.348  25.763  1.00  0.00     0.006 A 
ENDBRANCH  63  77
BRANCH  64  85
ATOM     85  C   UNL A   1      42.585  27.262  35.301  1.00  0.00     0.057 A 
ATOM     86  C   UNL A   1      41.519  26.358  35.200  1.00  0.00     0.134 A 
ATOM     87  C   UNL A   1      43.300  27.274  36.505  1.00  0.00     0.134 A 
ATOM     88  F   UNL A   1      40.773  26.317  34.084  1.00  0.00    -0.206 F 
ATOM     89  C   UNL A   1      41.156  25.527  36.262  1.00  0.00     0.040 A 
ATOM     90  C   UNL A   1      42.968  26.425  37.565  1.00  0.00     0.040 A 
ATOM     91  F   UNL A   1      44.327  28.119  36.675  1.00  0.00    -0.206 F 
ATOM     92  C   UNL A   1      41.884  25.558  37.448  1.00  0.00     0.006 A 
ENDBRANCH  64  85
BRANCH  76  93
ATOM     93  C   UNL A   1      47.740  27.567  30.626  1.00  0.00     0.057 A 
ATOM     94  C   UNL A   1      47.712  26.416  29.828  1.00  0.00     0.134 A 
ATOM     95  C   UNL A   1      48.973  27.941  31.177  1.00  0.00     0.134 A 
ATOM     96  F   UNL A   1      46.564  25.997  29.278  1.00  0.00    -0.206 F 
ATOM     97  C   UNL A   1      48.863  25.655  29.607  1.00  0.00     0.040 A 
ATOM     98  C   UNL A   1      50.135  27.207  30.938  1.00  0.00     0.040 A 
ATOM     99  F   UNL A   1      49.073  29.039  31.942  1.00  0.00    -0.206 F 
ATOM    100  C   UNL A   1      50.081  26.056  30.156  1.00  0.00     0.006 A 
ENDBRANCH  76  93
ENDBRANCH  50  51
ENDBRANCH  43  45
ENDBRANCH  42  43
ENDBRANCH  41  42
ENDBRANCH  40  41
ENDBRANCH  39  40
ENDBRANCH  38  39
ENDBRANCH  37  38
ENDBRANCH   1  37
TORSDOF 22
ENDMDL
MODEL 2
REMARK VINA RESULT:      -8.6      2.023      6.732
REMARK SMILES Cc1cc(C)cc(Oc2nc3ccccn3c(=O)c2/C=C2\SC(=S)N(CCC(=O)OCCOCCOCCOC(=O)c3ccc(-c4c5nc(c(-c6c(F)cccc6F)c6ccc([nH]6)c(-c6c(F)cccc6F)c6nc(c(-c7c(F)cccc7F)c7ccc4[nH]7)C=C6)C=C5)cc3)C2=O)c1
REMARK SMILES IDX 33 1 32 2 31 3 30 4 28 5 29 6 27 7 26 8 25 9 20 10 21 11
REMARK SMILES IDX 22 12 96 13 23 14 97 15 24 16 19 17 9 18 10 19 11 20 17 21
REMARK SMILES IDX 12 22 16 23 18 24 13 25 15 26 14 27 8 28 7 29 1 30 2 31 3 32
REMARK SMILES IDX 98 33 4 34 5 35 6 36 34 37 35 38 36 39 37 40 38 41 39 42
REMARK SMILES IDX 40 43 41 44 42 45 43 46 95 47 44 48 94 49 45 50 46 51 47 52
REMARK SMILES IDX 88 53 48 54 93 55 87 56 89 57 49 58 92 59 86 60 85 61 50 63
REMARK SMILES IDX 76 64 59 65 75 66 60 67 63 68 74 69 90 70 61 71 62 72 73 74
REMARK SMILES IDX 91 75 64 76 51 77 52 78 57 79 53 80 54 81 56 82 58 83 55 84
REMARK SMILES IDX 77 85 78 86 83 87 79 88 80 89 82 90 84 91 81 92 65 93 66 94
REMARK SMILES IDX 71 95 67 96 68 97 70 98 72 99 69 100
REMARK H PARENT 89 62 63 73
REMARK Flexibility Score: inf
ROOT
ATOM      1  O   UNL A   1      34.343  32.033  28.779  1.00  0.00    -0.376 OA
ENDROOT
BRANCH   1   2
ATOM      2  C   UNL A   1      34.474  31.272  27.579  1.00  0.00     0.202 C 
BRANCH   2   3
ATOM      3  C   UNL A   1      35.042  29.842  27.748  1.00  0.00     0.261 C 
BRANCH   3   4
ATOM      4  O   UNL A   1      35.506  29.503  29.081  1.00  0.00    -0.463 OA
BRANCH   4   5
ATOM      5  C   UNL A   1      36.789  29.778  29.408  1.00  0.00     0.307 C 
ATOM      6  O   UNL A   1      37.140  30.309  30.454  1.00  0.00    -0.252 OA
BRANCH   5   7
ATOM      7  C   UNL A   1      37.782  29.343  28.336  1.00  0.00     0.144 C 
BRANCH   7   8
ATOM      8  C   UNL A   1      39.239  29.852  28.376  1.00  0.00     0.139 C 
BRANCH   8   9
ATOM      9  N   UNL A   1      40.317  28.876  28.122  1.00  0.00    -0.292 N 
ATOM     10  C   UNL A   1      42.496  27.554  25.610  1.00  0.00     0.041 C 
ATOM     11  C   UNL A   1      41.811  27.655  26.758  1.00  0.00     0.081 C 
ATOM     12  S   UNL A   1      42.095  26.991  28.304  1.00  0.00    -0.054 SA
ATOM     13  C   UNL A   1      40.722  28.638  26.827  1.00  0.00     0.266 C 
ATOM     14  C   UNL A   1      40.880  28.034  29.061  1.00  0.00     0.148 C 
ATOM     15  O   UNL A   1      40.304  29.161  25.820  1.00  0.00    -0.268 OA
ATOM     16  S   UNL A   1      40.552  27.939  30.695  1.00  0.00    -0.052 S 
BRANCH  10  17
ATOM     17  C   UNL A   1      43.766  26.882  25.450  1.00  0.00     0.104 A 
ATOM     18  C   UNL A   1      43.885  25.568  25.159  1.00  0.00     0.234 A 
ATOM     19  N   UNL A   1      45.093  24.959  24.941  1.00  0.00    -0.194 NA
ATOM     20  C   UNL A   1      46.159  25.693  24.928  1.00  0.00     0.143 A 
ATOM     21  C   UNL A   1      45.014  27.679  25.598  1.00  0.00     0.269 A 
ATOM     22  C   UNL A   1      47.461  25.057  24.588  1.00  0.00     0.048 A 
ATOM     23  N   UNL A   1      46.180  27.048  25.209  1.00  0.00    -0.267 N 
ATOM     24  O   UNL A   1      44.967  28.819  26.065  1.00  0.00    -0.268 OA
ATOM     25  C   UNL A   1      48.571  25.804  24.523  1.00  0.00     0.005 A 
ATOM     26  C   UNL A   1      47.360  27.779  25.155  1.00  0.00     0.096 A 
ATOM     27  C   UNL A   1      48.521  27.212  24.812  1.00  0.00     0.019 A 
BRANCH  18  28
ATOM     28  O   UNL A   1      42.795  24.689  25.141  1.00  0.00    -0.438 OA
BRANCH  28  29
ATOM     29  C   UNL A   1      42.680  23.632  26.018  1.00  0.00     0.130 A 
ATOM     30  C   UNL A   1      41.205  20.151  26.416  1.00  0.00     0.044 C 
ATOM     31  C   UNL A   1      41.932  21.428  26.710  1.00  0.00    -0.047 A 
ATOM     32  C   UNL A   1      42.409  21.679  28.002  1.00  0.00     0.007 A 
ATOM     33  C   UNL A   1      42.124  22.390  25.709  1.00  0.00     0.050 A 
ATOM     34  C   UNL A   1      43.070  22.876  28.301  1.00  0.00    -0.047 A 
ATOM     35  C   UNL A   1      43.641  23.083  29.673  1.00  0.00     0.044 C 
ATOM     36  C   UNL A   1      43.177  23.858  27.308  1.00  0.00     0.050 A 
ENDBRANCH  28  29
ENDBRANCH  18  28
ENDBRANCH  10  17
ENDBRANCH   8   9
ENDBRANCH   7   8
ENDBRANCH   5   7
ENDBRANCH   4   5
ENDBRANCH   3   4
ENDBRANCH   2   3
ENDBRANCH   1   2
BRANCH   1  37
ATOM     37  C   UNL A   1      34.760  33.383  28.658  1.00  0.00     0.188 C 
BRANCH  37  38
ATOM     38  C   UNL A   1      34.820  34.159  29.954  1.00  0.00     0.188 C 
BRANCH  38  39
ATOM     39  O   UNL A   1      35.883  33.875  30.860  1.00  0.00    -0.376 OA
BRANCH  39  40
ATOM     40  C   UNL A   1      35.493  33.212  32.056  1.00  0.00     0.202 C 
BRANCH  40  41
ATOM     41  C   UNL A   1      36.029  33.815  33.373  1.00  0.00     0.261 C 
BRANCH  41  42
ATOM     42  O   UNL A   1      36.353  32.847  34.389  1.00  0.00    -0.460 OA
BRANCH  42  43
ATOM     43  C   UNL A   1      37.460  33.124  35.131  1.00  0.00     0.338 C 
ATOM     44  O   UNL A   1      37.498  33.724  36.192  1.00  0.00    -0.246 OA
BRANCH  43  45
ATOM     45  C   UNL A   1      38.621  32.370  34.575  1.00  0.00     0.060 A 
ATOM     46  C   UNL A   1      39.917  32.823  34.877  1.00  0.00     0.016 A 
ATOM     47  C   UNL A   1      38.455  31.198  33.836  1.00  0.00     0.016 A 
ATOM     48  C   UNL A   1      41.041  32.112  34.451  1.00  0.00     0.010 A 
ATOM     49  C   UNL A   1      39.579  30.514  33.362  1.00  0.00     0.010 A 
ATOM     50  C   UNL A   1      40.878  30.981  33.643  1.00  0.00    -0.014 A 
BRANCH  50  51
ATOM     51  C   UNL A   1      42.029  30.458  32.866  1.00  0.00     0.031 A 
ATOM     52  C   UNL A   1      42.708  29.220  33.388  1.00  0.00     0.074 A 
ATOM     53  C   UNL A   1      42.463  31.033  31.730  1.00  0.00     0.049 A 
ATOM     54  N   UNL A   1      43.798  28.627  32.980  1.00  0.00    -0.248 NA
ATOM     55  C   UNL A   1      42.061  28.565  34.539  1.00  0.00     0.031 C 
ATOM     56  C   UNL A   1      41.856  32.185  31.069  1.00  0.00     0.029 A 
ATOM     57  N   UNL A   1      43.541  30.719  30.934  1.00  0.00    -0.354 N 
ATOM     58  C   UNL A   1      43.970  27.537  33.824  1.00  0.00     0.074 A 
ATOM     59  C   UNL A   1      42.895  27.570  34.790  1.00  0.00     0.031 C 
ATOM     60  C   UNL A   1      42.582  32.496  29.978  1.00  0.00     0.029 A 
ATOM     61  C   UNL A   1      43.728  31.591  29.889  1.00  0.00     0.049 A 
ATOM     62  H   UNL A   1      44.123  29.943  31.100  1.00  0.00     0.167 HD
ATOM     63  C   UNL A   1      44.933  26.586  33.795  1.00  0.00     0.037 A 
ATOM     64  C   UNL A   1      44.730  31.665  28.988  1.00  0.00     0.037 A 
ATOM     65  C   UNL A   1      46.009  26.559  32.843  1.00  0.00     0.049 A 
ATOM     66  C   UNL A   1      45.862  30.665  29.053  1.00  0.00     0.074 A 
ATOM     67  C   UNL A   1      47.047  25.649  32.743  1.00  0.00     0.029 A 
ATOM     68  N   UNL A   1      46.189  27.486  31.829  1.00  0.00    -0.354 N 
ATOM     69  N   UNL A   1      46.023  29.642  29.857  1.00  0.00    -0.248 NA
ATOM     70  C   UNL A   1      46.955  30.837  28.082  1.00  0.00     0.031 C 
ATOM     71  C   UNL A   1      47.883  26.056  31.700  1.00  0.00     0.029 A 
ATOM     72  C   UNL A   1      47.331  27.181  31.109  1.00  0.00     0.049 A 
ATOM     73  H   UNL A   1      45.591  28.247  31.647  1.00  0.00     0.167 HD
ATOM     74  C   UNL A   1      47.205  29.024  29.460  1.00  0.00     0.074 A 
ATOM     75  C   UNL A   1      47.716  29.783  28.339  1.00  0.00     0.031 C 
ATOM     76  C   UNL A   1      47.813  27.928  29.975  1.00  0.00     0.037 A 
BRANCH  63  77
ATOM     77  C   UNL A   1      44.875  25.513  34.842  1.00  0.00     0.057 A 
ATOM     78  C   UNL A   1      44.352  24.241  34.570  1.00  0.00     0.134 A 
ATOM     79  C   UNL A   1      45.374  25.743  36.130  1.00  0.00     0.134 A 
ATOM     80  F   UNL A   1      43.840  23.962  33.362  1.00  0.00    -0.206 F 
ATOM     81  C   UNL A   1      44.309  23.245  35.547  1.00  0.00     0.040 A 
ATOM     82  C   UNL A   1      45.364  24.746  37.106  1.00  0.00     0.040 A 
ATOM     83  F   UNL A   1      45.889  26.939  36.458  1.00  0.00    -0.206 F 
ATOM     84  C   UNL A   1      44.825  23.494  36.817  1.00  0.00     0.006 A 
ENDBRANCH  63  77
BRANCH  64  85
ATOM     85  C   UNL A   1      44.748  32.737  27.955  1.00  0.00     0.057 A 
ATOM     86  C   UNL A   1      45.279  34.004  28.233  1.00  0.00     0.134 A 
ATOM     87  C   UNL A   1      44.170  32.549  26.694  1.00  0.00     0.134 A 
ATOM     88  F   UNL A   1      45.820  34.260  29.435  1.00  0.00    -0.206 F 
ATOM     89  C   UNL A   1      45.207  35.050  27.311  1.00  0.00     0.040 A 
ATOM     90  C   UNL A   1      44.120  33.578  25.749  1.00  0.00     0.040 A 
ATOM     91  F   UNL A   1      43.636  31.365  26.363  1.00  0.00    -0.206 F 
ATOM     92  C   UNL A   1      44.627  34.836  26.062  1.00  0.00     0.006 A 
ENDBRANCH  64  85
BRANCH  76  93
ATOM     93  C   UNL A   1      49.060  27.433  29.296  1.00  0.00     0.057 A 
ATOM     94  C   UNL A   1      49.031  26.422  28.326  1.00  0.00     0.134 A 
ATOM     95  C   UNL A   1      50.301  28.018  29.582  1.00  0.00     0.134 A 
ATOM     96  F   UNL A   1      47.878  25.814  28.011  1.00  0.00    -0.206 F 
ATOM     97  C   UNL A   1      50.195  25.994  27.685  1.00  0.00     0.040 A 
ATOM     98  C   UNL A   1      51.466  27.620  28.925  1.00  0.00     0.040 A 
ATOM     99  F   UNL A   1      50.399  28.999  30.491  1.00  0.00    -0.206 F 
ATOM    100  C   UNL A   1      51.417  26.600  27.978  1.00  0.00     0.006 A 
ENDBRANCH  76  93
ENDBRANCH  50  51
ENDBRANCH  43  45
ENDBRANCH  42  43
ENDBRANCH  41  42
ENDBRANCH  40  41
ENDBRANCH  39  40
ENDBRANCH  38  39
ENDBRANCH  37  38
ENDBRANCH   1  37
TORSDOF 22
ENDMDL
MODEL 3
REMARK VINA RESULT:      -8.5      3.521      7.787
REMARK SMILES Cc1cc(C)cc(Oc2nc3ccccn3c(=O)c2/C=C2\SC(=S)N(CCC(=O)OCCOCCOCCOC(=O)c3ccc(-c4c5nc(c(-c6c(F)cccc6F)c6ccc([nH]6)c(-c6c(F)cccc6F)c6nc(c(-c7c(F)cccc7F)c7ccc4[nH]7)C=C6)C=C5)cc3)C2=O)c1
REMARK SMILES IDX 33 1 32 2 31 3 30 4 28 5 29 6 27 7 26 8 25 9 20 10 21 11
REMARK SMILES IDX 22 12 96 13 23 14 97 15 24 16 19 17 9 18 10 19 11 20 17 21
REMARK SMILES IDX 12 22 16 23 18 24 13 25 15 26 14 27 8 28 7 29 1 30 2 31 3 32
REMARK SMILES IDX 98 33 4 34 5 35 6 36 34 37 35 38 36 39 37 40 38 41 39 42
REMARK SMILES IDX 40 43 41 44 42 45 43 46 95 47 44 48 94 49 45 50 46 51 47 52
REMARK SMILES IDX 88 53 48 54 93 55 87 56 89 57 49 58 92 59 86 60 85 61 50 63
REMARK SMILES IDX 76 64 59 65 75 66 60 67 63 68 74 69 90 70 61 71 62 72 73 74
REMARK SMILES IDX 91 75 64 76 51 77 52 78 57 79 53 80 54 81 56 82 58 83 55 84
REMARK SMILES IDX 77 85 78 86 83 87 79 88 80 89 82 90 84 91 81 92 65 93 66 94
REMARK SMILES IDX 71 95 67 96 68 97 70 98 72 99 69 100
REMARK H PARENT 89 62 63 73
REMARK Flexibility Score: inf
ROOT
ATOM      1  O   UNL A   1      35.894  29.923  28.727  1.00  0.00    -0.376 OA
ENDROOT
BRANCH   1   2
ATOM      2  C   UNL A   1      36.881  30.501  27.872  1.00  0.00     0.202 C 
BRANCH   2   3
ATOM      3  C   UNL A   1      38.195  29.695  27.723  1.00  0.00     0.261 C 
BRANCH   3   4
ATOM      4  O   UNL A   1      38.883  29.379  28.961  1.00  0.00    -0.463 OA
BRANCH   4   5
ATOM      5  C   UNL A   1      39.792  28.376  28.957  1.00  0.00     0.307 C 
ATOM      6  O   UNL A   1      39.530  27.204  28.716  1.00  0.00    -0.252 OA
BRANCH   5   7
ATOM      7  C   UNL A   1      41.205  28.853  29.271  1.00  0.00     0.144 C 
BRANCH   7   8
ATOM      8  C   UNL A   1      42.329  28.690  28.226  1.00  0.00     0.139 C 
BRANCH   8   9
ATOM      9  N   UNL A   1      42.864  27.334  27.996  1.00  0.00    -0.292 N 
ATOM     10  C   UNL A   1      43.156  24.704  25.586  1.00  0.00     0.041 C 
ATOM     11  C   UNL A   1      43.156  25.336  26.769  1.00  0.00     0.081 C 
ATOM     12  S   UNL A   1      43.967  24.994  28.231  1.00  0.00    -0.054 SA
ATOM     13  C   UNL A   1      42.524  26.659  26.844  1.00  0.00     0.266 C 
ATOM     14  C   UNL A   1      43.575  26.581  28.911  1.00  0.00     0.148 C 
ATOM     15  O   UNL A   1      41.823  27.056  25.942  1.00  0.00    -0.268 OA
ATOM     16  S   UNL A   1      44.058  27.010  30.451  1.00  0.00    -0.052 S 
BRANCH  10  17
ATOM     17  C   UNL A   1      43.976  23.563  25.248  1.00  0.00     0.104 A 
ATOM     18  C   UNL A   1      45.274  23.658  24.885  1.00  0.00     0.234 A 
ATOM     19  N   UNL A   1      46.061  22.564  24.635  1.00  0.00    -0.194 NA
ATOM     20  C   UNL A   1      45.562  21.387  24.840  1.00  0.00     0.143 A 
ATOM     21  C   UNL A   1      43.369  22.206  25.317  1.00  0.00     0.269 A 
ATOM     22  C   UNL A   1      46.440  20.198  24.672  1.00  0.00     0.048 A 
ATOM     23  N   UNL A   1      44.250  21.147  25.212  1.00  0.00    -0.267 N 
ATOM     24  O   UNL A   1      42.148  22.082  25.436  1.00  0.00    -0.268 OA
ATOM     25  C   UNL A   1      45.960  18.973  24.924  1.00  0.00     0.005 A 
ATOM     26  C   UNL A   1      43.787  19.857  25.437  1.00  0.00     0.096 A 
ATOM     27  C   UNL A   1      44.590  18.794  25.322  1.00  0.00     0.019 A 
BRANCH  18  28
ATOM     28  O   UNL A   1      45.912  24.882  24.644  1.00  0.00    -0.438 OA
BRANCH  28  29
ATOM     29  C   UNL A   1      47.152  25.186  25.162  1.00  0.00     0.130 A 
ATOM     30  C   UNL A   1      49.269  24.980  28.313  1.00  0.00     0.044 C 
ATOM     31  C   UNL A   1      48.837  25.274  26.908  1.00  0.00    -0.047 A 
ATOM     32  C   UNL A   1      49.652  26.049  26.074  1.00  0.00     0.007 A 
ATOM     33  C   UNL A   1      47.612  24.799  26.421  1.00  0.00     0.050 A 
ATOM     34  C   UNL A   1      49.254  26.353  24.767  1.00  0.00    -0.047 A 
ATOM     35  C   UNL A   1      50.183  27.117  23.869  1.00  0.00     0.044 C 
ATOM     36  C   UNL A   1      47.990  25.939  24.329  1.00  0.00     0.050 A 
ENDBRANCH  28  29
ENDBRANCH  18  28
ENDBRANCH  10  17
ENDBRANCH   8   9
ENDBRANCH   7   8
ENDBRANCH   5   7
ENDBRANCH   4   5
ENDBRANCH   3   4
ENDBRANCH   2   3
ENDBRANCH   1   2
BRANCH   1  37
ATOM     37  C   UNL A   1      34.587  30.436  28.531  1.00  0.00     0.188 C 
BRANCH  37  38
ATOM     38  C   UNL A   1      34.498  31.657  27.645  1.00  0.00     0.188 C 
BRANCH  38  39
ATOM     39  O   UNL A   1      34.108  32.892  28.240  1.00  0.00    -0.376 OA
BRANCH  39  40
ATOM     40  C   UNL A   1      34.726  33.179  29.489  1.00  0.00     0.202 C 
BRANCH  40  41
ATOM     41  C   UNL A   1      36.154  33.763  29.423  1.00  0.00     0.261 C 
BRANCH  41  42
ATOM     42  O   UNL A   1      36.782  33.958  30.704  1.00  0.00    -0.460 OA
BRANCH  42  43
ATOM     43  C   UNL A   1      37.811  33.113  30.987  1.00  0.00     0.338 C 
ATOM     44  O   UNL A   1      37.726  31.964  31.385  1.00  0.00    -0.246 OA
BRANCH  43  45
ATOM     45  C   UNL A   1      39.086  33.721  30.507  1.00  0.00     0.060 A 
ATOM     46  C   UNL A   1      39.112  34.288  29.220  1.00  0.00     0.016 A 
ATOM     47  C   UNL A   1      40.215  33.808  31.322  1.00  0.00     0.016 A 
ATOM     48  C   UNL A   1      40.253  34.941  28.749  1.00  0.00     0.010 A 
ATOM     49  C   UNL A   1      41.377  34.414  30.831  1.00  0.00     0.010 A 
ATOM     50  C   UNL A   1      41.411  34.960  29.533  1.00  0.00    -0.014 A 
BRANCH  50  51
ATOM     51  C   UNL A   1      42.718  35.284  28.908  1.00  0.00     0.031 A 
ATOM     52  C   UNL A   1      43.649  34.136  28.624  1.00  0.00     0.074 A 
ATOM     53  C   UNL A   1      43.080  36.538  28.582  1.00  0.00     0.049 A 
ATOM     54  N   UNL A   1      44.885  34.145  28.199  1.00  0.00    -0.248 NA
ATOM     55  C   UNL A   1      43.102  32.787  28.857  1.00  0.00     0.031 C 
ATOM     56  C   UNL A   1      42.251  37.731  28.728  1.00  0.00     0.029 A 
ATOM     57  N   UNL A   1      44.263  37.012  28.064  1.00  0.00    -0.354 N 
ATOM     58  C   UNL A   1      45.264  32.810  28.122  1.00  0.00     0.074 A 
ATOM     59  C   UNL A   1      44.142  32.019  28.576  1.00  0.00     0.031 C 
ATOM     60  C   UNL A   1      42.958  38.806  28.329  1.00  0.00     0.029 A 
ATOM     61  C   UNL A   1      44.303  38.380  27.940  1.00  0.00     0.049 A 
ATOM     62  H   UNL A   1      45.011  36.426  27.808  1.00  0.00     0.167 HD
ATOM     63  C   UNL A   1      46.439  32.286  27.701  1.00  0.00     0.037 A 
ATOM     64  C   UNL A   1      45.321  39.191  27.586  1.00  0.00     0.037 A 
ATOM     65  C   UNL A   1      47.559  33.071  27.262  1.00  0.00     0.049 A 
ATOM     66  C   UNL A   1      46.664  38.588  27.240  1.00  0.00     0.074 A 
ATOM     67  C   UNL A   1      48.802  32.634  26.836  1.00  0.00     0.029 A 
ATOM     68  N   UNL A   1      47.575  34.455  27.194  1.00  0.00    -0.354 N 
ATOM     69  N   UNL A   1      47.018  37.327  27.175  1.00  0.00    -0.248 NA
ATOM     70  C   UNL A   1      47.751  39.529  26.922  1.00  0.00     0.031 C 
ATOM     71  C   UNL A   1      49.586  33.758  26.560  1.00  0.00     0.029 A 
ATOM     72  C   UNL A   1      48.811  34.890  26.752  1.00  0.00     0.049 A 
ATOM     73  H   UNL A   1      46.818  35.040  27.426  1.00  0.00     0.167 HD
ATOM     74  C   UNL A   1      48.348  37.323  26.765  1.00  0.00     0.074 A 
ATOM     75  C   UNL A   1      48.735  38.706  26.589  1.00  0.00     0.031 C 
ATOM     76  C   UNL A   1      49.175  36.270  26.552  1.00  0.00     0.037 A 
BRANCH  63  77
ATOM     77  C   UNL A   1      46.575  30.792  27.725  1.00  0.00     0.057 A 
ATOM     78  C   UNL A   1      46.359  30.011  26.581  1.00  0.00     0.134 A 
ATOM     79  C   UNL A   1      46.955  30.126  28.897  1.00  0.00     0.134 A 
ATOM     80  F   UNL A   1      45.974  30.584  25.430  1.00  0.00    -0.206 F 
ATOM     81  C   UNL A   1      46.497  28.623  26.607  1.00  0.00     0.040 A 
ATOM     82  C   UNL A   1      47.125  28.742  28.929  1.00  0.00     0.040 A 
ATOM     83  F   UNL A   1      47.177  30.813  30.029  1.00  0.00    -0.206 F 
ATOM     84  C   UNL A   1      46.890  27.985  27.783  1.00  0.00     0.006 A 
ENDBRANCH  63  77
BRANCH  64  85
ATOM     85  C   UNL A   1      45.146  40.669  27.562  1.00  0.00     0.057 A 
ATOM     86  C   UNL A   1      44.618  41.320  26.440  1.00  0.00     0.134 A 
ATOM     87  C   UNL A   1      45.569  41.474  28.627  1.00  0.00     0.134 A 
ATOM     88  F   UNL A   1      44.222  40.609  25.372  1.00  0.00    -0.206 F 
ATOM     89  C   UNL A   1      44.546  42.712  26.363  1.00  0.00     0.040 A 
ATOM     90  C   UNL A   1      45.473  42.867  28.577  1.00  0.00     0.040 A 
ATOM     91  F   UNL A   1      46.092  40.920  29.730  1.00  0.00    -0.206 F 
ATOM     92  C   UNL A   1      44.973  43.490  27.436  1.00  0.00     0.006 A 
ENDBRANCH  64  85
BRANCH  76  93
ATOM     93  C   UNL A   1      50.558  36.558  26.037  1.00  0.00     0.057 A 
ATOM     94  C   UNL A   1      51.670  36.630  26.885  1.00  0.00     0.134 A 
ATOM     95  C   UNL A   1      50.783  36.713  24.662  1.00  0.00     0.134 A 
ATOM     96  F   UNL A   1      51.525  36.500  28.212  1.00  0.00    -0.206 F 
ATOM     97  C   UNL A   1      52.953  36.871  26.386  1.00  0.00     0.040 A 
ATOM     98  C   UNL A   1      52.063  36.923  24.150  1.00  0.00     0.040 A 
ATOM     99  F   UNL A   1      49.764  36.643  23.793  1.00  0.00    -0.206 F 
ATOM    100  C   UNL A   1      53.153  37.009  25.013  1.00  0.00     0.006 A 
ENDBRANCH  76  93
ENDBRANCH  50  51
ENDBRANCH  43  45
ENDBRANCH  42  43
ENDBRANCH  41  42
ENDBRANCH  40  41
ENDBRANCH  39  40
ENDBRANCH  38  39
ENDBRANCH  37  38
ENDBRANCH   1  37
TORSDOF 22
ENDMDL
