MODEL 1
REMARK VINA RESULT:     -11.0      0.000      0.000
REMARK SMILES CS(=O)(=O)c1ccc(/C=C(/C(=O)OCCOCCOCCOC(=O)c2ccc(-c3c4nc(c(-c5c(F)cccc5F)c5ccc([nH]5)c(-c5c(F)cccc5F)c5nc(c(-c6c(F)cccc6F)c6ccc3[nH]6)C=C5)C=C4)cc2)c2ccccc2)cc1
REMARK SMILES IDX 17 1 16 2 15 3 14 4 13 5 11 6 12 7 10 8 9 9 8 10 5 11 6 12
REMARK SMILES IDX 86 13 7 14 85 15 2 16 1 17 3 18 4 19 79 20 80 21 84 22 81 23
REMARK SMILES IDX 83 24 82 25 18 26 19 27 20 28 21 29 22 30 23 31 24 32 25 33
REMARK SMILES IDX 26 34 78 35 27 36 77 37 28 38 29 39 30 40 71 41 31 42 76 43
REMARK SMILES IDX 70 44 72 45 32 46 75 47 69 48 68 49 33 51 59 52 42 53 58 54
REMARK SMILES IDX 43 55 46 56 57 57 73 58 44 59 45 60 56 62 74 63 47 64 34 65
REMARK SMILES IDX 35 66 40 67 36 68 37 69 39 70 41 71 38 72 60 73 61 74 66 75
REMARK SMILES IDX 62 76 63 77 65 78 67 79 64 80 48 81 49 82 54 83 50 84 51 85
REMARK SMILES IDX 53 86 55 87 52 88
REMARK H PARENT 72 50 46 61
REMARK Flexibility Score: inf
ROOT
ATOM      1  C   UNL A   1      34.569  21.002  24.778  1.00  0.00     0.188 C 
ENDROOT
BRANCH   1   2
ATOM      2  O   UNL A   1      34.437  22.203  24.055  1.00  0.00    -0.376 OA
BRANCH   2   3
ATOM      3  C   UNL A   1      33.205  22.900  24.115  1.00  0.00     0.202 C 
BRANCH   3   4
ATOM      4  C   UNL A   1      32.034  22.488  25.034  1.00  0.00     0.261 C 
BRANCH   4   5
ATOM      5  O   UNL A   1      30.849  23.298  25.025  1.00  0.00    -0.460 OA
BRANCH   5   6
ATOM      6  C   UNL A   1      30.716  24.224  26.011  1.00  0.00     0.338 C 
ATOM      7  O   UNL A   1      30.719  23.979  27.207  1.00  0.00    -0.246 OA
BRANCH   6   8
ATOM      8  C   UNL A   1      30.697  25.619  25.448  1.00  0.00     0.067 C 
ATOM      9  C   UNL A   1      29.898  25.910  24.389  1.00  0.00     0.024 C 
BRANCH   9  10
ATOM     10  C   UNL A   1      29.606  27.242  23.797  1.00  0.00    -0.025 A 
ATOM     11  C   UNL A   1      28.805  29.874  23.234  1.00  0.00     0.067 A 
ATOM     12  C   UNL A   1      30.156  29.581  23.416  1.00  0.00     0.021 A 
ATOM     13  C   UNL A   1      27.870  28.843  23.172  1.00  0.00     0.021 A 
ATOM     14  C   UNL A   1      30.554  28.262  23.650  1.00  0.00     0.009 A 
ATOM     15  C   UNL A   1      28.276  27.532  23.456  1.00  0.00     0.009 A 
BRANCH  11  16
ATOM     16  S   UNL A   1      28.348  31.589  23.206  1.00  0.00     0.175 S 
ATOM     17  C   UNL A   1      28.354  32.118  21.519  1.00  0.00     0.163 C 
ATOM     18  O   UNL A   1      29.401  32.313  23.891  1.00  0.00    -0.224 OA
ATOM     19  O   UNL A   1      26.974  31.645  23.670  1.00  0.00    -0.224 OA
ENDBRANCH  11  16
ENDBRANCH   9  10
BRANCH   8  20
ATOM     20  C   UNL A   1      31.561  26.627  26.101  1.00  0.00    -0.011 A 
ATOM     21  C   UNL A   1      32.903  26.744  25.699  1.00  0.00     0.009 A 
ATOM     22  C   UNL A   1      31.045  27.556  27.011  1.00  0.00     0.009 A 
ATOM     23  C   UNL A   1      33.700  27.788  26.170  1.00  0.00     0.001 A 
ATOM     24  C   UNL A   1      31.843  28.607  27.472  1.00  0.00     0.001 A 
ATOM     25  C   UNL A   1      33.166  28.725  27.048  1.00  0.00     0.000 A 
ENDBRANCH   8  20
ENDBRANCH   6   8
ENDBRANCH   5   6
ENDBRANCH   4   5
ENDBRANCH   3   4
ENDBRANCH   2   3
ENDBRANCH   1   2
BRANCH   1  26
ATOM     26  C   UNL A   1      36.038  20.610  25.044  1.00  0.00     0.188 C 
BRANCH  26  27
ATOM     27  O   UNL A   1      36.890  21.474  25.780  1.00  0.00    -0.376 OA
BRANCH  27  28
ATOM     28  C   UNL A   1      38.275  21.517  25.473  1.00  0.00     0.202 C 
BRANCH  28  29
ATOM     29  C   UNL A   1      39.135  20.238  25.492  1.00  0.00     0.261 C 
BRANCH  29  30
ATOM     30  O   UNL A   1      39.948  20.024  26.658  1.00  0.00    -0.460 OA
BRANCH  30  31
ATOM     31  C   UNL A   1      41.265  19.818  26.424  1.00  0.00     0.338 C 
ATOM     32  O   UNL A   1      41.780  18.841  25.887  1.00  0.00    -0.246 OA
BRANCH  31  33
ATOM     33  C   UNL A   1      42.027  21.041  26.742  1.00  0.00     0.060 A 
ATOM     34  C   UNL A   1      42.240  21.366  28.089  1.00  0.00     0.016 A 
ATOM     35  C   UNL A   1      42.477  21.894  25.732  1.00  0.00     0.016 A 
ATOM     36  C   UNL A   1      42.879  22.555  28.433  1.00  0.00     0.010 A 
ATOM     37  C   UNL A   1      43.094  23.103  26.080  1.00  0.00     0.010 A 
ATOM     38  C   UNL A   1      43.271  23.452  27.430  1.00  0.00    -0.014 A 
BRANCH  38  39
ATOM     39  C   UNL A   1      43.675  24.828  27.807  1.00  0.00     0.031 A 
ATOM     40  C   UNL A   1      42.600  25.826  28.146  1.00  0.00     0.074 A 
ATOM     41  C   UNL A   1      44.969  25.184  27.885  1.00  0.00     0.049 A 
ATOM     42  N   UNL A   1      42.710  27.083  28.491  1.00  0.00    -0.248 NA
ATOM     43  C   UNL A   1      41.214  25.336  28.082  1.00  0.00     0.031 C 
ATOM     44  C   UNL A   1      46.104  24.308  27.612  1.00  0.00     0.029 A 
ATOM     45  N   UNL A   1      45.543  26.386  28.220  1.00  0.00    -0.354 N 
ATOM     46  C   UNL A   1      41.410  27.535  28.680  1.00  0.00     0.074 A 
ATOM     47  C   UNL A   1      40.528  26.427  28.385  1.00  0.00     0.031 C 
ATOM     48  C   UNL A   1      47.243  25.000  27.798  1.00  0.00     0.029 A 
ATOM     49  C   UNL A   1      46.915  26.378  28.160  1.00  0.00     0.049 A 
ATOM     50  H   UNL A   1      45.020  27.179  28.478  1.00  0.00     0.167 HD
ATOM     51  C   UNL A   1      40.988  28.762  29.069  1.00  0.00     0.037 A 
ATOM     52  C   UNL A   1      47.800  27.377  28.352  1.00  0.00     0.037 A 
ATOM     53  C   UNL A   1      41.862  29.871  29.345  1.00  0.00     0.049 A 
ATOM     54  C   UNL A   1      47.301  28.754  28.709  1.00  0.00     0.074 A 
ATOM     55  C   UNL A   1      41.528  31.153  29.747  1.00  0.00     0.029 A 
ATOM     56  N   UNL A   1      43.244  29.834  29.237  1.00  0.00    -0.354 N 
ATOM     57  N   UNL A   1      46.071  29.167  28.908  1.00  0.00    -0.248 NA
ATOM     58  C   UNL A   1      48.315  29.808  28.863  1.00  0.00     0.031 C 
ATOM     59  C   UNL A   1      42.702  31.908  29.825  1.00  0.00     0.029 A 
ATOM     60  C   UNL A   1      43.775  31.078  29.538  1.00  0.00     0.049 A 
ATOM     61  H   UNL A   1      43.770  29.041  28.984  1.00  0.00     0.167 HD
ATOM     62  C   UNL A   1      46.169  30.513  29.245  1.00  0.00     0.074 A 
ATOM     63  C   UNL A   1      47.578  30.844  29.235  1.00  0.00     0.031 C 
ATOM     64  C   UNL A   1      45.181  31.395  29.536  1.00  0.00     0.037 A 
BRANCH  51  65
ATOM     65  C   UNL A   1      39.506  28.976  29.176  1.00  0.00     0.057 A 
ATOM     66  C   UNL A   1      38.821  28.830  30.390  1.00  0.00     0.134 A 
ATOM     67  C   UNL A   1      38.757  29.353  28.054  1.00  0.00     0.134 A 
ATOM     68  F   UNL A   1      39.476  28.455  31.500  1.00  0.00    -0.206 F 
ATOM     69  C   UNL A   1      37.441  29.024  30.478  1.00  0.00     0.040 A 
ATOM     70  C   UNL A   1      37.382  29.579  28.136  1.00  0.00     0.040 A 
ATOM     71  F   UNL A   1      39.350  29.514  26.862  1.00  0.00    -0.206 F 
ATOM     72  C   UNL A   1      36.720  29.406  29.348  1.00  0.00     0.006 A 
ENDBRANCH  51  65
BRANCH  52  73
ATOM     73  C   UNL A   1      49.257  27.127  28.194  1.00  0.00     0.057 A 
ATOM     74  C   UNL A   1      50.050  26.739  29.280  1.00  0.00     0.134 A 
ATOM     75  C   UNL A   1      49.899  27.315  26.963  1.00  0.00     0.134 A 
ATOM     76  F   UNL A   1      49.500  26.570  30.491  1.00  0.00    -0.206 F 
ATOM     77  C   UNL A   1      51.431  26.569  29.154  1.00  0.00     0.040 A 
ATOM     78  C   UNL A   1      51.273  27.118  26.817  1.00  0.00     0.040 A 
ATOM     79  F   UNL A   1      49.198  27.691  25.883  1.00  0.00    -0.206 F 
ATOM     80  C   UNL A   1      52.045  26.754  27.918  1.00  0.00     0.006 A 
ENDBRANCH  52  73
BRANCH  64  81
ATOM     81  C   UNL A   1      45.586  32.792  29.920  1.00  0.00     0.057 A 
ATOM     82  C   UNL A   1      45.876  33.150  31.242  1.00  0.00     0.134 A 
ATOM     83  C   UNL A   1      45.726  33.784  28.939  1.00  0.00     0.134 A 
ATOM     84  F   UNL A   1      45.755  32.254  32.233  1.00  0.00    -0.206 F 
ATOM     85  C   UNL A   1      46.261  34.450  31.579  1.00  0.00     0.040 A 
ATOM     86  C   UNL A   1      46.139  35.078  29.260  1.00  0.00     0.040 A 
ATOM     87  F   UNL A   1      45.476  33.509  27.650  1.00  0.00    -0.206 F 
ATOM     88  C   UNL A   1      46.400  35.416  30.585  1.00  0.00     0.006 A 
ENDBRANCH  64  81
ENDBRANCH  38  39
ENDBRANCH  31  33
ENDBRANCH  30  31
ENDBRANCH  29  30
ENDBRANCH  28  29
ENDBRANCH  27  28
ENDBRANCH  26  27
ENDBRANCH   1  26
TORSDOF 20
ENDMDL
MODEL 2
REMARK VINA RESULT:     -11.0      3.203      8.238
REMARK SMILES CS(=O)(=O)c1ccc(/C=C(/C(=O)OCCOCCOCCOC(=O)c2ccc(-c3c4nc(c(-c5c(F)cccc5F)c5ccc([nH]5)c(-c5c(F)cccc5F)c5nc(c(-c6c(F)cccc6F)c6ccc3[nH]6)C=C5)C=C4)cc2)c2ccccc2)cc1
REMARK SMILES IDX 17 1 16 2 15 3 14 4 13 5 11 6 12 7 10 8 9 9 8 10 5 11 6 12
REMARK SMILES IDX 86 13 7 14 85 15 2 16 1 17 3 18 4 19 79 20 80 21 84 22 81 23
REMARK SMILES IDX 83 24 82 25 18 26 19 27 20 28 21 29 22 30 23 31 24 32 25 33
REMARK SMILES IDX 26 34 78 35 27 36 77 37 28 38 29 39 30 40 71 41 31 42 76 43
REMARK SMILES IDX 70 44 72 45 32 46 75 47 69 48 68 49 33 51 59 52 42 53 58 54
REMARK SMILES IDX 43 55 46 56 57 57 73 58 44 59 45 60 56 62 74 63 47 64 34 65
REMARK SMILES IDX 35 66 40 67 36 68 37 69 39 70 41 71 38 72 60 73 61 74 66 75
REMARK SMILES IDX 62 76 63 77 65 78 67 79 64 80 48 81 49 82 54 83 50 84 51 85
REMARK SMILES IDX 53 86 55 87 52 88
REMARK H PARENT 72 50 46 61
REMARK Flexibility Score: inf
ROOT
ATOM      1  C   UNL A   1      31.476  28.952  22.965  1.00  0.00     0.188 C 
ENDROOT
BRANCH   1   2
ATOM      2  O   UNL A   1      30.780  27.925  22.300  1.00  0.00    -0.376 OA
BRANCH   2   3
ATOM      3  C   UNL A   1      31.413  26.667  22.145  1.00  0.00     0.202 C 
BRANCH   3   4
ATOM      4  C   UNL A   1      32.631  26.430  21.226  1.00  0.00     0.261 C 
BRANCH   4   5
ATOM      5  O   UNL A   1      33.798  25.815  21.792  1.00  0.00    -0.460 OA
BRANCH   5   6
ATOM      6  C   UNL A   1      33.864  25.730  23.147  1.00  0.00     0.338 C 
ATOM      7  O   UNL A   1      33.837  26.683  23.911  1.00  0.00    -0.246 OA
BRANCH   6   8
ATOM      8  C   UNL A   1      33.843  24.297  23.605  1.00  0.00     0.067 C 
ATOM      9  C   UNL A   1      32.690  23.584  23.541  1.00  0.00     0.024 C 
BRANCH   9  10
ATOM     10  C   UNL A   1      32.495  22.129  23.778  1.00  0.00    -0.025 A 
ATOM     11  C   UNL A   1      32.674  19.332  23.942  1.00  0.00     0.067 A 
ATOM     12  C   UNL A   1      32.849  20.109  25.086  1.00  0.00     0.021 A 
ATOM     13  C   UNL A   1      32.255  19.924  22.753  1.00  0.00     0.021 A 
ATOM     14  C   UNL A   1      32.713  21.497  25.009  1.00  0.00     0.009 A 
ATOM     15  C   UNL A   1      32.169  21.322  22.677  1.00  0.00     0.009 A 
BRANCH  11  16
ATOM     16  S   UNL A   1      33.119  17.616  24.056  1.00  0.00     0.175 S 
ATOM     17  C   UNL A   1      34.836  17.534  24.465  1.00  0.00     0.163 C 
ATOM     18  O   UNL A   1      32.963  17.055  22.728  1.00  0.00    -0.224 OA
ATOM     19  O   UNL A   1      32.380  17.086  25.186  1.00  0.00    -0.224 OA
ENDBRANCH  11  16
ENDBRANCH   9  10
BRANCH   8  20
ATOM     20  C   UNL A   1      35.113  23.724  24.102  1.00  0.00    -0.011 A 
ATOM     21  C   UNL A   1      35.510  23.981  25.426  1.00  0.00     0.009 A 
ATOM     22  C   UNL A   1      35.863  22.826  23.334  1.00  0.00     0.009 A 
ATOM     23  C   UNL A   1      36.611  23.326  25.979  1.00  0.00     0.001 A 
ATOM     24  C   UNL A   1      36.957  22.163  23.896  1.00  0.00     0.001 A 
ATOM     25  C   UNL A   1      37.327  22.410  25.217  1.00  0.00     0.000 A 
ENDBRANCH   8  20
ENDBRANCH   6   8
ENDBRANCH   5   6
ENDBRANCH   4   5
ENDBRANCH   3   4
ENDBRANCH   2   3
ENDBRANCH   1   2
BRANCH   1  26
ATOM     26  C   UNL A   1      30.695  29.543  24.158  1.00  0.00     0.188 C 
BRANCH  26  27
ATOM     27  O   UNL A   1      31.289  29.604  25.446  1.00  0.00    -0.376 OA
BRANCH  27  28
ATOM     28  C   UNL A   1      31.893  28.441  25.992  1.00  0.00     0.202 C 
BRANCH  28  29
ATOM     29  C   UNL A   1      32.685  28.500  27.313  1.00  0.00     0.261 C 
BRANCH  29  30
ATOM     30  O   UNL A   1      34.094  28.765  27.209  1.00  0.00    -0.460 OA
BRANCH  30  31
ATOM     31  C   UNL A   1      34.514  29.923  27.768  1.00  0.00     0.338 C 
ATOM     32  O   UNL A   1      33.831  30.905  28.046  1.00  0.00    -0.246 OA
BRANCH  31  33
ATOM     33  C   UNL A   1      35.923  29.795  28.188  1.00  0.00     0.060 A 
ATOM     34  C   UNL A   1      36.929  30.053  27.246  1.00  0.00     0.016 A 
ATOM     35  C   UNL A   1      36.256  29.365  29.474  1.00  0.00     0.016 A 
ATOM     36  C   UNL A   1      38.269  29.859  27.576  1.00  0.00     0.010 A 
ATOM     37  C   UNL A   1      37.601  29.144  29.796  1.00  0.00     0.010 A 
ATOM     38  C   UNL A   1      38.610  29.361  28.840  1.00  0.00    -0.014 A 
BRANCH  38  39
ATOM     39  C   UNL A   1      39.993  28.882  29.081  1.00  0.00     0.031 A 
ATOM     40  C   UNL A   1      40.944  29.779  29.827  1.00  0.00     0.074 A 
ATOM     41  C   UNL A   1      40.394  27.663  28.683  1.00  0.00     0.049 A 
ATOM     42  N   UNL A   1      42.198  29.582  30.145  1.00  0.00    -0.248 NA
ATOM     43  C   UNL A   1      40.406  31.075  30.269  1.00  0.00     0.031 C 
ATOM     44  C   UNL A   1      39.564  26.689  27.980  1.00  0.00     0.029 A 
ATOM     45  N   UNL A   1      41.609  27.038  28.817  1.00  0.00    -0.354 N 
ATOM     46  C   UNL A   1      42.599  30.729  30.818  1.00  0.00     0.074 A 
ATOM     47  C   UNL A   1      41.466  31.628  30.839  1.00  0.00     0.031 C 
ATOM     48  C   UNL A   1      40.293  25.581  27.750  1.00  0.00     0.029 A 
ATOM     49  C   UNL A   1      41.652  25.787  28.251  1.00  0.00     0.049 A 
ATOM     50  H   UNL A   1      42.378  27.447  29.276  1.00  0.00     0.167 HD
ATOM     51  C   UNL A   1      43.803  31.008  31.374  1.00  0.00     0.037 A 
ATOM     52  C   UNL A   1      42.678  24.921  28.130  1.00  0.00     0.037 A 
ATOM     53  C   UNL A   1      44.937  30.123  31.339  1.00  0.00     0.049 A 
ATOM     54  C   UNL A   1      44.030  25.287  28.689  1.00  0.00     0.074 A 
ATOM     55  C   UNL A   1      46.198  30.317  31.875  1.00  0.00     0.029 A 
ATOM     56  N   UNL A   1      44.952  28.881  30.723  1.00  0.00    -0.354 N 
ATOM     57  N   UNL A   1      44.394  26.364  29.345  1.00  0.00    -0.248 NA
ATOM     58  C   UNL A   1      45.116  24.316  28.487  1.00  0.00     0.031 C 
ATOM     59  C   UNL A   1      46.993  29.219  31.534  1.00  0.00     0.029 A 
ATOM     60  C   UNL A   1      46.209  28.309  30.843  1.00  0.00     0.049 A 
ATOM     61  H   UNL A   1      44.184  28.467  30.268  1.00  0.00     0.167 HD
ATOM     62  C   UNL A   1      45.736  26.183  29.662  1.00  0.00     0.074 A 
ATOM     63  C   UNL A   1      46.118  24.889  29.139  1.00  0.00     0.031 C 
ATOM     64  C   UNL A   1      46.576  27.014  30.328  1.00  0.00     0.037 A 
BRANCH  51  65
ATOM     65  C   UNL A   1      43.961  32.348  32.032  1.00  0.00     0.057 A 
ATOM     66  C   UNL A   1      44.383  33.479  31.321  1.00  0.00     0.134 A 
ATOM     67  C   UNL A   1      43.667  32.512  33.392  1.00  0.00     0.134 A 
ATOM     68  F   UNL A   1      44.696  33.387  30.020  1.00  0.00    -0.206 F 
ATOM     69  C   UNL A   1      44.534  34.719  31.946  1.00  0.00     0.040 A 
ATOM     70  C   UNL A   1      43.786  33.753  34.020  1.00  0.00     0.040 A 
ATOM     71  F   UNL A   1      43.254  31.471  34.131  1.00  0.00    -0.206 F 
ATOM     72  C   UNL A   1      44.228  34.859  33.298  1.00  0.00     0.006 A 
ENDBRANCH  51  65
BRANCH  52  73
ATOM     73  C   UNL A   1      42.484  23.623  27.433  1.00  0.00     0.057 A 
ATOM     74  C   UNL A   1      42.115  22.469  28.134  1.00  0.00     0.134 A 
ATOM     75  C   UNL A   1      42.708  23.493  26.056  1.00  0.00     0.134 A 
ATOM     76  F   UNL A   1      41.912  22.521  29.459  1.00  0.00    -0.206 F 
ATOM     77  C   UNL A   1      41.997  21.231  27.499  1.00  0.00     0.040 A 
ATOM     78  C   UNL A   1      42.564  22.268  25.403  1.00  0.00     0.040 A 
ATOM     79  F   UNL A   1      43.069  24.559  25.326  1.00  0.00    -0.206 F 
ATOM     80  C   UNL A   1      42.217  21.130  26.126  1.00  0.00     0.006 A 
ENDBRANCH  52  73
BRANCH  64  81
ATOM     81  C   UNL A   1      47.979  26.532  30.575  1.00  0.00     0.057 A 
ATOM     82  C   UNL A   1      48.320  25.765  31.696  1.00  0.00     0.134 A 
ATOM     83  C   UNL A   1      48.998  26.811  29.653  1.00  0.00     0.134 A 
ATOM     84  F   UNL A   1      47.397  25.468  32.624  1.00  0.00    -0.206 F 
ATOM     85  C   UNL A   1      49.626  25.316  31.906  1.00  0.00     0.040 A 
ATOM     86  C   UNL A   1      50.300  26.343  29.836  1.00  0.00     0.040 A 
ATOM     87  F   UNL A   1      48.741  27.531  28.550  1.00  0.00    -0.206 F 
ATOM     88  C   UNL A   1      50.619  25.600  30.970  1.00  0.00     0.006 A 
ENDBRANCH  64  81
ENDBRANCH  38  39
ENDBRANCH  31  33
ENDBRANCH  30  31
ENDBRANCH  29  30
ENDBRANCH  28  29
ENDBRANCH  27  28
ENDBRANCH  26  27
ENDBRANCH   1  26
TORSDOF 20
ENDMDL
MODEL 3
REMARK VINA RESULT:     -11.0      0.980      6.070
REMARK SMILES CS(=O)(=O)c1ccc(/C=C(/C(=O)OCCOCCOCCOC(=O)c2ccc(-c3c4nc(c(-c5c(F)cccc5F)c5ccc([nH]5)c(-c5c(F)cccc5F)c5nc(c(-c6c(F)cccc6F)c6ccc3[nH]6)C=C5)C=C4)cc2)c2ccccc2)cc1
REMARK SMILES IDX 17 1 16 2 15 3 14 4 13 5 11 6 12 7 10 8 9 9 8 10 5 11 6 12
REMARK SMILES IDX 86 13 7 14 85 15 2 16 1 17 3 18 4 19 79 20 80 21 84 22 81 23
REMARK SMILES IDX 83 24 82 25 18 26 19 27 20 28 21 29 22 30 23 31 24 32 25 33
REMARK SMILES IDX 26 34 78 35 27 36 77 37 28 38 29 39 30 40 71 41 31 42 76 43
REMARK SMILES IDX 70 44 72 45 32 46 75 47 69 48 68 49 33 51 59 52 42 53 58 54
REMARK SMILES IDX 43 55 46 56 57 57 73 58 44 59 45 60 56 62 74 63 47 64 34 65
REMARK SMILES IDX 35 66 40 67 36 68 37 69 39 70 41 71 38 72 60 73 61 74 66 75
REMARK SMILES IDX 62 76 63 77 65 78 67 79 64 80 48 81 49 82 54 83 50 84 51 85
REMARK SMILES IDX 53 86 55 87 52 88
REMARK H PARENT 72 50 46 61
REMARK Flexibility Score: inf
ROOT
ATOM      1  C   UNL A   1      34.592  21.151  24.946  1.00  0.00     0.188 C 
ENDROOT
BRANCH   1   2
ATOM      2  O   UNL A   1      34.590  22.394  24.285  1.00  0.00    -0.376 OA
BRANCH   2   3
ATOM      3  C   UNL A   1      33.380  23.126  24.220  1.00  0.00     0.202 C 
BRANCH   3   4
ATOM      4  C   UNL A   1      32.079  22.693  24.932  1.00  0.00     0.261 C 
BRANCH   4   5
ATOM      5  O   UNL A   1      30.900  23.486  24.729  1.00  0.00    -0.460 OA
BRANCH   5   6
ATOM      6  C   UNL A   1      30.593  24.406  25.681  1.00  0.00     0.338 C 
ATOM      7  O   UNL A   1      30.489  24.170  26.875  1.00  0.00    -0.246 OA
BRANCH   6   8
ATOM      8  C   UNL A   1      30.523  25.791  25.097  1.00  0.00     0.067 C 
ATOM      9  C   UNL A   1      29.641  26.061  24.101  1.00  0.00     0.024 C 
BRANCH   9  10
ATOM     10  C   UNL A   1      29.298  27.382  23.511  1.00  0.00    -0.025 A 
ATOM     11  C   UNL A   1      28.561  30.041  22.989  1.00  0.00     0.067 A 
ATOM     12  C   UNL A   1      29.890  29.644  22.841  1.00  0.00     0.021 A 
ATOM     13  C   UNL A   1      27.574  29.091  23.239  1.00  0.00     0.021 A 
ATOM     14  C   UNL A   1      30.244  28.310  23.057  1.00  0.00     0.009 A 
ATOM     15  C   UNL A   1      27.948  27.766  23.501  1.00  0.00     0.009 A 
BRANCH  11  16
ATOM     16  S   UNL A   1      28.232  31.786  22.958  1.00  0.00     0.175 S 
ATOM     17  C   UNL A   1      28.154  32.287  21.265  1.00  0.00     0.163 C 
ATOM     18  O   UNL A   1      29.383  32.439  23.551  1.00  0.00    -0.224 OA
ATOM     19  O   UNL A   1      26.903  31.951  23.518  1.00  0.00    -0.224 OA
ENDBRANCH  11  16
ENDBRANCH   9  10
BRANCH   8  20
ATOM     20  C   UNL A   1      31.434  26.812  25.661  1.00  0.00    -0.011 A 
ATOM     21  C   UNL A   1      31.026  27.550  26.785  1.00  0.00     0.009 A 
ATOM     22  C   UNL A   1      32.741  26.968  25.187  1.00  0.00     0.009 A 
ATOM     23  C   UNL A   1      31.918  28.398  27.442  1.00  0.00     0.001 A 
ATOM     24  C   UNL A   1      33.635  27.810  25.855  1.00  0.00     0.001 A 
ATOM     25  C   UNL A   1      33.225  28.520  26.983  1.00  0.00     0.000 A 
ENDBRANCH   8  20
ENDBRANCH   6   8
ENDBRANCH   5   6
ENDBRANCH   4   5
ENDBRANCH   3   4
ENDBRANCH   2   3
ENDBRANCH   1   2
BRANCH   1  26
ATOM     26  C   UNL A   1      35.988  20.493  25.002  1.00  0.00     0.188 C 
BRANCH  26  27
ATOM     27  O   UNL A   1      37.017  21.058  25.799  1.00  0.00    -0.376 OA
BRANCH  27  28
ATOM     28  C   UNL A   1      38.357  21.033  25.330  1.00  0.00     0.202 C 
BRANCH  28  29
ATOM     29  C   UNL A   1      39.194  19.740  25.381  1.00  0.00     0.261 C 
BRANCH  29  30
ATOM     30  O   UNL A   1      40.059  19.576  26.517  1.00  0.00    -0.460 OA
BRANCH  30  31
ATOM     31  C   UNL A   1      41.383  19.529  26.243  1.00  0.00     0.338 C 
ATOM     32  O   UNL A   1      42.007  18.594  25.750  1.00  0.00    -0.246 OA
BRANCH  31  33
ATOM     33  C   UNL A   1      41.985  20.861  26.451  1.00  0.00     0.060 A 
ATOM     34  C   UNL A   1      42.306  21.254  27.758  1.00  0.00     0.016 A 
ATOM     35  C   UNL A   1      42.176  21.741  25.384  1.00  0.00     0.016 A 
ATOM     36  C   UNL A   1      42.795  22.535  28.007  1.00  0.00     0.010 A 
ATOM     37  C   UNL A   1      42.641  23.037  25.639  1.00  0.00     0.010 A 
ATOM     38  C   UNL A   1      42.924  23.449  26.954  1.00  0.00    -0.014 A 
BRANCH  38  39
ATOM     39  C   UNL A   1      43.157  24.881  27.262  1.00  0.00     0.031 A 
ATOM     40  C   UNL A   1      44.513  25.467  26.969  1.00  0.00     0.074 A 
ATOM     41  C   UNL A   1      42.181  25.662  27.755  1.00  0.00     0.049 A 
ATOM     42  N   UNL A   1      44.953  26.684  27.162  1.00  0.00    -0.248 NA
ATOM     43  C   UNL A   1      45.505  24.552  26.383  1.00  0.00     0.031 C 
ATOM     44  C   UNL A   1      40.821  25.227  28.054  1.00  0.00     0.029 A 
ATOM     45  N   UNL A   1      42.192  26.994  28.093  1.00  0.00    -0.354 N 
ATOM     46  C   UNL A   1      46.272  26.679  26.727  1.00  0.00     0.074 A 
ATOM     47  C   UNL A   1      46.569  25.333  26.286  1.00  0.00     0.031 C 
ATOM     48  C   UNL A   1      40.121  26.276  28.524  1.00  0.00     0.029 A 
ATOM     49  C   UNL A   1      40.998  27.443  28.600  1.00  0.00     0.049 A 
ATOM     50  H   UNL A   1      42.982  27.571  27.981  1.00  0.00     0.167 HD
ATOM     51  C   UNL A   1      47.157  27.704  26.694  1.00  0.00     0.037 A 
ATOM     52  C   UNL A   1      40.662  28.653  29.091  1.00  0.00     0.037 A 
ATOM     53  C   UNL A   1      46.870  29.038  27.148  1.00  0.00     0.049 A 
ATOM     54  C   UNL A   1      41.689  29.758  29.115  1.00  0.00     0.074 A 
ATOM     55  C   UNL A   1      47.702  30.145  27.152  1.00  0.00     0.029 A 
ATOM     56  N   UNL A   1      45.661  29.446  27.691  1.00  0.00    -0.354 N 
ATOM     57  N   UNL A   1      42.927  29.751  28.680  1.00  0.00    -0.248 NA
ATOM     58  C   UNL A   1      41.270  31.039  29.702  1.00  0.00     0.031 C 
ATOM     59  C   UNL A   1      47.016  31.206  27.752  1.00  0.00     0.029 A 
ATOM     60  C   UNL A   1      45.733  30.781  28.058  1.00  0.00     0.049 A 
ATOM     61  H   UNL A   1      44.868  28.872  27.799  1.00  0.00     0.167 HD
ATOM     62  C   UNL A   1      43.419  31.031  28.909  1.00  0.00     0.074 A 
ATOM     63  C   UNL A   1      42.344  31.791  29.509  1.00  0.00     0.031 C 
ATOM     64  C   UNL A   1      44.652  31.532  28.645  1.00  0.00     0.037 A 
BRANCH  51  65
ATOM     65  C   UNL A   1      48.536  27.404  26.182  1.00  0.00     0.057 A 
ATOM     66  C   UNL A   1      48.847  27.449  24.817  1.00  0.00     0.134 A 
ATOM     67  C   UNL A   1      49.572  27.086  27.070  1.00  0.00     0.134 A 
ATOM     68  F   UNL A   1      47.898  27.731  23.911  1.00  0.00    -0.206 F 
ATOM     69  C   UNL A   1      50.132  27.161  24.351  1.00  0.00     0.040 A 
ATOM     70  C   UNL A   1      50.866  26.826  26.619  1.00  0.00     0.040 A 
ATOM     71  F   UNL A   1      49.344  27.031  28.391  1.00  0.00    -0.206 F 
ATOM     72  C   UNL A   1      51.147  26.855  25.255  1.00  0.00     0.006 A 
ENDBRANCH  51  65
BRANCH  52  73
ATOM     73  C   UNL A   1      39.295  28.891  29.626  1.00  0.00     0.057 A 
ATOM     74  C   UNL A   1      38.272  29.387  28.810  1.00  0.00     0.134 A 
ATOM     75  C   UNL A   1      38.992  28.673  30.976  1.00  0.00     0.134 A 
ATOM     76  F   UNL A   1      38.506  29.643  27.515  1.00  0.00    -0.206 F 
ATOM     77  C   UNL A   1      37.004  29.678  29.319  1.00  0.00     0.040 A 
ATOM     78  C   UNL A   1      37.721  28.930  31.492  1.00  0.00     0.040 A 
ATOM     79  F   UNL A   1      39.928  28.203  31.813  1.00  0.00    -0.206 F 
ATOM     80  C   UNL A   1      36.725  29.444  30.664  1.00  0.00     0.006 A 
ENDBRANCH  52  73
BRANCH  64  81
ATOM     81  C   UNL A   1      44.894  32.984  28.954  1.00  0.00     0.057 A 
ATOM     82  C   UNL A   1      45.450  33.408  30.167  1.00  0.00     0.134 A 
ATOM     83  C   UNL A   1      44.599  33.970  28.002  1.00  0.00     0.134 A 
ATOM     84  F   UNL A   1      45.748  32.519  31.128  1.00  0.00    -0.206 F 
ATOM     85  C   UNL A   1      45.677  34.760  30.435  1.00  0.00     0.040 A 
ATOM     86  C   UNL A   1      44.850  35.322  28.246  1.00  0.00     0.040 A 
ATOM     87  F   UNL A   1      44.075  33.636  26.813  1.00  0.00    -0.206 F 
ATOM     88  C   UNL A   1      45.383  35.720  29.469  1.00  0.00     0.006 A 
ENDBRANCH  64  81
ENDBRANCH  38  39
ENDBRANCH  31  33
ENDBRANCH  30  31
ENDBRANCH  29  30
ENDBRANCH  28  29
ENDBRANCH  27  28
ENDBRANCH  26  27
ENDBRANCH   1  26
TORSDOF 20
ENDMDL
