MODEL 1
REMARK VINA RESULT:     -10.9      0.000      0.000
REMARK SMILES Cc1cc(CS(=O)(=O)[C@@H](C)CC(=O)OCCOCCOCCOC(=O)c2ccc(-c3c4nc(c(-c5c(F)cccc5F)c5ccc([nH]5)c(-c5c(F)cccc5F)c5nc(c(-c6c(F)cccc6F)c6ccc3[nH]6)C=C5)C=C4)cc2)c2ccccc2n1
REMARK SMILES IDX 18 1 17 2 16 3 15 4 14 5 12 6 13 7 11 8 9 9 10 10 6 11 7 12
REMARK SMILES IDX 8 13 5 14 4 15 1 16 2 17 3 18 86 19 85 20 80 21 84 22 81 23
REMARK SMILES IDX 83 24 82 25 19 26 20 27 21 28 22 29 23 30 24 31 25 32 26 33
REMARK SMILES IDX 27 34 79 35 28 36 78 37 29 38 30 39 31 40 72 41 32 42 77 43
REMARK SMILES IDX 71 44 73 45 33 46 76 47 70 48 69 49 34 51 60 52 43 53 59 54
REMARK SMILES IDX 44 55 47 56 58 57 74 58 45 59 46 60 57 62 75 63 48 64 35 65
REMARK SMILES IDX 36 66 41 67 37 68 38 69 40 70 42 71 39 72 61 73 62 74 67 75
REMARK SMILES IDX 63 76 64 77 66 78 68 79 65 80 49 81 50 82 55 83 51 84 52 85
REMARK SMILES IDX 54 86 56 87 53 88
REMARK H PARENT 73 50 47 61
REMARK Flexibility Score: inf
ROOT
ATOM      1  C   UNL A   1      39.919  21.840  26.681  1.00  0.00     0.188 C 
ENDROOT
BRANCH   1   2
ATOM      2  O   UNL A   1      38.993  21.556  25.638  1.00  0.00    -0.376 OA
BRANCH   2   3
ATOM      3  C   UNL A   1      37.743  22.241  25.705  1.00  0.00     0.202 C 
BRANCH   3   4
ATOM      4  C   UNL A   1      36.801  22.085  24.501  1.00  0.00     0.261 C 
BRANCH   4   5
ATOM      5  O   UNL A   1      36.183  23.306  24.025  1.00  0.00    -0.463 OA
BRANCH   5   6
ATOM      6  C   UNL A   1      34.926  23.204  23.552  1.00  0.00     0.307 C 
ATOM      7  O   UNL A   1      34.611  23.370  22.377  1.00  0.00    -0.252 OA
BRANCH   6   8
ATOM      8  C   UNL A   1      33.909  22.661  24.528  1.00  0.00     0.142 C 
BRANCH   8   9
ATOM      9  C   UNL A   1      33.382  23.378  25.765  1.00  0.00     0.117 C 
ATOM     10  C   UNL A   1      34.222  22.904  26.968  1.00  0.00     0.025 C 
BRANCH   9  11
ATOM     11  S   UNL A   1      31.629  23.308  26.179  1.00  0.00     0.157 S 
ATOM     12  O   UNL A   1      31.479  23.522  27.604  1.00  0.00    -0.228 OA
ATOM     13  O   UNL A   1      31.150  22.036  25.652  1.00  0.00    -0.228 OA
BRANCH  11  14
ATOM     14  C   UNL A   1      30.683  24.548  25.283  1.00  0.00     0.173 C 
BRANCH  14  15
ATOM     15  C   UNL A   1      31.511  25.454  24.413  1.00  0.00    -0.022 A 
ATOM     16  C   UNL A   1      32.536  25.567  20.764  1.00  0.00     0.067 C 
ATOM     17  C   UNL A   1      32.382  25.911  22.213  1.00  0.00     0.038 A 
ATOM     18  C   UNL A   1      31.541  25.178  23.037  1.00  0.00     0.029 A 
ATOM     19  N   UNL A   1      33.160  26.905  22.684  1.00  0.00    -0.253 NA
ATOM     20  C   UNL A   1      33.114  27.214  23.989  1.00  0.00     0.071 A 
ATOM     21  C   UNL A   1      32.265  26.552  24.905  1.00  0.00     0.004 A 
ATOM     22  C   UNL A   1      33.978  28.195  24.456  1.00  0.00     0.029 A 
ATOM     23  C   UNL A   1      32.250  27.004  26.247  1.00  0.00     0.010 A 
ATOM     24  C   UNL A   1      33.995  28.591  25.793  1.00  0.00     0.002 A 
ATOM     25  C   UNL A   1      33.110  28.010  26.688  1.00  0.00     0.001 A 
ENDBRANCH  14  15
ENDBRANCH  11  14
ENDBRANCH   9  11
ENDBRANCH   8   9
ENDBRANCH   6   8
ENDBRANCH   5   6
ENDBRANCH   4   5
ENDBRANCH   3   4
ENDBRANCH   2   3
ENDBRANCH   1   2
BRANCH   1  26
ATOM     26  C   UNL A   1      41.080  20.854  26.816  1.00  0.00     0.188 C 
BRANCH  26  27
ATOM     27  O   UNL A   1      41.935  20.754  25.694  1.00  0.00    -0.376 OA
BRANCH  27  28
ATOM     28  C   UNL A   1      43.348  20.776  25.892  1.00  0.00     0.202 C 
BRANCH  28  29
ATOM     29  C   UNL A   1      44.163  21.856  25.144  1.00  0.00     0.261 C 
BRANCH  29  30
ATOM     30  O   UNL A   1      43.517  23.133  24.948  1.00  0.00    -0.460 OA
BRANCH  30  31
ATOM     31  C   UNL A   1      44.246  24.249  25.197  1.00  0.00     0.338 C 
ATOM     32  O   UNL A   1      45.227  24.618  24.590  1.00  0.00    -0.246 OA
BRANCH  31  33
ATOM     33  C   UNL A   1      43.469  25.116  26.138  1.00  0.00     0.060 A 
ATOM     34  C   UNL A   1      43.826  26.472  26.209  1.00  0.00     0.016 A 
ATOM     35  C   UNL A   1      42.338  24.667  26.828  1.00  0.00     0.016 A 
ATOM     36  C   UNL A   1      43.094  27.363  26.999  1.00  0.00     0.010 A 
ATOM     37  C   UNL A   1      41.616  25.554  27.639  1.00  0.00     0.010 A 
ATOM     38  C   UNL A   1      42.016  26.897  27.762  1.00  0.00    -0.014 A 
BRANCH  38  39
ATOM     39  C   UNL A   1      41.512  27.733  28.884  1.00  0.00     0.031 A 
ATOM     40  C   UNL A   1      42.238  27.634  30.201  1.00  0.00     0.074 A 
ATOM     41  C   UNL A   1      40.479  28.584  28.757  1.00  0.00     0.049 A 
ATOM     42  N   UNL A   1      41.998  28.235  31.338  1.00  0.00    -0.248 NA
ATOM     43  C   UNL A   1      43.395  26.724  30.233  1.00  0.00     0.031 C 
ATOM     44  C   UNL A   1      39.708  28.811  27.540  1.00  0.00     0.029 A 
ATOM     45  N   UNL A   1      39.896  29.415  29.687  1.00  0.00    -0.354 N 
ATOM     46  C   UNL A   1      42.964  27.767  32.220  1.00  0.00     0.074 A 
ATOM     47  C   UNL A   1      43.769  26.807  31.498  1.00  0.00     0.031 C 
ATOM     48  C   UNL A   1      38.736  29.706  27.801  1.00  0.00     0.029 A 
ATOM     49  C   UNL A   1      38.801  30.093  29.211  1.00  0.00     0.049 A 
ATOM     50  H   UNL A   1      40.233  29.513  30.607  1.00  0.00     0.167 HD
ATOM     51  C   UNL A   1      43.174  28.108  33.513  1.00  0.00     0.037 A 
ATOM     52  C   UNL A   1      37.937  30.911  29.847  1.00  0.00     0.037 A 
ATOM     53  C   UNL A   1      42.371  29.053  34.240  1.00  0.00     0.049 A 
ATOM     54  C   UNL A   1      38.143  31.231  31.307  1.00  0.00     0.074 A 
ATOM     55  C   UNL A   1      42.518  29.484  35.547  1.00  0.00     0.029 A 
ATOM     56  N   UNL A   1      41.256  29.700  33.728  1.00  0.00    -0.354 N 
ATOM     57  N   UNL A   1      39.083  30.815  32.123  1.00  0.00    -0.248 NA
ATOM     58  C   UNL A   1      37.171  32.140  31.934  1.00  0.00     0.031 C 
ATOM     59  C   UNL A   1      41.453  30.340  35.846  1.00  0.00     0.029 A 
ATOM     60  C   UNL A   1      40.684  30.500  34.704  1.00  0.00     0.049 A 
ATOM     61  H   UNL A   1      40.920  29.605  32.807  1.00  0.00     0.167 HD
ATOM     62  C   UNL A   1      38.830  31.429  33.346  1.00  0.00     0.074 A 
ATOM     63  C   UNL A   1      37.658  32.257  33.161  1.00  0.00     0.031 C 
ATOM     64  C   UNL A   1      39.514  31.320  34.513  1.00  0.00     0.037 A 
BRANCH  51  65
ATOM     65  C   UNL A   1      44.292  27.406  34.229  1.00  0.00     0.057 A 
ATOM     66  C   UNL A   1      45.630  27.807  34.103  1.00  0.00     0.134 A 
ATOM     67  C   UNL A   1      44.026  26.299  35.045  1.00  0.00     0.134 A 
ATOM     68  F   UNL A   1      45.957  28.847  33.320  1.00  0.00    -0.206 F 
ATOM     69  C   UNL A   1      46.664  27.107  34.727  1.00  0.00     0.040 A 
ATOM     70  C   UNL A   1      45.049  25.613  35.702  1.00  0.00     0.040 A 
ATOM     71  F   UNL A   1      42.769  25.862  35.213  1.00  0.00    -0.206 F 
ATOM     72  C   UNL A   1      46.374  26.009  35.533  1.00  0.00     0.006 A 
ENDBRANCH  51  65
BRANCH  52  73
ATOM     73  C   UNL A   1      36.771  31.468  29.110  1.00  0.00     0.057 A 
ATOM     74  C   UNL A   1      35.659  30.680  28.792  1.00  0.00     0.134 A 
ATOM     75  C   UNL A   1      36.751  32.806  28.696  1.00  0.00     0.134 A 
ATOM     76  F   UNL A   1      35.630  29.383  29.132  1.00  0.00    -0.206 F 
ATOM     77  C   UNL A   1      34.572  31.201  28.085  1.00  0.00     0.040 A 
ATOM     78  C   UNL A   1      35.660  33.347  28.014  1.00  0.00     0.040 A 
ATOM     79  F   UNL A   1      37.789  33.612  28.962  1.00  0.00    -0.206 F 
ATOM     80  C   UNL A   1      34.568  32.540  27.702  1.00  0.00     0.006 A 
ENDBRANCH  52  73
BRANCH  64  81
ATOM     81  C   UNL A   1      39.036  32.141  35.680  1.00  0.00     0.057 A 
ATOM     82  C   UNL A   1      38.211  31.610  36.680  1.00  0.00     0.134 A 
ATOM     83  C   UNL A   1      39.449  33.473  35.828  1.00  0.00     0.134 A 
ATOM     84  F   UNL A   1      37.772  30.344  36.598  1.00  0.00    -0.206 F 
ATOM     85  C   UNL A   1      37.793  32.379  37.768  1.00  0.00     0.040 A 
ATOM     86  C   UNL A   1      39.063  34.242  36.928  1.00  0.00     0.040 A 
ATOM     87  F   UNL A   1      40.251  34.044  34.917  1.00  0.00    -0.206 F 
ATOM     88  C   UNL A   1      38.226  33.698  37.897  1.00  0.00     0.006 A 
ENDBRANCH  64  81
ENDBRANCH  38  39
ENDBRANCH  31  33
ENDBRANCH  30  31
ENDBRANCH  29  30
ENDBRANCH  28  29
ENDBRANCH  27  28
ENDBRANCH  26  27
ENDBRANCH   1  26
TORSDOF 21
ENDMDL
MODEL 2
REMARK VINA RESULT:     -10.6      1.268      2.150
REMARK SMILES Cc1cc(CS(=O)(=O)[C@@H](C)CC(=O)OCCOCCOCCOC(=O)c2ccc(-c3c4nc(c(-c5c(F)cccc5F)c5ccc([nH]5)c(-c5c(F)cccc5F)c5nc(c(-c6c(F)cccc6F)c6ccc3[nH]6)C=C5)C=C4)cc2)c2ccccc2n1
REMARK SMILES IDX 18 1 17 2 16 3 15 4 14 5 12 6 13 7 11 8 9 9 10 10 6 11 7 12
REMARK SMILES IDX 8 13 5 14 4 15 1 16 2 17 3 18 86 19 85 20 80 21 84 22 81 23
REMARK SMILES IDX 83 24 82 25 19 26 20 27 21 28 22 29 23 30 24 31 25 32 26 33
REMARK SMILES IDX 27 34 79 35 28 36 78 37 29 38 30 39 31 40 72 41 32 42 77 43
REMARK SMILES IDX 71 44 73 45 33 46 76 47 70 48 69 49 34 51 60 52 43 53 59 54
REMARK SMILES IDX 44 55 47 56 58 57 74 58 45 59 46 60 57 62 75 63 48 64 35 65
REMARK SMILES IDX 36 66 41 67 37 68 38 69 40 70 42 71 39 72 61 73 62 74 67 75
REMARK SMILES IDX 63 76 64 77 66 78 68 79 65 80 49 81 50 82 55 83 51 84 52 85
REMARK SMILES IDX 54 86 56 87 53 88
REMARK H PARENT 73 50 47 61
REMARK Flexibility Score: inf
ROOT
ATOM      1  C   UNL A   1      40.310  21.810  27.387  1.00  0.00     0.188 C 
ENDROOT
BRANCH   1   2
ATOM      2  O   UNL A   1      39.686  22.383  26.245  1.00  0.00    -0.376 OA
BRANCH   2   3
ATOM      3  C   UNL A   1      38.760  23.440  26.501  1.00  0.00     0.202 C 
BRANCH   3   4
ATOM      4  C   UNL A   1      37.377  23.324  25.841  1.00  0.00     0.261 C 
BRANCH   4   5
ATOM      5  O   UNL A   1      37.320  23.675  24.436  1.00  0.00    -0.463 OA
BRANCH   5   6
ATOM      6  C   UNL A   1      36.185  23.364  23.780  1.00  0.00     0.307 C 
ATOM      7  O   UNL A   1      36.135  23.026  22.601  1.00  0.00    -0.252 OA
BRANCH   6   8
ATOM      8  C   UNL A   1      34.949  23.253  24.642  1.00  0.00     0.142 C 
BRANCH   8   9
ATOM      9  C   UNL A   1      33.904  24.340  24.854  1.00  0.00     0.117 C 
ATOM     10  C   UNL A   1      32.903  23.824  25.908  1.00  0.00     0.025 C 
BRANCH   9  11
ATOM     11  S   UNL A   1      33.007  25.026  23.448  1.00  0.00     0.157 S 
ATOM     12  O   UNL A   1      33.000  24.048  22.378  1.00  0.00    -0.228 OA
ATOM     13  O   UNL A   1      33.643  26.307  23.162  1.00  0.00    -0.228 OA
BRANCH  11  14
ATOM     14  C   UNL A   1      31.314  25.453  23.882  1.00  0.00     0.173 C 
BRANCH  14  15
ATOM     15  C   UNL A   1      31.060  26.930  24.009  1.00  0.00    -0.022 A 
ATOM     16  C   UNL A   1      29.894  29.720  21.720  1.00  0.00     0.067 C 
ATOM     17  C   UNL A   1      30.363  28.967  22.927  1.00  0.00     0.038 A 
ATOM     18  C   UNL A   1      30.506  27.589  22.900  1.00  0.00     0.029 A 
ATOM     19  N   UNL A   1      30.715  29.704  23.999  1.00  0.00    -0.253 NA
ATOM     20  C   UNL A   1      31.205  29.090  25.087  1.00  0.00     0.071 A 
ATOM     21  C   UNL A   1      31.356  27.688  25.174  1.00  0.00     0.004 A 
ATOM     22  C   UNL A   1      31.622  29.882  26.149  1.00  0.00     0.029 A 
ATOM     23  C   UNL A   1      31.822  27.140  26.394  1.00  0.00     0.010 A 
ATOM     24  C   UNL A   1      32.134  29.333  27.324  1.00  0.00     0.002 A 
ATOM     25  C   UNL A   1      32.212  27.955  27.457  1.00  0.00     0.001 A 
ENDBRANCH  14  15
ENDBRANCH  11  14
ENDBRANCH   9  11
ENDBRANCH   8   9
ENDBRANCH   6   8
ENDBRANCH   5   6
ENDBRANCH   4   5
ENDBRANCH   3   4
ENDBRANCH   2   3
ENDBRANCH   1   2
BRANCH   1  26
ATOM     26  C   UNL A   1      41.607  21.046  27.113  1.00  0.00     0.188 C 
BRANCH  26  27
ATOM     27  O   UNL A   1      42.009  20.984  25.759  1.00  0.00    -0.376 OA
BRANCH  27  28
ATOM     28  C   UNL A   1      43.371  20.693  25.450  1.00  0.00     0.202 C 
BRANCH  28  29
ATOM     29  C   UNL A   1      44.277  21.867  25.012  1.00  0.00     0.261 C 
BRANCH  29  30
ATOM     30  O   UNL A   1      43.649  23.163  24.906  1.00  0.00    -0.460 OA
BRANCH  30  31
ATOM     31  C   UNL A   1      44.402  24.251  25.206  1.00  0.00     0.338 C 
ATOM     32  O   UNL A   1      45.407  24.609  24.634  1.00  0.00    -0.246 OA
BRANCH  31  33
ATOM     33  C   UNL A   1      43.626  25.112  26.153  1.00  0.00     0.060 A 
ATOM     34  C   UNL A   1      43.969  26.472  26.218  1.00  0.00     0.016 A 
ATOM     35  C   UNL A   1      42.506  24.652  26.856  1.00  0.00     0.016 A 
ATOM     36  C   UNL A   1      43.236  27.356  27.014  1.00  0.00     0.010 A 
ATOM     37  C   UNL A   1      41.783  25.533  27.672  1.00  0.00     0.010 A 
ATOM     38  C   UNL A   1      42.171  26.881  27.789  1.00  0.00    -0.014 A 
BRANCH  38  39
ATOM     39  C   UNL A   1      41.669  27.713  28.915  1.00  0.00     0.031 A 
ATOM     40  C   UNL A   1      42.390  27.601  30.234  1.00  0.00     0.074 A 
ATOM     41  C   UNL A   1      40.644  28.573  28.790  1.00  0.00     0.049 A 
ATOM     42  N   UNL A   1      42.151  28.196  31.373  1.00  0.00    -0.248 NA
ATOM     43  C   UNL A   1      43.540  26.682  30.263  1.00  0.00     0.031 C 
ATOM     44  C   UNL A   1      39.878  28.814  27.572  1.00  0.00     0.029 A 
ATOM     45  N   UNL A   1      40.064  29.402  29.724  1.00  0.00    -0.354 N 
ATOM     46  C   UNL A   1      43.111  27.715  32.255  1.00  0.00     0.074 A 
ATOM     47  C   UNL A   1      43.911  26.754  31.530  1.00  0.00     0.031 C 
ATOM     48  C   UNL A   1      38.912  29.714  27.836  1.00  0.00     0.029 A 
ATOM     49  C   UNL A   1      38.976  30.092  29.248  1.00  0.00     0.049 A 
ATOM     50  H   UNL A   1      40.399  29.492  30.645  1.00  0.00     0.167 HD
ATOM     51  C   UNL A   1      43.320  28.046  33.551  1.00  0.00     0.037 A 
ATOM     52  C   UNL A   1      38.116  30.913  29.886  1.00  0.00     0.037 A 
ATOM     53  C   UNL A   1      42.521  28.993  34.281  1.00  0.00     0.049 A 
ATOM     54  C   UNL A   1      38.320  31.222  31.349  1.00  0.00     0.074 A 
ATOM     55  C   UNL A   1      42.668  29.414  35.591  1.00  0.00     0.029 A 
ATOM     56  N   UNL A   1      41.413  29.652  33.770  1.00  0.00    -0.354 N 
ATOM     57  N   UNL A   1      39.254  30.794  32.165  1.00  0.00    -0.248 NA
ATOM     58  C   UNL A   1      37.353  32.135  31.978  1.00  0.00     0.031 C 
ATOM     59  C   UNL A   1      41.609  30.277  35.893  1.00  0.00     0.029 A 
ATOM     60  C   UNL A   1      40.844  30.450  34.750  1.00  0.00     0.049 A 
ATOM     61  H   UNL A   1      41.080  29.566  32.847  1.00  0.00     0.167 HD
ATOM     62  C   UNL A   1      39.002  31.402  33.391  1.00  0.00     0.074 A 
ATOM     63  C   UNL A   1      37.837  32.240  33.208  1.00  0.00     0.031 C 
ATOM     64  C   UNL A   1      39.681  31.281  34.560  1.00  0.00     0.037 A 
BRANCH  51  65
ATOM     65  C   UNL A   1      44.430  27.331  34.266  1.00  0.00     0.057 A 
ATOM     66  C   UNL A   1      44.256  26.063  34.839  1.00  0.00     0.134 A 
ATOM     67  C   UNL A   1      45.688  27.930  34.399  1.00  0.00     0.134 A 
ATOM     68  F   UNL A   1      43.069  25.440  34.766  1.00  0.00    -0.206 F 
ATOM     69  C   UNL A   1      45.280  25.438  35.553  1.00  0.00     0.040 A 
ATOM     70  C   UNL A   1      46.730  27.299  35.081  1.00  0.00     0.040 A 
ATOM     71  F   UNL A   1      45.926  29.142  33.874  1.00  0.00    -0.206 F 
ATOM     72  C   UNL A   1      46.523  26.054  35.672  1.00  0.00     0.006 A 
ENDBRANCH  51  65
BRANCH  52  73
ATOM     73  C   UNL A   1      36.957  31.484  29.149  1.00  0.00     0.057 A 
ATOM     74  C   UNL A   1      36.955  32.809  28.697  1.00  0.00     0.134 A 
ATOM     75  C   UNL A   1      35.816  30.714  28.890  1.00  0.00     0.134 A 
ATOM     76  F   UNL A   1      38.004  33.608  28.941  1.00  0.00    -0.206 F 
ATOM     77  C   UNL A   1      35.859  33.348  28.019  1.00  0.00     0.040 A 
ATOM     78  C   UNL A   1      34.725  31.231  28.189  1.00  0.00     0.040 A 
ATOM     79  F   UNL A   1      35.752  29.440  29.303  1.00  0.00    -0.206 F 
ATOM     80  C   UNL A   1      34.744  32.555  27.756  1.00  0.00     0.006 A 
ENDBRANCH  52  73
BRANCH  64  81
ATOM     81  C   UNL A   1      39.206  32.098  35.730  1.00  0.00     0.057 A 
ATOM     82  C   UNL A   1      39.595  33.430  35.919  1.00  0.00     0.134 A 
ATOM     83  C   UNL A   1      38.305  31.554  36.658  1.00  0.00     0.134 A 
ATOM     84  F   UNL A   1      40.460  34.012  35.074  1.00  0.00    -0.206 F 
ATOM     85  C   UNL A   1      39.129  34.182  37.000  1.00  0.00     0.040 A 
ATOM     86  C   UNL A   1      37.808  32.306  37.724  1.00  0.00     0.040 A 
ATOM     87  F   UNL A   1      37.878  30.289  36.532  1.00  0.00    -0.206 F 
ATOM     88  C   UNL A   1      38.226  33.621  37.902  1.00  0.00     0.006 A 
ENDBRANCH  64  81
ENDBRANCH  38  39
ENDBRANCH  31  33
ENDBRANCH  30  31
ENDBRANCH  29  30
ENDBRANCH  28  29
ENDBRANCH  27  28
ENDBRANCH  26  27
ENDBRANCH   1  26
TORSDOF 21
ENDMDL
MODEL 3
REMARK VINA RESULT:     -10.2      0.882      2.304
REMARK SMILES Cc1cc(CS(=O)(=O)[C@@H](C)CC(=O)OCCOCCOCCOC(=O)c2ccc(-c3c4nc(c(-c5c(F)cccc5F)c5ccc([nH]5)c(-c5c(F)cccc5F)c5nc(c(-c6c(F)cccc6F)c6ccc3[nH]6)C=C5)C=C4)cc2)c2ccccc2n1
REMARK SMILES IDX 18 1 17 2 16 3 15 4 14 5 12 6 13 7 11 8 9 9 10 10 6 11 7 12
REMARK SMILES IDX 8 13 5 14 4 15 1 16 2 17 3 18 86 19 85 20 80 21 84 22 81 23
REMARK SMILES IDX 83 24 82 25 19 26 20 27 21 28 22 29 23 30 24 31 25 32 26 33
REMARK SMILES IDX 27 34 79 35 28 36 78 37 29 38 30 39 31 40 72 41 32 42 77 43
REMARK SMILES IDX 71 44 73 45 33 46 76 47 70 48 69 49 34 51 60 52 43 53 59 54
REMARK SMILES IDX 44 55 47 56 58 57 74 58 45 59 46 60 57 62 75 63 48 64 35 65
REMARK SMILES IDX 36 66 41 67 37 68 38 69 40 70 42 71 39 72 61 73 62 74 67 75
REMARK SMILES IDX 63 76 64 77 66 78 68 79 65 80 49 81 50 82 55 83 51 84 52 85
REMARK SMILES IDX 54 86 56 87 53 88
REMARK H PARENT 73 50 47 61
REMARK Flexibility Score: inf
ROOT
ATOM      1  C   UNL A   1      41.138  20.869  27.203  1.00  0.00     0.188 C 
ENDROOT
BRANCH   1   2
ATOM      2  O   UNL A   1      39.756  20.851  26.868  1.00  0.00    -0.376 OA
BRANCH   2   3
ATOM      3  C   UNL A   1      39.332  21.815  25.903  1.00  0.00     0.202 C 
BRANCH   3   4
ATOM      4  C   UNL A   1      37.817  21.966  25.694  1.00  0.00     0.261 C 
BRANCH   4   5
ATOM      5  O   UNL A   1      37.416  22.655  24.483  1.00  0.00    -0.463 OA
BRANCH   5   6
ATOM      6  C   UNL A   1      36.182  22.387  24.015  1.00  0.00     0.307 C 
ATOM      7  O   UNL A   1      35.694  22.897  23.011  1.00  0.00    -0.252 OA
BRANCH   6   8
ATOM      8  C   UNL A   1      35.468  21.238  24.691  1.00  0.00     0.142 C 
BRANCH   8   9
ATOM      9  C   UNL A   1      34.097  21.300  25.349  1.00  0.00     0.117 C 
ATOM     10  C   UNL A   1      33.040  21.240  24.228  1.00  0.00     0.025 C 
BRANCH   9  11
ATOM     11  S   UNL A   1      33.696  22.635  26.492  1.00  0.00     0.157 S 
ATOM     12  O   UNL A   1      34.892  23.417  26.733  1.00  0.00    -0.228 OA
ATOM     13  O   UNL A   1      33.088  21.992  27.651  1.00  0.00    -0.228 OA
BRANCH  11  14
ATOM     14  C   UNL A   1      32.402  23.702  25.843  1.00  0.00     0.173 C 
BRANCH  14  15
ATOM     15  C   UNL A   1      32.899  24.989  25.243  1.00  0.00    -0.022 A 
ATOM     16  C   UNL A   1      33.992  28.380  26.542  1.00  0.00     0.067 C 
ATOM     17  C   UNL A   1      33.666  27.241  25.626  1.00  0.00     0.038 A 
ATOM     18  C   UNL A   1      33.312  25.998  26.127  1.00  0.00     0.029 A 
ATOM     19  N   UNL A   1      33.654  27.512  24.306  1.00  0.00    -0.253 NA
ATOM     20  C   UNL A   1      33.306  26.548  23.440  1.00  0.00     0.071 A 
ATOM     21  C   UNL A   1      32.963  25.239  23.846  1.00  0.00     0.004 A 
ATOM     22  C   UNL A   1      33.237  26.878  22.093  1.00  0.00     0.029 A 
ATOM     23  C   UNL A   1      32.675  24.282  22.842  1.00  0.00     0.010 A 
ATOM     24  C   UNL A   1      32.895  25.941  21.119  1.00  0.00     0.002 A 
ATOM     25  C   UNL A   1      32.636  24.631  21.492  1.00  0.00     0.001 A 
ENDBRANCH  14  15
ENDBRANCH  11  14
ENDBRANCH   9  11
ENDBRANCH   8   9
ENDBRANCH   6   8
ENDBRANCH   5   6
ENDBRANCH   4   5
ENDBRANCH   3   4
ENDBRANCH   2   3
ENDBRANCH   1   2
BRANCH   1  26
ATOM     26  C   UNL A   1      41.972  19.728  26.617  1.00  0.00     0.188 C 
BRANCH  26  27
ATOM     27  O   UNL A   1      42.614  20.005  25.388  1.00  0.00    -0.376 OA
BRANCH  27  28
ATOM     28  C   UNL A   1      44.022  20.230  25.374  1.00  0.00     0.202 C 
BRANCH  28  29
ATOM     29  C   UNL A   1      44.525  21.661  25.668  1.00  0.00     0.261 C 
BRANCH  29  30
ATOM     30  O   UNL A   1      43.603  22.739  25.397  1.00  0.00    -0.460 OA
BRANCH  30  31
ATOM     31  C   UNL A   1      44.118  23.989  25.274  1.00  0.00     0.338 C 
ATOM     32  O   UNL A   1      44.855  24.380  24.397  1.00  0.00    -0.246 OA
BRANCH  31  33
ATOM     33  C   UNL A   1      43.383  24.892  26.215  1.00  0.00     0.060 A 
ATOM     34  C   UNL A   1      43.800  26.231  26.281  1.00  0.00     0.016 A 
ATOM     35  C   UNL A   1      42.235  24.495  26.911  1.00  0.00     0.016 A 
ATOM     36  C   UNL A   1      43.112  27.156  27.072  1.00  0.00     0.010 A 
ATOM     37  C   UNL A   1      41.556  25.416  27.722  1.00  0.00     0.010 A 
ATOM     38  C   UNL A   1      42.017  26.740  27.839  1.00  0.00    -0.014 A 
BRANCH  38  39
ATOM     39  C   UNL A   1      41.554  27.601  28.961  1.00  0.00     0.031 A 
ATOM     40  C   UNL A   1      42.285  27.479  30.274  1.00  0.00     0.074 A 
ATOM     41  C   UNL A   1      40.556  28.492  28.838  1.00  0.00     0.049 A 
ATOM     42  N   UNL A   1      42.077  28.094  31.409  1.00  0.00    -0.248 NA
ATOM     43  C   UNL A   1      43.405  26.524  30.301  1.00  0.00     0.031 C 
ATOM     44  C   UNL A   1      39.785  28.744  27.624  1.00  0.00     0.029 A 
ATOM     45  N   UNL A   1      40.013  29.349  29.768  1.00  0.00    -0.354 N 
ATOM     46  C   UNL A   1      43.031  27.591  32.286  1.00  0.00     0.074 A 
ATOM     47  C   UNL A   1      43.792  26.598  31.564  1.00  0.00     0.031 C 
ATOM     48  C   UNL A   1      38.851  29.677  27.888  1.00  0.00     0.029 A 
ATOM     49  C   UNL A   1      38.942  30.068  29.296  1.00  0.00     0.049 A 
ATOM     50  H   UNL A   1      40.360  29.438  30.685  1.00  0.00     0.167 HD
ATOM     51  C   UNL A   1      43.263  27.930  33.576  1.00  0.00     0.037 A 
ATOM     52  C   UNL A   1      38.116  30.923  29.934  1.00  0.00     0.037 A 
ATOM     53  C   UNL A   1      42.504  28.910  34.304  1.00  0.00     0.049 A 
ATOM     54  C   UNL A   1      38.345  31.241  31.391  1.00  0.00     0.074 A 
ATOM     55  C   UNL A   1      42.677  29.340  35.608  1.00  0.00     0.029 A 
ATOM     56  N   UNL A   1      41.412  29.598  33.797  1.00  0.00    -0.354 N 
ATOM     57  N   UNL A   1      39.273  30.792  32.202  1.00  0.00    -0.248 NA
ATOM     58  C   UNL A   1      37.414  32.192  32.020  1.00  0.00     0.031 C 
ATOM     59  C   UNL A   1      41.650  30.240  35.910  1.00  0.00     0.029 A 
ATOM     60  C   UNL A   1      40.879  30.425  34.774  1.00  0.00     0.049 A 
ATOM     61  H   UNL A   1      41.066  29.513  32.879  1.00  0.00     0.167 HD
ATOM     62  C   UNL A   1      39.054  31.421  33.424  1.00  0.00     0.074 A 
ATOM     63  C   UNL A   1      37.915  32.294  33.244  1.00  0.00     0.031 C 
ATOM     64  C   UNL A   1      39.741  31.290  34.587  1.00  0.00     0.037 A 
BRANCH  51  65
ATOM     65  C   UNL A   1      44.357  27.187  34.288  1.00  0.00     0.057 A 
ATOM     66  C   UNL A   1      44.133  25.963  34.935  1.00  0.00     0.134 A 
ATOM     67  C   UNL A   1      45.653  27.715  34.342  1.00  0.00     0.134 A 
ATOM     68  F   UNL A   1      42.910  25.411  34.940  1.00  0.00    -0.206 F 
ATOM     69  C   UNL A   1      45.146  25.315  35.643  1.00  0.00     0.040 A 
ATOM     70  C   UNL A   1      46.683  27.059  35.018  1.00  0.00     0.040 A 
ATOM     71  F   UNL A   1      45.940  28.881  33.743  1.00  0.00    -0.206 F 
ATOM     72  C   UNL A   1      46.427  25.861  35.682  1.00  0.00     0.006 A 
ENDBRANCH  51  65
BRANCH  52  73
ATOM     73  C   UNL A   1      36.968  31.523  29.202  1.00  0.00     0.057 A 
ATOM     74  C   UNL A   1      37.012  32.835  28.716  1.00  0.00     0.134 A 
ATOM     75  C   UNL A   1      35.792  30.795  28.982  1.00  0.00     0.134 A 
ATOM     76  F   UNL A   1      38.097  33.596  28.922  1.00  0.00    -0.206 F 
ATOM     77  C   UNL A   1      35.927  33.402  28.044  1.00  0.00     0.040 A 
ATOM     78  C   UNL A   1      34.711  31.340  28.288  1.00  0.00     0.040 A 
ATOM     79  F   UNL A   1      35.683  29.536  29.429  1.00  0.00    -0.206 F 
ATOM     80  C   UNL A   1      34.776  32.650  27.820  1.00  0.00     0.006 A 
ENDBRANCH  52  73
BRANCH  64  81
ATOM     81  C   UNL A   1      39.305  32.135  35.753  1.00  0.00     0.057 A 
ATOM     82  C   UNL A   1      39.815  33.420  35.977  1.00  0.00     0.134 A 
ATOM     83  C   UNL A   1      38.322  31.670  36.638  1.00  0.00     0.134 A 
ATOM     84  F   UNL A   1      40.763  33.925  35.174  1.00  0.00    -0.206 F 
ATOM     85  C   UNL A   1      39.384  34.200  37.053  1.00  0.00     0.040 A 
ATOM     86  C   UNL A   1      37.861  32.453  37.698  1.00  0.00     0.040 A 
ATOM     87  F   UNL A   1      37.778  30.454  36.477  1.00  0.00    -0.206 F 
ATOM     88  C   UNL A   1      38.398  33.719  37.913  1.00  0.00     0.006 A 
ENDBRANCH  64  81
ENDBRANCH  38  39
ENDBRANCH  31  33
ENDBRANCH  30  31
ENDBRANCH  29  30
ENDBRANCH  28  29
ENDBRANCH  27  28
ENDBRANCH  26  27
ENDBRANCH   1  26
TORSDOF 21
ENDMDL
