MODEL 1
REMARK VINA RESULT:     -10.4      0.000      0.000
REMARK SMILES O=C(CC[C@]12C[C@H]3C[C@H](C[C@H](C3)C1)C2)OCCOCCOCCOC(=O)c1ccc(-c2c3nc(c(-c4c(F)cccc4F)c4ccc([nH]4)c(-c4c(F)cccc4F)c4nc(c(-c5c(F)cccc5F)c5ccc2[nH]5)C=C4)C=C3)cc1
REMARK SMILES IDX 19 1 18 2 17 3 16 4 15 5 2 6 1 7 3 8 4 9 5 10 6 11 13 12
REMARK SMILES IDX 14 13 7 14 11 15 9 16 8 17 12 18 10 19 20 20 21 21 22 22
REMARK SMILES IDX 23 23 24 24 25 25 26 26 27 27 28 28 80 29 29 30 79 31 30 32
REMARK SMILES IDX 31 33 32 34 73 35 33 36 78 37 72 38 74 39 34 40 77 41 71 42
REMARK SMILES IDX 70 43 35 45 61 46 44 47 60 48 45 49 48 50 59 51 75 52 46 53
REMARK SMILES IDX 47 54 58 56 76 57 49 58 36 59 37 60 42 61 38 62 39 63 41 64
REMARK SMILES IDX 43 65 40 66 62 67 63 68 68 69 64 70 65 71 67 72 69 73 66 74
REMARK SMILES IDX 50 75 51 76 56 77 52 78 53 79 55 80 57 81 54 82
REMARK H PARENT 74 44 48 55
REMARK Flexibility Score: inf
ROOT
ATOM      1  C   UNL A   1      34.333  32.988  28.216  1.00  0.00     0.188 C 
ENDROOT
BRANCH   1   2
ATOM      2  O   UNL A   1      33.654  31.759  28.040  1.00  0.00    -0.376 OA
BRANCH   2   3
ATOM      3  C   UNL A   1      34.386  30.705  27.447  1.00  0.00     0.202 C 
BRANCH   3   4
ATOM      4  C   UNL A   1      33.625  29.690  26.576  1.00  0.00     0.261 C 
BRANCH   4   5
ATOM      5  O   UNL A   1      33.248  28.366  27.066  1.00  0.00    -0.463 OA
BRANCH   5   6
ATOM      6  C   UNL A   1      32.287  27.447  26.870  1.00  0.00     0.305 C 
ATOM      7  O   UNL A   1      31.178  27.637  27.373  1.00  0.00    -0.252 OA
BRANCH   6   8
ATOM      8  C   UNL A   1      32.552  26.155  26.143  1.00  0.00     0.123 C 
BRANCH   8   9
ATOM      9  C   UNL A   1      34.026  25.909  25.732  1.00  0.00     0.019 C 
BRANCH   9  10
ATOM     10  C   UNL A   1      34.379  24.476  25.239  1.00  0.00    -0.028 C 
ATOM     11  C   UNL A   1      33.562  23.361  25.933  1.00  0.00     0.010 C 
ATOM     12  C   UNL A   1      35.835  24.171  25.558  1.00  0.00     0.010 C 
ATOM     13  C   UNL A   1      34.163  24.358  23.710  1.00  0.00     0.010 C 
ATOM     14  C   UNL A   1      34.032  21.966  25.438  1.00  0.00    -0.010 C 
ATOM     15  C   UNL A   1      36.337  22.839  25.028  1.00  0.00    -0.010 C 
ATOM     16  C   UNL A   1      34.619  22.979  23.200  1.00  0.00    -0.010 C 
ATOM     17  C   UNL A   1      33.821  21.878  23.916  1.00  0.00     0.007 C 
ATOM     18  C   UNL A   1      35.531  21.755  25.732  1.00  0.00     0.007 C 
ATOM     19  C   UNL A   1      36.110  22.790  23.509  1.00  0.00     0.007 C 
ENDBRANCH   9  10
ENDBRANCH   8   9
ENDBRANCH   6   8
ENDBRANCH   5   6
ENDBRANCH   4   5
ENDBRANCH   3   4
ENDBRANCH   2   3
ENDBRANCH   1   2
BRANCH   1  20
ATOM     20  C   UNL A   1      33.478  34.233  28.504  1.00  0.00     0.188 C 
BRANCH  20  21
ATOM     21  O   UNL A   1      33.271  34.498  29.886  1.00  0.00    -0.376 OA
BRANCH  21  22
ATOM     22  C   UNL A   1      34.440  34.597  30.697  1.00  0.00     0.202 C 
BRANCH  22  23
ATOM     23  C   UNL A   1      34.407  33.943  32.093  1.00  0.00     0.261 C 
BRANCH  23  24
ATOM     24  O   UNL A   1      34.827  32.573  32.170  1.00  0.00    -0.460 OA
BRANCH  24  25
ATOM     25  C   UNL A   1      35.909  32.299  32.922  1.00  0.00     0.338 C 
ATOM     26  O   UNL A   1      36.056  32.535  34.114  1.00  0.00    -0.246 OA
BRANCH  25  27
ATOM     27  C   UNL A   1      36.835  31.478  32.119  1.00  0.00     0.060 A 
ATOM     28  C   UNL A   1      37.945  30.916  32.760  1.00  0.00     0.016 A 
ATOM     29  C   UNL A   1      36.617  31.261  30.755  1.00  0.00     0.016 A 
ATOM     30  C   UNL A   1      38.854  30.149  32.036  1.00  0.00     0.010 A 
ATOM     31  C   UNL A   1      37.558  30.532  30.017  1.00  0.00     0.010 A 
ATOM     32  C   UNL A   1      38.698  30.007  30.652  1.00  0.00    -0.014 A 
BRANCH  32  33
ATOM     33  C   UNL A   1      39.874  29.551  29.875  1.00  0.00     0.031 A 
ATOM     34  C   UNL A   1      40.998  30.533  29.673  1.00  0.00     0.074 A 
ATOM     35  C   UNL A   1      40.003  28.276  29.468  1.00  0.00     0.049 A 
ATOM     36  N   UNL A   1      42.167  30.358  29.114  1.00  0.00    -0.248 NA
ATOM     37  C   UNL A   1      40.774  31.896  30.187  1.00  0.00     0.031 C 
ATOM     38  C   UNL A   1      39.008  27.222  29.653  1.00  0.00     0.029 A 
ATOM     39  N   UNL A   1      41.042  27.652  28.824  1.00  0.00    -0.354 N 
ATOM     40  C   UNL A   1      42.823  31.577  29.229  1.00  0.00     0.074 A 
ATOM     41  C   UNL A   1      41.910  32.497  29.868  1.00  0.00     0.031 C 
ATOM     42  C   UNL A   1      39.485  26.079  29.127  1.00  0.00     0.029 A 
ATOM     43  C   UNL A   1      40.807  26.326  28.555  1.00  0.00     0.049 A 
ATOM     44  H   UNL A   1      41.878  28.112  28.579  1.00  0.00     0.167 HD
ATOM     45  C   UNL A   1      44.082  31.900  28.853  1.00  0.00     0.037 A 
ATOM     46  C   UNL A   1      41.572  25.424  27.910  1.00  0.00     0.037 A 
ATOM     47  C   UNL A   1      44.985  30.992  28.199  1.00  0.00     0.049 A 
ATOM     48  C   UNL A   1      42.939  25.834  27.420  1.00  0.00     0.074 A 
ATOM     49  C   UNL A   1      46.274  31.227  27.754  1.00  0.00     0.029 A 
ATOM     50  N   UNL A   1      44.689  29.673  27.890  1.00  0.00    -0.354 N 
ATOM     51  N   UNL A   1      43.554  26.986  27.544  1.00  0.00    -0.248 NA
ATOM     52  C   UNL A   1      43.722  24.812  26.710  1.00  0.00     0.031 C 
ATOM     53  C   UNL A   1      46.740  30.063  27.134  1.00  0.00     0.029 A 
ATOM     54  C   UNL A   1      45.763  29.087  27.242  1.00  0.00     0.049 A 
ATOM     55  H   UNL A   1      43.840  29.220  28.100  1.00  0.00     0.167 HD
ATOM     56  C   UNL A   1      44.801  26.820  26.951  1.00  0.00     0.074 A 
ATOM     57  C   UNL A   1      44.864  25.447  26.494  1.00  0.00     0.031 C 
ATOM     58  C   UNL A   1      45.804  27.719  26.792  1.00  0.00     0.037 A 
BRANCH  45  59
ATOM     59  C   UNL A   1      44.545  33.300  29.122  1.00  0.00     0.057 A 
ATOM     60  C   UNL A   1      44.342  34.336  28.200  1.00  0.00     0.134 A 
ATOM     61  C   UNL A   1      45.174  33.626  30.330  1.00  0.00     0.134 A 
ATOM     62  F   UNL A   1      43.765  34.086  27.014  1.00  0.00    -0.206 F 
ATOM     63  C   UNL A   1      44.759  35.641  28.465  1.00  0.00     0.040 A 
ATOM     64  C   UNL A   1      45.572  34.931  30.617  1.00  0.00     0.040 A 
ATOM     65  F   UNL A   1      45.403  32.681  31.255  1.00  0.00    -0.206 F 
ATOM     66  C   UNL A   1      45.368  35.944  29.681  1.00  0.00     0.006 A 
ENDBRANCH  45  59
BRANCH  46  67
ATOM     67  C   UNL A   1      41.063  24.050  27.655  1.00  0.00     0.057 A 
ATOM     68  C   UNL A   1      41.591  22.935  28.317  1.00  0.00     0.134 A 
ATOM     69  C   UNL A   1      40.071  23.816  26.694  1.00  0.00     0.134 A 
ATOM     70  F   UNL A   1      42.564  23.087  29.229  1.00  0.00    -0.206 F 
ATOM     71  C   UNL A   1      41.171  21.637  28.014  1.00  0.00     0.040 A 
ATOM     72  C   UNL A   1      39.621  22.527  26.403  1.00  0.00     0.040 A 
ATOM     73  F   UNL A   1      39.526  24.839  26.021  1.00  0.00    -0.206 F 
ATOM     74  C   UNL A   1      40.181  21.432  27.057  1.00  0.00     0.006 A 
ENDBRANCH  46  67
BRANCH  58  75
ATOM     75  C   UNL A   1      47.058  27.235  26.120  1.00  0.00     0.057 A 
ATOM     76  C   UNL A   1      47.244  27.340  24.735  1.00  0.00     0.134 A 
ATOM     77  C   UNL A   1      48.098  26.669  26.869  1.00  0.00     0.134 A 
ATOM     78  F   UNL A   1      46.284  27.864  23.958  1.00  0.00    -0.206 F 
ATOM     79  C   UNL A   1      48.400  26.861  24.116  1.00  0.00     0.040 A 
ATOM     80  C   UNL A   1      49.272  26.216  26.265  1.00  0.00     0.040 A 
ATOM     81  F   UNL A   1      47.993  26.551  28.202  1.00  0.00    -0.206 F 
ATOM     82  C   UNL A   1      49.419  26.301  24.883  1.00  0.00     0.006 A 
ENDBRANCH  58  75
ENDBRANCH  32  33
ENDBRANCH  25  27
ENDBRANCH  24  25
ENDBRANCH  23  24
ENDBRANCH  22  23
ENDBRANCH  21  22
ENDBRANCH  20  21
ENDBRANCH   1  20
TORSDOF 19
ENDMDL
MODEL 2
REMARK VINA RESULT:     -10.1      4.880      9.965
REMARK SMILES O=C(CC[C@]12C[C@H]3C[C@H](C[C@H](C3)C1)C2)OCCOCCOCCOC(=O)c1ccc(-c2c3nc(c(-c4c(F)cccc4F)c4ccc([nH]4)c(-c4c(F)cccc4F)c4nc(c(-c5c(F)cccc5F)c5ccc2[nH]5)C=C4)C=C3)cc1
REMARK SMILES IDX 19 1 18 2 17 3 16 4 15 5 2 6 1 7 3 8 4 9 5 10 6 11 13 12
REMARK SMILES IDX 14 13 7 14 11 15 9 16 8 17 12 18 10 19 20 20 21 21 22 22
REMARK SMILES IDX 23 23 24 24 25 25 26 26 27 27 28 28 80 29 29 30 79 31 30 32
REMARK SMILES IDX 31 33 32 34 73 35 33 36 78 37 72 38 74 39 34 40 77 41 71 42
REMARK SMILES IDX 70 43 35 45 61 46 44 47 60 48 45 49 48 50 59 51 75 52 46 53
REMARK SMILES IDX 47 54 58 56 76 57 49 58 36 59 37 60 42 61 38 62 39 63 41 64
REMARK SMILES IDX 43 65 40 66 62 67 63 68 68 69 64 70 65 71 67 72 69 73 66 74
REMARK SMILES IDX 50 75 51 76 56 77 52 78 53 79 55 80 57 81 54 82
REMARK H PARENT 74 44 48 55
REMARK Flexibility Score: inf
ROOT
ATOM      1  C   UNL A   1      41.017  20.153  26.840  1.00  0.00     0.188 C 
ENDROOT
BRANCH   1   2
ATOM      2  O   UNL A   1      40.427  21.181  27.612  1.00  0.00    -0.376 OA
BRANCH   2   3
ATOM      3  C   UNL A   1      40.088  22.374  26.932  1.00  0.00     0.202 C 
BRANCH   3   4
ATOM      4  C   UNL A   1      38.746  22.427  26.180  1.00  0.00     0.261 C 
BRANCH   4   5
ATOM      5  O   UNL A   1      38.275  21.326  25.342  1.00  0.00    -0.463 OA
BRANCH   5   6
ATOM      6  C   UNL A   1      37.143  20.642  25.107  1.00  0.00     0.305 C 
ATOM      7  O   UNL A   1      37.224  19.444  24.830  1.00  0.00    -0.252 OA
BRANCH   6   8
ATOM      8  C   UNL A   1      35.795  21.314  25.076  1.00  0.00     0.123 C 
BRANCH   8   9
ATOM      9  C   UNL A   1      35.603  22.378  23.966  1.00  0.00     0.019 C 
BRANCH   9  10
ATOM     10  C   UNL A   1      34.579  23.512  24.262  1.00  0.00    -0.028 C 
ATOM     11  C   UNL A   1      35.151  24.654  25.134  1.00  0.00     0.010 C 
ATOM     12  C   UNL A   1      33.407  22.948  25.050  1.00  0.00     0.010 C 
ATOM     13  C   UNL A   1      34.051  24.126  22.941  1.00  0.00     0.010 C 
ATOM     14  C   UNL A   1      34.045  25.699  25.441  1.00  0.00    -0.010 C 
ATOM     15  C   UNL A   1      32.280  23.934  25.307  1.00  0.00    -0.010 C 
ATOM     16  C   UNL A   1      32.955  25.169  23.225  1.00  0.00    -0.010 C 
ATOM     17  C   UNL A   1      33.526  26.283  24.116  1.00  0.00     0.007 C 
ATOM     18  C   UNL A   1      32.859  25.042  26.178  1.00  0.00     0.007 C 
ATOM     19  C   UNL A   1      31.790  24.494  23.963  1.00  0.00     0.007 C 
ENDBRANCH   9  10
ENDBRANCH   8   9
ENDBRANCH   6   8
ENDBRANCH   5   6
ENDBRANCH   4   5
ENDBRANCH   3   4
ENDBRANCH   2   3
ENDBRANCH   1   2
BRANCH   1  20
ATOM     20  C   UNL A   1      42.517  20.278  26.526  1.00  0.00     0.188 C 
BRANCH  20  21
ATOM     21  O   UNL A   1      42.828  21.210  25.500  1.00  0.00    -0.376 OA
BRANCH  21  22
ATOM     22  C   UNL A   1      44.212  21.428  25.235  1.00  0.00     0.202 C 
BRANCH  22  23
ATOM     23  C   UNL A   1      44.589  22.521  24.215  1.00  0.00     0.261 C 
BRANCH  23  24
ATOM     24  O   UNL A   1      43.966  23.803  24.389  1.00  0.00    -0.460 OA
BRANCH  24  25
ATOM     25  C   UNL A   1      44.677  24.756  25.020  1.00  0.00     0.338 C 
ATOM     26  O   UNL A   1      45.835  25.081  24.795  1.00  0.00    -0.246 OA
BRANCH  25  27
ATOM     27  C   UNL A   1      43.766  25.498  25.912  1.00  0.00     0.060 A 
ATOM     28  C   UNL A   1      43.983  26.870  26.085  1.00  0.00     0.016 A 
ATOM     29  C   UNL A   1      42.712  24.857  26.571  1.00  0.00     0.016 A 
ATOM     30  C   UNL A   1      43.158  27.605  26.932  1.00  0.00     0.010 A 
ATOM     31  C   UNL A   1      41.914  25.587  27.461  1.00  0.00     0.010 A 
ATOM     32  C   UNL A   1      42.162  26.955  27.670  1.00  0.00    -0.014 A 
BRANCH  32  33
ATOM     33  C   UNL A   1      41.599  27.673  28.838  1.00  0.00     0.031 A 
ATOM     34  C   UNL A   1      42.326  27.546  30.150  1.00  0.00     0.074 A 
ATOM     35  C   UNL A   1      40.553  28.509  28.717  1.00  0.00     0.049 A 
ATOM     36  N   UNL A   1      42.095  28.141  31.291  1.00  0.00    -0.248 NA
ATOM     37  C   UNL A   1      43.481  26.632  30.170  1.00  0.00     0.031 C 
ATOM     38  C   UNL A   1      39.802  28.757  27.488  1.00  0.00     0.029 A 
ATOM     39  N   UNL A   1      39.954  29.319  29.649  1.00  0.00    -0.354 N 
ATOM     40  C   UNL A   1      43.086  27.691  32.155  1.00  0.00     0.074 A 
ATOM     41  C   UNL A   1      43.894  26.741  31.424  1.00  0.00     0.031 C 
ATOM     42  C   UNL A   1      38.834  29.656  27.745  1.00  0.00     0.029 A 
ATOM     43  C   UNL A   1      38.888  30.031  29.157  1.00  0.00     0.049 A 
ATOM     44  H   UNL A   1      40.259  29.382  30.583  1.00  0.00     0.167 HD
ATOM     45  C   UNL A   1      43.317  28.051  33.439  1.00  0.00     0.037 A 
ATOM     46  C   UNL A   1      38.050  30.880  29.783  1.00  0.00     0.037 A 
ATOM     47  C   UNL A   1      42.504  28.980  34.174  1.00  0.00     0.049 A 
ATOM     48  C   UNL A   1      38.275  31.197  31.241  1.00  0.00     0.074 A 
ATOM     49  C   UNL A   1      42.638  29.394  35.487  1.00  0.00     0.029 A 
ATOM     50  N   UNL A   1      41.397  29.638  33.657  1.00  0.00    -0.354 N 
ATOM     51  N   UNL A   1      39.222  30.776  32.045  1.00  0.00    -0.248 NA
ATOM     52  C   UNL A   1      37.320  32.118  31.874  1.00  0.00     0.031 C 
ATOM     53  C   UNL A   1      41.584  30.266  35.780  1.00  0.00     0.029 A 
ATOM     54  C   UNL A   1      40.827  30.439  34.632  1.00  0.00     0.049 A 
ATOM     55  H   UNL A   1      41.066  29.548  32.734  1.00  0.00     0.167 HD
ATOM     56  C   UNL A   1      38.991  31.396  33.267  1.00  0.00     0.074 A 
ATOM     57  C   UNL A   1      37.831  32.245  33.089  1.00  0.00     0.031 C 
ATOM     58  C   UNL A   1      39.670  31.274  34.435  1.00  0.00     0.037 A 
BRANCH  45  59
ATOM     59  C   UNL A   1      44.486  27.417  34.133  1.00  0.00     0.057 A 
ATOM     60  C   UNL A   1      44.406  26.135  34.692  1.00  0.00     0.134 A 
ATOM     61  C   UNL A   1      45.715  28.083  34.217  1.00  0.00     0.134 A 
ATOM     62  F   UNL A   1      43.251  25.452  34.665  1.00  0.00    -0.206 F 
ATOM     63  C   UNL A   1      45.503  25.543  35.321  1.00  0.00     0.040 A 
ATOM     64  C   UNL A   1      46.825  27.492  34.820  1.00  0.00     0.040 A 
ATOM     65  F   UNL A   1      45.858  29.315  33.705  1.00  0.00    -0.206 F 
ATOM     66  C   UNL A   1      46.720  26.219  35.378  1.00  0.00     0.006 A 
ENDBRANCH  45  59
BRANCH  46  67
ATOM     67  C   UNL A   1      36.897  31.474  29.055  1.00  0.00     0.057 A 
ATOM     68  C   UNL A   1      36.904  32.807  28.625  1.00  0.00     0.134 A 
ATOM     69  C   UNL A   1      35.732  30.732  28.822  1.00  0.00     0.134 A 
ATOM     70  F   UNL A   1      37.978  33.582  28.842  1.00  0.00    -0.206 F 
ATOM     71  C   UNL A   1      35.787  33.387  28.018  1.00  0.00     0.040 A 
ATOM     72  C   UNL A   1      34.620  31.289  28.190  1.00  0.00     0.040 A 
ATOM     73  F   UNL A   1      35.657  29.450  29.211  1.00  0.00    -0.206 F 
ATOM     74  C   UNL A   1      34.642  32.626  27.797  1.00  0.00     0.006 A 
ENDBRANCH  46  67
BRANCH  58  75
ATOM     75  C   UNL A   1      39.189  32.097  35.597  1.00  0.00     0.057 A 
ATOM     76  C   UNL A   1      39.589  33.428  35.778  1.00  0.00     0.134 A 
ATOM     77  C   UNL A   1      38.305  31.556  36.540  1.00  0.00     0.134 A 
ATOM     78  F   UNL A   1      40.440  34.005  34.917  1.00  0.00    -0.206 F 
ATOM     79  C   UNL A   1      39.160  34.176  36.877  1.00  0.00     0.040 A 
ATOM     80  C   UNL A   1      37.844  32.303  37.624  1.00  0.00     0.040 A 
ATOM     81  F   UNL A   1      37.869  30.292  36.419  1.00  0.00    -0.206 F 
ATOM     82  C   UNL A   1      38.282  33.613  37.801  1.00  0.00     0.006 A 
ENDBRANCH  58  75
ENDBRANCH  32  33
ENDBRANCH  25  27
ENDBRANCH  24  25
ENDBRANCH  23  24
ENDBRANCH  22  23
ENDBRANCH  21  22
ENDBRANCH  20  21
ENDBRANCH   1  20
TORSDOF 19
ENDMDL
MODEL 3
REMARK VINA RESULT:     -10.1      0.815      6.250
REMARK SMILES O=C(CC[C@]12C[C@H]3C[C@H](C[C@H](C3)C1)C2)OCCOCCOCCOC(=O)c1ccc(-c2c3nc(c(-c4c(F)cccc4F)c4ccc([nH]4)c(-c4c(F)cccc4F)c4nc(c(-c5c(F)cccc5F)c5ccc2[nH]5)C=C4)C=C3)cc1
REMARK SMILES IDX 19 1 18 2 17 3 16 4 15 5 2 6 1 7 3 8 4 9 5 10 6 11 13 12
REMARK SMILES IDX 14 13 7 14 11 15 9 16 8 17 12 18 10 19 20 20 21 21 22 22
REMARK SMILES IDX 23 23 24 24 25 25 26 26 27 27 28 28 80 29 29 30 79 31 30 32
REMARK SMILES IDX 31 33 32 34 73 35 33 36 78 37 72 38 74 39 34 40 77 41 71 42
REMARK SMILES IDX 70 43 35 45 61 46 44 47 60 48 45 49 48 50 59 51 75 52 46 53
REMARK SMILES IDX 47 54 58 56 76 57 49 58 36 59 37 60 42 61 38 62 39 63 41 64
REMARK SMILES IDX 43 65 40 66 62 67 63 68 68 69 64 70 65 71 67 72 69 73 66 74
REMARK SMILES IDX 50 75 51 76 56 77 52 78 53 79 55 80 57 81 54 82
REMARK H PARENT 74 44 48 55
REMARK Flexibility Score: inf
ROOT
ATOM      1  C   UNL A   1      34.852  32.789  28.283  1.00  0.00     0.188 C 
ENDROOT
BRANCH   1   2
ATOM      2  O   UNL A   1      34.130  31.578  28.391  1.00  0.00    -0.376 OA
BRANCH   2   3
ATOM      3  C   UNL A   1      33.493  31.108  27.219  1.00  0.00     0.202 C 
BRANCH   3   4
ATOM      4  C   UNL A   1      33.451  29.589  26.973  1.00  0.00     0.261 C 
BRANCH   4   5
ATOM      5  O   UNL A   1      34.024  28.973  25.777  1.00  0.00    -0.463 OA
BRANCH   5   6
ATOM      6  C   UNL A   1      33.654  28.144  24.787  1.00  0.00     0.305 C 
ATOM      7  O   UNL A   1      33.674  28.563  23.629  1.00  0.00    -0.252 OA
BRANCH   6   8
ATOM      8  C   UNL A   1      33.127  26.759  25.059  1.00  0.00     0.123 C 
BRANCH   8   9
ATOM      9  C   UNL A   1      34.040  25.853  25.923  1.00  0.00     0.019 C 
BRANCH   9  10
ATOM     10  C   UNL A   1      34.462  24.493  25.296  1.00  0.00    -0.028 C 
ATOM     11  C   UNL A   1      35.916  24.082  25.624  1.00  0.00     0.010 C 
ATOM     12  C   UNL A   1      34.399  24.589  23.779  1.00  0.00     0.010 C 
ATOM     13  C   UNL A   1      33.518  23.360  25.770  1.00  0.00     0.010 C 
ATOM     14  C   UNL A   1      36.274  22.757  24.898  1.00  0.00    -0.010 C 
ATOM     15  C   UNL A   1      34.682  23.289  23.047  1.00  0.00    -0.010 C 
ATOM     16  C   UNL A   1      33.860  22.035  25.064  1.00  0.00    -0.010 C 
ATOM     17  C   UNL A   1      35.315  21.651  25.372  1.00  0.00     0.007 C 
ATOM     18  C   UNL A   1      36.121  22.909  23.371  1.00  0.00     0.007 C 
ATOM     19  C   UNL A   1      33.705  22.213  23.547  1.00  0.00     0.007 C 
ENDBRANCH   9  10
ENDBRANCH   8   9
ENDBRANCH   6   8
ENDBRANCH   5   6
ENDBRANCH   4   5
ENDBRANCH   3   4
ENDBRANCH   2   3
ENDBRANCH   1   2
BRANCH   1  20
ATOM     20  C   UNL A   1      34.090  34.094  28.566  1.00  0.00     0.188 C 
BRANCH  20  21
ATOM     21  O   UNL A   1      33.579  34.202  29.888  1.00  0.00    -0.376 OA
BRANCH  21  22
ATOM     22  C   UNL A   1      34.538  34.223  30.943  1.00  0.00     0.202 C 
BRANCH  22  23
ATOM     23  C   UNL A   1      34.353  33.229  32.106  1.00  0.00     0.261 C 
BRANCH  23  24
ATOM     24  O   UNL A   1      35.110  32.011  32.036  1.00  0.00    -0.460 OA
BRANCH  24  25
ATOM     25  C   UNL A   1      36.227  31.933  32.783  1.00  0.00     0.338 C 
ATOM     26  O   UNL A   1      36.345  32.233  33.964  1.00  0.00    -0.246 OA
BRANCH  25  27
ATOM     27  C   UNL A   1      37.260  31.231  31.999  1.00  0.00     0.060 A 
ATOM     28  C   UNL A   1      38.258  30.536  32.692  1.00  0.00     0.016 A 
ATOM     29  C   UNL A   1      37.252  31.253  30.601  1.00  0.00     0.016 A 
ATOM     30  C   UNL A   1      39.263  29.875  31.992  1.00  0.00     0.010 A 
ATOM     31  C   UNL A   1      38.290  30.630  29.898  1.00  0.00     0.010 A 
ATOM     32  C   UNL A   1      39.319  29.972  30.596  1.00  0.00    -0.014 A 
BRANCH  32  33
ATOM     33  C   UNL A   1      40.597  29.619  29.937  1.00  0.00     0.031 A 
ATOM     34  C   UNL A   1      40.729  28.230  29.371  1.00  0.00     0.074 A 
ATOM     35  C   UNL A   1      41.563  30.532  29.732  1.00  0.00     0.049 A 
ATOM     36  N   UNL A   1      41.700  27.704  28.672  1.00  0.00    -0.248 NA
ATOM     37  C   UNL A   1      39.601  27.315  29.619  1.00  0.00     0.031 C 
ATOM     38  C   UNL A   1      41.527  31.921  30.183  1.00  0.00     0.029 A 
ATOM     39  N   UNL A   1      42.761  30.421  29.071  1.00  0.00    -0.354 N 
ATOM     40  C   UNL A   1      41.291  26.408  28.378  1.00  0.00     0.074 A 
ATOM     41  C   UNL A   1      40.007  26.211  29.011  1.00  0.00     0.031 C 
ATOM     42  C   UNL A   1      42.659  32.534  29.790  1.00  0.00     0.029 A 
ATOM     43  C   UNL A   1      43.503  31.577  29.078  1.00  0.00     0.049 A 
ATOM     44  H   UNL A   1      43.060  29.591  28.635  1.00  0.00     0.167 HD
ATOM     45  C   UNL A   1      41.919  25.471  27.632  1.00  0.00     0.037 A 
ATOM     46  C   UNL A   1      44.728  31.823  28.573  1.00  0.00     0.037 A 
ATOM     47  C   UNL A   1      43.206  25.659  27.019  1.00  0.00     0.049 A 
ATOM     48  C   UNL A   1      45.447  30.731  27.820  1.00  0.00     0.074 A 
ATOM     49  C   UNL A   1      43.941  24.763  26.263  1.00  0.00     0.029 A 
ATOM     50  N   UNL A   1      43.953  26.825  27.097  1.00  0.00    -0.354 N 
ATOM     51  N   UNL A   1      45.046  29.514  27.538  1.00  0.00    -0.248 NA
ATOM     52  C   UNL A   1      46.786  31.053  27.305  1.00  0.00     0.031 C 
ATOM     53  C   UNL A   1      45.153  25.371  25.923  1.00  0.00     0.029 A 
ATOM     54  C   UNL A   1      45.150  26.665  26.420  1.00  0.00     0.049 A 
ATOM     55  H   UNL A   1      43.673  27.645  27.565  1.00  0.00     0.167 HD
ATOM     56  C   UNL A   1      46.070  28.936  26.796  1.00  0.00     0.074 A 
ATOM     57  C   UNL A   1      47.097  29.947  26.647  1.00  0.00     0.031 C 
ATOM     58  C   UNL A   1      46.160  27.683  26.286  1.00  0.00     0.037 A 
BRANCH  45  59
ATOM     59  C   UNL A   1      41.229  24.151  27.460  1.00  0.00     0.057 A 
ATOM     60  C   UNL A   1      40.158  23.988  26.571  1.00  0.00     0.134 A 
ATOM     61  C   UNL A   1      41.659  23.021  28.167  1.00  0.00     0.134 A 
ATOM     62  F   UNL A   1      39.684  25.035  25.879  1.00  0.00    -0.206 F 
ATOM     63  C   UNL A   1      39.532  22.752  26.402  1.00  0.00     0.040 A 
ATOM     64  C   UNL A   1      41.058  21.775  27.988  1.00  0.00     0.040 A 
ATOM     65  F   UNL A   1      42.677  23.109  29.038  1.00  0.00    -0.206 F 
ATOM     66  C   UNL A   1      39.988  21.639  27.105  1.00  0.00     0.006 A 
ENDBRANCH  45  59
BRANCH  46  67
ATOM     67  C   UNL A   1      45.376  33.145  28.781  1.00  0.00     0.057 A 
ATOM     68  C   UNL A   1      46.191  33.400  29.891  1.00  0.00     0.134 A 
ATOM     69  C   UNL A   1      45.146  34.208  27.898  1.00  0.00     0.134 A 
ATOM     70  F   UNL A   1      46.429  32.433  30.791  1.00  0.00    -0.206 F 
ATOM     71  C   UNL A   1      46.729  34.667  30.130  1.00  0.00     0.040 A 
ATOM     72  C   UNL A   1      45.701  35.470  28.108  1.00  0.00     0.040 A 
ATOM     73  F   UNL A   1      44.372  34.033  26.816  1.00  0.00    -0.206 F 
ATOM     74  C   UNL A   1      46.486  35.705  29.234  1.00  0.00     0.006 A 
ENDBRANCH  46  67
BRANCH  58  75
ATOM     75  C   UNL A   1      47.397  27.349  25.501  1.00  0.00     0.057 A 
ATOM     76  C   UNL A   1      47.497  27.613  24.128  1.00  0.00     0.134 A 
ATOM     77  C   UNL A   1      48.507  26.767  26.128  1.00  0.00     0.134 A 
ATOM     78  F   UNL A   1      46.469  28.161  23.465  1.00  0.00    -0.206 F 
ATOM     79  C   UNL A   1      48.639  27.272  23.401  1.00  0.00     0.040 A 
ATOM     80  C   UNL A   1      49.666  26.451  25.418  1.00  0.00     0.040 A 
ATOM     81  F   UNL A   1      48.485  26.500  27.444  1.00  0.00    -0.206 F 
ATOM     82  C   UNL A   1      49.729  26.693  24.048  1.00  0.00     0.006 A 
ENDBRANCH  58  75
ENDBRANCH  32  33
ENDBRANCH  25  27
ENDBRANCH  24  25
ENDBRANCH  23  24
ENDBRANCH  22  23
ENDBRANCH  21  22
ENDBRANCH  20  21
ENDBRANCH   1  20
TORSDOF 19
ENDMDL
