MODEL 1
REMARK VINA RESULT:     -10.4      0.000      0.000
REMARK SMILES C[C@H]1CCC[C@@H]([NH2+]Cc2ccc(C(=O)OCCOCCOCCOC(=O)c3ccc(-c4c5nc(c(-c6c(F)cccc6F)c6ccc([nH]6)c(-c6c(F)cccc6F)c6nc(c(-c7c(F)cccc7F)c7ccc4[nH]7)C=C6)C=C5)cc3)cn2)C1
REMARK SMILES IDX 19 1 18 2 17 3 16 4 15 5 13 6 14 7 12 8 9 9 10 10 82 11
REMARK SMILES IDX 11 12 81 13 8 14 7 15 6 18 1 19 2 20 3 21 83 22 4 23 5 24
REMARK SMILES IDX 20 25 21 26 22 27 23 28 24 29 25 30 26 31 27 32 28 33 80 34
REMARK SMILES IDX 29 35 79 36 30 37 31 38 32 39 73 40 33 41 78 42 72 43 74 44
REMARK SMILES IDX 34 45 77 46 71 47 70 48 35 50 61 51 44 52 60 53 45 54 48 55
REMARK SMILES IDX 59 56 75 57 46 58 47 59 58 61 76 62 49 63 36 64 37 65 42 66
REMARK SMILES IDX 38 67 39 68 41 69 43 70 40 71 62 72 63 73 68 74 64 75 65 76
REMARK SMILES IDX 67 77 69 78 66 79 50 80 51 81 56 82 52 83 53 84 55 85 57 86
REMARK SMILES IDX 54 87
REMARK H PARENT 7 16 7 17 74 49 48 60
REMARK Flexibility Score: inf
ROOT
ATOM      1  C   UNL A   1      45.198  18.923  24.783  1.00  0.00     0.188 C 
ENDROOT
BRANCH   1   2
ATOM      2  O   UNL A   1      43.799  19.070  24.630  1.00  0.00    -0.376 OA
BRANCH   2   3
ATOM      3  C   UNL A   1      42.945  19.099  25.765  1.00  0.00     0.202 C 
BRANCH   3   4
ATOM      4  C   UNL A   1      42.500  20.406  26.441  1.00  0.00     0.261 C 
BRANCH   4   5
ATOM      5  O   UNL A   1      41.263  20.959  25.979  1.00  0.00    -0.460 OA
BRANCH   5   6
ATOM      6  C   UNL A   1      40.471  21.495  26.942  1.00  0.00     0.339 C 
ATOM      7  O   UNL A   1      40.750  21.646  28.118  1.00  0.00    -0.246 OA
BRANCH   6   8
ATOM      8  C   UNL A   1      39.260  22.069  26.333  1.00  0.00     0.078 A 
ATOM      9  C   UNL A   1      37.020  23.327  25.346  1.00  0.00     0.094 A 
ATOM     10  C   UNL A   1      37.349  22.048  24.884  1.00  0.00     0.031 A 
ATOM     11  N   UNL A   1      37.821  24.009  26.204  1.00  0.00    -0.254 NA
ATOM     12  C   UNL A   1      38.479  21.406  25.391  1.00  0.00     0.019 A 
ATOM     13  C   UNL A   1      38.909  23.363  26.686  1.00  0.00     0.127 A 
BRANCH   9  14
ATOM     14  C   UNL A   1      35.692  23.975  24.972  1.00  0.00     0.318 C 
BRANCH  14  15
ATOM     15  N   UNL A   1      34.645  23.598  25.928  1.00  0.00    -0.339 N 
ATOM     16  H   UNL A   1      35.063  22.976  26.619  1.00  0.00     0.346 HD
ATOM     17  H   UNL A   1      34.296  24.476  26.314  1.00  0.00     0.346 HD
BRANCH  15  18
ATOM     18  C   UNL A   1      33.477  22.921  25.364  1.00  0.00     0.182 C 
ATOM     19  C   UNL A   1      30.648  24.620  23.289  1.00  0.00     0.008 C 
ATOM     20  C   UNL A   1      31.397  23.482  23.981  1.00  0.00    -0.008 C 
ATOM     21  C   UNL A   1      31.787  22.396  22.973  1.00  0.00     0.004 C 
ATOM     22  C   UNL A   1      32.636  24.027  24.697  1.00  0.00     0.068 C 
ATOM     23  C   UNL A   1      32.605  21.290  23.633  1.00  0.00     0.006 C 
ATOM     24  C   UNL A   1      33.844  21.841  24.335  1.00  0.00     0.065 C 
ENDBRANCH  15  18
ENDBRANCH  14  15
ENDBRANCH   9  14
ENDBRANCH   6   8
ENDBRANCH   5   6
ENDBRANCH   4   5
ENDBRANCH   3   4
ENDBRANCH   2   3
ENDBRANCH   1   2
BRANCH   1  25
ATOM     25  C   UNL A   1      46.130  20.147  24.670  1.00  0.00     0.188 C 
BRANCH  25  26
ATOM     26  O   UNL A   1      45.533  21.375  24.333  1.00  0.00    -0.376 OA
BRANCH  26  27
ATOM     27  C   UNL A   1      46.302  22.566  24.325  1.00  0.00     0.202 C 
BRANCH  27  28
ATOM     28  C   UNL A   1      46.001  23.858  25.115  1.00  0.00     0.261 C 
BRANCH  28  29
ATOM     29  O   UNL A   1      44.923  24.693  24.686  1.00  0.00    -0.460 OA
BRANCH  29  30
ATOM     30  C   UNL A   1      43.695  24.355  25.151  1.00  0.00     0.338 C 
ATOM     31  O   UNL A   1      42.970  23.464  24.752  1.00  0.00    -0.246 OA
BRANCH  30  32
ATOM     32  C   UNL A   1      43.422  25.138  26.372  1.00  0.00     0.060 A 
ATOM     33  C   UNL A   1      42.492  24.643  27.297  1.00  0.00     0.016 A 
ATOM     34  C   UNL A   1      44.046  26.368  26.579  1.00  0.00     0.016 A 
ATOM     35  C   UNL A   1      42.169  25.391  28.429  1.00  0.00     0.010 A 
ATOM     36  C   UNL A   1      43.703  27.126  27.702  1.00  0.00     0.010 A 
ATOM     37  C   UNL A   1      42.742  26.655  28.616  1.00  0.00    -0.014 A 
BRANCH  37  38
ATOM     38  C   UNL A   1      42.211  27.561  29.664  1.00  0.00     0.031 A 
ATOM     39  C   UNL A   1      42.877  27.569  31.013  1.00  0.00     0.074 A 
ATOM     40  C   UNL A   1      41.163  28.368  29.426  1.00  0.00     0.049 A 
ATOM     41  N   UNL A   1      42.549  28.217  32.100  1.00  0.00    -0.248 NA
ATOM     42  C   UNL A   1      44.073  26.722  31.153  1.00  0.00     0.031 C 
ATOM     43  C   UNL A   1      40.459  28.488  28.152  1.00  0.00     0.029 A 
ATOM     44  N   UNL A   1      40.501  29.232  30.262  1.00  0.00    -0.354 N 
ATOM     45  C   UNL A   1      43.490  27.851  33.055  1.00  0.00     0.074 A 
ATOM     46  C   UNL A   1      44.380  26.899  32.429  1.00  0.00     0.031 C 
ATOM     47  C   UNL A   1      39.451  29.366  28.295  1.00  0.00     0.029 A 
ATOM     48  C   UNL A   1      39.416  29.840  29.677  1.00  0.00     0.049 A 
ATOM     49  H   UNL A   1      40.776  29.402  31.193  1.00  0.00     0.167 HD
ATOM     50  C   UNL A   1      43.605  28.274  34.336  1.00  0.00     0.037 A 
ATOM     51  C   UNL A   1      38.490  30.662  30.207  1.00  0.00     0.037 A 
ATOM     52  C   UNL A   1      42.712  29.217  34.959  1.00  0.00     0.049 A 
ATOM     53  C   UNL A   1      38.589  31.056  31.658  1.00  0.00     0.074 A 
ATOM     54  C   UNL A   1      42.756  29.722  36.247  1.00  0.00     0.029 A 
ATOM     55  N   UNL A   1      41.608  29.787  34.343  1.00  0.00    -0.354 N 
ATOM     56  N   UNL A   1      39.495  30.725  32.548  1.00  0.00    -0.248 NA
ATOM     57  C   UNL A   1      37.537  31.941  32.179  1.00  0.00     0.031 C 
ATOM     58  C   UNL A   1      41.643  30.549  36.429  1.00  0.00     0.029 A 
ATOM     59  C   UNL A   1      40.944  30.615  35.234  1.00  0.00     0.049 A 
ATOM     60  H   UNL A   1      41.337  29.627  33.410  1.00  0.00     0.167 HD
ATOM     61  C   UNL A   1      39.143  31.388  33.719  1.00  0.00     0.074 A 
ATOM     62  C   UNL A   1      37.946  32.147  33.423  1.00  0.00     0.031 C 
ATOM     63  C   UNL A   1      39.757  31.373  34.927  1.00  0.00     0.037 A 
BRANCH  50  64
ATOM     64  C   UNL A   1      44.717  27.692  35.157  1.00  0.00     0.057 A 
ATOM     65  C   UNL A   1      44.601  26.450  35.796  1.00  0.00     0.134 A 
ATOM     66  C   UNL A   1      45.932  28.375  35.298  1.00  0.00     0.134 A 
ATOM     67  F   UNL A   1      43.459  25.749  35.716  1.00  0.00    -0.206 F 
ATOM     68  C   UNL A   1      45.640  25.923  36.567  1.00  0.00     0.040 A 
ATOM     69  C   UNL A   1      46.989  27.845  36.039  1.00  0.00     0.040 A 
ATOM     70  F   UNL A   1      46.116  29.567  34.709  1.00  0.00    -0.206 F 
ATOM     71  C   UNL A   1      46.841  26.619  36.684  1.00  0.00     0.006 A 
ENDBRANCH  50  64
BRANCH  51  72
ATOM     72  C   UNL A   1      37.371  31.162  29.366  1.00  0.00     0.057 A 
ATOM     73  C   UNL A   1      37.389  32.453  28.825  1.00  0.00     0.134 A 
ATOM     74  C   UNL A   1      36.244  30.371  29.106  1.00  0.00     0.134 A 
ATOM     75  F   UNL A   1      38.426  33.269  29.061  1.00  0.00    -0.206 F 
ATOM     76  C   UNL A   1      36.322  32.945  28.071  1.00  0.00     0.040 A 
ATOM     77  C   UNL A   1      35.183  30.841  28.330  1.00  0.00     0.040 A 
ATOM     78  F   UNL A   1      36.162  29.126  29.598  1.00  0.00    -0.206 F 
ATOM     79  C   UNL A   1      35.217  32.135  27.816  1.00  0.00     0.006 A 
ENDBRANCH  51  72
BRANCH  63  80
ATOM     80  C   UNL A   1      39.178  32.237  36.012  1.00  0.00     0.057 A 
ATOM     81  C   UNL A   1      39.536  33.582  36.167  1.00  0.00     0.134 A 
ATOM     82  C   UNL A   1      38.212  31.724  36.888  1.00  0.00     0.134 A 
ATOM     83  F   UNL A   1      40.463  34.135  35.370  1.00  0.00    -0.206 F 
ATOM     84  C   UNL A   1      38.976  34.377  37.169  1.00  0.00     0.040 A 
ATOM     85  C   UNL A   1      37.620  32.517  37.873  1.00  0.00     0.040 A 
ATOM     86  F   UNL A   1      37.811  30.447  36.790  1.00  0.00    -0.206 F 
ATOM     87  C   UNL A   1      38.009  33.846  38.021  1.00  0.00     0.006 A 
ENDBRANCH  63  80
ENDBRANCH  37  38
ENDBRANCH  30  32
ENDBRANCH  29  30
ENDBRANCH  28  29
ENDBRANCH  27  28
ENDBRANCH  26  27
ENDBRANCH  25  26
ENDBRANCH   1  25
TORSDOF 20
ENDMDL
MODEL 2
REMARK VINA RESULT:     -10.2      4.191      9.036
REMARK SMILES C[C@H]1CCC[C@@H]([NH2+]Cc2ccc(C(=O)OCCOCCOCCOC(=O)c3ccc(-c4c5nc(c(-c6c(F)cccc6F)c6ccc([nH]6)c(-c6c(F)cccc6F)c6nc(c(-c7c(F)cccc7F)c7ccc4[nH]7)C=C6)C=C5)cc3)cn2)C1
REMARK SMILES IDX 19 1 18 2 17 3 16 4 15 5 13 6 14 7 12 8 9 9 10 10 82 11
REMARK SMILES IDX 11 12 81 13 8 14 7 15 6 18 1 19 2 20 3 21 83 22 4 23 5 24
REMARK SMILES IDX 20 25 21 26 22 27 23 28 24 29 25 30 26 31 27 32 28 33 80 34
REMARK SMILES IDX 29 35 79 36 30 37 31 38 32 39 73 40 33 41 78 42 72 43 74 44
REMARK SMILES IDX 34 45 77 46 71 47 70 48 35 50 61 51 44 52 60 53 45 54 48 55
REMARK SMILES IDX 59 56 75 57 46 58 47 59 58 61 76 62 49 63 36 64 37 65 42 66
REMARK SMILES IDX 38 67 39 68 41 69 43 70 40 71 62 72 63 73 68 74 64 75 65 76
REMARK SMILES IDX 67 77 69 78 66 79 50 80 51 81 56 82 52 83 53 84 55 85 57 86
REMARK SMILES IDX 54 87
REMARK H PARENT 7 16 7 17 74 49 48 60
REMARK Flexibility Score: inf
ROOT
ATOM      1  C   UNL A   1      31.818  29.167  24.427  1.00  0.00     0.188 C 
ENDROOT
BRANCH   1   2
ATOM      2  O   UNL A   1      33.221  29.143  24.244  1.00  0.00    -0.376 OA
BRANCH   2   3
ATOM      3  C   UNL A   1      33.781  28.948  22.953  1.00  0.00     0.202 C 
BRANCH   3   4
ATOM      4  C   UNL A   1      33.852  27.569  22.274  1.00  0.00     0.261 C 
BRANCH   4   5
ATOM      5  O   UNL A   1      32.594  26.934  22.017  1.00  0.00    -0.460 OA
BRANCH   5   6
ATOM      6  C   UNL A   1      32.668  25.732  21.394  1.00  0.00     0.339 C 
ATOM      7  O   UNL A   1      33.032  25.522  20.250  1.00  0.00    -0.246 OA
BRANCH   6   8
ATOM      8  C   UNL A   1      32.431  24.649  22.362  1.00  0.00     0.078 A 
ATOM      9  C   UNL A   1      32.199  22.533  24.107  1.00  0.00     0.094 A 
ATOM     10  C   UNL A   1      31.130  23.425  23.962  1.00  0.00     0.031 A 
ATOM     11  N   UNL A   1      33.387  22.728  23.480  1.00  0.00    -0.254 NA
ATOM     12  C   UNL A   1      31.244  24.491  23.071  1.00  0.00     0.019 A 
ATOM     13  C   UNL A   1      33.471  23.767  22.615  1.00  0.00     0.127 A 
BRANCH   9  14
ATOM     14  C   UNL A   1      32.041  21.248  24.912  1.00  0.00     0.318 C 
BRANCH  14  15
ATOM     15  N   UNL A   1      33.342  20.603  25.116  1.00  0.00    -0.339 N 
ATOM     16  H   UNL A   1      34.064  21.318  25.023  1.00  0.00     0.346 HD
ATOM     17  H   UNL A   1      33.296  20.176  26.042  1.00  0.00     0.346 HD
BRANCH  15  18
ATOM     18  C   UNL A   1      33.669  19.515  24.194  1.00  0.00     0.182 C 
ATOM     19  C   UNL A   1      35.112  16.037  25.203  1.00  0.00     0.008 C 
ATOM     20  C   UNL A   1      34.593  17.129  24.268  1.00  0.00    -0.008 C 
ATOM     21  C   UNL A   1      33.367  16.640  23.491  1.00  0.00     0.004 C 
ATOM     22  C   UNL A   1      34.261  18.392  25.068  1.00  0.00     0.068 C 
ATOM     23  C   UNL A   1      32.788  17.744  22.611  1.00  0.00     0.006 C 
ATOM     24  C   UNL A   1      32.449  18.996  23.418  1.00  0.00     0.065 C 
ENDBRANCH  15  18
ENDBRANCH  14  15
ENDBRANCH   9  14
ENDBRANCH   6   8
ENDBRANCH   5   6
ENDBRANCH   4   5
ENDBRANCH   3   4
ENDBRANCH   2   3
ENDBRANCH   1   2
BRANCH   1  25
ATOM     25  C   UNL A   1      31.153  30.309  25.221  1.00  0.00     0.188 C 
BRANCH  25  26
ATOM     26  O   UNL A   1      31.893  30.866  26.279  1.00  0.00    -0.376 OA
BRANCH  26  27
ATOM     27  C   UNL A   1      31.462  32.066  26.900  1.00  0.00     0.202 C 
BRANCH  27  28
ATOM     28  C   UNL A   1      32.256  33.387  26.993  1.00  0.00     0.261 C 
BRANCH  28  29
ATOM     29  O   UNL A   1      32.307  34.075  28.245  1.00  0.00    -0.460 OA
BRANCH  29  30
ATOM     30  C   UNL A   1      33.428  34.803  28.471  1.00  0.00     0.338 C 
ATOM     31  O   UNL A   1      33.525  36.013  28.540  1.00  0.00    -0.246 OA
BRANCH  30  32
ATOM     32  C   UNL A   1      34.530  33.880  28.807  1.00  0.00     0.060 A 
ATOM     33  C   UNL A   1      34.226  32.669  29.442  1.00  0.00     0.016 A 
ATOM     34  C   UNL A   1      35.852  34.229  28.534  1.00  0.00     0.016 A 
ATOM     35  C   UNL A   1      35.252  31.805  29.825  1.00  0.00     0.010 A 
ATOM     36  C   UNL A   1      36.881  33.373  28.940  1.00  0.00     0.010 A 
ATOM     37  C   UNL A   1      36.587  32.172  29.613  1.00  0.00    -0.014 A 
BRANCH  37  38
ATOM     38  C   UNL A   1      37.678  31.394  30.248  1.00  0.00     0.031 A 
ATOM     39  C   UNL A   1      37.993  31.647  31.697  1.00  0.00     0.074 A 
ATOM     40  C   UNL A   1      38.376  30.475  29.558  1.00  0.00     0.049 A 
ATOM     41  N   UNL A   1      38.943  31.146  32.443  1.00  0.00    -0.248 NA
ATOM     42  C   UNL A   1      37.118  32.603  32.395  1.00  0.00     0.031 C 
ATOM     43  C   UNL A   1      38.141  30.104  28.165  1.00  0.00     0.029 A 
ATOM     44  N   UNL A   1      39.437  29.694  29.943  1.00  0.00    -0.354 N 
ATOM     45  C   UNL A   1      38.786  31.730  33.694  1.00  0.00     0.074 A 
ATOM     46  C   UNL A   1      37.673  32.648  33.597  1.00  0.00     0.031 C 
ATOM     47  C   UNL A   1      39.044  29.176  27.805  1.00  0.00     0.029 A 
ATOM     48  C   UNL A   1      39.942  28.916  28.930  1.00  0.00     0.049 A 
ATOM     49  H   UNL A   1      39.803  29.692  30.858  1.00  0.00     0.167 HD
ATOM     50  C   UNL A   1      39.502  31.517  34.824  1.00  0.00     0.037 A 
ATOM     51  C   UNL A   1      41.020  28.107  28.908  1.00  0.00     0.037 A 
ATOM     52  C   UNL A   1      40.615  30.608  34.916  1.00  0.00     0.049 A 
ATOM     53  C   UNL A   1      41.853  27.948  30.155  1.00  0.00     0.074 A 
ATOM     54  C   UNL A   1      41.394  30.309  36.021  1.00  0.00     0.029 A 
ATOM     55  N   UNL A   1      41.115  29.860  33.860  1.00  0.00    -0.354 N 
ATOM     56  N   UNL A   1      41.685  28.485  31.340  1.00  0.00    -0.248 NA
ATOM     57  C   UNL A   1      43.025  27.066  30.061  1.00  0.00     0.031 C 
ATOM     58  C   UNL A   1      42.402  29.428  35.618  1.00  0.00     0.029 A 
ATOM     59  C   UNL A   1      42.211  29.123  34.280  1.00  0.00     0.049 A 
ATOM     60  H   UNL A   1      40.745  29.853  32.948  1.00  0.00     0.167 HD
ATOM     61  C   UNL A   1      42.705  27.980  32.138  1.00  0.00     0.074 A 
ATOM     62  C   UNL A   1      43.482  27.086  31.305  1.00  0.00     0.031 C 
ATOM     63  C   UNL A   1      42.972  28.230  33.443  1.00  0.00     0.037 A 
BRANCH  50  64
ATOM     64  C   UNL A   1      39.123  32.309  36.040  1.00  0.00     0.057 A 
ATOM     65  C   UNL A   1      38.261  31.802  37.022  1.00  0.00     0.134 A 
ATOM     66  C   UNL A   1      39.642  33.595  36.243  1.00  0.00     0.134 A 
ATOM     67  F   UNL A   1      37.716  30.584  36.883  1.00  0.00    -0.206 F 
ATOM     68  C   UNL A   1      37.907  32.554  38.144  1.00  0.00     0.040 A 
ATOM     69  C   UNL A   1      39.321  34.344  37.376  1.00  0.00     0.040 A 
ATOM     70  F   UNL A   1      40.478  34.142  35.347  1.00  0.00    -0.206 F 
ATOM     71  C   UNL A   1      38.444  33.827  38.326  1.00  0.00     0.006 A 
ENDBRANCH  50  64
BRANCH  51  72
ATOM     72  C   UNL A   1      41.390  27.394  27.659  1.00  0.00     0.057 A 
ATOM     73  C   UNL A   1      42.169  28.010  26.673  1.00  0.00     0.134 A 
ATOM     74  C   UNL A   1      40.951  26.087  27.408  1.00  0.00     0.134 A 
ATOM     75  F   UNL A   1      42.595  29.270  26.841  1.00  0.00    -0.206 F 
ATOM     76  C   UNL A   1      42.483  27.362  25.477  1.00  0.00     0.040 A 
ATOM     77  C   UNL A   1      41.282  25.416  26.229  1.00  0.00     0.040 A 
ATOM     78  F   UNL A   1      40.198  25.440  28.311  1.00  0.00    -0.206 F 
ATOM     79  C   UNL A   1      42.044  26.058  25.256  1.00  0.00     0.006 A 
ENDBRANCH  51  72
BRANCH  63  80
ATOM     80  C   UNL A   1      44.123  27.494  34.071  1.00  0.00     0.057 A 
ATOM     81  C   UNL A   1      43.977  26.222  34.639  1.00  0.00     0.134 A 
ATOM     82  C   UNL A   1      45.410  28.051  34.065  1.00  0.00     0.134 A 
ATOM     83  F   UNL A   1      42.772  25.634  34.688  1.00  0.00    -0.206 F 
ATOM     84  C   UNL A   1      45.060  25.543  35.202  1.00  0.00     0.040 A 
ATOM     85  C   UNL A   1      46.506  27.369  34.595  1.00  0.00     0.040 A 
ATOM     86  F   UNL A   1      45.627  29.261  33.526  1.00  0.00    -0.206 F 
ATOM     87  C   UNL A   1      46.331  26.115  35.173  1.00  0.00     0.006 A 
ENDBRANCH  63  80
ENDBRANCH  37  38
ENDBRANCH  30  32
ENDBRANCH  29  30
ENDBRANCH  28  29
ENDBRANCH  27  28
ENDBRANCH  26  27
ENDBRANCH  25  26
ENDBRANCH   1  25
TORSDOF 20
ENDMDL
MODEL 3
REMARK VINA RESULT:     -10.1      2.035      3.652
REMARK SMILES C[C@H]1CCC[C@@H]([NH2+]Cc2ccc(C(=O)OCCOCCOCCOC(=O)c3ccc(-c4c5nc(c(-c6c(F)cccc6F)c6ccc([nH]6)c(-c6c(F)cccc6F)c6nc(c(-c7c(F)cccc7F)c7ccc4[nH]7)C=C6)C=C5)cc3)cn2)C1
REMARK SMILES IDX 19 1 18 2 17 3 16 4 15 5 13 6 14 7 12 8 9 9 10 10 82 11
REMARK SMILES IDX 11 12 81 13 8 14 7 15 6 18 1 19 2 20 3 21 83 22 4 23 5 24
REMARK SMILES IDX 20 25 21 26 22 27 23 28 24 29 25 30 26 31 27 32 28 33 80 34
REMARK SMILES IDX 29 35 79 36 30 37 31 38 32 39 73 40 33 41 78 42 72 43 74 44
REMARK SMILES IDX 34 45 77 46 71 47 70 48 35 50 61 51 44 52 60 53 45 54 48 55
REMARK SMILES IDX 59 56 75 57 46 58 47 59 58 61 76 62 49 63 36 64 37 65 42 66
REMARK SMILES IDX 38 67 39 68 41 69 43 70 40 71 62 72 63 73 68 74 64 75 65 76
REMARK SMILES IDX 67 77 69 78 66 79 50 80 51 81 56 82 52 83 53 84 55 85 57 86
REMARK SMILES IDX 54 87
REMARK H PARENT 7 16 7 17 74 49 48 60
REMARK Flexibility Score: inf
ROOT
ATOM      1  C   UNL A   1      39.684  21.400  26.368  1.00  0.00     0.188 C 
ENDROOT
BRANCH   1   2
ATOM      2  O   UNL A   1      38.676  21.458  25.376  1.00  0.00    -0.376 OA
BRANCH   2   3
ATOM      3  C   UNL A   1      37.386  21.967  25.683  1.00  0.00     0.202 C 
BRANCH   3   4
ATOM      4  C   UNL A   1      36.098  21.148  25.489  1.00  0.00     0.261 C 
BRANCH   4   5
ATOM      5  O   UNL A   1      34.885  21.904  25.399  1.00  0.00    -0.460 OA
BRANCH   5   6
ATOM      6  C   UNL A   1      34.185  22.016  26.556  1.00  0.00     0.339 C 
ATOM      7  O   UNL A   1      34.416  21.448  27.609  1.00  0.00    -0.246 OA
BRANCH   6   8
ATOM      8  C   UNL A   1      33.189  23.093  26.437  1.00  0.00     0.078 A 
ATOM      9  C   UNL A   1      31.159  24.941  26.248  1.00  0.00     0.094 A 
ATOM     10  C   UNL A   1      32.479  25.345  26.019  1.00  0.00     0.031 A 
ATOM     11  N   UNL A   1      30.852  23.682  26.650  1.00  0.00    -0.254 NA
ATOM     12  C   UNL A   1      33.507  24.407  26.106  1.00  0.00     0.019 A 
ATOM     13  C   UNL A   1      31.867  22.787  26.721  1.00  0.00     0.127 A 
BRANCH   9  14
ATOM     14  C   UNL A   1      29.994  25.883  25.966  1.00  0.00     0.318 C 
BRANCH  14  15
ATOM     15  N   UNL A   1      29.616  25.828  24.549  1.00  0.00    -0.339 N 
ATOM     16  H   UNL A   1      30.115  25.048  24.123  1.00  0.00     0.346 HD
ATOM     17  H   UNL A   1      28.600  25.729  24.539  1.00  0.00     0.346 HD
BRANCH  15  18
ATOM     18  C   UNL A   1      29.904  27.028  23.763  1.00  0.00     0.182 C 
ATOM     19  C   UNL A   1      27.280  29.662  22.591  1.00  0.00     0.008 C 
ATOM     20  C   UNL A   1      28.660  29.023  22.752  1.00  0.00    -0.008 C 
ATOM     21  C   UNL A   1      29.617  29.974  23.477  1.00  0.00     0.004 C 
ATOM     22  C   UNL A   1      28.540  27.696  23.507  1.00  0.00     0.068 C 
ATOM     23  C   UNL A   1      30.976  29.323  23.716  1.00  0.00     0.006 C 
ATOM     24  C   UNL A   1      30.848  28.005  24.478  1.00  0.00     0.065 C 
ENDBRANCH  15  18
ENDBRANCH  14  15
ENDBRANCH   9  14
ENDBRANCH   6   8
ENDBRANCH   5   6
ENDBRANCH   4   5
ENDBRANCH   3   4
ENDBRANCH   2   3
ENDBRANCH   1   2
BRANCH   1  25
ATOM     25  C   UNL A   1      40.594  20.161  26.486  1.00  0.00     0.188 C 
BRANCH  25  26
ATOM     26  O   UNL A   1      41.907  20.374  26.938  1.00  0.00    -0.376 OA
BRANCH  26  27
ATOM     27  C   UNL A   1      43.000  20.267  26.040  1.00  0.00     0.202 C 
BRANCH  27  28
ATOM     28  C   UNL A   1      43.777  21.436  25.397  1.00  0.00     0.261 C 
BRANCH  28  29
ATOM     29  O   UNL A   1      44.037  22.604  26.179  1.00  0.00    -0.460 OA
BRANCH  29  30
ATOM     30  C   UNL A   1      43.959  23.785  25.518  1.00  0.00     0.338 C 
ATOM     31  O   UNL A   1      44.247  24.005  24.357  1.00  0.00    -0.246 OA
BRANCH  30  32
ATOM     32  C   UNL A   1      43.286  24.769  26.388  1.00  0.00     0.060 A 
ATOM     33  C   UNL A   1      43.787  26.077  26.441  1.00  0.00     0.016 A 
ATOM     34  C   UNL A   1      42.198  24.391  27.173  1.00  0.00     0.016 A 
ATOM     35  C   UNL A   1      43.209  27.011  27.301  1.00  0.00     0.010 A 
ATOM     36  C   UNL A   1      41.634  25.322  28.051  1.00  0.00     0.010 A 
ATOM     37  C   UNL A   1      42.155  26.626  28.140  1.00  0.00    -0.014 A 
BRANCH  37  38
ATOM     38  C   UNL A   1      41.714  27.526  29.234  1.00  0.00     0.031 A 
ATOM     39  C   UNL A   1      42.441  27.469  30.549  1.00  0.00     0.074 A 
ATOM     40  C   UNL A   1      40.694  28.385  29.065  1.00  0.00     0.049 A 
ATOM     41  N   UNL A   1      42.192  28.101  31.667  1.00  0.00    -0.248 NA
ATOM     42  C   UNL A   1      43.602  26.567  30.612  1.00  0.00     0.031 C 
ATOM     43  C   UNL A   1      39.939  28.570  27.829  1.00  0.00     0.029 A 
ATOM     44  N   UNL A   1      40.111  29.255  29.952  1.00  0.00    -0.354 N 
ATOM     45  C   UNL A   1      43.158  27.669  32.567  1.00  0.00     0.074 A 
ATOM     46  C   UNL A   1      43.975  26.695  31.876  1.00  0.00     0.031 C 
ATOM     47  C   UNL A   1      38.979  29.487  28.040  1.00  0.00     0.029 A 
ATOM     48  C   UNL A   1      39.029  29.925  29.434  1.00  0.00     0.049 A 
ATOM     49  H   UNL A   1      40.436  29.387  30.873  1.00  0.00     0.167 HD
ATOM     50  C   UNL A   1      43.351  28.052  33.851  1.00  0.00     0.037 A 
ATOM     51  C   UNL A   1      38.166  30.773  30.026  1.00  0.00     0.037 A 
ATOM     52  C   UNL A   1      42.531  29.016  34.538  1.00  0.00     0.049 A 
ATOM     53  C   UNL A   1      38.350  31.123  31.481  1.00  0.00     0.074 A 
ATOM     54  C   UNL A   1      42.657  29.485  35.835  1.00  0.00     0.029 A 
ATOM     55  N   UNL A   1      41.427  29.651  33.989  1.00  0.00    -0.354 N 
ATOM     56  N   UNL A   1      39.279  30.730  32.318  1.00  0.00    -0.248 NA
ATOM     57  C   UNL A   1      37.364  32.040  32.072  1.00  0.00     0.031 C 
ATOM     58  C   UNL A   1      41.592  30.355  36.089  1.00  0.00     0.029 A 
ATOM     59  C   UNL A   1      40.843  30.483  34.930  1.00  0.00     0.049 A 
ATOM     60  H   UNL A   1      41.106  29.528  33.066  1.00  0.00     0.167 HD
ATOM     61  C   UNL A   1      39.011  31.376  33.521  1.00  0.00     0.074 A 
ATOM     62  C   UNL A   1      37.838  32.195  33.300  1.00  0.00     0.031 C 
ATOM     63  C   UNL A   1      39.679  31.301  34.698  1.00  0.00     0.037 A 
BRANCH  50  64
ATOM     64  C   UNL A   1      44.472  27.399  34.605  1.00  0.00     0.057 A 
ATOM     65  C   UNL A   1      44.325  26.153  35.228  1.00  0.00     0.134 A 
ATOM     66  C   UNL A   1      45.726  28.019  34.694  1.00  0.00     0.134 A 
ATOM     67  F   UNL A   1      43.147  25.511  35.195  1.00  0.00    -0.206 F 
ATOM     68  C   UNL A   1      45.373  25.560  35.936  1.00  0.00     0.040 A 
ATOM     69  C   UNL A   1      46.790  27.422  35.372  1.00  0.00     0.040 A 
ATOM     70  F   UNL A   1      45.940  29.211  34.117  1.00  0.00    -0.206 F 
ATOM     71  C   UNL A   1      46.613  26.194  36.003  1.00  0.00     0.006 A 
ENDBRANCH  50  64
BRANCH  51  72
ATOM     72  C   UNL A   1      37.034  31.344  29.252  1.00  0.00     0.057 A 
ATOM     73  C   UNL A   1      35.886  30.591  28.979  1.00  0.00     0.134 A 
ATOM     74  C   UNL A   1      37.083  32.648  28.741  1.00  0.00     0.134 A 
ATOM     75  F   UNL A   1      35.790  29.327  29.416  1.00  0.00    -0.206 F 
ATOM     76  C   UNL A   1      34.838  31.105  28.215  1.00  0.00     0.040 A 
ATOM     77  C   UNL A   1      36.030  33.185  27.999  1.00  0.00     0.040 A 
ATOM     78  F   UNL A   1      38.156  33.422  28.962  1.00  0.00    -0.206 F 
ATOM     79  C   UNL A   1      34.905  32.409  27.728  1.00  0.00     0.006 A 
ENDBRANCH  51  72
BRANCH  63  80
ATOM     80  C   UNL A   1      39.190  32.161  35.830  1.00  0.00     0.057 A 
ATOM     81  C   UNL A   1      39.616  33.484  36.002  1.00  0.00     0.134 A 
ATOM     82  C   UNL A   1      38.242  31.668  36.738  1.00  0.00     0.134 A 
ATOM     83  F   UNL A   1      40.529  34.017  35.175  1.00  0.00    -0.206 F 
ATOM     84  C   UNL A   1      39.138  34.276  37.048  1.00  0.00     0.040 A 
ATOM     85  C   UNL A   1      37.733  32.459  37.769  1.00  0.00     0.040 A 
ATOM     86  F   UNL A   1      37.780  30.412  36.627  1.00  0.00    -0.206 F 
ATOM     87  C   UNL A   1      38.188  33.765  37.930  1.00  0.00     0.006 A 
ENDBRANCH  63  80
ENDBRANCH  37  38
ENDBRANCH  30  32
ENDBRANCH  29  30
ENDBRANCH  28  29
ENDBRANCH  27  28
ENDBRANCH  26  27
ENDBRANCH  25  26
ENDBRANCH   1  25
TORSDOF 20
ENDMDL
