MODEL 1
REMARK VINA RESULT:     -12.8      0.000      0.000
REMARK SMILES Cc1cccc(-c2ncc(C[NH+]3CCC4(CC3)NC(=O)C[C@H]4C(=O)OCCOCCOCCOC(=O)c3ccc(-c4c5nc(c(-c6c(F)cccc6F)c6ccc([nH]6)c(-c6c(F)cccc6F)c6nc(c(-c7c(F)cccc7F)c7ccc4[nH]7)C=C6)C=C5)cc3)cn2)c1
REMARK SMILES IDX 29 1 28 2 27 3 26 4 25 5 23 6 24 7 22 8 12 9 13 10 17 11
REMARK SMILES IDX 14 13 16 14 15 15 18 16 19 17 21 19 20 20 11 21 10 22 7 23
REMARK SMILES IDX 8 24 92 25 9 26 91 27 6 28 1 29 2 30 3 31 93 32 4 33 5 34
REMARK SMILES IDX 30 35 31 36 32 37 33 38 34 39 35 40 36 41 37 42 38 43 90 44
REMARK SMILES IDX 39 45 89 46 40 47 41 48 42 49 83 50 43 51 88 52 82 53 84 54
REMARK SMILES IDX 44 55 87 56 81 57 80 58 45 60 71 61 54 62 70 63 55 64 58 65
REMARK SMILES IDX 69 66 85 67 56 68 57 69 68 71 86 72 59 73 46 74 47 75 52 76
REMARK SMILES IDX 48 77 49 78 51 79 53 80 50 81 72 82 73 83 78 84 74 85 75 86
REMARK SMILES IDX 77 87 79 88 76 89 60 90 61 91 66 92 62 93 63 94 65 95 67 96
REMARK SMILES IDX 64 97
REMARK H PARENT 12 12 18 18 84 59 58 70
REMARK Flexibility Score: inf
ROOT
ATOM      1  C   UNL A   1      38.431  23.987  26.098  1.00  0.00     0.188 C 
ENDROOT
BRANCH   1   2
ATOM      2  O   UNL A   1      37.302  23.151  25.734  1.00  0.00    -0.376 OA
BRANCH   2   3
ATOM      3  C   UNL A   1      36.218  23.308  24.766  1.00  0.00     0.202 C 
BRANCH   3   4
ATOM      4  C   UNL A   1      34.643  24.175  24.701  1.00  0.00     0.261 C 
BRANCH   4   5
ATOM      5  O   UNL A   1      33.850  25.731  24.062  1.00  0.00    -0.463 OA
BRANCH   5   6
ATOM      6  C   UNL A   1      32.943  26.462  23.036  1.00  0.00     0.311 C 
ATOM      7  O   UNL A   1      32.843  26.293  21.805  1.00  0.00    -0.252 OA
BRANCH   6   8
ATOM      8  C   UNL A   1      31.793  27.271  23.440  1.00  0.00     0.134 C 
ATOM      9  N   UNL A   1      33.584  29.061  27.771  1.00  0.00    -0.331 N 
ATOM     10  C   UNL A   1      32.027  28.478  27.411  1.00  0.00     0.264 C 
ATOM     11  C   UNL A   1      34.778  28.307  26.460  1.00  0.00     0.264 C 
ATOM     12  H   UNL A   1      34.023  28.810  28.657  1.00  0.00     0.348 HD
ATOM     13  C   UNL A   1      31.221  28.531  25.782  1.00  0.00     0.091 C 
ATOM     14  C   UNL A   1      34.150  28.612  24.336  1.00  0.00     0.091 C 
ATOM     15  C   UNL A   1      32.177  28.519  24.162  1.00  0.00     0.064 C 
ATOM     16  N   UNL A   1      31.506  29.469  23.311  1.00  0.00    -0.349 N 
ATOM     17  C   UNL A   1      30.631  28.928  22.377  1.00  0.00     0.221 C 
ATOM     18  H   UNL A   1      31.658  30.440  23.386  1.00  0.00     0.164 HD
ATOM     19  C   UNL A   1      30.683  27.452  22.451  1.00  0.00     0.117 C 
ATOM     20  O   UNL A   1      29.903  29.558  21.630  1.00  0.00    -0.275 OA
BRANCH   9  21
ATOM     21  C   UNL A   1      33.309  30.840  27.755  1.00  0.00     0.302 C 
BRANCH  21  22
ATOM     22  C   UNL A   1      34.284  32.107  28.344  1.00  0.00     0.043 A 
ATOM     23  C   UNL A   1      36.670  33.152  29.484  1.00  0.00     0.159 A 
ATOM     24  N   UNL A   1      36.543  33.081  28.140  1.00  0.00    -0.236 NA
ATOM     25  N   UNL A   1      35.593  32.982  30.270  1.00  0.00    -0.236 NA
ATOM     26  C   UNL A   1      35.327  32.665  27.614  1.00  0.00     0.124 A 
ATOM     27  C   UNL A   1      34.423  32.523  29.670  1.00  0.00     0.124 A 
BRANCH  23  28
ATOM     28  C   UNL A   1      38.036  33.424  30.103  1.00  0.00     0.019 A 
ATOM     29  C   UNL A   1      40.271  32.166  33.042  1.00  0.00     0.044 C 
ATOM     30  C   UNL A   1      39.821  32.944  31.827  1.00  0.00    -0.050 A 
ATOM     31  C   UNL A   1      40.720  33.739  31.140  1.00  0.00     0.003 A 
ATOM     32  C   UNL A   1      38.509  32.831  31.306  1.00  0.00     0.015 A 
ATOM     33  C   UNL A   1      40.287  34.431  30.007  1.00  0.00     0.001 A 
ATOM     34  C   UNL A   1      38.970  34.282  29.506  1.00  0.00     0.012 A 
ENDBRANCH  23  28
ENDBRANCH  21  22
ENDBRANCH   9  21
ENDBRANCH   6   8
ENDBRANCH   5   6
ENDBRANCH   4   5
ENDBRANCH   3   4
ENDBRANCH   2   3
ENDBRANCH   1   2
BRANCH   1  35
ATOM     35  C   UNL A   1      39.347  23.687  27.302  1.00  0.00     0.188 C 
BRANCH  35  36
ATOM     36  O   UNL A   1      40.600  23.220  26.850  1.00  0.00    -0.376 OA
BRANCH  36  37
ATOM     37  C   UNL A   1      40.678  22.014  26.105  1.00  0.00     0.202 C 
BRANCH  37  38
ATOM     38  C   UNL A   1      41.935  21.116  26.155  1.00  0.00     0.261 C 
BRANCH  38  39
ATOM     39  O   UNL A   1      43.180  21.233  25.312  1.00  0.00    -0.460 OA
BRANCH  39  40
ATOM     40  C   UNL A   1      44.132  21.628  24.423  1.00  0.00     0.338 C 
ATOM     41  O   UNL A   1      44.527  20.735  23.689  1.00  0.00    -0.246 OA
BRANCH  40  42
ATOM     42  C   UNL A   1      44.768  23.126  24.436  1.00  0.00     0.060 A 
ATOM     43  C   UNL A   1      46.514  23.710  24.715  1.00  0.00     0.016 A 
ATOM     44  C   UNL A   1      43.728  23.667  25.486  1.00  0.00     0.016 A 
ATOM     45  C   UNL A   1      46.846  24.642  26.424  1.00  0.00     0.010 A 
ATOM     46  C   UNL A   1      44.123  24.442  26.898  1.00  0.00     0.010 A 
ATOM     47  C   UNL A   1      45.493  25.133  27.481  1.00  0.00    -0.014 A 
BRANCH  47  48
ATOM     48  C   UNL A   1      45.044  26.721  28.399  1.00  0.00     0.031 A 
ATOM     49  C   UNL A   1      43.329  27.508  28.728  1.00  0.00     0.074 A 
ATOM     50  C   UNL A   1      45.991  27.369  29.093  1.00  0.00     0.049 A 
ATOM     51  N   UNL A   1      42.878  28.643  28.211  1.00  0.00    -0.248 NA
ATOM     52  C   UNL A   1      41.886  26.761  29.102  1.00  0.00     0.031 C 
ATOM     53  C   UNL A   1      45.845  28.437  30.082  1.00  0.00     0.029 A 
ATOM     54  N   UNL A   1      47.361  27.150  29.064  1.00  0.00    -0.354 N 
ATOM     55  C   UNL A   1      41.455  28.685  28.363  1.00  0.00     0.074 A 
ATOM     56  C   UNL A   1      40.981  27.373  28.367  1.00  0.00     0.031 C 
ATOM     57  C   UNL A   1      47.050  29.018  30.253  1.00  0.00     0.029 A 
ATOM     58  C   UNL A   1      47.942  28.409  29.272  1.00  0.00     0.049 A 
ATOM     59  H   UNL A   1      47.825  26.293  28.925  1.00  0.00     0.167 HD
ATOM     60  C   UNL A   1      40.804  29.651  29.081  1.00  0.00     0.037 A 
ATOM     61  C   UNL A   1      48.479  29.010  28.174  1.00  0.00     0.037 A 
ATOM     62  C   UNL A   1      41.838  30.534  29.544  1.00  0.00     0.049 A 
ATOM     63  C   UNL A   1      47.631  30.219  27.833  1.00  0.00     0.074 A 
ATOM     64  C   UNL A   1      42.599  30.551  30.700  1.00  0.00     0.029 A 
ATOM     65  N   UNL A   1      42.591  31.129  28.557  1.00  0.00    -0.354 N 
ATOM     66  N   UNL A   1      46.336  30.325  28.023  1.00  0.00    -0.248 NA
ATOM     67  C   UNL A   1      48.250  31.483  27.456  1.00  0.00     0.031 C 
ATOM     68  C   UNL A   1      43.857  31.138  30.361  1.00  0.00     0.029 A 
ATOM     69  C   UNL A   1      43.842  31.465  29.014  1.00  0.00     0.049 A 
ATOM     70  H   UNL A   1      42.274  31.292  27.638  1.00  0.00     0.167 HD
ATOM     71  C   UNL A   1      45.964  31.637  27.861  1.00  0.00     0.074 A 
ATOM     72  C   UNL A   1      47.197  32.311  27.501  1.00  0.00     0.031 C 
ATOM     73  C   UNL A   1      44.714  32.148  28.081  1.00  0.00     0.037 A 
BRANCH  60  74
ATOM     74  C   UNL A   1      39.387  29.533  29.672  1.00  0.00     0.057 A 
ATOM     75  C   UNL A   1      38.271  29.705  28.834  1.00  0.00     0.134 A 
ATOM     76  C   UNL A   1      39.033  29.255  31.019  1.00  0.00     0.134 A 
ATOM     77  F   UNL A   1      38.418  29.892  27.516  1.00  0.00    -0.206 F 
ATOM     78  C   UNL A   1      36.941  29.678  29.294  1.00  0.00     0.040 A 
ATOM     79  C   UNL A   1      37.710  29.292  31.506  1.00  0.00     0.040 A 
ATOM     80  F   UNL A   1      39.937  28.874  31.933  1.00  0.00    -0.206 F 
ATOM     81  C   UNL A   1      36.653  29.500  30.638  1.00  0.00     0.006 A 
ENDBRANCH  60  74
BRANCH  61  82
ATOM     82  C   UNL A   1      49.092  27.969  27.263  1.00  0.00     0.057 A 
ATOM     83  C   UNL A   1      48.435  27.717  26.028  1.00  0.00     0.134 A 
ATOM     84  C   UNL A   1      50.443  27.609  27.314  1.00  0.00     0.134 A 
ATOM     85  F   UNL A   1      47.141  28.050  25.876  1.00  0.00    -0.206 F 
ATOM     86  C   UNL A   1      49.113  27.286  24.879  1.00  0.00     0.040 A 
ATOM     87  C   UNL A   1      51.127  27.151  26.171  1.00  0.00     0.040 A 
ATOM     88  F   UNL A   1      51.156  27.791  28.433  1.00  0.00    -0.206 F 
ATOM     89  C   UNL A   1      50.476  27.033  24.942  1.00  0.00     0.006 A 
ENDBRANCH  61  82
BRANCH  73  90
ATOM     90  C   UNL A   1      44.155  33.380  27.379  1.00  0.00     0.057 A 
ATOM     91  C   UNL A   1      43.992  33.473  25.992  1.00  0.00     0.134 A 
ATOM     92  C   UNL A   1      43.557  34.445  28.109  1.00  0.00     0.134 A 
ATOM     93  F   UNL A   1      44.361  32.489  25.163  1.00  0.00    -0.206 F 
ATOM     94  C   UNL A   1      43.381  34.569  25.378  1.00  0.00     0.040 A 
ATOM     95  C   UNL A   1      42.832  35.474  27.510  1.00  0.00     0.040 A 
ATOM     96  F   UNL A   1      43.611  34.533  29.445  1.00  0.00    -0.206 F 
ATOM     97  C   UNL A   1      42.778  35.563  26.135  1.00  0.00     0.006 A 
ENDBRANCH  73  90
ENDBRANCH  47  48
ENDBRANCH  40  42
ENDBRANCH  39  40
ENDBRANCH  38  39
ENDBRANCH  37  38
ENDBRANCH  36  37
ENDBRANCH  35  36
ENDBRANCH   1  35
TORSDOF 20
ENDMDL
MODEL 2
REMARK VINA RESULT:      -9.9      4.665     11.094
REMARK SMILES Cc1cccc(-c2ncc(C[NH+]3CCC4(CC3)NC(=O)C[C@H]4C(=O)OCCOCCOCCOC(=O)c3ccc(-c4c5nc(c(-c6c(F)cccc6F)c6ccc([nH]6)c(-c6c(F)cccc6F)c6nc(c(-c7c(F)cccc7F)c7ccc4[nH]7)C=C6)C=C5)cc3)cn2)c1
REMARK SMILES IDX 29 1 28 2 27 3 26 4 25 5 23 6 24 7 22 8 12 9 13 10 17 11
REMARK SMILES IDX 14 13 16 14 15 15 18 16 19 17 21 19 20 20 11 21 10 22 7 23
REMARK SMILES IDX 8 24 92 25 9 26 91 27 6 28 1 29 2 30 3 31 93 32 4 33 5 34
REMARK SMILES IDX 30 35 31 36 32 37 33 38 34 39 35 40 36 41 37 42 38 43 90 44
REMARK SMILES IDX 39 45 89 46 40 47 41 48 42 49 83 50 43 51 88 52 82 53 84 54
REMARK SMILES IDX 44 55 87 56 81 57 80 58 45 60 71 61 54 62 70 63 55 64 58 65
REMARK SMILES IDX 69 66 85 67 56 68 57 69 68 71 86 72 59 73 46 74 47 75 52 76
REMARK SMILES IDX 48 77 49 78 51 79 53 80 50 81 72 82 73 83 78 84 74 85 75 86
REMARK SMILES IDX 77 87 79 88 76 89 60 90 61 91 66 92 62 93 63 94 65 95 67 96
REMARK SMILES IDX 64 97
REMARK H PARENT 12 12 18 18 84 59 58 70
REMARK Flexibility Score: inf
ROOT
ATOM      1  C   UNL A   1      47.309  31.908  26.995  1.00  0.00     0.188 C 
ENDROOT
BRANCH   1   2
ATOM      2  O   UNL A   1      47.103  31.055  28.151  1.00  0.00    -0.376 OA
BRANCH   2   3
ATOM      3  C   UNL A   1      46.127  30.010  28.456  1.00  0.00     0.202 C 
BRANCH   3   4
ATOM      4  C   UNL A   1      44.463  29.584  27.922  1.00  0.00     0.261 C 
BRANCH   4   5
ATOM      5  O   UNL A   1      43.051  28.434  28.297  1.00  0.00    -0.463 OA
BRANCH   5   6
ATOM      6  C   UNL A   1      42.437  27.272  29.125  1.00  0.00     0.311 C 
ATOM      7  O   UNL A   1      41.242  26.958  29.284  1.00  0.00    -0.252 OA
BRANCH   6   8
ATOM      8  C   UNL A   1      43.232  26.138  29.596  1.00  0.00     0.134 C 
ATOM      9  N   UNL A   1      41.260  22.547  26.700  1.00  0.00    -0.331 N 
ATOM     10  C   UNL A   1      41.677  22.490  28.348  1.00  0.00     0.264 C 
ATOM     11  C   UNL A   1      41.016  24.405  26.251  1.00  0.00     0.264 C 
ATOM     12  H   UNL A   1      40.391  22.116  26.385  1.00  0.00     0.348 HD
ATOM     13  C   UNL A   1      42.986  23.466  29.149  1.00  0.00     0.091 C 
ATOM     14  C   UNL A   1      42.721  25.737  26.815  1.00  0.00     0.091 C 
ATOM     15  C   UNL A   1      43.541  25.150  28.523  1.00  0.00     0.064 C 
ATOM     16  N   UNL A   1      44.978  25.151  28.643  1.00  0.00    -0.349 N 
ATOM     17  C   UNL A   1      45.487  25.805  29.758  1.00  0.00     0.221 C 
ATOM     18  H   UNL A   1      45.561  24.718  27.978  1.00  0.00     0.164 HD
ATOM     19  C   UNL A   1      44.378  26.422  30.518  1.00  0.00     0.117 C 
ATOM     20  O   UNL A   1      46.659  25.843  30.092  1.00  0.00    -0.275 OA
BRANCH   9  21
ATOM     21  C   UNL A   1      42.639  21.661  25.954  1.00  0.00     0.302 C 
BRANCH  21  22
ATOM     22  C   UNL A   1      44.160  22.229  25.442  1.00  0.00     0.043 A 
ATOM     23  C   UNL A   1      46.221  24.183  25.296  1.00  0.00     0.159 A 
ATOM     24  N   UNL A   1      46.237  23.263  26.286  1.00  0.00    -0.236 NA
ATOM     25  N   UNL A   1      45.400  24.023  24.244  1.00  0.00    -0.236 NA
ATOM     26  C   UNL A   1      45.278  22.259  26.270  1.00  0.00     0.124 A 
ATOM     27  C   UNL A   1      44.439  23.019  24.324  1.00  0.00     0.124 A 
BRANCH  23  28
ATOM     28  C   UNL A   1      47.135  25.401  25.377  1.00  0.00     0.019 A 
ATOM     29  C   UNL A   1      50.017  27.092  23.364  1.00  0.00     0.044 C 
ATOM     30  C   UNL A   1      48.981  26.849  24.437  1.00  0.00    -0.050 A 
ATOM     31  C   UNL A   1      48.704  27.833  25.370  1.00  0.00     0.003 A 
ATOM     32  C   UNL A   1      48.211  25.661  24.484  1.00  0.00     0.015 A 
ATOM     33  C   UNL A   1      47.728  27.594  26.338  1.00  0.00     0.001 A 
ATOM     34  C   UNL A   1      46.966  26.399  26.345  1.00  0.00     0.012 A 
ENDBRANCH  23  28
ENDBRANCH  21  22
ENDBRANCH   9  21
ENDBRANCH   6   8
ENDBRANCH   5   6
ENDBRANCH   4   5
ENDBRANCH   3   4
ENDBRANCH   2   3
ENDBRANCH   1   2
BRANCH   1  35
ATOM     35  C   UNL A   1      47.939  33.313  27.088  1.00  0.00     0.188 C 
BRANCH  35  36
ATOM     36  O   UNL A   1      48.097  33.857  25.795  1.00  0.00    -0.376 OA
BRANCH  36  37
ATOM     37  C   UNL A   1      47.129  34.763  25.287  1.00  0.00     0.202 C 
BRANCH  37  38
ATOM     38  C   UNL A   1      46.958  36.178  25.884  1.00  0.00     0.261 C 
BRANCH  38  39
ATOM     39  O   UNL A   1      45.810  36.689  26.718  1.00  0.00    -0.460 OA
BRANCH  39  40
ATOM     40  C   UNL A   1      45.009  37.101  27.739  1.00  0.00     0.338 C 
ATOM     41  O   UNL A   1      44.488  38.190  27.554  1.00  0.00    -0.246 OA
BRANCH  40  42
ATOM     42  C   UNL A   1      44.872  36.265  29.129  1.00  0.00     0.060 A 
ATOM     43  C   UNL A   1      45.776  34.757  29.743  1.00  0.00     0.016 A 
ATOM     44  C   UNL A   1      43.317  36.072  28.976  1.00  0.00     0.016 A 
ATOM     45  C   UNL A   1      44.720  33.090  29.810  1.00  0.00     0.010 A 
ATOM     46  C   UNL A   1      42.532  34.613  29.051  1.00  0.00     0.010 A 
ATOM     47  C   UNL A   1      42.950  33.112  29.568  1.00  0.00    -0.014 A 
BRANCH  47  48
ATOM     48  C   UNL A   1      41.484  32.337  30.472  1.00  0.00     0.031 A 
ATOM     49  C   UNL A   1      39.688  32.970  30.671  1.00  0.00     0.074 A 
ATOM     50  C   UNL A   1      41.586  31.082  30.933  1.00  0.00     0.049 A 
ATOM     51  N   UNL A   1      39.124  33.379  31.798  1.00  0.00    -0.248 NA
ATOM     52  C   UNL A   1      38.722  33.752  29.557  1.00  0.00     0.031 C 
ATOM     53  C   UNL A   1      40.534  30.185  31.412  1.00  0.00     0.029 A 
ATOM     54  N   UNL A   1      42.733  30.307  31.033  1.00  0.00    -0.354 N 
ATOM     55  C   UNL A   1      37.950  34.134  31.479  1.00  0.00     0.074 A 
ATOM     56  C   UNL A   1      38.141  34.724  30.229  1.00  0.00     0.031 C 
ATOM     57  C   UNL A   1      41.120  29.178  32.093  1.00  0.00     0.029 A 
ATOM     58  C   UNL A   1      42.539  29.504  32.166  1.00  0.00     0.049 A 
ATOM     59  H   UNL A   1      43.515  30.319  30.436  1.00  0.00     0.167 HD
ATOM     60  C   UNL A   1      36.692  33.777  31.882  1.00  0.00     0.037 A 
ATOM     61  C   UNL A   1      43.239  29.861  33.279  1.00  0.00     0.037 A 
ATOM     62  C   UNL A   1      36.875  32.588  32.668  1.00  0.00     0.049 A 
ATOM     63  C   UNL A   1      42.254  30.366  34.315  1.00  0.00     0.074 A 
ATOM     64  C   UNL A   1      36.872  31.244  32.336  1.00  0.00     0.029 A 
ATOM     65  N   UNL A   1      37.686  32.729  33.772  1.00  0.00    -0.354 N 
ATOM     66  N   UNL A   1      41.132  31.000  34.062  1.00  0.00    -0.248 NA
ATOM     67  C   UNL A   1      42.378  29.979  35.714  1.00  0.00     0.031 C 
ATOM     68  C   UNL A   1      37.748  30.587  33.255  1.00  0.00     0.029 A 
ATOM     69  C   UNL A   1      38.267  31.536  34.123  1.00  0.00     0.049 A 
ATOM     70  H   UNL A   1      37.832  33.579  34.248  1.00  0.00     0.167 HD
ATOM     71  C   UNL A   1      40.378  31.052  35.207  1.00  0.00     0.074 A 
ATOM     72  C   UNL A   1      41.207  30.407  36.207  1.00  0.00     0.031 C 
ATOM     73  C   UNL A   1      39.104  31.543  35.305  1.00  0.00     0.037 A 
BRANCH  60  74
ATOM     74  C   UNL A   1      35.373  34.235  31.234  1.00  0.00     0.057 A 
ATOM     75  C   UNL A   1      34.953  33.645  30.028  1.00  0.00     0.134 A 
ATOM     76  C   UNL A   1      34.471  35.221  31.715  1.00  0.00     0.134 A 
ATOM     77  F   UNL A   1      35.640  32.637  29.475  1.00  0.00    -0.206 F 
ATOM     78  C   UNL A   1      33.797  34.041  29.330  1.00  0.00     0.040 A 
ATOM     79  C   UNL A   1      33.347  35.674  30.992  1.00  0.00     0.040 A 
ATOM     80  F   UNL A   1      34.588  35.764  32.934  1.00  0.00    -0.206 F 
ATOM     81  C   UNL A   1      33.002  35.078  29.793  1.00  0.00     0.006 A 
ENDBRANCH  60  74
BRANCH  61  82
ATOM     82  C   UNL A   1      44.595  30.405  32.886  1.00  0.00     0.057 A 
ATOM     83  C   UNL A   1      44.798  31.805  33.019  1.00  0.00     0.134 A 
ATOM     84  C   UNL A   1      45.755  29.624  32.869  1.00  0.00     0.134 A 
ATOM     85  F   UNL A   1      43.741  32.635  33.067  1.00  0.00    -0.206 F 
ATOM     86  C   UNL A   1      46.055  32.370  33.276  1.00  0.00     0.040 A 
ATOM     87  C   UNL A   1      47.026  30.187  33.101  1.00  0.00     0.040 A 
ATOM     88  F   UNL A   1      45.681  28.293  32.735  1.00  0.00    -0.206 F 
ATOM     89  C   UNL A   1      47.173  31.552  33.350  1.00  0.00     0.006 A 
ENDBRANCH  61  82
BRANCH  73  90
ATOM     90  C   UNL A   1      38.508  32.136  36.577  1.00  0.00     0.057 A 
ATOM     91  C   UNL A   1      37.759  31.394  37.498  1.00  0.00     0.134 A 
ATOM     92  C   UNL A   1      38.855  33.441  37.024  1.00  0.00     0.134 A 
ATOM     93  F   UNL A   1      37.470  30.102  37.306  1.00  0.00    -0.206 F 
ATOM     94  C   UNL A   1      37.310  31.931  38.708  1.00  0.00     0.040 A 
ATOM     95  C   UNL A   1      38.522  33.935  38.284  1.00  0.00     0.040 A 
ATOM     96  F   UNL A   1      39.565  34.301  36.280  1.00  0.00    -0.206 F 
ATOM     97  C   UNL A   1      37.708  33.195  39.116  1.00  0.00     0.006 A 
ENDBRANCH  73  90
ENDBRANCH  47  48
ENDBRANCH  40  42
ENDBRANCH  39  40
ENDBRANCH  38  39
ENDBRANCH  37  38
ENDBRANCH  36  37
ENDBRANCH  35  36
ENDBRANCH   1  35
TORSDOF 20
ENDMDL
MODEL 3
REMARK VINA RESULT:      -9.9      3.990     12.060
REMARK SMILES Cc1cccc(-c2ncc(C[NH+]3CCC4(CC3)NC(=O)C[C@H]4C(=O)OCCOCCOCCOC(=O)c3ccc(-c4c5nc(c(-c6c(F)cccc6F)c6ccc([nH]6)c(-c6c(F)cccc6F)c6nc(c(-c7c(F)cccc7F)c7ccc4[nH]7)C=C6)C=C5)cc3)cn2)c1
REMARK SMILES IDX 29 1 28 2 27 3 26 4 25 5 23 6 24 7 22 8 12 9 13 10 17 11
REMARK SMILES IDX 14 13 16 14 15 15 18 16 19 17 21 19 20 20 11 21 10 22 7 23
REMARK SMILES IDX 8 24 92 25 9 26 91 27 6 28 1 29 2 30 3 31 93 32 4 33 5 34
REMARK SMILES IDX 30 35 31 36 32 37 33 38 34 39 35 40 36 41 37 42 38 43 90 44
REMARK SMILES IDX 39 45 89 46 40 47 41 48 42 49 83 50 43 51 88 52 82 53 84 54
REMARK SMILES IDX 44 55 87 56 81 57 80 58 45 60 71 61 54 62 70 63 55 64 58 65
REMARK SMILES IDX 69 66 85 67 56 68 57 69 68 71 86 72 59 73 46 74 47 75 52 76
REMARK SMILES IDX 48 77 49 78 51 79 53 80 50 81 72 82 73 83 78 84 74 85 75 86
REMARK SMILES IDX 77 87 79 88 76 89 60 90 61 91 66 92 62 93 63 94 65 95 67 96
REMARK SMILES IDX 64 97
REMARK H PARENT 12 12 18 18 84 59 58 70
REMARK Flexibility Score: inf
ROOT
ATOM      1  C   UNL A   1      41.903  22.779  28.670  1.00  0.00     0.188 C 
ENDROOT
BRANCH   1   2
ATOM      2  O   UNL A   1      43.128  22.606  29.429  1.00  0.00    -0.376 OA
BRANCH   2   3
ATOM      3  C   UNL A   1      44.384  23.353  29.475  1.00  0.00     0.202 C 
BRANCH   3   4
ATOM      4  C   UNL A   1      45.111  24.737  28.586  1.00  0.00     0.261 C 
BRANCH   4   5
ATOM      5  O   UNL A   1      44.709  26.048  27.330  1.00  0.00    -0.463 OA
BRANCH   5   6
ATOM      6  C   UNL A   1      45.080  27.350  26.569  1.00  0.00     0.311 C 
ATOM      7  O   UNL A   1      44.617  27.805  25.505  1.00  0.00    -0.252 OA
BRANCH   6   8
ATOM      8  C   UNL A   1      45.838  28.436  27.191  1.00  0.00     0.134 C 
ATOM      9  N   UNL A   1      49.788  25.801  28.811  1.00  0.00    -0.331 N 
ATOM     10  C   UNL A   1      48.921  27.033  29.601  1.00  0.00     0.264 C 
ATOM     11  C   UNL A   1      48.620  25.075  27.461  1.00  0.00     0.264 C 
ATOM     12  H   UNL A   1      50.079  24.975  29.334  1.00  0.00     0.348 HD
ATOM     13  C   UNL A   1      48.038  28.400  28.791  1.00  0.00     0.091 C 
ATOM     14  C   UNL A   1      47.720  26.593  26.088  1.00  0.00     0.091 C 
ATOM     15  C   UNL A   1      47.315  28.274  27.060  1.00  0.00     0.064 C 
ATOM     16  N   UNL A   1      47.609  29.534  26.426  1.00  0.00    -0.349 N 
ATOM     17  C   UNL A   1      46.566  30.452  26.399  1.00  0.00     0.221 C 
ATOM     18  H   UNL A   1      48.491  29.732  26.036  1.00  0.00     0.164 HD
ATOM     19  C   UNL A   1      45.353  29.837  26.981  1.00  0.00     0.117 C 
ATOM     20  O   UNL A   1      46.633  31.599  25.994  1.00  0.00    -0.275 OA
BRANCH   9  21
ATOM     21  C   UNL A   1      51.262  26.688  28.280  1.00  0.00     0.302 C 
BRANCH  21  22
ATOM     22  C   UNL A   1      51.692  27.281  26.742  1.00  0.00     0.043 A 
ATOM     23  C   UNL A   1      51.262  27.655  23.956  1.00  0.00     0.159 A 
ATOM     24  N   UNL A   1      50.804  28.574  24.836  1.00  0.00    -0.236 NA
ATOM     25  N   UNL A   1      52.134  26.716  24.360  1.00  0.00    -0.236 NA
ATOM     26  C   UNL A   1      51.121  28.417  26.179  1.00  0.00     0.124 A 
ATOM     27  C   UNL A   1      52.366  26.597  25.728  1.00  0.00     0.124 A 
BRANCH  23  28
ATOM     28  C   UNL A   1      50.785  27.688  22.508  1.00  0.00     0.019 A 
ATOM     29  C   UNL A   1      52.001  28.904  19.007  1.00  0.00     0.044 C 
ATOM     30  C   UNL A   1      51.137  28.276  20.076  1.00  0.00    -0.050 A 
ATOM     31  C   UNL A   1      50.023  27.536  19.720  1.00  0.00     0.003 A 
ATOM     32  C   UNL A   1      51.467  28.350  21.451  1.00  0.00     0.015 A 
ATOM     33  C   UNL A   1      49.252  26.946  20.724  1.00  0.00     0.001 A 
ATOM     34  C   UNL A   1      49.622  27.029  22.089  1.00  0.00     0.012 A 
ENDBRANCH  23  28
ENDBRANCH  21  22
ENDBRANCH   9  21
ENDBRANCH   6   8
ENDBRANCH   5   6
ENDBRANCH   4   5
ENDBRANCH   3   4
ENDBRANCH   2   3
ENDBRANCH   1   2
BRANCH   1  35
ATOM     35  C   UNL A   1      41.570  21.951  27.410  1.00  0.00     0.188 C 
BRANCH  35  36
ATOM     36  O   UNL A   1      42.725  21.800  26.614  1.00  0.00    -0.376 OA
BRANCH  36  37
ATOM     37  C   UNL A   1      42.820  22.480  25.371  1.00  0.00     0.202 C 
BRANCH  37  38
ATOM     38  C   UNL A   1      42.982  24.015  25.302  1.00  0.00     0.261 C 
BRANCH  38  39
ATOM     39  O   UNL A   1      42.000  25.063  25.762  1.00  0.00    -0.460 OA
BRANCH  39  40
ATOM     40  C   UNL A   1      41.415  26.196  26.239  1.00  0.00     0.338 C 
ATOM     41  O   UNL A   1      41.154  27.022  25.378  1.00  0.00    -0.246 OA
BRANCH  40  42
ATOM     42  C   UNL A   1      41.208  26.464  27.831  1.00  0.00     0.060 A 
ATOM     43  C   UNL A   1      39.706  26.279  28.916  1.00  0.00     0.016 A 
ATOM     44  C   UNL A   1      41.779  27.929  27.760  1.00  0.00     0.016 A 
ATOM     45  C   UNL A   1      38.890  27.961  29.550  1.00  0.00     0.010 A 
ATOM     46  C   UNL A   1      41.001  29.279  28.330  1.00  0.00     0.010 A 
ATOM     47  C   UNL A   1      39.718  29.527  29.324  1.00  0.00    -0.014 A 
BRANCH  47  48
ATOM     48  C   UNL A   1      40.080  31.004  30.444  1.00  0.00     0.031 A 
ATOM     49  C   UNL A   1      41.444  31.239  31.767  1.00  0.00     0.074 A 
ATOM     50  C   UNL A   1      39.435  32.161  30.233  1.00  0.00     0.049 A 
ATOM     51  N   UNL A   1      41.255  31.328  33.076  1.00  0.00    -0.248 NA
ATOM     52  C   UNL A   1      43.036  30.743  31.732  1.00  0.00     0.031 C 
ATOM     53  C   UNL A   1      39.725  33.491  30.770  1.00  0.00     0.029 A 
ATOM     54  N   UNL A   1      38.341  32.383  29.410  1.00  0.00    -0.354 N 
ATOM     55  C   UNL A   1      42.502  31.093  33.739  1.00  0.00     0.074 A 
ATOM     56  C   UNL A   1      43.270  30.253  32.932  1.00  0.00     0.031 C 
ATOM     57  C   UNL A   1      38.637  34.266  30.580  1.00  0.00     0.029 A 
ATOM     58  C   UNL A   1      37.600  33.392  30.043  1.00  0.00     0.049 A 
ATOM     59  H   UNL A   1      38.130  31.929  28.563  1.00  0.00     0.167 HD
ATOM     60  C   UNL A   1      43.114  32.017  34.542  1.00  0.00     0.037 A 
ATOM     61  C   UNL A   1      36.462  32.991  30.675  1.00  0.00     0.037 A 
ATOM     62  C   UNL A   1      42.221  33.143  34.563  1.00  0.00     0.049 A 
ATOM     63  C   UNL A   1      36.667  33.155  32.168  1.00  0.00     0.074 A 
ATOM     64  C   UNL A   1      42.129  34.273  33.769  1.00  0.00     0.029 A 
ATOM     65  N   UNL A   1      40.957  32.885  35.044  1.00  0.00    -0.354 N 
ATOM     66  N   UNL A   1      37.807  33.018  32.805  1.00  0.00    -0.248 NA
ATOM     67  C   UNL A   1      35.615  33.711  33.009  1.00  0.00     0.031 C 
ATOM     68  C   UNL A   1      40.754  34.660  33.753  1.00  0.00     0.029 A 
ATOM     69  C   UNL A   1      40.036  33.764  34.531  1.00  0.00     0.049 A 
ATOM     70  H   UNL A   1      40.741  32.160  35.675  1.00  0.00     0.167 HD
ATOM     71  C   UNL A   1      37.670  33.508  34.080  1.00  0.00     0.074 A 
ATOM     72  C   UNL A   1      36.282  33.919  34.154  1.00  0.00     0.031 C 
ATOM     73  C   UNL A   1      38.673  33.628  35.003  1.00  0.00     0.037 A 
BRANCH  60  74
ATOM     74  C   UNL A   1      44.609  32.045  34.909  1.00  0.00     0.057 A 
ATOM     75  C   UNL A   1      45.528  32.639  34.024  1.00  0.00     0.134 A 
ATOM     76  C   UNL A   1      45.220  31.530  36.083  1.00  0.00     0.134 A 
ATOM     77  F   UNL A   1      45.115  33.249  32.906  1.00  0.00    -0.206 F 
ATOM     78  C   UNL A   1      46.918  32.656  34.244  1.00  0.00     0.040 A 
ATOM     79  C   UNL A   1      46.615  31.481  36.283  1.00  0.00     0.040 A 
ATOM     80  F   UNL A   1      44.505  31.098  37.131  1.00  0.00    -0.206 F 
ATOM     81  C   UNL A   1      47.473  32.052  35.361  1.00  0.00     0.006 A 
ENDBRANCH  60  74
BRANCH  61  82
ATOM     82  C   UNL A   1      35.812  31.862  29.906  1.00  0.00     0.057 A 
ATOM     83  C   UNL A   1      35.152  32.196  28.692  1.00  0.00     0.134 A 
ATOM     84  C   UNL A   1      36.206  30.525  30.032  1.00  0.00     0.134 A 
ATOM     85  F   UNL A   1      34.756  33.462  28.471  1.00  0.00    -0.206 F 
ATOM     86  C   UNL A   1      35.036  31.302  27.618  1.00  0.00     0.040 A 
ATOM     87  C   UNL A   1      36.070  29.613  28.967  1.00  0.00     0.040 A 
ATOM     88  F   UNL A   1      36.825  30.098  31.140  1.00  0.00    -0.206 F 
ATOM     89  C   UNL A   1      35.528  30.011  27.744  1.00  0.00     0.006 A 
ENDBRANCH  61  82
BRANCH  73  90
ATOM     90  C   UNL A   1      38.460  33.596  36.512  1.00  0.00     0.057 A 
ATOM     91  C   UNL A   1      38.027  32.461  37.207  1.00  0.00     0.134 A 
ATOM     92  C   UNL A   1      38.894  34.661  37.349  1.00  0.00     0.134 A 
ATOM     93  F   UNL A   1      37.723  31.316  36.585  1.00  0.00    -0.206 F 
ATOM     94  C   UNL A   1      37.938  32.420  38.602  1.00  0.00     0.040 A 
ATOM     95  C   UNL A   1      38.931  34.580  38.740  1.00  0.00     0.040 A 
ATOM     96  F   UNL A   1      39.338  35.831  36.868  1.00  0.00    -0.206 F 
ATOM     97  C   UNL A   1      38.411  33.471  39.374  1.00  0.00     0.006 A 
ENDBRANCH  73  90
ENDBRANCH  47  48
ENDBRANCH  40  42
ENDBRANCH  39  40
ENDBRANCH  38  39
ENDBRANCH  37  38
ENDBRANCH  36  37
ENDBRANCH  35  36
ENDBRANCH   1  35
TORSDOF 20
ENDMDL
