MODEL 1
REMARK VINA RESULT:     -10.2      0.000      0.000
REMARK SMILES COc1ccc2c(c1)c(CC(=O)OCCOCCOCCOC(=O)c1ccc(-c3c4nc(c(-c5c(F)cccc5F)c5ccc([nH]5)c(-c5c(F)cccc5F)c5nc(c(-c6c(F)cccc6F)c6ccc3[nH]6)C=C5)C=C4)cc1)c(C)n2Cc1ccn(C(F)F)c(=O)c1
REMARK SMILES IDX 17 1 16 2 15 3 14 4 13 5 11 6 12 7 10 8 9 9 3 10 4 11 8 12
REMARK SMILES IDX 5 13 7 14 6 15 81 16 79 17 80 18 2 19 1 20 82 21 83 22 84 23
REMARK SMILES IDX 92 24 85 25 90 26 86 27 91 28 87 29 88 30 89 31 18 32 19 33
REMARK SMILES IDX 20 34 21 35 22 36 23 37 24 38 25 39 26 40 78 41 27 42 77 43
REMARK SMILES IDX 28 44 29 45 30 46 71 47 31 48 76 49 70 50 72 51 32 52 75 53
REMARK SMILES IDX 69 54 68 55 33 57 59 58 42 59 58 60 43 61 46 62 57 63 73 64
REMARK SMILES IDX 44 65 45 66 56 68 74 69 47 70 34 71 35 72 40 73 36 74 37 75
REMARK SMILES IDX 39 76 41 77 38 78 60 79 61 80 66 81 62 82 63 83 65 84 67 85
REMARK SMILES IDX 64 86 48 87 49 88 54 89 50 90 51 91 53 92 55 93 52 94
REMARK H PARENT 72 56 46 67
REMARK Flexibility Score: inf
ROOT
ATOM      1  C   UNL A   1      32.893  28.898  25.171  1.00  0.00     0.188 C 
ENDROOT
BRANCH   1   2
ATOM      2  O   UNL A   1      32.872  27.483  25.117  1.00  0.00    -0.376 OA
BRANCH   2   3
ATOM      3  C   UNL A   1      32.834  26.754  26.332  1.00  0.00     0.202 C 
BRANCH   3   4
ATOM      4  C   UNL A   1      31.505  26.054  26.639  1.00  0.00     0.261 C 
BRANCH   4   5
ATOM      5  O   UNL A   1      31.719  24.650  26.880  1.00  0.00    -0.463 OA
BRANCH   5   6
ATOM      6  C   UNL A   1      30.664  23.820  26.683  1.00  0.00     0.310 C 
ATOM      7  O   UNL A   1      29.589  23.953  27.260  1.00  0.00    -0.252 OA
BRANCH   6   8
ATOM      8  C   UNL A   1      30.881  22.868  25.511  1.00  0.00     0.160 C 
BRANCH   8   9
ATOM      9  C   UNL A   1      31.868  23.189  24.452  1.00  0.00    -0.008 A 
ATOM     10  C   UNL A   1      31.202  26.275  22.270  1.00  0.00     0.119 A 
ATOM     11  C   UNL A   1      32.317  26.140  21.462  1.00  0.00     0.048 A 
ATOM     12  C   UNL A   1      30.980  25.356  23.295  1.00  0.00     0.057 A 
ATOM     13  C   UNL A   1      33.206  25.067  21.648  1.00  0.00     0.031 A 
ATOM     14  C   UNL A   1      31.850  24.276  23.522  1.00  0.00     0.007 A 
ATOM     15  C   UNL A   1      32.941  24.132  22.667  1.00  0.00     0.049 A 
ATOM     16  N   UNL A   1      33.595  22.985  23.076  1.00  0.00    -0.340 N 
ATOM     17  C   UNL A   1      32.803  22.294  23.967  1.00  0.00     0.020 A 
ATOM     18  C   UNL A   1      32.948  20.855  24.322  1.00  0.00     0.065 C 
BRANCH  10  19
ATOM     19  O   UNL A   1      30.322  27.319  22.199  1.00  0.00    -0.497 OA
ATOM     20  C   UNL A   1      29.737  27.696  23.442  1.00  0.00     0.278 C 
ENDBRANCH  10  19
BRANCH  16  21
ATOM     21  C   UNL A   1      34.972  22.631  22.738  1.00  0.00     0.158 C 
BRANCH  21  22
ATOM     22  C   UNL A   1      35.838  22.780  23.967  1.00  0.00    -0.021 A 
ATOM     23  C   UNL A   1      35.671  23.959  24.793  1.00  0.00     0.024 A 
ATOM     24  C   UNL A   1      36.842  21.929  24.239  1.00  0.00     0.077 A 
ATOM     25  C   UNL A   1      36.615  24.305  25.674  1.00  0.00     0.095 A 
ATOM     26  C   UNL A   1      37.830  22.240  25.311  1.00  0.00     0.255 A 
ATOM     27  N   UNL A   1      37.702  23.485  25.905  1.00  0.00    -0.258 N 
ATOM     28  O   UNL A   1      38.694  21.405  25.571  1.00  0.00    -0.269 OA
BRANCH  27  29
ATOM     29  C   UNL A   1      38.704  23.868  26.862  1.00  0.00     0.451 C 
ATOM     30  F   UNL A   1      39.812  24.333  26.236  1.00  0.00    -0.185 F 
ATOM     31  F   UNL A   1      38.256  24.833  27.700  1.00  0.00    -0.185 F 
ENDBRANCH  27  29
ENDBRANCH  21  22
ENDBRANCH  16  21
ENDBRANCH   8   9
ENDBRANCH   6   8
ENDBRANCH   5   6
ENDBRANCH   4   5
ENDBRANCH   3   4
ENDBRANCH   2   3
ENDBRANCH   1   2
BRANCH   1  32
ATOM     32  C   UNL A   1      31.764  29.702  25.836  1.00  0.00     0.188 C 
BRANCH  32  33
ATOM     33  O   UNL A   1      32.057  30.614  26.869  1.00  0.00    -0.376 OA
BRANCH  33  34
ATOM     34  C   UNL A   1      33.425  30.755  27.221  1.00  0.00     0.202 C 
BRANCH  34  35
ATOM     35  C   UNL A   1      33.806  32.065  27.933  1.00  0.00     0.261 C 
BRANCH  35  36
ATOM     36  O   UNL A   1      35.203  32.046  28.312  1.00  0.00    -0.460 OA
BRANCH  36  37
ATOM     37  C   UNL A   1      35.448  32.277  29.631  1.00  0.00     0.338 C 
ATOM     38  O   UNL A   1      34.662  32.739  30.439  1.00  0.00    -0.246 OA
BRANCH  37  39
ATOM     39  C   UNL A   1      36.664  31.498  30.001  1.00  0.00     0.060 A 
ATOM     40  C   UNL A   1      37.897  32.065  30.343  1.00  0.00     0.016 A 
ATOM     41  C   UNL A   1      36.594  30.131  29.744  1.00  0.00     0.016 A 
ATOM     42  C   UNL A   1      39.067  31.277  30.320  1.00  0.00     0.010 A 
ATOM     43  C   UNL A   1      37.759  29.376  29.642  1.00  0.00     0.010 A 
ATOM     44  C   UNL A   1      39.012  29.939  29.909  1.00  0.00    -0.014 A 
BRANCH  44  45
ATOM     45  C   UNL A   1      40.145  29.004  30.020  1.00  0.00     0.031 A 
ATOM     46  C   UNL A   1      40.599  28.822  31.410  1.00  0.00     0.074 A 
ATOM     47  C   UNL A   1      40.797  28.277  29.084  1.00  0.00     0.049 A 
ATOM     48  N   UNL A   1      41.654  29.393  31.887  1.00  0.00    -0.248 NA
ATOM     49  C   UNL A   1      39.811  28.077  32.393  1.00  0.00     0.031 C 
ATOM     50  C   UNL A   1      40.655  28.324  27.639  1.00  0.00     0.029 A 
ATOM     51  N   UNL A   1      41.723  27.268  29.253  1.00  0.00    -0.354 N 
ATOM     52  C   UNL A   1      41.801  28.891  33.162  1.00  0.00     0.074 A 
ATOM     53  C   UNL A   1      40.544  28.270  33.493  1.00  0.00     0.031 C 
ATOM     54  C   UNL A   1      41.256  27.247  27.074  1.00  0.00     0.029 A 
ATOM     55  C   UNL A   1      41.959  26.516  28.107  1.00  0.00     0.049 A 
ATOM     56  H   UNL A   1      42.176  27.096  30.110  1.00  0.00     0.167 HD
ATOM     57  C   UNL A   1      43.040  28.784  33.708  1.00  0.00     0.037 A 
ATOM     58  C   UNL A   1      42.875  25.543  27.880  1.00  0.00     0.037 A 
ATOM     59  C   UNL A   1      44.020  29.556  32.969  1.00  0.00     0.049 A 
ATOM     60  C   UNL A   1      44.075  25.922  28.641  1.00  0.00     0.074 A 
ATOM     61  C   UNL A   1      44.138  30.875  32.568  1.00  0.00     0.029 A 
ATOM     62  N   UNL A   1      44.944  28.866  32.223  1.00  0.00    -0.354 N 
ATOM     63  N   UNL A   1      44.804  26.964  28.354  1.00  0.00    -0.248 NA
ATOM     64  C   UNL A   1      44.259  25.371  29.971  1.00  0.00     0.031 C 
ATOM     65  C   UNL A   1      44.812  30.839  31.310  1.00  0.00     0.029 A 
ATOM     66  C   UNL A   1      45.096  29.506  31.019  1.00  0.00     0.049 A 
ATOM     67  H   UNL A   1      45.417  28.050  32.505  1.00  0.00     0.167 HD
ATOM     68  C   UNL A   1      45.157  27.476  29.590  1.00  0.00     0.074 A 
ATOM     69  C   UNL A   1      44.927  26.383  30.529  1.00  0.00     0.031 C 
ATOM     70  C   UNL A   1      45.328  28.819  29.770  1.00  0.00     0.037 A 
BRANCH  57  71
ATOM     71  C   UNL A   1      43.433  27.681  34.657  1.00  0.00     0.057 A 
ATOM     72  C   UNL A   1      43.577  27.833  36.051  1.00  0.00     0.134 A 
ATOM     73  C   UNL A   1      43.396  26.353  34.201  1.00  0.00     0.134 A 
ATOM     74  F   UNL A   1      43.526  29.025  36.659  1.00  0.00    -0.206 F 
ATOM     75  C   UNL A   1      43.673  26.750  36.927  1.00  0.00     0.040 A 
ATOM     76  C   UNL A   1      43.429  25.260  35.075  1.00  0.00     0.040 A 
ATOM     77  F   UNL A   1      43.237  26.077  32.898  1.00  0.00    -0.206 F 
ATOM     78  C   UNL A   1      43.565  25.457  36.443  1.00  0.00     0.006 A 
ENDBRANCH  57  71
BRANCH  58  79
ATOM     79  C   UNL A   1      42.731  24.281  27.126  1.00  0.00     0.057 A 
ATOM     80  C   UNL A   1      42.379  23.099  27.803  1.00  0.00     0.134 A 
ATOM     81  C   UNL A   1      43.152  24.122  25.801  1.00  0.00     0.134 A 
ATOM     82  F   UNL A   1      42.088  23.130  29.112  1.00  0.00    -0.206 F 
ATOM     83  C   UNL A   1      42.405  21.838  27.191  1.00  0.00     0.040 A 
ATOM     84  C   UNL A   1      43.192  22.864  25.175  1.00  0.00     0.040 A 
ATOM     85  F   UNL A   1      43.583  25.175  25.094  1.00  0.00    -0.206 F 
ATOM     86  C   UNL A   1      42.816  21.717  25.869  1.00  0.00     0.006 A 
ENDBRANCH  58  79
BRANCH  70  87
ATOM     87  C   UNL A   1      45.496  29.660  28.535  1.00  0.00     0.057 A 
ATOM     88  C   UNL A   1      46.777  29.884  28.026  1.00  0.00     0.134 A 
ATOM     89  C   UNL A   1      44.443  30.337  27.906  1.00  0.00     0.134 A 
ATOM     90  F   UNL A   1      47.843  29.314  28.608  1.00  0.00    -0.206 F 
ATOM     91  C   UNL A   1      46.999  30.726  26.931  1.00  0.00     0.040 A 
ATOM     92  C   UNL A   1      44.642  31.160  26.793  1.00  0.00     0.040 A 
ATOM     93  F   UNL A   1      43.201  30.267  28.391  1.00  0.00    -0.206 F 
ATOM     94  C   UNL A   1      45.928  31.360  26.304  1.00  0.00     0.006 A 
ENDBRANCH  70  87
ENDBRANCH  44  45
ENDBRANCH  37  39
ENDBRANCH  36  37
ENDBRANCH  35  36
ENDBRANCH  34  35
ENDBRANCH  33  34
ENDBRANCH  32  33
ENDBRANCH   1  32
TORSDOF 22
ENDMDL
MODEL 2
REMARK VINA RESULT:      -9.8      2.881      8.065
REMARK SMILES COc1ccc2c(c1)c(CC(=O)OCCOCCOCCOC(=O)c1ccc(-c3c4nc(c(-c5c(F)cccc5F)c5ccc([nH]5)c(-c5c(F)cccc5F)c5nc(c(-c6c(F)cccc6F)c6ccc3[nH]6)C=C5)C=C4)cc1)c(C)n2Cc1ccn(C(F)F)c(=O)c1
REMARK SMILES IDX 17 1 16 2 15 3 14 4 13 5 11 6 12 7 10 8 9 9 3 10 4 11 8 12
REMARK SMILES IDX 5 13 7 14 6 15 81 16 79 17 80 18 2 19 1 20 82 21 83 22 84 23
REMARK SMILES IDX 92 24 85 25 90 26 86 27 91 28 87 29 88 30 89 31 18 32 19 33
REMARK SMILES IDX 20 34 21 35 22 36 23 37 24 38 25 39 26 40 78 41 27 42 77 43
REMARK SMILES IDX 28 44 29 45 30 46 71 47 31 48 76 49 70 50 72 51 32 52 75 53
REMARK SMILES IDX 69 54 68 55 33 57 59 58 42 59 58 60 43 61 46 62 57 63 73 64
REMARK SMILES IDX 44 65 45 66 56 68 74 69 47 70 34 71 35 72 40 73 36 74 37 75
REMARK SMILES IDX 39 76 41 77 38 78 60 79 61 80 66 81 62 82 63 83 65 84 67 85
REMARK SMILES IDX 64 86 48 87 49 88 54 89 50 90 51 91 53 92 55 93 52 94
REMARK H PARENT 72 56 46 67
REMARK Flexibility Score: inf
ROOT
ATOM      1  C   UNL A   1      39.056  20.112  25.374  1.00  0.00     0.188 C 
ENDROOT
BRANCH   1   2
ATOM      2  O   UNL A   1      37.671  19.865  25.208  1.00  0.00    -0.376 OA
BRANCH   2   3
ATOM      3  C   UNL A   1      36.782  20.968  25.151  1.00  0.00     0.202 C 
BRANCH   3   4
ATOM      4  C   UNL A   1      36.947  21.883  23.933  1.00  0.00     0.261 C 
BRANCH   4   5
ATOM      5  O   UNL A   1      36.492  23.216  24.239  1.00  0.00    -0.463 OA
BRANCH   5   6
ATOM      6  C   UNL A   1      36.996  23.802  25.353  1.00  0.00     0.310 C 
ATOM      7  O   UNL A   1      38.197  23.982  25.531  1.00  0.00    -0.252 OA
BRANCH   6   8
ATOM      8  C   UNL A   1      35.911  24.414  26.233  1.00  0.00     0.160 C 
BRANCH   8   9
ATOM      9  C   UNL A   1      34.478  24.209  25.914  1.00  0.00    -0.008 A 
ATOM     10  C   UNL A   1      32.687  26.948  23.909  1.00  0.00     0.119 A 
ATOM     11  C   UNL A   1      31.442  26.344  23.895  1.00  0.00     0.048 A 
ATOM     12  C   UNL A   1      33.754  26.308  24.537  1.00  0.00     0.057 A 
ATOM     13  C   UNL A   1      31.241  25.111  24.538  1.00  0.00     0.031 A 
ATOM     14  C   UNL A   1      33.599  25.069  25.182  1.00  0.00     0.007 A 
ATOM     15  C   UNL A   1      32.326  24.502  25.198  1.00  0.00     0.049 A 
ATOM     16  N   UNL A   1      32.441  23.330  25.923  1.00  0.00    -0.340 N 
ATOM     17  C   UNL A   1      33.662  23.300  26.562  1.00  0.00     0.020 A 
ATOM     18  C   UNL A   1      34.010  22.443  27.728  1.00  0.00     0.065 C 
BRANCH  10  19
ATOM     19  O   UNL A   1      32.985  28.113  23.257  1.00  0.00    -0.497 OA
ATOM     20  C   UNL A   1      33.091  29.259  24.097  1.00  0.00     0.278 C 
ENDBRANCH  10  19
BRANCH  16  21
ATOM     21  C   UNL A   1      31.486  22.224  25.899  1.00  0.00     0.158 C 
BRANCH  21  22
ATOM     22  C   UNL A   1      32.040  21.110  25.042  1.00  0.00    -0.021 A 
ATOM     23  C   UNL A   1      32.074  21.295  23.604  1.00  0.00     0.024 A 
ATOM     24  C   UNL A   1      32.370  19.913  25.554  1.00  0.00     0.077 A 
ATOM     25  C   UNL A   1      32.227  20.243  22.793  1.00  0.00     0.095 A 
ATOM     26  C   UNL A   1      32.673  18.761  24.658  1.00  0.00     0.255 A 
ATOM     27  N   UNL A   1      32.481  18.986  23.304  1.00  0.00    -0.258 N 
ATOM     28  O   UNL A   1      33.033  17.702  25.167  1.00  0.00    -0.269 OA
BRANCH  27  29
ATOM     29  C   UNL A   1      32.652  17.867  22.417  1.00  0.00     0.451 C 
ATOM     30  F   UNL A   1      32.312  18.205  21.149  1.00  0.00    -0.185 F 
ATOM     31  F   UNL A   1      33.932  17.425  22.407  1.00  0.00    -0.185 F 
ENDBRANCH  27  29
ENDBRANCH  21  22
ENDBRANCH  16  21
ENDBRANCH   8   9
ENDBRANCH   6   8
ENDBRANCH   5   6
ENDBRANCH   4   5
ENDBRANCH   3   4
ENDBRANCH   2   3
ENDBRANCH   1   2
BRANCH   1  32
ATOM     32  C   UNL A   1      39.578  21.194  26.333  1.00  0.00     0.188 C 
BRANCH  32  33
ATOM     33  O   UNL A   1      40.397  20.839  27.424  1.00  0.00    -0.376 OA
BRANCH  33  34
ATOM     34  C   UNL A   1      41.511  20.008  27.136  1.00  0.00     0.202 C 
BRANCH  34  35
ATOM     35  C   UNL A   1      42.692  20.689  26.422  1.00  0.00     0.261 C 
BRANCH  35  36
ATOM     36  O   UNL A   1      42.872  22.037  26.917  1.00  0.00    -0.460 OA
BRANCH  36  37
ATOM     37  C   UNL A   1      42.878  23.008  25.964  1.00  0.00     0.338 C 
ATOM     38  O   UNL A   1      42.985  22.837  24.762  1.00  0.00    -0.246 OA
BRANCH  37  39
ATOM     39  C   UNL A   1      42.323  24.245  26.583  1.00  0.00     0.060 A 
ATOM     40  C   UNL A   1      41.551  25.195  25.907  1.00  0.00     0.016 A 
ATOM     41  C   UNL A   1      42.829  24.556  27.843  1.00  0.00     0.016 A 
ATOM     42  C   UNL A   1      41.382  26.486  26.451  1.00  0.00     0.010 A 
ATOM     43  C   UNL A   1      42.730  25.852  28.340  1.00  0.00     0.010 A 
ATOM     44  C   UNL A   1      42.023  26.840  27.645  1.00  0.00    -0.014 A 
BRANCH  44  45
ATOM     45  C   UNL A   1      41.765  28.098  28.368  1.00  0.00     0.031 A 
ATOM     46  C   UNL A   1      42.782  29.130  28.095  1.00  0.00     0.074 A 
ATOM     47  C   UNL A   1      40.756  28.463  29.191  1.00  0.00     0.049 A 
ATOM     48  N   UNL A   1      43.731  29.418  28.921  1.00  0.00    -0.248 NA
ATOM     49  C   UNL A   1      42.864  29.817  26.806  1.00  0.00     0.031 C 
ATOM     50  C   UNL A   1      39.683  27.645  29.728  1.00  0.00     0.029 A 
ATOM     51  N   UNL A   1      40.449  29.712  29.692  1.00  0.00    -0.354 N 
ATOM     52  C   UNL A   1      44.392  30.491  28.364  1.00  0.00     0.074 A 
ATOM     53  C   UNL A   1      43.964  30.552  26.989  1.00  0.00     0.031 C 
ATOM     54  C   UNL A   1      38.716  28.432  30.263  1.00  0.00     0.029 A 
ATOM     55  C   UNL A   1      39.175  29.805  30.244  1.00  0.00     0.049 A 
ATOM     56  H   UNL A   1      41.076  30.470  29.660  1.00  0.00     0.167 HD
ATOM     57  C   UNL A   1      45.004  31.400  29.166  1.00  0.00     0.037 A 
ATOM     58  C   UNL A   1      38.595  30.825  30.922  1.00  0.00     0.037 A 
ATOM     59  C   UNL A   1      45.163  30.899  30.518  1.00  0.00     0.049 A 
ATOM     60  C   UNL A   1      39.665  31.462  31.703  1.00  0.00     0.074 A 
ATOM     61  C   UNL A   1      45.727  29.775  31.093  1.00  0.00     0.029 A 
ATOM     62  N   UNL A   1      44.379  31.455  31.499  1.00  0.00    -0.354 N 
ATOM     63  N   UNL A   1      40.275  30.874  32.694  1.00  0.00    -0.248 NA
ATOM     64  C   UNL A   1      40.344  32.616  31.141  1.00  0.00     0.031 C 
ATOM     65  C   UNL A   1      44.921  29.478  32.234  1.00  0.00     0.029 A 
ATOM     66  C   UNL A   1      43.925  30.449  32.314  1.00  0.00     0.049 A 
ATOM     67  H   UNL A   1      44.176  32.413  31.600  1.00  0.00     0.167 HD
ATOM     68  C   UNL A   1      41.594  31.269  32.557  1.00  0.00     0.074 A 
ATOM     69  C   UNL A   1      41.547  32.444  31.694  1.00  0.00     0.031 C 
ATOM     70  C   UNL A   1      42.615  30.440  32.924  1.00  0.00     0.037 A 
BRANCH  57  71
ATOM     71  C   UNL A   1      45.097  32.867  28.834  1.00  0.00     0.057 A 
ATOM     72  C   UNL A   1      46.274  33.526  28.427  1.00  0.00     0.134 A 
ATOM     73  C   UNL A   1      43.909  33.593  28.646  1.00  0.00     0.134 A 
ATOM     74  F   UNL A   1      47.476  32.937  28.441  1.00  0.00    -0.206 F 
ATOM     75  C   UNL A   1      46.273  34.808  27.871  1.00  0.00     0.040 A 
ATOM     76  C   UNL A   1      43.890  34.851  28.033  1.00  0.00     0.040 A 
ATOM     77  F   UNL A   1      42.721  33.064  28.971  1.00  0.00    -0.206 F 
ATOM     78  C   UNL A   1      45.074  35.460  27.641  1.00  0.00     0.006 A 
ENDBRANCH  57  71
BRANCH  58  79
ATOM     79  C   UNL A   1      37.205  31.320  30.855  1.00  0.00     0.057 A 
ATOM     80  C   UNL A   1      36.731  31.915  29.672  1.00  0.00     0.134 A 
ATOM     81  C   UNL A   1      36.380  31.454  31.978  1.00  0.00     0.134 A 
ATOM     82  F   UNL A   1      37.505  31.954  28.578  1.00  0.00    -0.206 F 
ATOM     83  C   UNL A   1      35.494  32.570  29.596  1.00  0.00     0.040 A 
ATOM     84  C   UNL A   1      35.141  32.116  31.920  1.00  0.00     0.040 A 
ATOM     85  F   UNL A   1      36.775  30.992  33.171  1.00  0.00    -0.206 F 
ATOM     86  C   UNL A   1      34.693  32.675  30.726  1.00  0.00     0.006 A 
ENDBRANCH  58  79
BRANCH  70  87
ATOM     87  C   UNL A   1      42.270  29.276  33.811  1.00  0.00     0.057 A 
ATOM     88  C   UNL A   1      42.327  29.430  35.198  1.00  0.00     0.134 A 
ATOM     89  C   UNL A   1      41.991  27.989  33.332  1.00  0.00     0.134 A 
ATOM     90  F   UNL A   1      42.643  30.620  35.732  1.00  0.00    -0.206 F 
ATOM     91  C   UNL A   1      42.099  28.359  36.068  1.00  0.00     0.040 A 
ATOM     92  C   UNL A   1      41.731  26.914  34.188  1.00  0.00     0.040 A 
ATOM     93  F   UNL A   1      42.021  27.727  32.024  1.00  0.00    -0.206 F 
ATOM     94  C   UNL A   1      41.789  27.097  35.565  1.00  0.00     0.006 A 
ENDBRANCH  70  87
ENDBRANCH  44  45
ENDBRANCH  37  39
ENDBRANCH  36  37
ENDBRANCH  35  36
ENDBRANCH  34  35
ENDBRANCH  33  34
ENDBRANCH  32  33
ENDBRANCH   1  32
TORSDOF 22
ENDMDL
MODEL 3
REMARK VINA RESULT:      -9.7      2.465      4.334
REMARK SMILES COc1ccc2c(c1)c(CC(=O)OCCOCCOCCOC(=O)c1ccc(-c3c4nc(c(-c5c(F)cccc5F)c5ccc([nH]5)c(-c5c(F)cccc5F)c5nc(c(-c6c(F)cccc6F)c6ccc3[nH]6)C=C5)C=C4)cc1)c(C)n2Cc1ccn(C(F)F)c(=O)c1
REMARK SMILES IDX 17 1 16 2 15 3 14 4 13 5 11 6 12 7 10 8 9 9 3 10 4 11 8 12
REMARK SMILES IDX 5 13 7 14 6 15 81 16 79 17 80 18 2 19 1 20 82 21 83 22 84 23
REMARK SMILES IDX 92 24 85 25 90 26 86 27 91 28 87 29 88 30 89 31 18 32 19 33
REMARK SMILES IDX 20 34 21 35 22 36 23 37 24 38 25 39 26 40 78 41 27 42 77 43
REMARK SMILES IDX 28 44 29 45 30 46 71 47 31 48 76 49 70 50 72 51 32 52 75 53
REMARK SMILES IDX 69 54 68 55 33 57 59 58 42 59 58 60 43 61 46 62 57 63 73 64
REMARK SMILES IDX 44 65 45 66 56 68 74 69 47 70 34 71 35 72 40 73 36 74 37 75
REMARK SMILES IDX 39 76 41 77 38 78 60 79 61 80 66 81 62 82 63 83 65 84 67 85
REMARK SMILES IDX 64 86 48 87 49 88 54 89 50 90 51 91 53 92 55 93 52 94
REMARK H PARENT 72 56 46 67
REMARK Flexibility Score: inf
ROOT
ATOM      1  C   UNL A   1      35.270  34.059  28.703  1.00  0.00     0.188 C 
ENDROOT
BRANCH   1   2
ATOM      2  O   UNL A   1      35.886  32.911  28.148  1.00  0.00    -0.376 OA
BRANCH   2   3
ATOM      3  C   UNL A   1      36.017  31.750  28.950  1.00  0.00     0.202 C 
BRANCH   3   4
ATOM      4  C   UNL A   1      35.600  30.437  28.279  1.00  0.00     0.261 C 
BRANCH   4   5
ATOM      5  O   UNL A   1      34.267  30.547  27.741  1.00  0.00    -0.463 OA
BRANCH   5   6
ATOM      6  C   UNL A   1      33.982  29.814  26.636  1.00  0.00     0.310 C 
ATOM      7  O   UNL A   1      34.680  28.881  26.251  1.00  0.00    -0.252 OA
BRANCH   6   8
ATOM      8  C   UNL A   1      32.598  30.122  26.074  1.00  0.00     0.160 C 
BRANCH   8   9
ATOM      9  C   UNL A   1      31.724  29.029  25.582  1.00  0.00    -0.008 A 
ATOM     10  C   UNL A   1      29.505  29.752  22.537  1.00  0.00     0.119 A 
ATOM     11  C   UNL A   1      28.895  28.511  22.489  1.00  0.00     0.048 A 
ATOM     12  C   UNL A   1      30.465  30.008  23.514  1.00  0.00     0.057 A 
ATOM     13  C   UNL A   1      29.212  27.524  23.437  1.00  0.00     0.031 A 
ATOM     14  C   UNL A   1      30.820  29.046  24.475  1.00  0.00     0.007 A 
ATOM     15  C   UNL A   1      30.158  27.819  24.437  1.00  0.00     0.049 A 
ATOM     16  N   UNL A   1      30.656  27.087  25.500  1.00  0.00    -0.340 N 
ATOM     17  C   UNL A   1      31.391  27.911  26.324  1.00  0.00     0.020 A 
ATOM     18  C   UNL A   1      31.745  27.626  27.742  1.00  0.00     0.065 C 
BRANCH  10  19
ATOM     19  O   UNL A   1      29.301  30.746  21.619  1.00  0.00    -0.497 OA
ATOM     20  C   UNL A   1      28.040  30.704  20.959  1.00  0.00     0.278 C 
ENDBRANCH  10  19
BRANCH  16  21
ATOM     21  C   UNL A   1      30.549  25.638  25.650  1.00  0.00     0.158 C 
BRANCH  21  22
ATOM     22  C   UNL A   1      31.862  25.000  25.260  1.00  0.00    -0.021 A 
ATOM     23  C   UNL A   1      32.646  24.346  26.289  1.00  0.00     0.024 A 
ATOM     24  C   UNL A   1      32.384  25.139  24.030  1.00  0.00     0.077 A 
ATOM     25  C   UNL A   1      33.938  24.073  26.080  1.00  0.00     0.095 A 
ATOM     26  C   UNL A   1      33.785  24.716  23.749  1.00  0.00     0.255 A 
ATOM     27  N   UNL A   1      34.517  24.290  24.846  1.00  0.00    -0.258 N 
ATOM     28  O   UNL A   1      34.202  24.801  22.595  1.00  0.00    -0.269 OA
BRANCH  27  29
ATOM     29  C   UNL A   1      35.906  23.983  24.635  1.00  0.00     0.451 C 
ATOM     30  F   UNL A   1      36.597  24.068  25.798  1.00  0.00    -0.185 F 
ATOM     31  F   UNL A   1      36.074  22.735  24.136  1.00  0.00    -0.185 F 
ENDBRANCH  27  29
ENDBRANCH  21  22
ENDBRANCH  16  21
ENDBRANCH   8   9
ENDBRANCH   6   8
ENDBRANCH   5   6
ENDBRANCH   4   5
ENDBRANCH   3   4
ENDBRANCH   2   3
ENDBRANCH   1   2
BRANCH   1  32
ATOM     32  C   UNL A   1      33.791  34.391  28.444  1.00  0.00     0.188 C 
BRANCH  32  33
ATOM     33  O   UNL A   1      32.894  34.520  29.524  1.00  0.00    -0.376 OA
BRANCH  33  34
ATOM     34  C   UNL A   1      32.898  35.764  30.207  1.00  0.00     0.202 C 
BRANCH  34  35
ATOM     35  C   UNL A   1      33.324  35.719  31.685  1.00  0.00     0.261 C 
BRANCH  35  36
ATOM     36  O   UNL A   1      34.654  35.160  31.810  1.00  0.00    -0.460 OA
BRANCH  36  37
ATOM     37  C   UNL A   1      35.200  35.234  33.055  1.00  0.00     0.338 C 
ATOM     38  O   UNL A   1      34.666  35.696  34.048  1.00  0.00    -0.246 OA
BRANCH  37  39
ATOM     39  C   UNL A   1      36.359  34.298  33.090  1.00  0.00     0.060 A 
ATOM     40  C   UNL A   1      37.699  34.695  33.155  1.00  0.00     0.016 A 
ATOM     41  C   UNL A   1      36.059  32.971  32.794  1.00  0.00     0.016 A 
ATOM     42  C   UNL A   1      38.723  33.785  32.819  1.00  0.00     0.010 A 
ATOM     43  C   UNL A   1      37.063  32.099  32.384  1.00  0.00     0.010 A 
ATOM     44  C   UNL A   1      38.405  32.496  32.372  1.00  0.00    -0.014 A 
BRANCH  44  45
ATOM     45  C   UNL A   1      39.406  31.434  32.167  1.00  0.00     0.031 A 
ATOM     46  C   UNL A   1      40.079  31.038  33.417  1.00  0.00     0.074 A 
ATOM     47  C   UNL A   1      39.772  30.755  31.056  1.00  0.00     0.049 A 
ATOM     48  N   UNL A   1      41.271  31.427  33.728  1.00  0.00    -0.248 NA
ATOM     49  C   UNL A   1      39.394  30.275  34.460  1.00  0.00     0.031 C 
ATOM     50  C   UNL A   1      39.374  30.989  29.679  1.00  0.00     0.029 A 
ATOM     51  N   UNL A   1      40.572  29.636  30.942  1.00  0.00    -0.354 N 
ATOM     52  C   UNL A   1      41.582  30.764  34.895  1.00  0.00     0.074 A 
ATOM     53  C   UNL A   1      40.336  30.252  35.407  1.00  0.00     0.031 C 
ATOM     54  C   UNL A   1      39.713  29.927  28.906  1.00  0.00     0.029 A 
ATOM     55  C   UNL A   1      40.492  29.004  29.706  1.00  0.00     0.049 A 
ATOM     56  H   UNL A   1      41.148  29.314  31.672  1.00  0.00     0.167 HD
ATOM     57  C   UNL A   1      42.875  30.455  35.174  1.00  0.00     0.037 A 
ATOM     58  C   UNL A   1      41.213  27.969  29.211  1.00  0.00     0.037 A 
ATOM     59  C   UNL A   1      43.795  31.195  34.333  1.00  0.00     0.049 A 
ATOM     60  C   UNL A   1      42.572  28.118  29.753  1.00  0.00     0.074 A 
ATOM     61  C   UNL A   1      44.011  32.531  34.044  1.00  0.00     0.029 A 
ATOM     62  N   UNL A   1      44.467  30.500  33.358  1.00  0.00    -0.354 N 
ATOM     63  N   UNL A   1      43.367  29.099  29.429  1.00  0.00    -0.248 NA
ATOM     64  C   UNL A   1      42.923  27.396  30.962  1.00  0.00     0.031 C 
ATOM     65  C   UNL A   1      44.432  32.570  32.680  1.00  0.00     0.029 A 
ATOM     66  C   UNL A   1      44.478  31.257  32.214  1.00  0.00     0.049 A 
ATOM     67  H   UNL A   1      44.871  29.608  33.461  1.00  0.00     0.167 HD
ATOM     68  C   UNL A   1      44.006  29.418  30.614  1.00  0.00     0.074 A 
ATOM     69  C   UNL A   1      43.810  28.253  31.471  1.00  0.00     0.031 C 
ATOM     70  C   UNL A   1      44.384  30.702  30.883  1.00  0.00     0.037 A 
BRANCH  57  71
ATOM     71  C   UNL A   1      43.286  29.210  35.917  1.00  0.00     0.057 A 
ATOM     72  C   UNL A   1      43.067  27.893  35.462  1.00  0.00     0.134 A 
ATOM     73  C   UNL A   1      44.180  29.330  36.993  1.00  0.00     0.134 A 
ATOM     74  F   UNL A   1      42.327  27.614  34.382  1.00  0.00    -0.206 F 
ATOM     75  C   UNL A   1      43.691  26.781  36.030  1.00  0.00     0.040 A 
ATOM     76  C   UNL A   1      44.858  28.229  37.529  1.00  0.00     0.040 A 
ATOM     77  F   UNL A   1      44.490  30.532  37.500  1.00  0.00    -0.206 F 
ATOM     78  C   UNL A   1      44.616  26.950  37.046  1.00  0.00     0.006 A 
ENDBRANCH  57  71
BRANCH  58  79
ATOM     79  C   UNL A   1      40.767  26.829  28.384  1.00  0.00     0.057 A 
ATOM     80  C   UNL A   1      41.307  26.645  27.098  1.00  0.00     0.134 A 
ATOM     81  C   UNL A   1      39.656  26.038  28.698  1.00  0.00     0.134 A 
ATOM     82  F   UNL A   1      42.288  27.445  26.655  1.00  0.00    -0.206 F 
ATOM     83  C   UNL A   1      40.801  25.703  26.191  1.00  0.00     0.040 A 
ATOM     84  C   UNL A   1      39.131  25.095  27.797  1.00  0.00     0.040 A 
ATOM     85  F   UNL A   1      39.020  26.191  29.866  1.00  0.00    -0.206 F 
ATOM     86  C   UNL A   1      39.705  24.924  26.540  1.00  0.00     0.006 A 
ENDBRANCH  58  79
BRANCH  70  87
ATOM     87  C   UNL A   1      44.432  31.660  29.726  1.00  0.00     0.057 A 
ATOM     88  C   UNL A   1      45.616  31.801  28.999  1.00  0.00     0.134 A 
ATOM     89  C   UNL A   1      43.378  32.519  29.383  1.00  0.00     0.134 A 
ATOM     90  F   UNL A   1      46.687  31.053  29.305  1.00  0.00    -0.206 F 
ATOM     91  C   UNL A   1      45.742  32.738  27.969  1.00  0.00     0.040 A 
ATOM     92  C   UNL A   1      43.477  33.441  28.336  1.00  0.00     0.040 A 
ATOM     93  F   UNL A   1      42.247  32.528  30.091  1.00  0.00    -0.206 F 
ATOM     94  C   UNL A   1      44.667  33.555  27.626  1.00  0.00     0.006 A 
ENDBRANCH  70  87
ENDBRANCH  44  45
ENDBRANCH  37  39
ENDBRANCH  36  37
ENDBRANCH  35  36
ENDBRANCH  34  35
ENDBRANCH  33  34
ENDBRANCH  32  33
ENDBRANCH   1  32
TORSDOF 22
ENDMDL
