MODEL 1
REMARK VINA RESULT:     -10.3      0.000      0.000
REMARK SMILES O=C(OCCOCCOCCOC(=O)[C@H](c1ccc(Cl)cc1)[NH+]1CCCCC1)c1ccc(-c2c3nc(c(-c4c(F)cccc4F)c4ccc([nH]4)c(-c4c(F)cccc4F)c4nc(c(-c5c(F)cccc5F)c5ccc2[nH]5)C=C4)C=C3)cc1
REMARK SMILES IDX 7 1 6 2 5 3 4 4 3 5 2 6 1 7 29 8 30 9 82 10 31 11 81 12
REMARK SMILES IDX 32 13 33 14 34 15 75 16 35 17 80 18 74 19 76 20 36 21 79 22
REMARK SMILES IDX 73 23 72 24 37 26 63 27 46 28 62 29 47 30 50 31 61 32 77 33
REMARK SMILES IDX 48 34 49 35 60 37 78 38 51 39 38 40 39 41 44 42 40 43 41 44
REMARK SMILES IDX 43 45 45 46 42 47 64 48 65 49 70 50 66 51 67 52 69 53 71 54
REMARK SMILES IDX 68 55 52 56 53 57 58 58 54 59 55 60 57 61 59 62 56 63 8 64
REMARK SMILES IDX 9 65 10 66 11 67 12 68 13 69 14 70 15 71 23 72 24 73 28 74
REMARK SMILES IDX 25 76 27 77 26 78 16 79 17 80 22 81 18 82 21 83 19 84 20 85
REMARK H PARENT 76 25 50 36 23 75
REMARK Flexibility Score: inf
ROOT
ATOM      1  C   UNL A   1      34.742  33.662  28.898  1.00  0.00     0.188 C 
ENDROOT
BRANCH   1   2
ATOM      2  O   UNL A   1      33.940  34.417  29.811  1.00  0.00    -0.376 OA
BRANCH   2   3
ATOM      3  C   UNL A   1      34.578  34.652  31.074  1.00  0.00     0.202 C 
BRANCH   3   4
ATOM      4  C   UNL A   1      34.194  33.689  32.215  1.00  0.00     0.261 C 
BRANCH   4   5
ATOM      5  O   UNL A   1      34.975  32.477  32.239  1.00  0.00    -0.460 OA
BRANCH   5   6
ATOM      6  C   UNL A   1      36.099  32.166  32.915  1.00  0.00     0.338 C 
ATOM      7  O   UNL A   1      36.172  32.416  34.114  1.00  0.00    -0.246 OA
BRANCH   6   8
ATOM      8  C   UNL A   1      37.286  31.580  32.244  1.00  0.00     0.060 A 
ATOM      9  C   UNL A   1      38.221  30.770  32.884  1.00  0.00     0.016 A 
ATOM     10  C   UNL A   1      37.365  31.709  30.854  1.00  0.00     0.016 A 
ATOM     11  C   UNL A   1      39.282  30.190  32.191  1.00  0.00     0.010 A 
ATOM     12  C   UNL A   1      38.356  31.031  30.140  1.00  0.00     0.010 A 
ATOM     13  C   UNL A   1      39.354  30.301  30.806  1.00  0.00    -0.014 A 
BRANCH  13  14
ATOM     14  C   UNL A   1      40.517  29.765  30.052  1.00  0.00     0.031 A 
ATOM     15  C   UNL A   1      41.660  30.703  29.773  1.00  0.00     0.074 A 
ATOM     16  C   UNL A   1      40.563  28.489  29.619  1.00  0.00     0.049 A 
ATOM     17  N   UNL A   1      42.693  30.551  28.989  1.00  0.00    -0.248 NA
ATOM     18  C   UNL A   1      41.612  32.008  30.456  1.00  0.00     0.031 C 
ATOM     19  C   UNL A   1      39.559  27.457  29.878  1.00  0.00     0.029 A 
ATOM     20  N   UNL A   1      41.498  27.841  28.848  1.00  0.00    -0.354 N 
ATOM     21  C   UNL A   1      43.384  31.755  29.054  1.00  0.00     0.074 A 
ATOM     22  C   UNL A   1      42.612  32.652  29.880  1.00  0.00     0.031 C 
ATOM     23  C   UNL A   1      39.904  26.324  29.246  1.00  0.00     0.029 A 
ATOM     24  C   UNL A   1      41.149  26.549  28.526  1.00  0.00     0.049 A 
ATOM     25  H   UNL A   1      42.338  28.261  28.553  1.00  0.00     0.167 HD
ATOM     26  C   UNL A   1      44.586  32.071  28.520  1.00  0.00     0.037 A 
ATOM     27  C   UNL A   1      41.761  25.654  27.728  1.00  0.00     0.037 A 
ATOM     28  C   UNL A   1      45.383  31.145  27.768  1.00  0.00     0.049 A 
ATOM     29  C   UNL A   1      43.077  26.033  27.108  1.00  0.00     0.074 A 
ATOM     30  C   UNL A   1      46.635  31.330  27.216  1.00  0.00     0.029 A 
ATOM     31  N   UNL A   1      45.000  29.841  27.484  1.00  0.00    -0.354 N 
ATOM     32  N   UNL A   1      43.730  27.169  27.191  1.00  0.00    -0.248 NA
ATOM     33  C   UNL A   1      43.758  25.005  26.311  1.00  0.00     0.031 C 
ATOM     34  C   UNL A   1      47.002  30.142  26.575  1.00  0.00     0.029 A 
ATOM     35  C   UNL A   1      45.993  29.208  26.760  1.00  0.00     0.049 A 
ATOM     36  H   UNL A   1      44.150  29.428  27.757  1.00  0.00     0.167 HD
ATOM     37  C   UNL A   1      44.918  26.977  26.502  1.00  0.00     0.074 A 
ATOM     38  C   UNL A   1      44.894  25.616  26.004  1.00  0.00     0.031 C 
ATOM     39  C   UNL A   1      45.944  27.841  26.306  1.00  0.00     0.037 A 
BRANCH  26  40
ATOM     40  C   UNL A   1      45.084  33.465  28.759  1.00  0.00     0.057 A 
ATOM     41  C   UNL A   1      45.846  33.796  29.890  1.00  0.00     0.134 A 
ATOM     42  C   UNL A   1      44.743  34.503  27.885  1.00  0.00     0.134 A 
ATOM     43  F   UNL A   1      46.182  32.851  30.783  1.00  0.00    -0.206 F 
ATOM     44  C   UNL A   1      46.203  35.116  30.171  1.00  0.00     0.040 A 
ATOM     45  C   UNL A   1      45.124  35.823  28.139  1.00  0.00     0.040 A 
ATOM     46  F   UNL A   1      44.018  34.258  26.785  1.00  0.00    -0.206 F 
ATOM     47  C   UNL A   1      45.842  36.134  29.292  1.00  0.00     0.006 A 
ENDBRANCH  26  40
BRANCH  27  48
ATOM     48  C   UNL A   1      41.158  24.317  27.491  1.00  0.00     0.057 A 
ATOM     49  C   UNL A   1      40.083  24.148  26.612  1.00  0.00     0.134 A 
ATOM     50  C   UNL A   1      41.633  23.174  28.149  1.00  0.00     0.134 A 
ATOM     51  F   UNL A   1      39.576  25.203  25.957  1.00  0.00    -0.206 F 
ATOM     52  C   UNL A   1      39.484  22.902  26.415  1.00  0.00     0.040 A 
ATOM     53  C   UNL A   1      41.057  21.918  27.947  1.00  0.00     0.040 A 
ATOM     54  F   UNL A   1      42.672  23.262  28.994  1.00  0.00    -0.206 F 
ATOM     55  C   UNL A   1      39.972  21.781  27.084  1.00  0.00     0.006 A 
ENDBRANCH  27  48
BRANCH  39  56
ATOM     56  C   UNL A   1      47.143  27.320  25.576  1.00  0.00     0.057 A 
ATOM     57  C   UNL A   1      47.331  27.548  24.208  1.00  0.00     0.134 A 
ATOM     58  C   UNL A   1      48.149  26.637  26.270  1.00  0.00     0.134 A 
ATOM     59  F   UNL A   1      46.394  28.183  23.488  1.00  0.00    -0.206 F 
ATOM     60  C   UNL A   1      48.477  27.099  23.551  1.00  0.00     0.040 A 
ATOM     61  C   UNL A   1      49.310  26.208  25.629  1.00  0.00     0.040 A 
ATOM     62  F   UNL A   1      48.028  26.396  27.584  1.00  0.00    -0.206 F 
ATOM     63  C   UNL A   1      49.475  26.437  24.265  1.00  0.00     0.006 A 
ENDBRANCH  39  56
ENDBRANCH  13  14
ENDBRANCH   6   8
ENDBRANCH   5   6
ENDBRANCH   4   5
ENDBRANCH   3   4
ENDBRANCH   2   3
ENDBRANCH   1   2
BRANCH   1  64
ATOM     64  C   UNL A   1      34.384  32.176  28.799  1.00  0.00     0.188 C 
BRANCH  64  65
ATOM     65  O   UNL A   1      34.574  31.474  27.578  1.00  0.00    -0.376 OA
BRANCH  65  66
ATOM     66  C   UNL A   1      33.618  30.516  27.173  1.00  0.00     0.202 C 
BRANCH  66  67
ATOM     67  C   UNL A   1      33.982  29.031  27.313  1.00  0.00     0.261 C 
BRANCH  67  68
ATOM     68  O   UNL A   1      33.637  28.159  26.218  1.00  0.00    -0.459 OA
BRANCH  68  69
ATOM     69  C   UNL A   1      32.582  27.337  26.511  1.00  0.00     0.369 C 
ATOM     70  O   UNL A   1      31.907  27.474  27.531  1.00  0.00    -0.245 OA
BRANCH  69  71
ATOM     71  C   UNL A   1      32.448  26.107  25.578  1.00  0.00     0.326 C 
BRANCH  71  72
ATOM     72  N   UNL A   1      31.376  26.392  24.572  1.00  0.00    -0.319 N 
ATOM     73  C   UNL A   1      30.018  26.118  25.065  1.00  0.00     0.263 C 
ATOM     74  C   UNL A   1      31.490  27.711  23.951  1.00  0.00     0.263 C 
ATOM     75  H   UNL A   1      31.541  25.716  23.826  1.00  0.00     0.349 HD
ATOM     76  C   UNL A   1      28.979  26.235  23.958  1.00  0.00     0.062 C 
ATOM     77  C   UNL A   1      30.485  27.862  22.810  1.00  0.00     0.062 C 
ATOM     78  C   UNL A   1      29.064  27.604  23.295  1.00  0.00     0.012 C 
ENDBRANCH  71  72
BRANCH  71  79
ATOM     79  C   UNL A   1      33.678  25.458  24.928  1.00  0.00     0.021 A 
ATOM     80  C   UNL A   1      33.693  25.022  23.597  1.00  0.00     0.012 A 
ATOM     81  C   UNL A   1      34.706  25.000  25.782  1.00  0.00     0.012 A 
ATOM     82  C   UNL A   1      34.605  24.041  23.185  1.00  0.00     0.021 A 
ATOM     83  C   UNL A   1      35.651  24.064  25.355  1.00  0.00     0.021 A 
ATOM     84  C   UNL A   1      35.565  23.552  24.070  1.00  0.00     0.041 A 
ATOM     85  Cl  UNL A   1      36.642  22.303  23.575  1.00  0.00    -0.084 Cl
ENDBRANCH  71  79
ENDBRANCH  69  71
ENDBRANCH  68  69
ENDBRANCH  67  68
ENDBRANCH  66  67
ENDBRANCH  65  66
ENDBRANCH  64  65
ENDBRANCH   1  64
TORSDOF 19
ENDMDL
MODEL 2
REMARK VINA RESULT:     -10.1      3.461      8.589
REMARK SMILES O=C(OCCOCCOCCOC(=O)[C@H](c1ccc(Cl)cc1)[NH+]1CCCCC1)c1ccc(-c2c3nc(c(-c4c(F)cccc4F)c4ccc([nH]4)c(-c4c(F)cccc4F)c4nc(c(-c5c(F)cccc5F)c5ccc2[nH]5)C=C4)C=C3)cc1
REMARK SMILES IDX 7 1 6 2 5 3 4 4 3 5 2 6 1 7 29 8 30 9 82 10 31 11 81 12
REMARK SMILES IDX 32 13 33 14 34 15 75 16 35 17 80 18 74 19 76 20 36 21 79 22
REMARK SMILES IDX 73 23 72 24 37 26 63 27 46 28 62 29 47 30 50 31 61 32 77 33
REMARK SMILES IDX 48 34 49 35 60 37 78 38 51 39 38 40 39 41 44 42 40 43 41 44
REMARK SMILES IDX 43 45 45 46 42 47 64 48 65 49 70 50 66 51 67 52 69 53 71 54
REMARK SMILES IDX 68 55 52 56 53 57 58 58 54 59 55 60 57 61 59 62 56 63 8 64
REMARK SMILES IDX 9 65 10 66 11 67 12 68 13 69 14 70 15 71 23 72 24 73 28 74
REMARK SMILES IDX 25 76 27 77 26 78 16 79 17 80 22 81 18 82 21 83 19 84 20 85
REMARK H PARENT 76 25 50 36 23 75
REMARK Flexibility Score: inf
ROOT
ATOM      1  C   UNL A   1      35.438  20.350  24.963  1.00  0.00     0.188 C 
ENDROOT
BRANCH   1   2
ATOM      2  O   UNL A   1      36.525  19.420  25.007  1.00  0.00    -0.376 OA
BRANCH   2   3
ATOM      3  C   UNL A   1      37.790  20.001  24.659  1.00  0.00     0.202 C 
BRANCH   3   4
ATOM      4  C   UNL A   1      38.811  20.134  25.807  1.00  0.00     0.261 C 
BRANCH   4   5
ATOM      5  O   UNL A   1      39.952  19.263  25.672  1.00  0.00    -0.460 OA
BRANCH   5   6
ATOM      6  C   UNL A   1      41.246  19.448  26.001  1.00  0.00     0.338 C 
ATOM      7  O   UNL A   1      42.027  18.504  25.939  1.00  0.00    -0.246 OA
BRANCH   6   8
ATOM      8  C   UNL A   1      41.755  20.752  26.496  1.00  0.00     0.060 A 
ATOM      9  C   UNL A   1      42.010  21.028  27.838  1.00  0.00     0.016 A 
ATOM     10  C   UNL A   1      42.163  21.686  25.540  1.00  0.00     0.016 A 
ATOM     11  C   UNL A   1      42.551  22.246  28.243  1.00  0.00     0.010 A 
ATOM     12  C   UNL A   1      42.815  22.856  25.934  1.00  0.00     0.010 A 
ATOM     13  C   UNL A   1      42.976  23.171  27.294  1.00  0.00    -0.014 A 
BRANCH  13  14
ATOM     14  C   UNL A   1      43.478  24.510  27.697  1.00  0.00     0.031 A 
ATOM     15  C   UNL A   1      42.460  25.551  28.079  1.00  0.00     0.074 A 
ATOM     16  C   UNL A   1      44.793  24.805  27.721  1.00  0.00     0.049 A 
ATOM     17  N   UNL A   1      42.612  26.832  28.284  1.00  0.00    -0.248 NA
ATOM     18  C   UNL A   1      41.071  25.081  28.220  1.00  0.00     0.031 C 
ATOM     19  C   UNL A   1      45.887  23.874  27.442  1.00  0.00     0.029 A 
ATOM     20  N   UNL A   1      45.438  25.990  27.980  1.00  0.00    -0.354 N 
ATOM     21  C   UNL A   1      41.334  27.318  28.532  1.00  0.00     0.074 A 
ATOM     22  C   UNL A   1      40.413  26.218  28.364  1.00  0.00     0.031 C 
ATOM     23  C   UNL A   1      47.059  24.525  27.502  1.00  0.00     0.029 A 
ATOM     24  C   UNL A   1      46.803  25.925  27.812  1.00  0.00     0.049 A 
ATOM     25  H   UNL A   1      44.969  26.808  28.260  1.00  0.00     0.167 HD
ATOM     26  C   UNL A   1      40.961  28.559  28.919  1.00  0.00     0.037 A 
ATOM     27  C   UNL A   1      47.738  26.891  27.887  1.00  0.00     0.037 A 
ATOM     28  C   UNL A   1      41.891  29.623  29.161  1.00  0.00     0.049 A 
ATOM     29  C   UNL A   1      47.303  28.275  28.280  1.00  0.00     0.074 A 
ATOM     30  C   UNL A   1      41.642  30.909  29.600  1.00  0.00     0.029 A 
ATOM     31  N   UNL A   1      43.265  29.507  28.998  1.00  0.00    -0.354 N 
ATOM     32  N   UNL A   1      46.094  28.719  28.529  1.00  0.00    -0.248 NA
ATOM     33  C   UNL A   1      48.358  29.285  28.434  1.00  0.00     0.031 C 
ATOM     34  C   UNL A   1      42.867  31.579  29.682  1.00  0.00     0.029 A 
ATOM     35  C   UNL A   1      43.880  30.700  29.327  1.00  0.00     0.049 A 
ATOM     36  H   UNL A   1      43.733  28.696  28.694  1.00  0.00     0.167 HD
ATOM     37  C   UNL A   1      46.245  30.042  28.916  1.00  0.00     0.074 A 
ATOM     38  C   UNL A   1      47.665  30.329  28.866  1.00  0.00     0.031 C 
ATOM     39  C   UNL A   1      45.300  30.939  29.291  1.00  0.00     0.037 A 
BRANCH  26  40
ATOM     40  C   UNL A   1      39.491  28.792  29.110  1.00  0.00     0.057 A 
ATOM     41  C   UNL A   1      38.673  29.255  28.068  1.00  0.00     0.134 A 
ATOM     42  C   UNL A   1      38.899  28.616  30.365  1.00  0.00     0.134 A 
ATOM     43  F   UNL A   1      39.186  29.471  26.847  1.00  0.00    -0.206 F 
ATOM     44  C   UNL A   1      37.334  29.586  28.282  1.00  0.00     0.040 A 
ATOM     45  C   UNL A   1      37.551  28.913  30.583  1.00  0.00     0.040 A 
ATOM     46  F   UNL A   1      39.622  28.176  31.405  1.00  0.00    -0.206 F 
ATOM     47  C   UNL A   1      36.770  29.414  29.544  1.00  0.00     0.006 A 
ENDBRANCH  26  40
BRANCH  27  48
ATOM     48  C   UNL A   1      49.166  26.583  27.613  1.00  0.00     0.057 A 
ATOM     49  C   UNL A   1      49.698  26.688  26.324  1.00  0.00     0.134 A 
ATOM     50  C   UNL A   1      50.031  26.162  28.632  1.00  0.00     0.134 A 
ATOM     51  F   UNL A   1      48.921  27.077  25.303  1.00  0.00    -0.206 F 
ATOM     52  C   UNL A   1      51.029  26.361  26.050  1.00  0.00     0.040 A 
ATOM     53  C   UNL A   1      51.368  25.852  28.377  1.00  0.00     0.040 A 
ATOM     54  F   UNL A   1      49.589  26.056  29.895  1.00  0.00    -0.206 F 
ATOM     55  C   UNL A   1      51.869  25.942  27.080  1.00  0.00     0.006 A 
ENDBRANCH  27  48
BRANCH  39  56
ATOM     56  C   UNL A   1      45.778  32.287  29.732  1.00  0.00     0.057 A 
ATOM     57  C   UNL A   1      45.885  33.361  28.841  1.00  0.00     0.134 A 
ATOM     58  C   UNL A   1      46.073  32.525  31.080  1.00  0.00     0.134 A 
ATOM     59  F   UNL A   1      45.631  33.189  27.535  1.00  0.00    -0.206 F 
ATOM     60  C   UNL A   1      46.285  34.625  29.275  1.00  0.00     0.040 A 
ATOM     61  C   UNL A   1      46.446  33.790  31.530  1.00  0.00     0.040 A 
ATOM     62  F   UNL A   1      45.981  31.536  31.983  1.00  0.00    -0.206 F 
ATOM     63  C   UNL A   1      46.556  34.844  30.625  1.00  0.00     0.006 A 
ENDBRANCH  39  56
ENDBRANCH  13  14
ENDBRANCH   6   8
ENDBRANCH   5   6
ENDBRANCH   4   5
ENDBRANCH   3   4
ENDBRANCH   2   3
ENDBRANCH   1   2
BRANCH   1  64
ATOM     64  C   UNL A   1      34.046  19.714  24.918  1.00  0.00     0.188 C 
BRANCH  64  65
ATOM     65  O   UNL A   1      32.986  20.361  24.226  1.00  0.00    -0.376 OA
BRANCH  65  66
ATOM     66  C   UNL A   1      32.113  21.215  24.938  1.00  0.00     0.202 C 
BRANCH  66  67
ATOM     67  C   UNL A   1      32.259  22.729  24.729  1.00  0.00     0.261 C 
BRANCH  67  68
ATOM     68  O   UNL A   1      31.120  23.554  25.049  1.00  0.00    -0.459 OA
BRANCH  68  69
ATOM     69  C   UNL A   1      31.409  24.515  25.978  1.00  0.00     0.369 C 
ATOM     70  O   UNL A   1      31.125  24.385  27.168  1.00  0.00    -0.245 OA
BRANCH  69  71
ATOM     71  C   UNL A   1      31.920  25.851  25.381  1.00  0.00     0.326 C 
BRANCH  71  72
ATOM     72  N   UNL A   1      30.906  26.348  24.398  1.00  0.00    -0.319 N 
ATOM     73  C   UNL A   1      29.521  26.251  24.880  1.00  0.00     0.263 C 
ATOM     74  C   UNL A   1      31.217  27.669  23.853  1.00  0.00     0.263 C 
ATOM     75  H   UNL A   1      30.973  25.700  23.613  1.00  0.00     0.349 HD
ATOM     76  C   UNL A   1      28.515  26.583  23.785  1.00  0.00     0.062 C 
ATOM     77  C   UNL A   1      30.250  28.032  22.726  1.00  0.00     0.062 C 
ATOM     78  C   UNL A   1      28.804  27.960  23.201  1.00  0.00     0.012 C 
ENDBRANCH  71  72
BRANCH  71  79
ATOM     79  C   UNL A   1      32.441  26.981  26.280  1.00  0.00     0.021 A 
ATOM     80  C   UNL A   1      31.593  27.810  27.026  1.00  0.00     0.012 A 
ATOM     81  C   UNL A   1      33.779  27.398  26.101  1.00  0.00     0.012 A 
ATOM     82  C   UNL A   1      32.026  29.079  27.435  1.00  0.00     0.021 A 
ATOM     83  C   UNL A   1      34.226  28.640  26.557  1.00  0.00     0.021 A 
ATOM     84  C   UNL A   1      33.332  29.497  27.180  1.00  0.00     0.041 A 
ATOM     85  Cl  UNL A   1      33.838  31.079  27.631  1.00  0.00    -0.084 Cl
ENDBRANCH  71  79
ENDBRANCH  69  71
ENDBRANCH  68  69
ENDBRANCH  67  68
ENDBRANCH  66  67
ENDBRANCH  65  66
ENDBRANCH  64  65
ENDBRANCH   1  64
TORSDOF 19
ENDMDL
MODEL 3
REMARK VINA RESULT:      -9.8      3.340      8.191
REMARK SMILES O=C(OCCOCCOCCOC(=O)[C@H](c1ccc(Cl)cc1)[NH+]1CCCCC1)c1ccc(-c2c3nc(c(-c4c(F)cccc4F)c4ccc([nH]4)c(-c4c(F)cccc4F)c4nc(c(-c5c(F)cccc5F)c5ccc2[nH]5)C=C4)C=C3)cc1
REMARK SMILES IDX 7 1 6 2 5 3 4 4 3 5 2 6 1 7 29 8 30 9 82 10 31 11 81 12
REMARK SMILES IDX 32 13 33 14 34 15 75 16 35 17 80 18 74 19 76 20 36 21 79 22
REMARK SMILES IDX 73 23 72 24 37 26 63 27 46 28 62 29 47 30 50 31 61 32 77 33
REMARK SMILES IDX 48 34 49 35 60 37 78 38 51 39 38 40 39 41 44 42 40 43 41 44
REMARK SMILES IDX 43 45 45 46 42 47 64 48 65 49 70 50 66 51 67 52 69 53 71 54
REMARK SMILES IDX 68 55 52 56 53 57 58 58 54 59 55 60 57 61 59 62 56 63 8 64
REMARK SMILES IDX 9 65 10 66 11 67 12 68 13 69 14 70 15 71 23 72 24 73 28 74
REMARK SMILES IDX 25 76 27 77 26 78 16 79 17 80 22 81 18 82 21 83 19 84 20 85
REMARK H PARENT 76 25 50 36 23 75
REMARK Flexibility Score: inf
ROOT
ATOM      1  C   UNL A   1      34.020  20.661  25.033  1.00  0.00     0.188 C 
ENDROOT
BRANCH   1   2
ATOM      2  O   UNL A   1      35.123  21.472  25.453  1.00  0.00    -0.376 OA
BRANCH   2   3
ATOM      3  C   UNL A   1      35.712  22.233  24.389  1.00  0.00     0.202 C 
BRANCH   3   4
ATOM      4  C   UNL A   1      37.011  22.987  24.736  1.00  0.00     0.261 C 
BRANCH   4   5
ATOM      5  O   UNL A   1      37.763  22.385  25.808  1.00  0.00    -0.460 OA
BRANCH   5   6
ATOM      6  C   UNL A   1      38.991  22.665  26.289  1.00  0.00     0.338 C 
ATOM      7  O   UNL A   1      39.836  21.777  26.341  1.00  0.00    -0.246 OA
BRANCH   6   8
ATOM      8  C   UNL A   1      39.344  24.005  26.818  1.00  0.00     0.060 A 
ATOM      9  C   UNL A   1      39.254  24.360  28.163  1.00  0.00     0.016 A 
ATOM     10  C   UNL A   1      39.966  24.898  25.940  1.00  0.00     0.016 A 
ATOM     11  C   UNL A   1      39.662  25.612  28.618  1.00  0.00     0.010 A 
ATOM     12  C   UNL A   1      40.485  26.104  26.415  1.00  0.00     0.010 A 
ATOM     13  C   UNL A   1      40.298  26.496  27.751  1.00  0.00    -0.014 A 
BRANCH  13  14
ATOM     14  C   UNL A   1      40.667  27.867  28.187  1.00  0.00     0.031 A 
ATOM     15  C   UNL A   1      42.131  28.211  28.246  1.00  0.00     0.074 A 
ATOM     16  C   UNL A   1      39.739  28.784  28.528  1.00  0.00     0.049 A 
ATOM     17  N   UNL A   1      42.724  29.253  28.762  1.00  0.00    -0.248 NA
ATOM     18  C   UNL A   1      43.055  27.222  27.663  1.00  0.00     0.031 C 
ATOM     19  C   UNL A   1      38.289  28.608  28.452  1.00  0.00     0.029 A 
ATOM     20  N   UNL A   1      39.882  30.056  29.028  1.00  0.00    -0.354 N 
ATOM     21  C   UNL A   1      44.085  29.018  28.604  1.00  0.00     0.074 A 
ATOM     22  C   UNL A   1      44.231  27.702  28.028  1.00  0.00     0.031 C 
ATOM     23  C   UNL A   1      37.676  29.704  28.925  1.00  0.00     0.029 A 
ATOM     24  C   UNL A   1      38.689  30.660  29.351  1.00  0.00     0.049 A 
ATOM     25  H   UNL A   1      40.756  30.494  29.143  1.00  0.00     0.167 HD
ATOM     26  C   UNL A   1      45.123  29.845  28.864  1.00  0.00     0.037 A 
ATOM     27  C   UNL A   1      38.443  31.847  29.938  1.00  0.00     0.037 A 
ATOM     28  C   UNL A   1      44.962  31.180  29.362  1.00  0.00     0.049 A 
ATOM     29  C   UNL A   1      39.610  32.740  30.258  1.00  0.00     0.074 A 
ATOM     30  C   UNL A   1      45.930  32.131  29.621  1.00  0.00     0.029 A 
ATOM     31  N   UNL A   1      43.734  31.758  29.656  1.00  0.00    -0.354 N 
ATOM     32  N   UNL A   1      40.891  32.513  30.088  1.00  0.00    -0.248 NA
ATOM     33  C   UNL A   1      39.302  34.061  30.820  1.00  0.00     0.031 C 
ATOM     34  C   UNL A   1      45.288  33.280  30.094  1.00  0.00     0.029 A 
ATOM     35  C   UNL A   1      43.919  33.055  30.097  1.00  0.00     0.049 A 
ATOM     36  H   UNL A   1      42.862  31.312  29.564  1.00  0.00     0.167 HD
ATOM     37  C   UNL A   1      41.538  33.677  30.474  1.00  0.00     0.074 A 
ATOM     38  C   UNL A   1      40.507  34.607  30.891  1.00  0.00     0.031 C 
ATOM     39  C   UNL A   1      42.864  33.961  30.476  1.00  0.00     0.037 A 
BRANCH  26  40
ATOM     40  C   UNL A   1      46.496  29.308  28.593  1.00  0.00     0.057 A 
ATOM     41  C   UNL A   1      47.257  28.680  29.590  1.00  0.00     0.134 A 
ATOM     42  C   UNL A   1      47.093  29.479  27.339  1.00  0.00     0.134 A 
ATOM     43  F   UNL A   1      46.754  28.509  30.823  1.00  0.00    -0.206 F 
ATOM     44  C   UNL A   1      48.579  28.291  29.367  1.00  0.00     0.040 A 
ATOM     45  C   UNL A   1      48.405  29.064  27.094  1.00  0.00     0.040 A 
ATOM     46  F   UNL A   1      46.424  30.071  26.340  1.00  0.00    -0.206 F 
ATOM     47  C   UNL A   1      49.156  28.483  28.113  1.00  0.00     0.006 A 
ENDBRANCH  26  40
BRANCH  27  48
ATOM     48  C   UNL A   1      37.049  32.269  30.234  1.00  0.00     0.057 A 
ATOM     49  C   UNL A   1      36.285  32.969  29.293  1.00  0.00     0.134 A 
ATOM     50  C   UNL A   1      36.450  31.994  31.470  1.00  0.00     0.134 A 
ATOM     51  F   UNL A   1      36.803  33.270  28.093  1.00  0.00    -0.206 F 
ATOM     52  C   UNL A   1      34.989  33.404  29.578  1.00  0.00     0.040 A 
ATOM     53  C   UNL A   1      35.148  32.406  31.762  1.00  0.00     0.040 A 
ATOM     54  F   UNL A   1      37.121  31.313  32.411  1.00  0.00    -0.206 F 
ATOM     55  C   UNL A   1      34.415  33.122  30.817  1.00  0.00     0.006 A 
ENDBRANCH  27  48
BRANCH  39  56
ATOM     56  C   UNL A   1      43.265  35.345  30.881  1.00  0.00     0.057 A 
ATOM     57  C   UNL A   1      43.521  35.678  32.216  1.00  0.00     0.134 A 
ATOM     58  C   UNL A   1      43.456  36.336  29.911  1.00  0.00     0.134 A 
ATOM     59  F   UNL A   1      43.339  34.774  33.190  1.00  0.00    -0.206 F 
ATOM     60  C   UNL A   1      43.941  36.959  32.573  1.00  0.00     0.040 A 
ATOM     61  C   UNL A   1      43.901  37.612  30.253  1.00  0.00     0.040 A 
ATOM     62  F   UNL A   1      43.233  36.073  28.614  1.00  0.00    -0.206 F 
ATOM     63  C   UNL A   1      44.142  37.927  31.589  1.00  0.00     0.006 A 
ENDBRANCH  39  56
ENDBRANCH  13  14
ENDBRANCH   6   8
ENDBRANCH   5   6
ENDBRANCH   4   5
ENDBRANCH   3   4
ENDBRANCH   2   3
ENDBRANCH   1   2
BRANCH   1  64
ATOM     64  C   UNL A   1      32.661  21.071  25.607  1.00  0.00     0.188 C 
BRANCH  64  65
ATOM     65  O   UNL A   1      31.703  21.720  24.781  1.00  0.00    -0.376 OA
BRANCH  65  66
ATOM     66  C   UNL A   1      30.863  22.709  25.340  1.00  0.00     0.202 C 
BRANCH  66  67
ATOM     67  C   UNL A   1      31.014  23.022  26.836  1.00  0.00     0.261 C 
BRANCH  67  68
ATOM     68  O   UNL A   1      31.411  24.361  27.195  1.00  0.00    -0.459 OA
BRANCH  68  69
ATOM     69  C   UNL A   1      32.435  24.833  26.420  1.00  0.00     0.369 C 
ATOM     70  O   UNL A   1      33.577  24.383  26.496  1.00  0.00    -0.245 OA
BRANCH  69  71
ATOM     71  C   UNL A   1      32.091  26.108  25.608  1.00  0.00     0.326 C 
BRANCH  71  72
ATOM     72  N   UNL A   1      32.559  27.301  26.383  1.00  0.00    -0.319 N 
ATOM     73  C   UNL A   1      33.924  27.727  26.041  1.00  0.00     0.263 C 
ATOM     74  C   UNL A   1      31.609  28.413  26.378  1.00  0.00     0.263 C 
ATOM     75  H   UNL A   1      32.604  26.977  27.349  1.00  0.00     0.349 HD
ATOM     76  C   UNL A   1      34.430  28.815  26.980  1.00  0.00     0.062 C 
ATOM     77  C   UNL A   1      32.060  29.517  27.333  1.00  0.00     0.062 C 
ATOM     78  C   UNL A   1      33.466  29.995  26.991  1.00  0.00     0.012 C 
ENDBRANCH  71  72
BRANCH  71  79
ATOM     79  C   UNL A   1      32.438  26.226  24.118  1.00  0.00     0.021 A 
ATOM     80  C   UNL A   1      31.692  27.003  23.223  1.00  0.00     0.012 A 
ATOM     81  C   UNL A   1      33.335  25.278  23.577  1.00  0.00     0.012 A 
ATOM     82  C   UNL A   1      31.725  26.727  21.849  1.00  0.00     0.021 A 
ATOM     83  C   UNL A   1      33.410  25.041  22.202  1.00  0.00     0.021 A 
ATOM     84  C   UNL A   1      32.567  25.735  21.348  1.00  0.00     0.041 A 
ATOM     85  Cl  UNL A   1      32.557  25.360  19.668  1.00  0.00    -0.084 Cl
ENDBRANCH  71  79
ENDBRANCH  69  71
ENDBRANCH  68  69
ENDBRANCH  67  68
ENDBRANCH  66  67
ENDBRANCH  65  66
ENDBRANCH  64  65
ENDBRANCH   1  64
TORSDOF 19
ENDMDL
