MODEL 1
REMARK VINA RESULT:     -12.6      0.000      0.000
REMARK SMILES Cc1ccc(C[C@@H](Cc2cc(F)cc(Br)c2)C(=O)OCCOCCOCCOC(=O)c2ccc(-c3c4nc(c(-c5c(F)cccc5F)c5ccc([nH]5)c(-c5c(F)cccc5F)c5nc(c(-c6c(F)cccc6F)c6ccc3[nH]6)C=C5)C=C4)cc2)cc1
REMARK SMILES IDX 23 1 22 2 21 3 20 4 19 5 17 6 18 7 7 8 6 9 5 10 1 11 2 12
REMARK SMILES IDX 3 13 86 14 4 15 85 16 8 17 9 18 10 19 16 20 11 21 14 22
REMARK SMILES IDX 12 23 13 24 15 25 24 26 25 27 26 28 27 29 28 30 29 31 30 32
REMARK SMILES IDX 31 33 32 34 84 35 33 36 83 37 34 38 35 39 36 40 77 41 37 42
REMARK SMILES IDX 82 43 76 44 78 45 38 46 81 47 75 48 74 49 39 51 65 52 48 53
REMARK SMILES IDX 64 54 49 55 52 56 63 57 79 58 50 59 51 60 62 62 80 63 53 64
REMARK SMILES IDX 40 65 41 66 46 67 42 68 43 69 45 70 47 71 44 72 66 73 67 74
REMARK SMILES IDX 72 75 68 76 69 77 71 78 73 79 70 80 54 81 55 82 60 83 56 84
REMARK SMILES IDX 57 85 59 86 61 87 58 88
REMARK H PARENT 78 50 52 61
REMARK Flexibility Score: inf
ROOT
ATOM      1  C   UNL A   1      40.734  19.759  26.160  1.00  0.00     0.188 C 
ENDROOT
BRANCH   1   2
ATOM      2  O   UNL A   1      39.600  19.220  25.442  1.00  0.00    -0.376 OA
BRANCH   2   3
ATOM      3  C   UNL A   1      38.375  19.862  25.010  1.00  0.00     0.202 C 
BRANCH   3   4
ATOM      4  C   UNL A   1      37.783  21.545  24.984  1.00  0.00     0.261 C 
BRANCH   4   5
ATOM      5  O   UNL A   1      36.533  22.400  24.178  1.00  0.00    -0.463 OA
BRANCH   5   6
ATOM      6  C   UNL A   1      35.572  23.423  24.411  1.00  0.00     0.309 C 
ATOM      7  O   UNL A   1      35.715  24.441  25.088  1.00  0.00    -0.252 OA
BRANCH   6   8
ATOM      8  C   UNL A   1      34.174  23.361  23.875  1.00  0.00     0.108 C 
BRANCH   8   9
ATOM      9  C   UNL A   1      33.291  22.511  24.761  1.00  0.00     0.051 C 
BRANCH   9  10
ATOM     10  C   UNL A   1      33.348  21.094  24.262  1.00  0.00    -0.047 A 
ATOM     11  C   UNL A   1      33.094  16.886  23.482  1.00  0.00     0.044 C 
ATOM     12  C   UNL A   1      33.164  18.356  23.749  1.00  0.00    -0.051 A 
ATOM     13  C   UNL A   1      34.126  18.836  24.639  1.00  0.00     0.004 A 
ATOM     14  C   UNL A   1      32.279  19.249  23.133  1.00  0.00     0.004 A 
ATOM     15  C   UNL A   1      34.255  20.200  24.846  1.00  0.00     0.004 A 
ATOM     16  C   UNL A   1      32.355  20.613  23.404  1.00  0.00     0.004 A 
ENDBRANCH   9  10
ENDBRANCH   8   9
BRANCH   8  17
ATOM     17  C   UNL A   1      33.480  24.731  23.393  1.00  0.00     0.051 C 
BRANCH  17  18
ATOM     18  C   UNL A   1      32.514  25.584  24.169  1.00  0.00    -0.043 A 
ATOM     19  C   UNL A   1      32.827  26.004  25.476  1.00  0.00     0.043 A 
ATOM     20  C   UNL A   1      31.367  26.068  23.587  1.00  0.00     0.019 A 
ATOM     21  C   UNL A   1      32.219  27.129  26.012  1.00  0.00     0.124 A 
ATOM     22  C   UNL A   1      30.861  27.255  24.080  1.00  0.00     0.021 A 
ATOM     23  F   UNL A   1      32.644  27.628  27.180  1.00  0.00    -0.207 F 
ATOM     24  C   UNL A   1      31.289  27.820  25.272  1.00  0.00     0.055 A 
ATOM     25  Br  UNL A   1      29.870  28.212  22.858  1.00  0.00    -0.051 Br
ENDBRANCH  17  18
ENDBRANCH   8  17
ENDBRANCH   6   8
ENDBRANCH   5   6
ENDBRANCH   4   5
ENDBRANCH   3   4
ENDBRANCH   2   3
ENDBRANCH   1   2
BRANCH   1  26
ATOM     26  C   UNL A   1      42.071  19.036  26.316  1.00  0.00     0.188 C 
BRANCH  26  27
ATOM     27  O   UNL A   1      42.759  19.047  25.088  1.00  0.00    -0.376 OA
BRANCH  27  28
ATOM     28  C   UNL A   1      44.115  18.662  25.132  1.00  0.00     0.202 C 
BRANCH  28  29
ATOM     29  C   UNL A   1      44.970  19.298  24.023  1.00  0.00     0.261 C 
BRANCH  29  30
ATOM     30  O   UNL A   1      44.624  20.693  23.841  1.00  0.00    -0.460 OA
BRANCH  30  31
ATOM     31  C   UNL A   1      45.143  21.596  24.737  1.00  0.00     0.338 C 
ATOM     32  O   UNL A   1      46.218  21.472  25.308  1.00  0.00    -0.246 OA
BRANCH  31  33
ATOM     33  C   UNL A   1      44.090  22.600  25.127  1.00  0.00     0.060 A 
ATOM     34  C   UNL A   1      43.997  23.907  24.614  1.00  0.00     0.016 A 
ATOM     35  C   UNL A   1      43.523  22.399  26.337  1.00  0.00     0.016 A 
ATOM     36  C   UNL A   1      43.587  25.034  25.443  1.00  0.00     0.010 A 
ATOM     37  C   UNL A   1      43.453  23.533  27.147  1.00  0.00     0.010 A 
ATOM     38  C   UNL A   1      43.409  24.933  26.831  1.00  0.00    -0.014 A 
BRANCH  38  39
ATOM     39  C   UNL A   1      43.274  26.271  27.945  1.00  0.00     0.031 A 
ATOM     40  C   UNL A   1      41.985  27.342  28.433  1.00  0.00     0.074 A 
ATOM     41  C   UNL A   1      44.399  26.648  28.598  1.00  0.00     0.049 A 
ATOM     42  N   UNL A   1      41.845  27.970  29.600  1.00  0.00    -0.248 NA
ATOM     43  C   UNL A   1      40.808  27.785  27.627  1.00  0.00     0.031 C 
ATOM     44  C   UNL A   1      44.482  27.396  29.847  1.00  0.00     0.029 A 
ATOM     45  N   UNL A   1      45.719  26.591  28.159  1.00  0.00    -0.354 N 
ATOM     46  C   UNL A   1      40.650  28.714  29.636  1.00  0.00     0.074 A 
ATOM     47  C   UNL A   1      39.989  28.457  28.411  1.00  0.00     0.031 C 
ATOM     48  C   UNL A   1      45.656  28.027  29.905  1.00  0.00     0.029 A 
ATOM     49  C   UNL A   1      46.348  27.744  28.675  1.00  0.00     0.049 A 
ATOM     50  H   UNL A   1      46.129  25.891  27.602  1.00  0.00     0.167 HD
ATOM     51  C   UNL A   1      40.322  29.846  30.327  1.00  0.00     0.037 A 
ATOM     52  C   UNL A   1      47.048  28.622  27.917  1.00  0.00     0.037 A 
ATOM     53  C   UNL A   1      41.512  30.635  30.624  1.00  0.00     0.049 A 
ATOM     54  C   UNL A   1      46.706  30.091  28.163  1.00  0.00     0.074 A 
ATOM     55  C   UNL A   1      42.480  30.574  31.602  1.00  0.00     0.029 A 
ATOM     56  N   UNL A   1      42.014  31.524  29.670  1.00  0.00    -0.354 N 
ATOM     57  N   UNL A   1      45.836  30.573  29.032  1.00  0.00    -0.248 NA
ATOM     58  C   UNL A   1      47.297  31.149  27.348  1.00  0.00     0.031 C 
ATOM     59  C   UNL A   1      43.635  31.260  31.111  1.00  0.00     0.029 A 
ATOM     60  C   UNL A   1      43.377  31.779  29.847  1.00  0.00     0.049 A 
ATOM     61  H   UNL A   1      41.468  31.925  28.955  1.00  0.00     0.167 HD
ATOM     62  C   UNL A   1      45.498  31.863  28.634  1.00  0.00     0.074 A 
ATOM     63  C   UNL A   1      46.610  32.222  27.769  1.00  0.00     0.031 C 
ATOM     64  C   UNL A   1      44.241  32.434  28.812  1.00  0.00     0.037 A 
BRANCH  51  65
ATOM     65  C   UNL A   1      38.838  30.279  30.541  1.00  0.00     0.057 A 
ATOM     66  C   UNL A   1      38.434  31.605  30.301  1.00  0.00     0.134 A 
ATOM     67  C   UNL A   1      37.795  29.484  31.109  1.00  0.00     0.134 A 
ATOM     68  F   UNL A   1      39.305  32.514  29.846  1.00  0.00    -0.206 F 
ATOM     69  C   UNL A   1      37.126  32.082  30.566  1.00  0.00     0.040 A 
ATOM     70  C   UNL A   1      36.471  29.928  31.307  1.00  0.00     0.040 A 
ATOM     71  F   UNL A   1      38.004  28.240  31.562  1.00  0.00    -0.206 F 
ATOM     72  C   UNL A   1      36.132  31.241  31.049  1.00  0.00     0.006 A 
ENDBRANCH  51  65
BRANCH  52  73
ATOM     73  C   UNL A   1      47.574  27.946  26.679  1.00  0.00     0.057 A 
ATOM     74  C   UNL A   1      48.748  27.177  26.844  1.00  0.00     0.134 A 
ATOM     75  C   UNL A   1      46.772  27.605  25.580  1.00  0.00     0.134 A 
ATOM     76  F   UNL A   1      49.564  27.420  27.883  1.00  0.00    -0.206 F 
ATOM     77  C   UNL A   1      49.026  26.044  26.068  1.00  0.00     0.040 A 
ATOM     78  C   UNL A   1      47.058  26.486  24.774  1.00  0.00     0.040 A 
ATOM     79  F   UNL A   1      45.641  28.270  25.319  1.00  0.00    -0.206 F 
ATOM     80  C   UNL A   1      48.161  25.677  25.047  1.00  0.00     0.006 A 
ENDBRANCH  52  73
BRANCH  64  81
ATOM     81  C   UNL A   1      43.749  33.622  27.928  1.00  0.00     0.057 A 
ATOM     82  C   UNL A   1      43.741  33.642  26.512  1.00  0.00     0.134 A 
ATOM     83  C   UNL A   1      43.194  34.799  28.476  1.00  0.00     0.134 A 
ATOM     84  F   UNL A   1      43.887  32.532  25.780  1.00  0.00    -0.206 F 
ATOM     85  C   UNL A   1      43.470  34.785  25.738  1.00  0.00     0.040 A 
ATOM     86  C   UNL A   1      42.819  35.921  27.707  1.00  0.00     0.040 A 
ATOM     87  F   UNL A   1      42.928  34.907  29.784  1.00  0.00    -0.206 F 
ATOM     88  C   UNL A   1      43.020  35.943  26.337  1.00  0.00     0.006 A 
ENDBRANCH  64  81
ENDBRANCH  38  39
ENDBRANCH  31  33
ENDBRANCH  30  31
ENDBRANCH  29  30
ENDBRANCH  28  29
ENDBRANCH  27  28
ENDBRANCH  26  27
ENDBRANCH   1  26
TORSDOF 21
ENDMDL
MODEL 2
REMARK VINA RESULT:     -12.6      1.504      2.437
REMARK SMILES Cc1ccc(C[C@@H](Cc2cc(F)cc(Br)c2)C(=O)OCCOCCOCCOC(=O)c2ccc(-c3c4nc(c(-c5c(F)cccc5F)c5ccc([nH]5)c(-c5c(F)cccc5F)c5nc(c(-c6c(F)cccc6F)c6ccc3[nH]6)C=C5)C=C4)cc2)cc1
REMARK SMILES IDX 23 1 22 2 21 3 20 4 19 5 17 6 18 7 7 8 6 9 5 10 1 11 2 12
REMARK SMILES IDX 3 13 86 14 4 15 85 16 8 17 9 18 10 19 16 20 11 21 14 22
REMARK SMILES IDX 12 23 13 24 15 25 24 26 25 27 26 28 27 29 28 30 29 31 30 32
REMARK SMILES IDX 31 33 32 34 84 35 33 36 83 37 34 38 35 39 36 40 77 41 37 42
REMARK SMILES IDX 82 43 76 44 78 45 38 46 81 47 75 48 74 49 39 51 65 52 48 53
REMARK SMILES IDX 64 54 49 55 52 56 63 57 79 58 50 59 51 60 62 62 80 63 53 64
REMARK SMILES IDX 40 65 41 66 46 67 42 68 43 69 45 70 47 71 44 72 66 73 67 74
REMARK SMILES IDX 72 75 68 76 69 77 71 78 73 79 70 80 54 81 55 82 60 83 56 84
REMARK SMILES IDX 57 85 59 86 61 87 58 88
REMARK H PARENT 78 50 52 61
REMARK Flexibility Score: inf
ROOT
ATOM      1  C   UNL A   1      40.623  19.739  26.139  1.00  0.00     0.188 C 
ENDROOT
BRANCH   1   2
ATOM      2  O   UNL A   1      39.567  19.114  25.373  1.00  0.00    -0.376 OA
BRANCH   2   3
ATOM      3  C   UNL A   1      38.258  19.613  25.003  1.00  0.00     0.202 C 
BRANCH   3   4
ATOM      4  C   UNL A   1      37.274  21.025  25.476  1.00  0.00     0.261 C 
BRANCH   4   5
ATOM      5  O   UNL A   1      36.508  22.324  24.658  1.00  0.00    -0.463 OA
BRANCH   5   6
ATOM      6  C   UNL A   1      35.764  23.506  24.924  1.00  0.00     0.309 C 
ATOM      7  O   UNL A   1      36.141  24.502  25.542  1.00  0.00    -0.252 OA
BRANCH   6   8
ATOM      8  C   UNL A   1      34.334  23.677  24.509  1.00  0.00     0.108 C 
BRANCH   8   9
ATOM      9  C   UNL A   1      33.402  22.975  25.471  1.00  0.00     0.051 C 
BRANCH   9  10
ATOM     10  C   UNL A   1      32.956  21.686  24.838  1.00  0.00    -0.047 A 
ATOM     11  C   UNL A   1      32.325  18.091  22.589  1.00  0.00     0.044 C 
ATOM     12  C   UNL A   1      32.559  19.337  23.383  1.00  0.00    -0.051 A 
ATOM     13  C   UNL A   1      32.174  20.565  22.843  1.00  0.00     0.004 A 
ATOM     14  C   UNL A   1      33.165  19.290  24.645  1.00  0.00     0.004 A 
ATOM     15  C   UNL A   1      32.317  21.722  23.591  1.00  0.00     0.004 A 
ATOM     16  C   UNL A   1      33.383  20.463  25.363  1.00  0.00     0.004 A 
ENDBRANCH   9  10
ENDBRANCH   8   9
BRANCH   8  17
ATOM     17  C   UNL A   1      33.834  25.145  24.078  1.00  0.00     0.051 C 
BRANCH  17  18
ATOM     18  C   UNL A   1      32.919  26.057  24.850  1.00  0.00    -0.043 A 
ATOM     19  C   UNL A   1      33.320  26.584  26.092  1.00  0.00     0.043 A 
ATOM     20  C   UNL A   1      31.729  26.487  24.313  1.00  0.00     0.019 A 
ATOM     21  C   UNL A   1      32.742  27.748  26.576  1.00  0.00     0.124 A 
ATOM     22  C   UNL A   1      31.249  27.710  24.743  1.00  0.00     0.021 A 
ATOM     23  F   UNL A   1      33.245  28.342  27.666  1.00  0.00    -0.207 F 
ATOM     24  C   UNL A   1      31.756  28.372  25.851  1.00  0.00     0.055 A 
ATOM     25  Br  UNL A   1      30.165  28.560  23.520  1.00  0.00    -0.051 Br
ENDBRANCH  17  18
ENDBRANCH   8  17
ENDBRANCH   6   8
ENDBRANCH   5   6
ENDBRANCH   4   5
ENDBRANCH   3   4
ENDBRANCH   2   3
ENDBRANCH   1   2
BRANCH   1  26
ATOM     26  C   UNL A   1      42.012  19.134  26.335  1.00  0.00     0.188 C 
BRANCH  26  27
ATOM     27  O   UNL A   1      42.746  19.243  25.139  1.00  0.00    -0.376 OA
BRANCH  27  28
ATOM     28  C   UNL A   1      44.130  18.987  25.235  1.00  0.00     0.202 C 
BRANCH  28  29
ATOM     29  C   UNL A   1      44.966  19.737  24.184  1.00  0.00     0.261 C 
BRANCH  29  30
ATOM     30  O   UNL A   1      44.494  21.098  24.023  1.00  0.00    -0.460 OA
BRANCH  30  31
ATOM     31  C   UNL A   1      44.909  22.026  24.947  1.00  0.00     0.338 C 
ATOM     32  O   UNL A   1      45.807  21.846  25.759  1.00  0.00    -0.246 OA
BRANCH  31  33
ATOM     33  C   UNL A   1      43.929  23.167  25.010  1.00  0.00     0.060 A 
ATOM     34  C   UNL A   1      44.262  24.522  24.833  1.00  0.00     0.016 A 
ATOM     35  C   UNL A   1      42.806  22.923  25.720  1.00  0.00     0.016 A 
ATOM     36  C   UNL A   1      43.621  25.582  25.602  1.00  0.00     0.010 A 
ATOM     37  C   UNL A   1      42.463  23.918  26.637  1.00  0.00     0.010 A 
ATOM     38  C   UNL A   1      42.749  25.325  26.672  1.00  0.00    -0.014 A 
BRANCH  38  39
ATOM     39  C   UNL A   1      42.221  26.487  27.863  1.00  0.00     0.031 A 
ATOM     40  C   UNL A   1      41.006  27.741  27.906  1.00  0.00     0.074 A 
ATOM     41  C   UNL A   1      42.882  26.506  29.045  1.00  0.00     0.049 A 
ATOM     42  N   UNL A   1      40.361  28.213  28.973  1.00  0.00    -0.248 NA
ATOM     43  C   UNL A   1      40.481  28.546  26.764  1.00  0.00     0.031 C 
ATOM     44  C   UNL A   1      42.397  27.032  30.315  1.00  0.00     0.029 A 
ATOM     45  N   UNL A   1      44.220  26.217  29.297  1.00  0.00    -0.354 N 
ATOM     46  C   UNL A   1      39.420  29.193  28.602  1.00  0.00     0.074 A 
ATOM     47  C   UNL A   1      39.462  29.267  27.190  1.00  0.00     0.031 C 
ATOM     48  C   UNL A   1      43.438  27.368  31.078  1.00  0.00     0.029 A 
ATOM     49  C   UNL A   1      44.626  27.114  30.307  1.00  0.00     0.049 A 
ATOM     50  H   UNL A   1      44.771  25.528  28.859  1.00  0.00     0.167 HD
ATOM     51  C   UNL A   1      38.922  30.261  29.295  1.00  0.00     0.037 A 
ATOM     52  C   UNL A   1      45.718  27.911  30.212  1.00  0.00     0.037 A 
ATOM     53  C   UNL A   1      39.872  30.712  30.305  1.00  0.00     0.049 A 
ATOM     54  C   UNL A   1      45.479  29.369  30.602  1.00  0.00     0.074 A 
ATOM     55  C   UNL A   1      40.179  30.297  31.582  1.00  0.00     0.029 A 
ATOM     56  N   UNL A   1      40.899  31.592  29.952  1.00  0.00    -0.354 N 
ATOM     57  N   UNL A   1      44.352  29.906  31.029  1.00  0.00    -0.248 NA
ATOM     58  C   UNL A   1      46.530  30.372  30.448  1.00  0.00     0.031 C 
ATOM     59  C   UNL A   1      41.495  30.768  31.887  1.00  0.00     0.029 A 
ATOM     60  C   UNL A   1      41.993  31.506  30.817  1.00  0.00     0.049 A 
ATOM     61  H   UNL A   1      40.856  32.202  29.180  1.00  0.00     0.167 HD
ATOM     62  C   UNL A   1      44.428  31.282  30.835  1.00  0.00     0.074 A 
ATOM     63  C   UNL A   1      45.860  31.501  30.726  1.00  0.00     0.031 C 
ATOM     64  C   UNL A   1      43.340  32.090  30.515  1.00  0.00     0.037 A 
BRANCH  51  65
ATOM     65  C   UNL A   1      37.607  30.981  28.863  1.00  0.00     0.057 A 
ATOM     66  C   UNL A   1      36.495  30.244  28.419  1.00  0.00     0.134 A 
ATOM     67  C   UNL A   1      37.416  32.391  28.728  1.00  0.00     0.134 A 
ATOM     68  F   UNL A   1      36.527  28.905  28.395  1.00  0.00    -0.206 F 
ATOM     69  C   UNL A   1      35.309  30.841  27.925  1.00  0.00     0.040 A 
ATOM     70  C   UNL A   1      36.214  32.998  28.309  1.00  0.00     0.040 A 
ATOM     71  F   UNL A   1      38.402  33.274  28.942  1.00  0.00    -0.206 F 
ATOM     72  C   UNL A   1      35.154  32.221  27.888  1.00  0.00     0.006 A 
ENDBRANCH  51  65
BRANCH  52  73
ATOM     73  C   UNL A   1      46.722  27.316  29.261  1.00  0.00     0.057 A 
ATOM     74  C   UNL A   1      46.719  27.839  27.948  1.00  0.00     0.134 A 
ATOM     75  C   UNL A   1      47.919  26.714  29.674  1.00  0.00     0.134 A 
ATOM     76  F   UNL A   1      45.621  28.453  27.477  1.00  0.00    -0.206 F 
ATOM     77  C   UNL A   1      47.873  27.904  27.156  1.00  0.00     0.040 A 
ATOM     78  C   UNL A   1      49.078  26.745  28.874  1.00  0.00     0.040 A 
ATOM     79  F   UNL A   1      48.036  26.176  30.893  1.00  0.00    -0.206 F 
ATOM     80  C   UNL A   1      49.068  27.382  27.633  1.00  0.00     0.006 A 
ENDBRANCH  52  73
BRANCH  64  81
ATOM     81  C   UNL A   1      43.524  33.471  29.812  1.00  0.00     0.057 A 
ATOM     82  C   UNL A   1      43.369  34.734  30.434  1.00  0.00     0.134 A 
ATOM     83  C   UNL A   1      43.933  33.591  28.466  1.00  0.00     0.134 A 
ATOM     84  F   UNL A   1      43.328  34.877  31.763  1.00  0.00    -0.206 F 
ATOM     85  C   UNL A   1      43.356  35.960  29.744  1.00  0.00     0.040 A 
ATOM     86  C   UNL A   1      44.027  34.822  27.782  1.00  0.00     0.040 A 
ATOM     87  F   UNL A   1      44.324  32.527  27.753  1.00  0.00    -0.206 F 
ATOM     88  C   UNL A   1      43.672  36.008  28.402  1.00  0.00     0.006 A 
ENDBRANCH  64  81
ENDBRANCH  38  39
ENDBRANCH  31  33
ENDBRANCH  30  31
ENDBRANCH  29  30
ENDBRANCH  28  29
ENDBRANCH  27  28
ENDBRANCH  26  27
ENDBRANCH   1  26
TORSDOF 21
ENDMDL
MODEL 3
REMARK VINA RESULT:     -12.5      1.799      2.389
REMARK SMILES Cc1ccc(C[C@@H](Cc2cc(F)cc(Br)c2)C(=O)OCCOCCOCCOC(=O)c2ccc(-c3c4nc(c(-c5c(F)cccc5F)c5ccc([nH]5)c(-c5c(F)cccc5F)c5nc(c(-c6c(F)cccc6F)c6ccc3[nH]6)C=C5)C=C4)cc2)cc1
REMARK SMILES IDX 23 1 22 2 21 3 20 4 19 5 17 6 18 7 7 8 6 9 5 10 1 11 2 12
REMARK SMILES IDX 3 13 86 14 4 15 85 16 8 17 9 18 10 19 16 20 11 21 14 22
REMARK SMILES IDX 12 23 13 24 15 25 24 26 25 27 26 28 27 29 28 30 29 31 30 32
REMARK SMILES IDX 31 33 32 34 84 35 33 36 83 37 34 38 35 39 36 40 77 41 37 42
REMARK SMILES IDX 82 43 76 44 78 45 38 46 81 47 75 48 74 49 39 51 65 52 48 53
REMARK SMILES IDX 64 54 49 55 52 56 63 57 79 58 50 59 51 60 62 62 80 63 53 64
REMARK SMILES IDX 40 65 41 66 46 67 42 68 43 69 45 70 47 71 44 72 66 73 67 74
REMARK SMILES IDX 72 75 68 76 69 77 71 78 73 79 70 80 54 81 55 82 60 83 56 84
REMARK SMILES IDX 57 85 59 86 61 87 58 88
REMARK H PARENT 78 50 52 61
REMARK Flexibility Score: inf
ROOT
ATOM      1  C   UNL A   1      41.101  20.747  27.079  1.00  0.00     0.188 C 
ENDROOT
BRANCH   1   2
ATOM      2  O   UNL A   1      40.350  21.734  26.333  1.00  0.00    -0.376 OA
BRANCH   2   3
ATOM      3  C   UNL A   1      38.924  21.852  26.109  1.00  0.00     0.202 C 
BRANCH   3   4
ATOM      4  C   UNL A   1      37.824  23.198  25.704  1.00  0.00     0.261 C 
BRANCH   4   5
ATOM      5  O   UNL A   1      36.259  23.702  26.192  1.00  0.00    -0.463 OA
BRANCH   5   6
ATOM      6  C   UNL A   1      34.886  23.417  25.953  1.00  0.00     0.309 C 
ATOM      7  O   UNL A   1      33.969  23.422  26.774  1.00  0.00    -0.252 OA
BRANCH   6   8
ATOM      8  C   UNL A   1      34.365  23.003  24.610  1.00  0.00     0.108 C 
BRANCH   8   9
ATOM      9  C   UNL A   1      33.079  22.220  24.746  1.00  0.00     0.051 C 
BRANCH   9  10
ATOM     10  C   UNL A   1      33.331  20.815  24.273  1.00  0.00    -0.047 A 
ATOM     11  C   UNL A   1      33.729  16.599  23.606  1.00  0.00     0.044 C 
ATOM     12  C   UNL A   1      33.572  18.068  23.835  1.00  0.00    -0.051 A 
ATOM     13  C   UNL A   1      34.517  18.736  24.616  1.00  0.00     0.004 A 
ATOM     14  C   UNL A   1      32.492  18.776  23.293  1.00  0.00     0.004 A 
ATOM     15  C   UNL A   1      34.429  20.109  24.781  1.00  0.00     0.004 A 
ATOM     16  C   UNL A   1      32.358  20.142  23.528  1.00  0.00     0.004 A 
ENDBRANCH   9  10
ENDBRANCH   8   9
BRANCH   8  17
ATOM     17  C   UNL A   1      34.333  24.100  23.432  1.00  0.00     0.051 C 
BRANCH  17  18
ATOM     18  C   UNL A   1      33.679  25.454  23.467  1.00  0.00    -0.043 A 
ATOM     19  C   UNL A   1      32.800  25.848  22.440  1.00  0.00     0.043 A 
ATOM     20  C   UNL A   1      33.830  26.287  24.550  1.00  0.00     0.019 A 
ATOM     21  C   UNL A   1      31.853  26.834  22.672  1.00  0.00     0.124 A 
ATOM     22  C   UNL A   1      32.805  27.177  24.809  1.00  0.00     0.021 A 
ATOM     23  F   UNL A   1      30.908  27.082  21.757  1.00  0.00    -0.207 F 
ATOM     24  C   UNL A   1      31.792  27.446  23.901  1.00  0.00     0.055 A 
ATOM     25  Br  UNL A   1      32.677  27.678  26.578  1.00  0.00    -0.051 Br
ENDBRANCH  17  18
ENDBRANCH   8  17
ENDBRANCH   6   8
ENDBRANCH   5   6
ENDBRANCH   4   5
ENDBRANCH   3   4
ENDBRANCH   2   3
ENDBRANCH   1   2
BRANCH   1  26
ATOM     26  C   UNL A   1      41.801  19.546  26.447  1.00  0.00     0.188 C 
BRANCH  26  27
ATOM     27  O   UNL A   1      43.076  19.930  25.990  1.00  0.00    -0.376 OA
BRANCH  27  28
ATOM     28  C   UNL A   1      43.804  18.948  25.286  1.00  0.00     0.202 C 
BRANCH  28  29
ATOM     29  C   UNL A   1      44.812  19.535  24.283  1.00  0.00     0.261 C 
BRANCH  29  30
ATOM     30  O   UNL A   1      44.497  20.918  23.983  1.00  0.00    -0.460 OA
BRANCH  30  31
ATOM     31  C   UNL A   1      45.397  21.874  24.387  1.00  0.00     0.338 C 
ATOM     32  O   UNL A   1      46.512  21.637  24.834  1.00  0.00    -0.246 OA
BRANCH  31  33
ATOM     33  C   UNL A   1      44.722  23.217  24.469  1.00  0.00     0.060 A 
ATOM     34  C   UNL A   1      45.374  24.426  24.774  1.00  0.00     0.016 A 
ATOM     35  C   UNL A   1      43.396  23.180  24.727  1.00  0.00     0.016 A 
ATOM     36  C   UNL A   1      44.741  25.463  25.581  1.00  0.00     0.010 A 
ATOM     37  C   UNL A   1      42.970  24.042  25.739  1.00  0.00     0.010 A 
ATOM     38  C   UNL A   1      43.515  25.273  26.238  1.00  0.00    -0.014 A 
BRANCH  38  39
ATOM     39  C   UNL A   1      42.859  26.295  27.492  1.00  0.00     0.031 A 
ATOM     40  C   UNL A   1      41.577  27.477  27.573  1.00  0.00     0.074 A 
ATOM     41  C   UNL A   1      43.450  26.237  28.709  1.00  0.00     0.049 A 
ATOM     42  N   UNL A   1      40.848  27.818  28.635  1.00  0.00    -0.248 NA
ATOM     43  C   UNL A   1      41.073  28.357  26.476  1.00  0.00     0.031 C 
ATOM     44  C   UNL A   1      42.867  26.621  29.990  1.00  0.00     0.029 A 
ATOM     45  N   UNL A   1      44.786  25.993  29.015  1.00  0.00    -0.354 N 
ATOM     46  C   UNL A   1      39.877  28.780  28.297  1.00  0.00     0.074 A 
ATOM     47  C   UNL A   1      39.995  28.985  26.902  1.00  0.00     0.031 C 
ATOM     48  C   UNL A   1      43.844  26.937  30.841  1.00  0.00     0.029 A 
ATOM     49  C   UNL A   1      45.085  26.813  30.124  1.00  0.00     0.049 A 
ATOM     50  H   UNL A   1      45.397  25.375  28.552  1.00  0.00     0.167 HD
ATOM     51  C   UNL A   1      39.284  29.754  29.050  1.00  0.00     0.037 A 
ATOM     52  C   UNL A   1      46.136  27.668  30.165  1.00  0.00     0.037 A 
ATOM     53  C   UNL A   1      40.150  30.158  30.152  1.00  0.00     0.049 A 
ATOM     54  C   UNL A   1      45.797  29.071  30.667  1.00  0.00     0.074 A 
ATOM     55  C   UNL A   1      40.407  29.643  31.404  1.00  0.00     0.029 A 
ATOM     56  N   UNL A   1      41.146  31.115  29.940  1.00  0.00    -0.354 N 
ATOM     57  N   UNL A   1      44.620  29.510  31.072  1.00  0.00    -0.248 NA
ATOM     58  C   UNL A   1      46.798  30.134  30.667  1.00  0.00     0.031 C 
ATOM     59  C   UNL A   1      41.676  30.149  31.827  1.00  0.00     0.029 A 
ATOM     60  C   UNL A   1      42.193  31.005  30.859  1.00  0.00     0.049 A 
ATOM     61  H   UNL A   1      41.112  31.791  29.224  1.00  0.00     0.167 HD
ATOM     62  C   UNL A   1      44.631  30.900  31.005  1.00  0.00     0.074 A 
ATOM     63  C   UNL A   1      46.053  31.199  31.002  1.00  0.00     0.031 C 
ATOM     64  C   UNL A   1      43.521  31.679  30.692  1.00  0.00     0.037 A 
BRANCH  51  65
ATOM     65  C   UNL A   1      37.958  30.446  28.604  1.00  0.00     0.057 A 
ATOM     66  C   UNL A   1      37.750  31.818  28.831  1.00  0.00     0.134 A 
ATOM     67  C   UNL A   1      36.799  29.798  28.077  1.00  0.00     0.134 A 
ATOM     68  F   UNL A   1      38.703  32.569  29.400  1.00  0.00    -0.206 F 
ATOM     69  C   UNL A   1      36.535  32.483  28.537  1.00  0.00     0.040 A 
ATOM     70  C   UNL A   1      35.609  30.463  27.711  1.00  0.00     0.040 A 
ATOM     71  F   UNL A   1      36.720  28.467  27.933  1.00  0.00    -0.206 F 
ATOM     72  C   UNL A   1      35.466  31.813  27.955  1.00  0.00     0.006 A 
ENDBRANCH  51  65
BRANCH  52  73
ATOM     73  C   UNL A   1      47.222  27.213  29.229  1.00  0.00     0.057 A 
ATOM     74  C   UNL A   1      47.281  27.871  27.979  1.00  0.00     0.134 A 
ATOM     75  C   UNL A   1      48.415  26.611  29.657  1.00  0.00     0.134 A 
ATOM     76  F   UNL A   1      46.191  28.494  27.501  1.00  0.00    -0.206 F 
ATOM     77  C   UNL A   1      48.480  28.060  27.279  1.00  0.00     0.040 A 
ATOM     78  C   UNL A   1      49.620  26.768  28.945  1.00  0.00     0.040 A 
ATOM     79  F   UNL A   1      48.476  25.951  30.819  1.00  0.00    -0.206 F 
ATOM     80  C   UNL A   1      49.663  27.532  27.779  1.00  0.00     0.006 A 
ENDBRANCH  52  73
BRANCH  64  81
ATOM     81  C   UNL A   1      43.669  33.126  30.126  1.00  0.00     0.057 A 
ATOM     82  C   UNL A   1      44.154  33.457  28.837  1.00  0.00     0.134 A 
ATOM     83  C   UNL A   1      43.264  34.270  30.848  1.00  0.00     0.134 A 
ATOM     84  F   UNL A   1      44.268  32.550  27.862  1.00  0.00    -0.206 F 
ATOM     85  C   UNL A   1      44.454  34.765  28.416  1.00  0.00     0.040 A 
ATOM     86  C   UNL A   1      43.463  35.593  30.397  1.00  0.00     0.040 A 
ATOM     87  F   UNL A   1      42.599  34.171  32.006  1.00  0.00    -0.206 F 
ATOM     88  C   UNL A   1      44.122  35.846  29.207  1.00  0.00     0.006 A 
ENDBRANCH  64  81
ENDBRANCH  38  39
ENDBRANCH  31  33
ENDBRANCH  30  31
ENDBRANCH  29  30
ENDBRANCH  28  29
ENDBRANCH  27  28
ENDBRANCH  26  27
ENDBRANCH   1  26
TORSDOF 21
ENDMDL
