MODEL 1
REMARK VINA RESULT:     -10.7      0.000      0.000
REMARK SMILES O=C(/C=C/c1c(Cl)cccc1Cl)NCC(=O)OCCOCCOCCOC(=O)c1ccc(-c2c3nc(c(-c4c(F)cccc4F)c4ccc([nH]4)c(-c4c(F)cccc4F)c4nc(c(-c5c(F)cccc5F)c5ccc2[nH]5)C=C4)C=C3)cc1
REMARK SMILES IDX 21 1 20 2 19 3 18 4 17 5 15 6 16 7 14 8 13 9 1 10 2 11 3 13
REMARK SMILES IDX 4 14 5 15 6 16 11 17 7 18 8 19 10 20 12 21 9 22 22 23 23 24
REMARK SMILES IDX 24 25 25 26 26 27 27 28 28 29 29 30 30 31 82 32 31 33 81 34
REMARK SMILES IDX 32 35 33 36 34 37 75 38 35 39 80 40 74 41 76 42 36 43 79 44
REMARK SMILES IDX 73 45 72 46 37 48 63 49 46 50 62 51 47 52 50 53 61 54 77 55
REMARK SMILES IDX 48 56 49 57 60 59 78 60 51 61 38 62 39 63 44 64 40 65 41 66
REMARK SMILES IDX 43 67 45 68 42 69 64 70 65 71 70 72 66 73 67 74 69 75 71 76
REMARK SMILES IDX 68 77 52 78 53 79 58 80 54 81 55 82 57 83 59 84 56 85
REMARK H PARENT 13 12 76 47 50 58
REMARK Flexibility Score: inf
ROOT
ATOM      1  C   UNL A   1      43.845  18.849  25.311  1.00  0.00     0.188 C 
ENDROOT
BRANCH   1   2
ATOM      2  O   UNL A   1      42.575  19.458  25.141  1.00  0.00    -0.376 OA
BRANCH   2   3
ATOM      3  C   UNL A   1      41.618  19.328  26.191  1.00  0.00     0.202 C 
BRANCH   3   4
ATOM      4  C   UNL A   1      40.619  20.473  26.449  1.00  0.00     0.261 C 
BRANCH   4   5
ATOM      5  O   UNL A   1      39.422  20.420  25.638  1.00  0.00    -0.462 OA
BRANCH   5   6
ATOM      6  C   UNL A   1      38.599  21.501  25.706  1.00  0.00     0.325 C 
ATOM      7  O   UNL A   1      38.884  22.543  26.293  1.00  0.00    -0.250 OA
BRANCH   6   8
ATOM      8  C   UNL A   1      37.342  21.407  24.820  1.00  0.00     0.239 C 
BRANCH   8   9
ATOM      9  N   UNL A   1      36.206  22.317  24.944  1.00  0.00    -0.342 N 
ATOM     10  O   UNL A   1      36.216  22.955  22.757  1.00  0.00    -0.270 OA
ATOM     11  C   UNL A   1      35.714  23.004  23.875  1.00  0.00     0.244 C 
ATOM     12  H   UNL A   1      35.784  22.437  25.826  1.00  0.00     0.164 HD
BRANCH  11  13
ATOM     13  C   UNL A   1      34.455  23.779  24.085  1.00  0.00     0.072 C 
ATOM     14  C   UNL A   1      34.023  24.877  23.440  1.00  0.00     0.017 C 
BRANCH  14  15
ATOM     15  C   UNL A   1      32.701  25.492  23.735  1.00  0.00     0.012 A 
ATOM     16  C   UNL A   1      31.483  24.796  23.578  1.00  0.00     0.049 A 
ATOM     17  C   UNL A   1      32.621  26.825  24.189  1.00  0.00     0.049 A 
ATOM     18  Cl  UNL A   1      31.422  23.119  23.148  1.00  0.00    -0.084 Cl
ATOM     19  C   UNL A   1      30.249  25.430  23.795  1.00  0.00     0.021 A 
ATOM     20  C   UNL A   1      31.387  27.451  24.416  1.00  0.00     0.021 A 
ATOM     21  Cl  UNL A   1      34.029  27.782  24.485  1.00  0.00    -0.084 Cl
ATOM     22  C   UNL A   1      30.199  26.760  24.203  1.00  0.00     0.003 A 
ENDBRANCH  14  15
ENDBRANCH  11  13
ENDBRANCH   8   9
ENDBRANCH   6   8
ENDBRANCH   5   6
ENDBRANCH   4   5
ENDBRANCH   3   4
ENDBRANCH   2   3
ENDBRANCH   1   2
BRANCH   1  23
ATOM     23  C   UNL A   1      45.089  19.566  24.770  1.00  0.00     0.188 C 
BRANCH  23  24
ATOM     24  O   UNL A   1      45.443  20.780  25.374  1.00  0.00    -0.376 OA
BRANCH  24  25
ATOM     25  C   UNL A   1      46.044  21.824  24.631  1.00  0.00     0.202 C 
BRANCH  25  26
ATOM     26  C   UNL A   1      45.300  22.963  23.903  1.00  0.00     0.261 C 
BRANCH  26  27
ATOM     27  O   UNL A   1      44.571  23.917  24.681  1.00  0.00    -0.460 OA
BRANCH  27  28
ATOM     28  C   UNL A   1      43.299  23.589  25.011  1.00  0.00     0.338 C 
ATOM     29  O   UNL A   1      42.699  22.561  24.737  1.00  0.00    -0.246 OA
BRANCH  28  30
ATOM     30  C   UNL A   1      42.827  24.590  25.989  1.00  0.00     0.060 A 
ATOM     31  C   UNL A   1      43.322  25.902  25.916  1.00  0.00     0.016 A 
ATOM     32  C   UNL A   1      41.875  24.245  26.947  1.00  0.00     0.016 A 
ATOM     33  C   UNL A   1      42.853  26.878  26.794  1.00  0.00     0.010 A 
ATOM     34  C   UNL A   1      41.434  25.215  27.849  1.00  0.00     0.010 A 
ATOM     35  C   UNL A   1      41.928  26.532  27.785  1.00  0.00    -0.014 A 
BRANCH  35  36
ATOM     36  C   UNL A   1      41.585  27.487  28.863  1.00  0.00     0.031 A 
ATOM     37  C   UNL A   1      42.358  27.420  30.148  1.00  0.00     0.074 A 
ATOM     38  C   UNL A   1      40.589  28.379  28.718  1.00  0.00     0.049 A 
ATOM     39  N   UNL A   1      42.147  28.042  31.279  1.00  0.00    -0.248 NA
ATOM     40  C   UNL A   1      43.524  26.523  30.158  1.00  0.00     0.031 C 
ATOM     41  C   UNL A   1      39.804  28.584  27.504  1.00  0.00     0.029 A 
ATOM     42  N   UNL A   1      40.053  29.264  29.621  1.00  0.00    -0.354 N 
ATOM     43  C   UNL A   1      43.144  27.601  32.140  1.00  0.00     0.074 A 
ATOM     44  C   UNL A   1      43.945  26.643  31.408  1.00  0.00     0.031 C 
ATOM     45  C   UNL A   1      38.869  29.519  27.744  1.00  0.00     0.029 A 
ATOM     46  C   UNL A   1      38.959  29.941  29.142  1.00  0.00     0.049 A 
ATOM     47  H   UNL A   1      40.419  29.399  30.526  1.00  0.00     0.167 HD
ATOM     48  C   UNL A   1      43.370  27.962  33.425  1.00  0.00     0.037 A 
ATOM     49  C   UNL A   1      38.107  30.774  29.773  1.00  0.00     0.037 A 
ATOM     50  C   UNL A   1      42.563  28.906  34.152  1.00  0.00     0.049 A 
ATOM     51  C   UNL A   1      38.314  31.078  31.235  1.00  0.00     0.074 A 
ATOM     52  C   UNL A   1      42.716  29.346  35.455  1.00  0.00     0.029 A 
ATOM     53  N   UNL A   1      41.442  29.545  33.643  1.00  0.00    -0.354 N 
ATOM     54  N   UNL A   1      39.265  30.669  32.041  1.00  0.00    -0.248 NA
ATOM     55  C   UNL A   1      37.322  31.954  31.878  1.00  0.00     0.031 C 
ATOM     56  C   UNL A   1      41.653  30.203  35.753  1.00  0.00     0.029 A 
ATOM     57  C   UNL A   1      40.874  30.349  34.617  1.00  0.00     0.049 A 
ATOM     58  H   UNL A   1      41.101  29.440  32.726  1.00  0.00     0.167 HD
ATOM     59  C   UNL A   1      39.005  31.264  33.271  1.00  0.00     0.074 A 
ATOM     60  C   UNL A   1      37.814  32.068  33.104  1.00  0.00     0.031 C 
ATOM     61  C   UNL A   1      39.693  31.154  34.435  1.00  0.00     0.037 A 
BRANCH  48  62
ATOM     62  C   UNL A   1      44.516  27.304  34.135  1.00  0.00     0.057 A 
ATOM     63  C   UNL A   1      44.360  26.111  34.854  1.00  0.00     0.134 A 
ATOM     64  C   UNL A   1      45.801  27.860  34.079  1.00  0.00     0.134 A 
ATOM     65  F   UNL A   1      43.152  25.536  34.962  1.00  0.00    -0.206 F 
ATOM     66  C   UNL A   1      45.434  25.510  35.513  1.00  0.00     0.040 A 
ATOM     67  C   UNL A   1      46.888  27.253  34.708  1.00  0.00     0.040 A 
ATOM     68  F   UNL A   1      46.022  28.999  33.404  1.00  0.00    -0.206 F 
ATOM     69  C   UNL A   1      46.704  26.078  35.433  1.00  0.00     0.006 A 
ENDBRANCH  48  62
BRANCH  49  70
ATOM     70  C   UNL A   1      36.956  31.362  29.039  1.00  0.00     0.057 A 
ATOM     71  C   UNL A   1      36.962  32.703  28.640  1.00  0.00     0.134 A 
ATOM     72  C   UNL A   1      35.811  30.609  28.750  1.00  0.00     0.134 A 
ATOM     73  F   UNL A   1      38.018  33.483  28.913  1.00  0.00    -0.206 F 
ATOM     74  C   UNL A   1      35.865  33.280  27.996  1.00  0.00     0.040 A 
ATOM     75  C   UNL A   1      34.719  31.165  28.081  1.00  0.00     0.040 A 
ATOM     76  F   UNL A   1      35.738  29.319  29.110  1.00  0.00    -0.206 F 
ATOM     77  C   UNL A   1      34.742  32.508  27.709  1.00  0.00     0.006 A 
ENDBRANCH  49  70
BRANCH  61  78
ATOM     78  C   UNL A   1      39.208  31.954  35.611  1.00  0.00     0.057 A 
ATOM     79  C   UNL A   1      39.590  33.286  35.813  1.00  0.00     0.134 A 
ATOM     80  C   UNL A   1      38.296  31.400  36.520  1.00  0.00     0.134 A 
ATOM     81  F   UNL A   1      40.469  33.874  34.988  1.00  0.00    -0.206 F 
ATOM     82  C   UNL A   1      39.096  34.031  36.886  1.00  0.00     0.040 A 
ATOM     83  C   UNL A   1      37.772  32.144  37.578  1.00  0.00     0.040 A 
ATOM     84  F   UNL A   1      37.878  30.132  36.380  1.00  0.00    -0.206 F 
ATOM     85  C   UNL A   1      38.177  33.464  37.766  1.00  0.00     0.006 A 
ENDBRANCH  61  78
ENDBRANCH  35  36
ENDBRANCH  28  30
ENDBRANCH  27  28
ENDBRANCH  26  27
ENDBRANCH  25  26
ENDBRANCH  24  25
ENDBRANCH  23  24
ENDBRANCH   1  23
TORSDOF 20
ENDMDL
MODEL 2
REMARK VINA RESULT:     -10.0      3.668      8.700
REMARK SMILES O=C(/C=C/c1c(Cl)cccc1Cl)NCC(=O)OCCOCCOCCOC(=O)c1ccc(-c2c3nc(c(-c4c(F)cccc4F)c4ccc([nH]4)c(-c4c(F)cccc4F)c4nc(c(-c5c(F)cccc5F)c5ccc2[nH]5)C=C4)C=C3)cc1
REMARK SMILES IDX 21 1 20 2 19 3 18 4 17 5 15 6 16 7 14 8 13 9 1 10 2 11 3 13
REMARK SMILES IDX 4 14 5 15 6 16 11 17 7 18 8 19 10 20 12 21 9 22 22 23 23 24
REMARK SMILES IDX 24 25 25 26 26 27 27 28 28 29 29 30 30 31 82 32 31 33 81 34
REMARK SMILES IDX 32 35 33 36 34 37 75 38 35 39 80 40 74 41 76 42 36 43 79 44
REMARK SMILES IDX 73 45 72 46 37 48 63 49 46 50 62 51 47 52 50 53 61 54 77 55
REMARK SMILES IDX 48 56 49 57 60 59 78 60 51 61 38 62 39 63 44 64 40 65 41 66
REMARK SMILES IDX 43 67 45 68 42 69 64 70 65 71 70 72 66 73 67 74 69 75 71 76
REMARK SMILES IDX 68 77 52 78 53 79 58 80 54 81 55 82 57 83 59 84 56 85
REMARK H PARENT 13 12 76 47 50 58
REMARK Flexibility Score: inf
ROOT
ATOM      1  C   UNL A   1      33.923  27.802  26.230  1.00  0.00     0.188 C 
ENDROOT
BRANCH   1   2
ATOM      2  O   UNL A   1      33.388  26.587  25.732  1.00  0.00    -0.376 OA
BRANCH   2   3
ATOM      3  C   UNL A   1      34.205  25.790  24.876  1.00  0.00     0.202 C 
BRANCH   3   4
ATOM      4  C   UNL A   1      34.532  24.338  25.279  1.00  0.00     0.261 C 
BRANCH   4   5
ATOM      5  O   UNL A   1      33.919  23.906  26.516  1.00  0.00    -0.462 OA
BRANCH   5   6
ATOM      6  C   UNL A   1      32.982  22.925  26.415  1.00  0.00     0.325 C 
ATOM      7  O   UNL A   1      33.232  21.726  26.523  1.00  0.00    -0.250 OA
BRANCH   6   8
ATOM      8  C   UNL A   1      31.528  23.431  26.349  1.00  0.00     0.239 C 
BRANCH   8   9
ATOM      9  N   UNL A   1      31.113  24.568  25.532  1.00  0.00    -0.342 N 
ATOM     10  O   UNL A   1      29.324  25.112  26.833  1.00  0.00    -0.270 OA
ATOM     11  C   UNL A   1      30.043  25.343  25.867  1.00  0.00     0.244 C 
ATOM     12  H   UNL A   1      31.621  24.780  24.715  1.00  0.00     0.164 HD
BRANCH  11  13
ATOM     13  C   UNL A   1      29.809  26.570  25.049  1.00  0.00     0.072 C 
ATOM     14  C   UNL A   1      29.400  26.666  23.772  1.00  0.00     0.017 C 
BRANCH  14  15
ATOM     15  C   UNL A   1      29.154  27.982  23.123  1.00  0.00     0.012 A 
ATOM     16  C   UNL A   1      30.173  28.724  22.488  1.00  0.00     0.049 A 
ATOM     17  C   UNL A   1      27.861  28.547  23.128  1.00  0.00     0.049 A 
ATOM     18  Cl  UNL A   1      31.781  28.109  22.292  1.00  0.00    -0.084 Cl
ATOM     19  C   UNL A   1      29.921  29.996  21.951  1.00  0.00     0.021 A 
ATOM     20  C   UNL A   1      27.612  29.814  22.581  1.00  0.00     0.021 A 
ATOM     21  Cl  UNL A   1      26.502  27.730  23.815  1.00  0.00    -0.084 Cl
ATOM     22  C   UNL A   1      28.644  30.547  22.006  1.00  0.00     0.003 A 
ENDBRANCH  14  15
ENDBRANCH  11  13
ENDBRANCH   8   9
ENDBRANCH   6   8
ENDBRANCH   5   6
ENDBRANCH   4   5
ENDBRANCH   3   4
ENDBRANCH   2   3
ENDBRANCH   1   2
BRANCH   1  23
ATOM     23  C   UNL A   1      33.235  29.123  25.856  1.00  0.00     0.188 C 
BRANCH  23  24
ATOM     24  O   UNL A   1      32.861  29.971  26.907  1.00  0.00    -0.376 OA
BRANCH  24  25
ATOM     25  C   UNL A   1      31.752  30.842  26.790  1.00  0.00     0.202 C 
BRANCH  25  26
ATOM     26  C   UNL A   1      31.792  32.380  26.902  1.00  0.00     0.261 C 
BRANCH  26  27
ATOM     27  O   UNL A   1      33.062  33.031  27.000  1.00  0.00    -0.460 OA
BRANCH  27  28
ATOM     28  C   UNL A   1      33.226  33.897  28.028  1.00  0.00     0.338 C 
ATOM     29  O   UNL A   1      32.450  34.762  28.404  1.00  0.00    -0.246 OA
BRANCH  28  30
ATOM     30  C   UNL A   1      34.407  33.450  28.794  1.00  0.00     0.060 A 
ATOM     31  C   UNL A   1      35.624  34.132  28.631  1.00  0.00     0.016 A 
ATOM     32  C   UNL A   1      34.304  32.391  29.694  1.00  0.00     0.016 A 
ATOM     33  C   UNL A   1      36.739  33.763  29.382  1.00  0.00     0.010 A 
ATOM     34  C   UNL A   1      35.431  31.999  30.419  1.00  0.00     0.010 A 
ATOM     35  C   UNL A   1      36.657  32.675  30.258  1.00  0.00    -0.014 A 
BRANCH  35  36
ATOM     36  C   UNL A   1      37.875  32.126  30.896  1.00  0.00     0.031 A 
ATOM     37  C   UNL A   1      38.633  31.049  30.176  1.00  0.00     0.074 A 
ATOM     38  C   UNL A   1      38.287  32.553  32.102  1.00  0.00     0.049 A 
ATOM     39  N   UNL A   1      39.632  30.315  30.591  1.00  0.00    -0.248 NA
ATOM     40  C   UNL A   1      38.199  30.759  28.800  1.00  0.00     0.031 C 
ATOM     41  C   UNL A   1      37.675  33.630  32.876  1.00  0.00     0.029 A 
ATOM     42  N   UNL A   1      39.313  32.104  32.898  1.00  0.00    -0.354 N 
ATOM     43  C   UNL A   1      39.936  29.464  29.536  1.00  0.00     0.074 A 
ATOM     44  C   UNL A   1      39.002  29.759  28.470  1.00  0.00     0.031 C 
ATOM     45  C   UNL A   1      38.322  33.743  34.049  1.00  0.00     0.029 A 
ATOM     46  C   UNL A   1      39.361  32.716  34.127  1.00  0.00     0.049 A 
ATOM     47  H   UNL A   1      39.952  31.410  32.614  1.00  0.00     0.167 HD
ATOM     48  C   UNL A   1      40.907  28.524  29.463  1.00  0.00     0.037 A 
ATOM     49  C   UNL A   1      40.129  32.448  35.202  1.00  0.00     0.037 A 
ATOM     50  C   UNL A   1      41.825  28.227  30.530  1.00  0.00     0.049 A 
ATOM     51  C   UNL A   1      41.130  31.322  35.137  1.00  0.00     0.074 A 
ATOM     52  C   UNL A   1      42.850  27.298  30.550  1.00  0.00     0.029 A 
ATOM     53  N   UNL A   1      41.819  28.844  31.772  1.00  0.00    -0.354 N 
ATOM     54  N   UNL A   1      41.422  30.530  34.133  1.00  0.00    -0.248 NA
ATOM     55  C   UNL A   1      41.902  31.047  36.358  1.00  0.00     0.031 C 
ATOM     56  C   UNL A   1      43.425  27.310  31.824  1.00  0.00     0.029 A 
ATOM     57  C   UNL A   1      42.802  28.292  32.578  1.00  0.00     0.049 A 
ATOM     58  H   UNL A   1      41.207  29.566  32.041  1.00  0.00     0.167 HD
ATOM     59  C   UNL A   1      42.433  29.690  34.590  1.00  0.00     0.074 A 
ATOM     60  C   UNL A   1      42.708  30.075  35.958  1.00  0.00     0.031 C 
ATOM     61  C   UNL A   1      43.075  28.691  33.935  1.00  0.00     0.037 A 
BRANCH  48  62
ATOM     62  C   UNL A   1      40.997  27.723  28.197  1.00  0.00     0.057 A 
ATOM     63  C   UNL A   1      40.281  26.532  28.017  1.00  0.00     0.134 A 
ATOM     64  C   UNL A   1      41.795  28.164  27.133  1.00  0.00     0.134 A 
ATOM     65  F   UNL A   1      39.512  26.046  29.004  1.00  0.00    -0.206 F 
ATOM     66  C   UNL A   1      40.377  25.795  26.835  1.00  0.00     0.040 A 
ATOM     67  C   UNL A   1      41.875  27.452  25.936  1.00  0.00     0.040 A 
ATOM     68  F   UNL A   1      42.504  29.298  27.237  1.00  0.00    -0.206 F 
ATOM     69  C   UNL A   1      41.170  26.260  25.788  1.00  0.00     0.006 A 
ENDBRANCH  48  62
BRANCH  49  70
ATOM     70  C   UNL A   1      39.967  33.236  36.451  1.00  0.00     0.057 A 
ATOM     71  C   UNL A   1      39.000  32.892  37.403  1.00  0.00     0.134 A 
ATOM     72  C   UNL A   1      40.750  34.368  36.709  1.00  0.00     0.134 A 
ATOM     73  F   UNL A   1      38.200  31.835  37.200  1.00  0.00    -0.206 F 
ATOM     74  C   UNL A   1      38.804  33.655  38.556  1.00  0.00     0.040 A 
ATOM     75  C   UNL A   1      40.584  35.123  37.872  1.00  0.00     0.040 A 
ATOM     76  F   UNL A   1      41.691  34.756  35.836  1.00  0.00    -0.206 F 
ATOM     77  C   UNL A   1      39.603  34.770  38.796  1.00  0.00     0.006 A 
ENDBRANCH  49  70
BRANCH  61  78
ATOM     78  C   UNL A   1      44.171  27.968  34.667  1.00  0.00     0.057 A 
ATOM     79  C   UNL A   1      43.928  26.806  35.410  1.00  0.00     0.134 A 
ATOM     80  C   UNL A   1      45.498  28.409  34.573  1.00  0.00     0.134 A 
ATOM     81  F   UNL A   1      42.680  26.336  35.549  1.00  0.00    -0.206 F 
ATOM     82  C   UNL A   1      44.963  26.120  36.048  1.00  0.00     0.040 A 
ATOM     83  C   UNL A   1      46.544  27.715  35.182  1.00  0.00     0.040 A 
ATOM     84  F   UNL A   1      45.803  29.510  33.869  1.00  0.00    -0.206 F 
ATOM     85  C   UNL A   1      46.277  26.568  35.927  1.00  0.00     0.006 A 
ENDBRANCH  61  78
ENDBRANCH  35  36
ENDBRANCH  28  30
ENDBRANCH  27  28
ENDBRANCH  26  27
ENDBRANCH  25  26
ENDBRANCH  24  25
ENDBRANCH  23  24
ENDBRANCH   1  23
TORSDOF 20
ENDMDL
MODEL 3
REMARK VINA RESULT:      -9.9      1.340      6.437
REMARK SMILES O=C(/C=C/c1c(Cl)cccc1Cl)NCC(=O)OCCOCCOCCOC(=O)c1ccc(-c2c3nc(c(-c4c(F)cccc4F)c4ccc([nH]4)c(-c4c(F)cccc4F)c4nc(c(-c5c(F)cccc5F)c5ccc2[nH]5)C=C4)C=C3)cc1
REMARK SMILES IDX 21 1 20 2 19 3 18 4 17 5 15 6 16 7 14 8 13 9 1 10 2 11 3 13
REMARK SMILES IDX 4 14 5 15 6 16 11 17 7 18 8 19 10 20 12 21 9 22 22 23 23 24
REMARK SMILES IDX 24 25 25 26 26 27 27 28 28 29 29 30 30 31 82 32 31 33 81 34
REMARK SMILES IDX 32 35 33 36 34 37 75 38 35 39 80 40 74 41 76 42 36 43 79 44
REMARK SMILES IDX 73 45 72 46 37 48 63 49 46 50 62 51 47 52 50 53 61 54 77 55
REMARK SMILES IDX 48 56 49 57 60 59 78 60 51 61 38 62 39 63 44 64 40 65 41 66
REMARK SMILES IDX 43 67 45 68 42 69 64 70 65 71 70 72 66 73 67 74 69 75 71 76
REMARK SMILES IDX 68 77 52 78 53 79 58 80 54 81 55 82 57 83 59 84 56 85
REMARK H PARENT 13 12 76 47 50 58
REMARK Flexibility Score: inf
ROOT
ATOM      1  C   UNL A   1      44.969  18.842  25.147  1.00  0.00     0.188 C 
ENDROOT
BRANCH   1   2
ATOM      2  O   UNL A   1      43.677  18.275  25.004  1.00  0.00    -0.376 OA
BRANCH   2   3
ATOM      3  C   UNL A   1      42.708  18.541  26.018  1.00  0.00     0.202 C 
BRANCH   3   4
ATOM      4  C   UNL A   1      42.129  19.962  26.156  1.00  0.00     0.261 C 
BRANCH   4   5
ATOM      5  O   UNL A   1      40.967  20.057  27.012  1.00  0.00    -0.462 OA
BRANCH   5   6
ATOM      6  C   UNL A   1      40.329  21.259  27.034  1.00  0.00     0.325 C 
ATOM      7  O   UNL A   1      40.649  22.190  27.771  1.00  0.00    -0.250 OA
BRANCH   6   8
ATOM      8  C   UNL A   1      39.283  21.450  25.920  1.00  0.00     0.239 C 
BRANCH   8   9
ATOM      9  N   UNL A   1      37.956  22.014  26.157  1.00  0.00    -0.342 N 
ATOM     10  O   UNL A   1      37.409  22.181  23.952  1.00  0.00    -0.270 OA
ATOM     11  C   UNL A   1      37.106  22.310  25.133  1.00  0.00     0.244 C 
ATOM     12  H   UNL A   1      37.669  22.186  27.083  1.00  0.00     0.164 HD
BRANCH  11  13
ATOM     13  C   UNL A   1      35.721  22.730  25.499  1.00  0.00     0.072 C 
ATOM     14  C   UNL A   1      34.659  22.920  24.697  1.00  0.00     0.017 C 
BRANCH  14  15
ATOM     15  C   UNL A   1      33.321  23.280  25.239  1.00  0.00     0.012 A 
ATOM     16  C   UNL A   1      32.926  24.614  25.476  1.00  0.00     0.049 A 
ATOM     17  C   UNL A   1      32.382  22.272  25.545  1.00  0.00     0.049 A 
ATOM     18  Cl  UNL A   1      33.917  25.966  25.038  1.00  0.00    -0.084 Cl
ATOM     19  C   UNL A   1      31.684  24.913  26.058  1.00  0.00     0.021 A 
ATOM     20  C   UNL A   1      31.138  22.576  26.115  1.00  0.00     0.021 A 
ATOM     21  Cl  UNL A   1      32.701  20.599  25.253  1.00  0.00    -0.084 Cl
ATOM     22  C   UNL A   1      30.794  23.896  26.388  1.00  0.00     0.003 A 
ENDBRANCH  14  15
ENDBRANCH  11  13
ENDBRANCH   8   9
ENDBRANCH   6   8
ENDBRANCH   5   6
ENDBRANCH   4   5
ENDBRANCH   3   4
ENDBRANCH   2   3
ENDBRANCH   1   2
BRANCH   1  23
ATOM     23  C   UNL A   1      45.286  20.156  24.420  1.00  0.00     0.188 C 
BRANCH  23  24
ATOM     24  O   UNL A   1      46.296  20.961  24.962  1.00  0.00    -0.376 OA
BRANCH  24  25
ATOM     25  C   UNL A   1      46.248  22.371  24.858  1.00  0.00     0.202 C 
BRANCH  25  26
ATOM     26  C   UNL A   1      45.958  23.355  26.010  1.00  0.00     0.261 C 
BRANCH  26  27
ATOM     27  O   UNL A   1      45.443  24.653  25.696  1.00  0.00    -0.460 OA
BRANCH  27  28
ATOM     28  C   UNL A   1      44.118  24.734  25.427  1.00  0.00     0.338 C 
ATOM     29  O   UNL A   1      43.494  24.134  24.566  1.00  0.00    -0.246 OA
BRANCH  28  30
ATOM     30  C   UNL A   1      43.493  25.492  26.530  1.00  0.00     0.060 A 
ATOM     31  C   UNL A   1      43.985  26.768  26.847  1.00  0.00     0.016 A 
ATOM     32  C   UNL A   1      42.404  24.962  27.220  1.00  0.00     0.016 A 
ATOM     33  C   UNL A   1      43.378  27.525  27.848  1.00  0.00     0.010 A 
ATOM     34  C   UNL A   1      41.820  25.706  28.248  1.00  0.00     0.010 A 
ATOM     35  C   UNL A   1      42.310  26.985  28.574  1.00  0.00    -0.014 A 
BRANCH  35  36
ATOM     36  C   UNL A   1      41.796  27.671  29.781  1.00  0.00     0.031 A 
ATOM     37  C   UNL A   1      40.590  28.553  29.640  1.00  0.00     0.074 A 
ATOM     38  C   UNL A   1      42.402  27.539  30.974  1.00  0.00     0.049 A 
ATOM     39  N   UNL A   1      40.049  29.368  30.509  1.00  0.00    -0.248 NA
ATOM     40  C   UNL A   1      39.906  28.515  28.338  1.00  0.00     0.031 C 
ATOM     41  C   UNL A   1      43.541  26.669  31.255  1.00  0.00     0.029 A 
ATOM     42  N   UNL A   1      42.150  28.163  32.171  1.00  0.00    -0.354 N 
ATOM     43  C   UNL A   1      38.971  29.950  29.854  1.00  0.00     0.074 A 
ATOM     44  C   UNL A   1      38.948  29.413  28.511  1.00  0.00     0.031 C 
ATOM     45  C   UNL A   1      43.907  26.834  32.538  1.00  0.00     0.029 A 
ATOM     46  C   UNL A   1      43.058  27.854  33.153  1.00  0.00     0.049 A 
ATOM     47  H   UNL A   1      41.390  28.774  32.310  1.00  0.00     0.167 HD
ATOM     48  C   UNL A   1      38.081  30.851  30.332  1.00  0.00     0.037 A 
ATOM     49  C   UNL A   1      43.209  28.368  34.390  1.00  0.00     0.037 A 
ATOM     50  C   UNL A   1      38.115  31.391  31.665  1.00  0.00     0.049 A 
ATOM     51  C   UNL A   1      42.273  29.451  34.864  1.00  0.00     0.074 A 
ATOM     52  C   UNL A   1      37.252  32.303  32.248  1.00  0.00     0.029 A 
ATOM     53  N   UNL A   1      39.072  31.081  32.620  1.00  0.00    -0.354 N 
ATOM     54  N   UNL A   1      41.248  29.989  34.247  1.00  0.00    -0.248 NA
ATOM     55  C   UNL A   1      42.520  30.004  36.204  1.00  0.00     0.031 C 
ATOM     56  C   UNL A   1      37.722  32.589  33.532  1.00  0.00     0.029 A 
ATOM     57  C   UNL A   1      38.840  31.808  33.776  1.00  0.00     0.049 A 
ATOM     58  H   UNL A   1      39.808  30.438  32.493  1.00  0.00     0.167 HD
ATOM     59  C   UNL A   1      40.710  30.915  35.134  1.00  0.00     0.074 A 
ATOM     60  C   UNL A   1      41.517  30.860  36.334  1.00  0.00     0.031 C 
ATOM     61  C   UNL A   1      39.644  31.737  34.969  1.00  0.00     0.037 A 
BRANCH  48  62
ATOM     62  C   UNL A   1      37.017  31.336  29.390  1.00  0.00     0.057 A 
ATOM     63  C   UNL A   1      35.912  30.546  29.046  1.00  0.00     0.134 A 
ATOM     64  C   UNL A   1      37.090  32.621  28.838  1.00  0.00     0.134 A 
ATOM     65  F   UNL A   1      35.792  29.299  29.527  1.00  0.00    -0.206 F 
ATOM     66  C   UNL A   1      34.931  31.007  28.166  1.00  0.00     0.040 A 
ATOM     67  C   UNL A   1      36.100  33.105  27.981  1.00  0.00     0.040 A 
ATOM     68  F   UNL A   1      38.120  33.431  29.128  1.00  0.00    -0.206 F 
ATOM     69  C   UNL A   1      35.021  32.294  27.638  1.00  0.00     0.006 A 
ENDBRANCH  48  62
BRANCH  49  70
ATOM     70  C   UNL A   1      44.310  27.891  35.268  1.00  0.00     0.057 A 
ATOM     71  C   UNL A   1      44.138  26.786  36.108  1.00  0.00     0.134 A 
ATOM     72  C   UNL A   1      45.547  28.548  35.312  1.00  0.00     0.134 A 
ATOM     73  F   UNL A   1      42.967  26.133  36.132  1.00  0.00    -0.206 F 
ATOM     74  C   UNL A   1      45.147  26.361  36.975  1.00  0.00     0.040 A 
ATOM     75  C   UNL A   1      46.575  28.115  36.152  1.00  0.00     0.040 A 
ATOM     76  F   UNL A   1      45.777  29.617  34.536  1.00  0.00    -0.206 F 
ATOM     77  C   UNL A   1      46.373  27.023  36.993  1.00  0.00     0.006 A 
ENDBRANCH  49  70
BRANCH  61  78
ATOM     78  C   UNL A   1      39.253  32.613  36.126  1.00  0.00     0.057 A 
ATOM     79  C   UNL A   1      38.364  32.182  37.118  1.00  0.00     0.134 A 
ATOM     80  C   UNL A   1      39.823  33.885  36.277  1.00  0.00     0.134 A 
ATOM     81  F   UNL A   1      37.774  30.981  37.028  1.00  0.00    -0.206 F 
ATOM     82  C   UNL A   1      38.044  32.991  38.211  1.00  0.00     0.040 A 
ATOM     83  C   UNL A   1      39.534  34.689  37.381  1.00  0.00     0.040 A 
ATOM     84  F   UNL A   1      40.691  34.357  35.369  1.00  0.00    -0.206 F 
ATOM     85  C   UNL A   1      38.637  34.244  38.349  1.00  0.00     0.006 A 
ENDBRANCH  61  78
ENDBRANCH  35  36
ENDBRANCH  28  30
ENDBRANCH  27  28
ENDBRANCH  26  27
ENDBRANCH  25  26
ENDBRANCH  24  25
ENDBRANCH  23  24
ENDBRANCH   1  23
TORSDOF 20
ENDMDL
