MODEL 1
REMARK VINA RESULT:     -10.9      0.000      0.000
REMARK SMILES CC1=C[C@H](C)[C@@H](C(=O)OCCOCCOCCOC(=O)c2ccc(-c3c4nc(c(-c5c(F)cccc5F)c5ccc([nH]5)c(-c5c(F)cccc5F)c5nc(c(-c6c(F)cccc6F)c6ccc3[nH]6)C=C5)C=C4)cc2)[C@H](C(=O)Nc2cccnc2)C1
REMARK SMILES IDX 13 1 12 2 11 3 10 4 9 5 7 6 8 7 6 8 1 9 2 10 3 11 85 12 4 13
REMARK SMILES IDX 75 14 5 15 76 16 77 17 78 18 79 20 80 21 84 22 81 23 83 24
REMARK SMILES IDX 82 25 14 26 15 27 16 28 17 29 18 30 19 31 20 32 21 33 22 34
REMARK SMILES IDX 74 35 23 36 73 37 24 38 25 39 26 40 67 41 27 42 72 43 66 44
REMARK SMILES IDX 68 45 28 46 71 47 65 48 64 49 29 51 55 52 38 53 54 54 39 55
REMARK SMILES IDX 42 56 53 57 69 58 40 59 41 60 52 62 70 63 43 64 30 65 31 66
REMARK SMILES IDX 36 67 32 68 33 69 35 70 37 71 34 72 56 73 57 74 62 75 58 76
REMARK SMILES IDX 59 77 61 78 63 79 60 80 44 81 45 82 50 83 46 84 47 85 49 86
REMARK SMILES IDX 51 87 48 88
REMARK H PARENT 78 19 68 50 42 61
REMARK Flexibility Score: inf
ROOT
ATOM      1  C   UNL A   1      37.740  21.960  25.826  1.00  0.00     0.188 C 
ENDROOT
BRANCH   1   2
ATOM      2  O   UNL A   1      37.070  21.093  24.922  1.00  0.00    -0.376 OA
BRANCH   2   3
ATOM      3  C   UNL A   1      35.759  20.637  25.207  1.00  0.00     0.202 C 
BRANCH   3   4
ATOM      4  C   UNL A   1      34.566  21.298  24.498  1.00  0.00     0.261 C 
BRANCH   4   5
ATOM      5  O   UNL A   1      34.358  22.710  24.709  1.00  0.00    -0.463 OA
BRANCH   5   6
ATOM      6  C   UNL A   1      34.641  23.500  23.642  1.00  0.00     0.310 C 
ATOM      7  O   UNL A   1      35.546  23.279  22.842  1.00  0.00    -0.252 OA
BRANCH   6   8
ATOM      8  C   UNL A   1      33.886  24.830  23.632  1.00  0.00     0.118 C 
ATOM      9  C   UNL A   1      29.861  25.509  25.447  1.00  0.00     0.039 C 
ATOM     10  C   UNL A   1      31.233  25.332  24.862  1.00  0.00    -0.076 C 
ATOM     11  C   UNL A   1      32.343  25.485  25.602  1.00  0.00    -0.024 C 
ATOM     12  C   UNL A   1      31.257  24.890  23.435  1.00  0.00     0.044 C 
ATOM     13  C   UNL A   1      33.724  25.110  25.147  1.00  0.00     0.023 C 
ATOM     14  C   UNL A   1      32.621  24.911  22.750  1.00  0.00     0.097 C 
ATOM     15  C   UNL A   1      34.857  26.023  25.649  1.00  0.00     0.013 C 
BRANCH  14  16
ATOM     16  C   UNL A   1      32.712  25.915  21.566  1.00  0.00     0.228 C 
ATOM     17  O   UNL A   1      33.131  25.520  20.470  1.00  0.00    -0.274 OA
ATOM     18  N   UNL A   1      32.237  27.199  21.639  1.00  0.00    -0.324 N 
ATOM     19  H   UNL A   1      31.920  27.585  20.791  1.00  0.00     0.169 HD
BRANCH  18  20
ATOM     20  C   UNL A   1      32.141  28.035  22.757  1.00  0.00     0.059 A 
ATOM     21  C   UNL A   1      33.273  28.420  23.451  1.00  0.00     0.029 A 
ATOM     22  C   UNL A   1      30.929  28.570  23.175  1.00  0.00     0.137 A 
ATOM     23  C   UNL A   1      33.161  29.162  24.623  1.00  0.00     0.022 A 
ATOM     24  N   UNL A   1      30.781  29.301  24.309  1.00  0.00    -0.263 NA
ATOM     25  C   UNL A   1      31.898  29.547  25.027  1.00  0.00     0.111 A 
ENDBRANCH  18  20
ENDBRANCH  14  16
ENDBRANCH   6   8
ENDBRANCH   5   6
ENDBRANCH   4   5
ENDBRANCH   3   4
ENDBRANCH   2   3
ENDBRANCH   1   2
BRANCH   1  26
ATOM     26  C   UNL A   1      39.267  21.957  25.938  1.00  0.00     0.188 C 
BRANCH  26  27
ATOM     27  O   UNL A   1      39.872  20.695  26.081  1.00  0.00    -0.376 OA
BRANCH  27  28
ATOM     28  C   UNL A   1      41.125  20.629  26.742  1.00  0.00     0.202 C 
BRANCH  28  29
ATOM     29  C   UNL A   1      42.375  21.027  25.930  1.00  0.00     0.261 C 
BRANCH  29  30
ATOM     30  O   UNL A   1      42.385  22.355  25.363  1.00  0.00    -0.460 OA
BRANCH  30  31
ATOM     31  C   UNL A   1      43.416  23.175  25.711  1.00  0.00     0.338 C 
ATOM     32  O   UNL A   1      44.531  23.168  25.242  1.00  0.00    -0.246 OA
BRANCH  31  33
ATOM     33  C   UNL A   1      42.846  24.279  26.544  1.00  0.00     0.060 A 
ATOM     34  C   UNL A   1      43.440  25.550  26.472  1.00  0.00     0.016 A 
ATOM     35  C   UNL A   1      41.703  24.095  27.321  1.00  0.00     0.016 A 
ATOM     36  C   UNL A   1      42.914  26.628  27.194  1.00  0.00     0.010 A 
ATOM     37  C   UNL A   1      41.197  25.166  28.072  1.00  0.00     0.010 A 
ATOM     38  C   UNL A   1      41.816  26.431  28.040  1.00  0.00    -0.014 A 
BRANCH  38  39
ATOM     39  C   UNL A   1      41.469  27.450  29.069  1.00  0.00     0.031 A 
ATOM     40  C   UNL A   1      42.288  27.474  30.334  1.00  0.00     0.074 A 
ATOM     41  C   UNL A   1      40.474  28.343  28.911  1.00  0.00     0.049 A 
ATOM     42  N   UNL A   1      42.127  28.178  31.425  1.00  0.00    -0.248 NA
ATOM     43  C   UNL A   1      43.447  26.568  30.366  1.00  0.00     0.031 C 
ATOM     44  C   UNL A   1      39.646  28.494  27.719  1.00  0.00     0.029 A 
ATOM     45  N   UNL A   1      39.989  29.291  29.782  1.00  0.00    -0.354 N 
ATOM     46  C   UNL A   1      43.156  27.791  32.277  1.00  0.00     0.074 A 
ATOM     47  C   UNL A   1      43.910  26.767  31.590  1.00  0.00     0.031 C 
ATOM     48  C   UNL A   1      38.747  29.472  27.936  1.00  0.00     0.029 A 
ATOM     49  C   UNL A   1      38.908  29.986  29.297  1.00  0.00     0.049 A 
ATOM     50  H   UNL A   1      40.381  29.457  30.670  1.00  0.00     0.167 HD
ATOM     51  C   UNL A   1      43.453  28.249  33.516  1.00  0.00     0.037 A 
ATOM     52  C   UNL A   1      38.123  30.908  29.893  1.00  0.00     0.037 A 
ATOM     53  C   UNL A   1      42.701  29.259  34.211  1.00  0.00     0.049 A 
ATOM     54  C   UNL A   1      38.397  31.318  31.320  1.00  0.00     0.074 A 
ATOM     55  C   UNL A   1      42.921  29.783  35.472  1.00  0.00     0.029 A 
ATOM     56  N   UNL A   1      41.576  29.894  33.706  1.00  0.00    -0.354 N 
ATOM     57  N   UNL A   1      39.367  30.946  32.121  1.00  0.00    -0.248 NA
ATOM     58  C   UNL A   1      37.461  32.278  31.926  1.00  0.00     0.031 C 
ATOM     59  C   UNL A   1      41.896  30.693  35.754  1.00  0.00     0.029 A 
ATOM     60  C   UNL A   1      41.074  30.784  34.642  1.00  0.00     0.049 A 
ATOM     61  H   UNL A   1      41.191  29.735  32.814  1.00  0.00     0.167 HD
ATOM     62  C   UNL A   1      39.178  31.650  33.306  1.00  0.00     0.074 A 
ATOM     63  C   UNL A   1      38.007  32.479  33.117  1.00  0.00     0.031 C 
ATOM     64  C   UNL A   1      39.914  31.616  34.445  1.00  0.00     0.037 A 
BRANCH  51  65
ATOM     65  C   UNL A   1      44.626  27.618  34.212  1.00  0.00     0.057 A 
ATOM     66  C   UNL A   1      45.930  28.107  34.063  1.00  0.00     0.134 A 
ATOM     67  C   UNL A   1      44.447  26.499  35.036  1.00  0.00     0.134 A 
ATOM     68  F   UNL A   1      46.175  29.165  33.274  1.00  0.00    -0.206 F 
ATOM     69  C   UNL A   1      47.019  27.484  34.677  1.00  0.00     0.040 A 
ATOM     70  C   UNL A   1      45.522  25.889  35.683  1.00  0.00     0.040 A 
ATOM     71  F   UNL A   1      43.224  25.982  35.229  1.00  0.00    -0.206 F 
ATOM     72  C   UNL A   1      46.815  26.374  35.494  1.00  0.00     0.006 A 
ENDBRANCH  51  65
BRANCH  52  73
ATOM     73  C   UNL A   1      36.982  31.511  29.154  1.00  0.00     0.057 A 
ATOM     74  C   UNL A   1      37.055  32.816  28.651  1.00  0.00     0.134 A 
ATOM     75  C   UNL A   1      35.779  30.818  28.967  1.00  0.00     0.134 A 
ATOM     76  F   UNL A   1      38.166  33.546  28.828  1.00  0.00    -0.206 F 
ATOM     77  C   UNL A   1      35.973  33.413  28.000  1.00  0.00     0.040 A 
ATOM     78  C   UNL A   1      34.699  31.392  28.294  1.00  0.00     0.040 A 
ATOM     79  F   UNL A   1      35.636  29.570  29.436  1.00  0.00    -0.206 F 
ATOM     80  C   UNL A   1      34.793  32.697  27.814  1.00  0.00     0.006 A 
ENDBRANCH  52  73
BRANCH  64  81
ATOM     81  C   UNL A   1      39.512  32.536  35.566  1.00  0.00     0.057 A 
ATOM     82  C   UNL A   1      38.628  32.140  36.577  1.00  0.00     0.134 A 
ATOM     83  C   UNL A   1      40.054  33.826  35.655  1.00  0.00     0.134 A 
ATOM     84  F   UNL A   1      38.064  30.922  36.549  1.00  0.00    -0.206 F 
ATOM     85  C   UNL A   1      38.280  32.999  37.622  1.00  0.00     0.040 A 
ATOM     86  C   UNL A   1      39.737  34.683  36.711  1.00  0.00     0.040 A 
ATOM     87  F   UNL A   1      40.916  34.270  34.727  1.00  0.00    -0.206 F 
ATOM     88  C   UNL A   1      38.842  34.272  37.695  1.00  0.00     0.006 A 
ENDBRANCH  64  81
ENDBRANCH  38  39
ENDBRANCH  31  33
ENDBRANCH  30  31
ENDBRANCH  29  30
ENDBRANCH  28  29
ENDBRANCH  27  28
ENDBRANCH  26  27
ENDBRANCH   1  26
TORSDOF 19
ENDMDL
MODEL 2
REMARK VINA RESULT:     -10.8      4.644      9.472
REMARK SMILES CC1=C[C@H](C)[C@@H](C(=O)OCCOCCOCCOC(=O)c2ccc(-c3c4nc(c(-c5c(F)cccc5F)c5ccc([nH]5)c(-c5c(F)cccc5F)c5nc(c(-c6c(F)cccc6F)c6ccc3[nH]6)C=C5)C=C4)cc2)[C@H](C(=O)Nc2cccnc2)C1
REMARK SMILES IDX 13 1 12 2 11 3 10 4 9 5 7 6 8 7 6 8 1 9 2 10 3 11 85 12 4 13
REMARK SMILES IDX 75 14 5 15 76 16 77 17 78 18 79 20 80 21 84 22 81 23 83 24
REMARK SMILES IDX 82 25 14 26 15 27 16 28 17 29 18 30 19 31 20 32 21 33 22 34
REMARK SMILES IDX 74 35 23 36 73 37 24 38 25 39 26 40 67 41 27 42 72 43 66 44
REMARK SMILES IDX 68 45 28 46 71 47 65 48 64 49 29 51 55 52 38 53 54 54 39 55
REMARK SMILES IDX 42 56 53 57 69 58 40 59 41 60 52 62 70 63 43 64 30 65 31 66
REMARK SMILES IDX 36 67 32 68 33 69 35 70 37 71 34 72 56 73 57 74 62 75 58 76
REMARK SMILES IDX 59 77 61 78 63 79 60 80 44 81 45 82 50 83 46 84 47 85 49 86
REMARK SMILES IDX 51 87 48 88
REMARK H PARENT 78 19 68 50 42 61
REMARK Flexibility Score: inf
ROOT
ATOM      1  C   UNL A   1      33.823  30.835  27.535  1.00  0.00     0.188 C 
ENDROOT
BRANCH   1   2
ATOM      2  O   UNL A   1      32.817  30.019  26.952  1.00  0.00    -0.376 OA
BRANCH   2   3
ATOM      3  C   UNL A   1      32.754  28.635  27.253  1.00  0.00     0.202 C 
BRANCH   3   4
ATOM      4  C   UNL A   1      31.551  27.817  26.757  1.00  0.00     0.261 C 
BRANCH   4   5
ATOM      5  O   UNL A   1      31.484  26.425  27.132  1.00  0.00    -0.463 OA
BRANCH   5   6
ATOM      6  C   UNL A   1      31.216  25.567  26.115  1.00  0.00     0.310 C 
ATOM      7  O   UNL A   1      30.121  25.466  25.569  1.00  0.00    -0.252 OA
BRANCH   6   8
ATOM      8  C   UNL A   1      32.330  24.555  25.842  1.00  0.00     0.118 C 
ATOM      9  C   UNL A   1      32.172  21.336  22.749  1.00  0.00     0.039 C 
ATOM     10  C   UNL A   1      32.281  22.431  23.771  1.00  0.00    -0.076 C 
ATOM     11  C   UNL A   1      32.737  23.653  23.452  1.00  0.00    -0.024 C 
ATOM     12  C   UNL A   1      31.764  22.081  25.128  1.00  0.00     0.044 C 
ATOM     13  C   UNL A   1      32.665  24.849  24.359  1.00  0.00     0.023 C 
ATOM     14  C   UNL A   1      32.056  23.088  26.238  1.00  0.00     0.097 C 
ATOM     15  C   UNL A   1      33.848  25.829  24.258  1.00  0.00     0.013 C 
BRANCH  14  16
ATOM     16  C   UNL A   1      32.973  22.531  27.363  1.00  0.00     0.228 C 
ATOM     17  O   UNL A   1      32.527  22.437  28.514  1.00  0.00    -0.274 OA
ATOM     18  N   UNL A   1      34.223  22.021  27.123  1.00  0.00    -0.324 N 
ATOM     19  H   UNL A   1      34.521  21.316  27.741  1.00  0.00     0.169 HD
BRANCH  18  20
ATOM     20  C   UNL A   1      35.132  22.367  26.117  1.00  0.00     0.059 A 
ATOM     21  C   UNL A   1      35.343  21.529  25.037  1.00  0.00     0.029 A 
ATOM     22  C   UNL A   1      35.803  23.583  26.116  1.00  0.00     0.137 A 
ATOM     23  C   UNL A   1      36.326  21.828  24.098  1.00  0.00     0.022 A 
ATOM     24  N   UNL A   1      36.764  23.912  25.215  1.00  0.00    -0.263 NA
ATOM     25  C   UNL A   1      37.029  23.006  24.248  1.00  0.00     0.111 A 
ENDBRANCH  18  20
ENDBRANCH  14  16
ENDBRANCH   6   8
ENDBRANCH   5   6
ENDBRANCH   4   5
ENDBRANCH   3   4
ENDBRANCH   2   3
ENDBRANCH   1   2
BRANCH   1  26
ATOM     26  C   UNL A   1      33.522  32.270  27.971  1.00  0.00     0.188 C 
BRANCH  26  27
ATOM     27  O   UNL A   1      34.504  33.229  27.661  1.00  0.00    -0.376 OA
BRANCH  27  28
ATOM     28  C   UNL A   1      34.574  34.394  28.467  1.00  0.00     0.202 C 
BRANCH  28  29
ATOM     29  C   UNL A   1      34.315  34.225  29.978  1.00  0.00     0.261 C 
BRANCH  29  30
ATOM     30  O   UNL A   1      35.458  33.909  30.802  1.00  0.00    -0.460 OA
BRANCH  30  31
ATOM     31  C   UNL A   1      35.427  32.732  31.488  1.00  0.00     0.338 C 
ATOM     32  O   UNL A   1      34.522  32.327  32.181  1.00  0.00    -0.246 OA
BRANCH  31  33
ATOM     33  C   UNL A   1      36.564  31.897  30.992  1.00  0.00     0.060 A 
ATOM     34  C   UNL A   1      37.499  31.413  31.923  1.00  0.00     0.016 A 
ATOM     35  C   UNL A   1      36.670  31.526  29.652  1.00  0.00     0.016 A 
ATOM     36  C   UNL A   1      38.552  30.586  31.515  1.00  0.00     0.010 A 
ATOM     37  C   UNL A   1      37.746  30.727  29.238  1.00  0.00     0.010 A 
ATOM     38  C   UNL A   1      38.713  30.278  30.159  1.00  0.00    -0.014 A 
BRANCH  38  39
ATOM     39  C   UNL A   1      39.998  29.713  29.664  1.00  0.00     0.031 A 
ATOM     40  C   UNL A   1      41.177  30.646  29.556  1.00  0.00     0.074 A 
ATOM     41  C   UNL A   1      40.148  28.419  29.324  1.00  0.00     0.049 A 
ATOM     42  N   UNL A   1      42.368  30.439  29.055  1.00  0.00    -0.248 NA
ATOM     43  C   UNL A   1      40.973  32.004  30.085  1.00  0.00     0.031 C 
ATOM     44  C   UNL A   1      39.129  27.382  29.445  1.00  0.00     0.029 A 
ATOM     45  N   UNL A   1      41.235  27.763  28.793  1.00  0.00    -0.354 N 
ATOM     46  C   UNL A   1      43.049  31.643  29.197  1.00  0.00     0.074 A 
ATOM     47  C   UNL A   1      42.127  32.582  29.797  1.00  0.00     0.031 C 
ATOM     48  C   UNL A   1      39.634  26.221  28.991  1.00  0.00     0.029 A 
ATOM     49  C   UNL A   1      40.999  26.441  28.508  1.00  0.00     0.049 A 
ATOM     50  H   UNL A   1      42.102  28.202  28.633  1.00  0.00     0.167 HD
ATOM     51  C   UNL A   1      44.328  31.942  28.867  1.00  0.00     0.037 A 
ATOM     52  C   UNL A   1      41.782  25.524  27.903  1.00  0.00     0.037 A 
ATOM     53  C   UNL A   1      45.248  31.018  28.260  1.00  0.00     0.049 A 
ATOM     54  C   UNL A   1      43.163  25.910  27.431  1.00  0.00     0.074 A 
ATOM     55  C   UNL A   1      46.561  31.231  27.882  1.00  0.00     0.029 A 
ATOM     56  N   UNL A   1      44.947  29.704  27.933  1.00  0.00    -0.354 N 
ATOM     57  N   UNL A   1      43.799  27.049  27.564  1.00  0.00    -0.248 NA
ATOM     58  C   UNL A   1      43.935  24.878  26.721  1.00  0.00     0.031 C 
ATOM     59  C   UNL A   1      47.038  30.064  27.274  1.00  0.00     0.029 A 
ATOM     60  C   UNL A   1      46.042  29.103  27.332  1.00  0.00     0.049 A 
ATOM     61  H   UNL A   1      44.083  29.264  28.103  1.00  0.00     0.167 HD
ATOM     62  C   UNL A   1      45.053  26.860  26.988  1.00  0.00     0.074 A 
ATOM     63  C   UNL A   1      45.090  25.493  26.514  1.00  0.00     0.031 C 
ATOM     64  C   UNL A   1      46.079  27.738  26.870  1.00  0.00     0.037 A 
BRANCH  51  65
ATOM     65  C   UNL A   1      44.785  33.351  29.121  1.00  0.00     0.057 A 
ATOM     66  C   UNL A   1      44.607  34.372  28.179  1.00  0.00     0.134 A 
ATOM     67  C   UNL A   1      45.419  33.687  30.324  1.00  0.00     0.134 A 
ATOM     68  F   UNL A   1      44.022  34.116  26.999  1.00  0.00    -0.206 F 
ATOM     69  C   UNL A   1      45.078  35.667  28.408  1.00  0.00     0.040 A 
ATOM     70  C   UNL A   1      45.864  34.985  30.579  1.00  0.00     0.040 A 
ATOM     71  F   UNL A   1      45.617  32.759  31.274  1.00  0.00    -0.206 F 
ATOM     72  C   UNL A   1      45.704  35.977  29.613  1.00  0.00     0.006 A 
ENDBRANCH  51  65
BRANCH  52  73
ATOM     73  C   UNL A   1      41.285  24.139  27.687  1.00  0.00     0.057 A 
ATOM     74  C   UNL A   1      41.799  23.063  28.422  1.00  0.00     0.134 A 
ATOM     75  C   UNL A   1      40.317  23.848  26.717  1.00  0.00     0.134 A 
ATOM     76  F   UNL A   1      42.754  23.269  29.341  1.00  0.00    -0.206 F 
ATOM     77  C   UNL A   1      41.378  21.751  28.195  1.00  0.00     0.040 A 
ATOM     78  C   UNL A   1      39.867  22.545  26.498  1.00  0.00     0.040 A 
ATOM     79  F   UNL A   1      39.793  24.829  25.967  1.00  0.00    -0.206 F 
ATOM     80  C   UNL A   1      40.403  21.491  27.234  1.00  0.00     0.006 A 
ENDBRANCH  52  73
BRANCH  64  81
ATOM     81  C   UNL A   1      47.356  27.242  26.248  1.00  0.00     0.057 A 
ATOM     82  C   UNL A   1      48.390  26.683  27.008  1.00  0.00     0.134 A 
ATOM     83  C   UNL A   1      47.532  27.288  24.858  1.00  0.00     0.134 A 
ATOM     84  F   UNL A   1      48.293  26.616  28.345  1.00  0.00    -0.206 F 
ATOM     85  C   UNL A   1      49.561  26.208  26.412  1.00  0.00     0.040 A 
ATOM     86  C   UNL A   1      48.685  26.790  24.248  1.00  0.00     0.040 A 
ATOM     87  F   UNL A   1      46.578  27.800  24.065  1.00  0.00    -0.206 F 
ATOM     88  C   UNL A   1      49.708  26.254  25.027  1.00  0.00     0.006 A 
ENDBRANCH  64  81
ENDBRANCH  38  39
ENDBRANCH  31  33
ENDBRANCH  30  31
ENDBRANCH  29  30
ENDBRANCH  28  29
ENDBRANCH  27  28
ENDBRANCH  26  27
ENDBRANCH   1  26
TORSDOF 19
ENDMDL
MODEL 3
REMARK VINA RESULT:     -10.7      4.721      9.449
REMARK SMILES CC1=C[C@H](C)[C@@H](C(=O)OCCOCCOCCOC(=O)c2ccc(-c3c4nc(c(-c5c(F)cccc5F)c5ccc([nH]5)c(-c5c(F)cccc5F)c5nc(c(-c6c(F)cccc6F)c6ccc3[nH]6)C=C5)C=C4)cc2)[C@H](C(=O)Nc2cccnc2)C1
REMARK SMILES IDX 13 1 12 2 11 3 10 4 9 5 7 6 8 7 6 8 1 9 2 10 3 11 85 12 4 13
REMARK SMILES IDX 75 14 5 15 76 16 77 17 78 18 79 20 80 21 84 22 81 23 83 24
REMARK SMILES IDX 82 25 14 26 15 27 16 28 17 29 18 30 19 31 20 32 21 33 22 34
REMARK SMILES IDX 74 35 23 36 73 37 24 38 25 39 26 40 67 41 27 42 72 43 66 44
REMARK SMILES IDX 68 45 28 46 71 47 65 48 64 49 29 51 55 52 38 53 54 54 39 55
REMARK SMILES IDX 42 56 53 57 69 58 40 59 41 60 52 62 70 63 43 64 30 65 31 66
REMARK SMILES IDX 36 67 32 68 33 69 35 70 37 71 34 72 56 73 57 74 62 75 58 76
REMARK SMILES IDX 59 77 61 78 63 79 60 80 44 81 45 82 50 83 46 84 47 85 49 86
REMARK SMILES IDX 51 87 48 88
REMARK H PARENT 78 19 68 50 42 61
REMARK Flexibility Score: inf
ROOT
ATOM      1  C   UNL A   1      34.555  31.274  27.623  1.00  0.00     0.188 C 
ENDROOT
BRANCH   1   2
ATOM      2  O   UNL A   1      34.019  29.970  27.453  1.00  0.00    -0.376 OA
BRANCH   2   3
ATOM      3  C   UNL A   1      32.624  29.787  27.279  1.00  0.00     0.202 C 
BRANCH   3   4
ATOM      4  C   UNL A   1      31.904  30.553  26.157  1.00  0.00     0.261 C 
BRANCH   4   5
ATOM      5  O   UNL A   1      31.437  29.797  25.020  1.00  0.00    -0.463 OA
BRANCH   5   6
ATOM      6  C   UNL A   1      32.371  29.007  24.431  1.00  0.00     0.310 C 
ATOM      7  O   UNL A   1      33.391  29.429  23.893  1.00  0.00    -0.252 OA
BRANCH   6   8
ATOM      8  C   UNL A   1      31.948  27.545  24.282  1.00  0.00     0.118 C 
ATOM      9  C   UNL A   1      32.970  24.918  20.817  1.00  0.00     0.039 C 
ATOM     10  C   UNL A   1      32.641  25.756  22.019  1.00  0.00    -0.076 C 
ATOM     11  C   UNL A   1      33.475  25.847  23.068  1.00  0.00    -0.024 C 
ATOM     12  C   UNL A   1      31.373  26.540  21.914  1.00  0.00     0.044 C 
ATOM     13  C   UNL A   1      33.318  26.829  24.193  1.00  0.00     0.023 C 
ATOM     14  C   UNL A   1      30.901  27.227  23.193  1.00  0.00     0.097 C 
ATOM     15  C   UNL A   1      33.750  26.320  25.581  1.00  0.00     0.013 C 
BRANCH  14  16
ATOM     16  C   UNL A   1      29.542  26.692  23.726  1.00  0.00     0.228 C 
ATOM     17  O   UNL A   1      28.518  27.364  23.550  1.00  0.00    -0.274 OA
ATOM     18  N   UNL A   1      29.397  25.447  24.282  1.00  0.00    -0.324 N 
ATOM     19  H   UNL A   1      28.513  25.029  24.166  1.00  0.00     0.169 HD
BRANCH  18  20
ATOM     20  C   UNL A   1      30.336  24.689  24.990  1.00  0.00     0.059 A 
ATOM     21  C   UNL A   1      31.096  23.727  24.351  1.00  0.00     0.029 A 
ATOM     22  C   UNL A   1      30.597  24.910  26.337  1.00  0.00     0.137 A 
ATOM     23  C   UNL A   1      31.948  22.905  25.081  1.00  0.00     0.022 A 
ATOM     24  N   UNL A   1      31.424  24.133  27.081  1.00  0.00    -0.263 NA
ATOM     25  C   UNL A   1      32.051  23.122  26.440  1.00  0.00     0.111 A 
ENDBRANCH  18  20
ENDBRANCH  14  16
ENDBRANCH   6   8
ENDBRANCH   5   6
ENDBRANCH   4   5
ENDBRANCH   3   4
ENDBRANCH   2   3
ENDBRANCH   1   2
BRANCH   1  26
ATOM     26  C   UNL A   1      34.029  32.208  28.716  1.00  0.00     0.188 C 
BRANCH  26  27
ATOM     27  O   UNL A   1      33.941  33.570  28.374  1.00  0.00    -0.376 OA
BRANCH  27  28
ATOM     28  C   UNL A   1      34.404  34.524  29.316  1.00  0.00     0.202 C 
BRANCH  28  29
ATOM     29  C   UNL A   1      34.489  34.078  30.790  1.00  0.00     0.261 C 
BRANCH  29  30
ATOM     30  O   UNL A   1      35.812  33.943  31.352  1.00  0.00    -0.460 OA
BRANCH  30  31
ATOM     31  C   UNL A   1      36.040  32.870  32.160  1.00  0.00     0.338 C 
ATOM     32  O   UNL A   1      35.357  32.512  33.092  1.00  0.00    -0.246 OA
BRANCH  31  33
ATOM     33  C   UNL A   1      37.101  32.039  31.510  1.00  0.00     0.060 A 
ATOM     34  C   UNL A   1      37.961  31.287  32.327  1.00  0.00     0.016 A 
ATOM     35  C   UNL A   1      37.202  31.936  30.123  1.00  0.00     0.016 A 
ATOM     36  C   UNL A   1      38.937  30.456  31.765  1.00  0.00     0.010 A 
ATOM     37  C   UNL A   1      38.204  31.131  29.560  1.00  0.00     0.010 A 
ATOM     38  C   UNL A   1      39.099  30.411  30.376  1.00  0.00    -0.014 A 
BRANCH  38  39
ATOM     39  C   UNL A   1      40.334  29.829  29.782  1.00  0.00     0.031 A 
ATOM     40  C   UNL A   1      41.526  30.737  29.618  1.00  0.00     0.074 A 
ATOM     41  C   UNL A   1      40.429  28.542  29.401  1.00  0.00     0.049 A 
ATOM     42  N   UNL A   1      42.676  30.516  29.033  1.00  0.00    -0.248 NA
ATOM     43  C   UNL A   1      41.392  32.085  30.193  1.00  0.00     0.031 C 
ATOM     44  C   UNL A   1      39.394  27.526  29.564  1.00  0.00     0.029 A 
ATOM     45  N   UNL A   1      41.461  27.875  28.782  1.00  0.00    -0.354 N 
ATOM     46  C   UNL A   1      43.395  31.699  29.159  1.00  0.00     0.074 A 
ATOM     47  C   UNL A   1      42.539  32.643  29.842  1.00  0.00     0.031 C 
ATOM     48  C   UNL A   1      39.839  26.366  29.048  1.00  0.00     0.029 A 
ATOM     49  C   UNL A   1      41.173  26.566  28.480  1.00  0.00     0.049 A 
ATOM     50  H   UNL A   1      42.326  28.297  28.575  1.00  0.00     0.167 HD
ATOM     51  C   UNL A   1      44.656  31.977  28.750  1.00  0.00     0.037 A 
ATOM     52  C   UNL A   1      41.891  25.647  27.801  1.00  0.00     0.037 A 
ATOM     53  C   UNL A   1      45.510  31.047  28.061  1.00  0.00     0.049 A 
ATOM     54  C   UNL A   1      43.247  26.013  27.248  1.00  0.00     0.074 A 
ATOM     55  C   UNL A   1      46.800  31.239  27.601  1.00  0.00     0.029 A 
ATOM     56  N   UNL A   1      45.155  29.749  27.723  1.00  0.00    -0.354 N 
ATOM     57  N   UNL A   1      43.919  27.134  27.366  1.00  0.00    -0.248 NA
ATOM     58  C   UNL A   1      43.943  24.982  26.462  1.00  0.00     0.031 C 
ATOM     59  C   UNL A   1      47.206  30.078  26.933  1.00  0.00     0.029 A 
ATOM     60  C   UNL A   1      46.192  29.140  27.034  1.00  0.00     0.049 A 
ATOM     61  H   UNL A   1      44.293  29.325  27.939  1.00  0.00     0.167 HD
ATOM     62  C   UNL A   1      45.126  26.930  26.703  1.00  0.00     0.074 A 
ATOM     63  C   UNL A   1      45.098  25.576  26.193  1.00  0.00     0.031 C 
ATOM     64  C   UNL A   1      46.164  27.786  26.538  1.00  0.00     0.037 A 
BRANCH  51  65
ATOM     65  C   UNL A   1      45.164  33.367  29.009  1.00  0.00     0.057 A 
ATOM     66  C   UNL A   1      44.961  34.414  28.100  1.00  0.00     0.134 A 
ATOM     67  C   UNL A   1      45.874  33.659  30.181  1.00  0.00     0.134 A 
ATOM     68  F   UNL A   1      44.304  34.199  26.950  1.00  0.00    -0.206 F 
ATOM     69  C   UNL A   1      45.478  35.691  28.329  1.00  0.00     0.040 A 
ATOM     70  C   UNL A   1      46.367  34.939  30.437  1.00  0.00     0.040 A 
ATOM     71  F   UNL A   1      46.100  32.705  31.097  1.00  0.00    -0.206 F 
ATOM     72  C   UNL A   1      46.180  35.957  29.503  1.00  0.00     0.006 A 
ENDBRANCH  51  65
BRANCH  52  73
ATOM     73  C   UNL A   1      41.346  24.280  27.586  1.00  0.00     0.057 A 
ATOM     74  C   UNL A   1      40.326  24.047  26.655  1.00  0.00     0.134 A 
ATOM     75  C   UNL A   1      41.800  23.183  28.329  1.00  0.00     0.134 A 
ATOM     76  F   UNL A   1      39.822  25.062  25.937  1.00  0.00    -0.206 F 
ATOM     77  C   UNL A   1      39.770  22.778  26.479  1.00  0.00     0.040 A 
ATOM     78  C   UNL A   1      41.273  21.904  28.143  1.00  0.00     0.040 A 
ATOM     79  F   UNL A   1      42.765  23.339  29.247  1.00  0.00    -0.206 F 
ATOM     80  C   UNL A   1      40.250  21.700  27.220  1.00  0.00     0.006 A 
ENDBRANCH  52  73
BRANCH  64  81
ATOM     81  C   UNL A   1      47.384  27.278  25.819  1.00  0.00     0.057 A 
ATOM     82  C   UNL A   1      47.552  27.425  24.437  1.00  0.00     0.134 A 
ATOM     83  C   UNL A   1      48.426  26.669  26.532  1.00  0.00     0.134 A 
ATOM     84  F   UNL A   1      46.590  27.989  23.690  1.00  0.00    -0.206 F 
ATOM     85  C   UNL A   1      48.700  26.965  23.787  1.00  0.00     0.040 A 
ATOM     86  C   UNL A   1      49.591  26.232  25.899  1.00  0.00     0.040 A 
ATOM     87  F   UNL A   1      48.339  26.505  27.861  1.00  0.00    -0.206 F 
ATOM     88  C   UNL A   1      49.727  26.373  24.520  1.00  0.00     0.006 A 
ENDBRANCH  64  81
ENDBRANCH  38  39
ENDBRANCH  31  33
ENDBRANCH  30  31
ENDBRANCH  29  30
ENDBRANCH  28  29
ENDBRANCH  27  28
ENDBRANCH  26  27
ENDBRANCH   1  26
TORSDOF 19
ENDMDL
