MODEL 1
REMARK VINA RESULT:      -9.7      0.000      0.000
REMARK SMILES COC[C@@H](NS(=O)(=O)c1ccc(C(=O)OCCOCCOCCOC(=O)c2ccc(-c3c4nc(c(-c5c(F)cccc5F)c5ccc([nH]5)c(-c5c(F)cccc5F)c5nc(c(-c6c(F)cccc6F)c6ccc3[nH]6)C=C5)C=C4)cc2)cc1F)C(C)C
REMARK SMILES IDX 18 1 17 2 16 3 15 4 13 5 14 6 12 7 9 8 10 9 82 10 11 11
REMARK SMILES IDX 81 12 83 13 6 14 7 15 8 16 5 17 4 19 3 20 2 21 1 22 84 23
REMARK SMILES IDX 85 24 86 25 19 26 20 27 21 28 22 29 23 30 24 31 25 32 26 33
REMARK SMILES IDX 27 34 28 35 80 36 29 37 79 38 30 39 31 40 32 41 73 42 33 43
REMARK SMILES IDX 78 44 72 45 74 46 34 47 77 48 71 49 70 50 35 52 61 53 44 54
REMARK SMILES IDX 60 55 45 56 48 57 59 58 75 59 46 60 47 61 58 63 76 64 49 65
REMARK SMILES IDX 36 66 37 67 42 68 38 69 39 70 41 71 43 72 40 73 62 74 63 75
REMARK SMILES IDX 68 76 64 77 65 78 67 79 69 80 66 81 50 82 51 83 56 84 52 85
REMARK SMILES IDX 53 86 55 87 57 88 54 89
REMARK H PARENT 5 18 74 51 48 62
REMARK Flexibility Score: inf
ROOT
ATOM      1  O   UNL A   1      30.825  29.597  23.806  1.00  0.00    -0.376 OA
ENDROOT
BRANCH   1   2
ATOM      2  C   UNL A   1      30.698  29.003  22.520  1.00  0.00     0.202 C 
BRANCH   2   3
ATOM      3  C   UNL A   1      30.688  27.474  22.398  1.00  0.00     0.261 C 
BRANCH   3   4
ATOM      4  O   UNL A   1      31.623  26.931  21.450  1.00  0.00    -0.460 OA
BRANCH   4   5
ATOM      5  C   UNL A   1      32.810  26.530  21.972  1.00  0.00     0.338 C 
ATOM      6  O   UNL A   1      33.909  27.010  21.748  1.00  0.00    -0.246 OA
BRANCH   5   7
ATOM      7  C   UNL A   1      32.600  25.483  23.001  1.00  0.00     0.063 A 
ATOM      8  C   UNL A   1      32.182  23.627  25.048  1.00  0.00     0.118 A 
ATOM      9  C   UNL A   1      32.860  24.819  25.325  1.00  0.00     0.026 A 
ATOM     10  C   UNL A   1      31.753  23.350  23.753  1.00  0.00     0.144 A 
ATOM     11  C   UNL A   1      33.069  25.744  24.299  1.00  0.00     0.017 A 
ATOM     12  C   UNL A   1      31.951  24.276  22.725  1.00  0.00     0.056 A 
ATOM     13  F   UNL A   1      31.106  22.212  23.467  1.00  0.00    -0.205 F 
BRANCH   8  14
ATOM     14  S   UNL A   1      31.767  22.518  26.361  1.00  0.00     0.243 S 
ATOM     15  O   UNL A   1      30.496  21.908  26.043  1.00  0.00    -0.207 OA
ATOM     16  O   UNL A   1      31.975  23.238  27.600  1.00  0.00    -0.207 OA
BRANCH  14  17
ATOM     17  N   UNL A   1      32.969  21.336  26.287  1.00  0.00    -0.205 NA
ATOM     18  H   UNL A   1      33.701  21.629  26.934  1.00  0.00     0.141 HD
BRANCH  17  19
ATOM     19  C   UNL A   1      33.654  20.998  25.000  1.00  0.00     0.098 C 
BRANCH  19  20
ATOM     20  C   UNL A   1      33.355  19.511  24.655  1.00  0.00     0.180 C 
BRANCH  20  21
ATOM     21  O   UNL A   1      32.534  18.868  25.632  1.00  0.00    -0.383 OA
ATOM     22  C   UNL A   1      32.595  17.452  25.626  1.00  0.00     0.194 C 
ENDBRANCH  20  21
ENDBRANCH  19  20
BRANCH  19  23
ATOM     23  C   UNL A   1      35.183  21.252  25.166  1.00  0.00     0.003 C 
ATOM     24  C   UNL A   1      36.046  20.013  24.896  1.00  0.00     0.009 C 
ATOM     25  C   UNL A   1      35.663  22.374  24.244  1.00  0.00     0.009 C 
ENDBRANCH  19  23
ENDBRANCH  17  19
ENDBRANCH  14  17
ENDBRANCH   8  14
ENDBRANCH   5   7
ENDBRANCH   4   5
ENDBRANCH   3   4
ENDBRANCH   2   3
ENDBRANCH   1   2
BRANCH   1  26
ATOM     26  C   UNL A   1      31.475  28.889  24.857  1.00  0.00     0.188 C 
BRANCH  26  27
ATOM     27  C   UNL A   1      32.654  29.531  25.619  1.00  0.00     0.188 C 
BRANCH  27  28
ATOM     28  O   UNL A   1      32.268  30.173  26.814  1.00  0.00    -0.376 OA
BRANCH  28  29
ATOM     29  C   UNL A   1      33.022  31.280  27.272  1.00  0.00     0.202 C 
BRANCH  29  30
ATOM     30  C   UNL A   1      32.377  32.662  27.488  1.00  0.00     0.261 C 
BRANCH  30  31
ATOM     31  O   UNL A   1      33.235  33.807  27.409  1.00  0.00    -0.460 OA
BRANCH  31  32
ATOM     32  C   UNL A   1      33.264  34.622  28.486  1.00  0.00     0.338 C 
ATOM     33  O   UNL A   1      32.438  35.459  28.803  1.00  0.00    -0.246 OA
BRANCH  32  34
ATOM     34  C   UNL A   1      34.400  34.224  29.337  1.00  0.00     0.060 A 
ATOM     35  C   UNL A   1      35.686  34.387  28.820  1.00  0.00     0.016 A 
ATOM     36  C   UNL A   1      34.216  33.666  30.601  1.00  0.00     0.016 A 
ATOM     37  C   UNL A   1      36.802  33.992  29.558  1.00  0.00     0.010 A 
ATOM     38  C   UNL A   1      35.332  33.242  31.334  1.00  0.00     0.010 A 
ATOM     39  C   UNL A   1      36.629  33.387  30.809  1.00  0.00    -0.014 A 
BRANCH  39  40
ATOM     40  C   UNL A   1      37.790  32.767  31.493  1.00  0.00     0.031 A 
ATOM     41  C   UNL A   1      38.439  31.562  30.869  1.00  0.00     0.074 A 
ATOM     42  C   UNL A   1      38.283  33.279  32.635  1.00  0.00     0.049 A 
ATOM     43  N   UNL A   1      39.415  30.818  31.321  1.00  0.00    -0.248 NA
ATOM     44  C   UNL A   1      37.922  31.147  29.554  1.00  0.00     0.031 C 
ATOM     45  C   UNL A   1      37.790  34.480  33.305  1.00  0.00     0.029 A 
ATOM     46  N   UNL A   1      39.311  32.844  33.435  1.00  0.00    -0.354 N 
ATOM     47  C   UNL A   1      39.627  29.848  30.350  1.00  0.00     0.074 A 
ATOM     48  C   UNL A   1      38.669  30.084  29.293  1.00  0.00     0.031 C 
ATOM     49  C   UNL A   1      38.510  34.681  34.424  1.00  0.00     0.029 A 
ATOM     50  C   UNL A   1      39.488  33.603  34.566  1.00  0.00     0.049 A 
ATOM     51  H   UNL A   1      39.868  32.062  33.218  1.00  0.00     0.167 HD
ATOM     52  C   UNL A   1      40.542  28.851  30.341  1.00  0.00     0.037 A 
ATOM     53  C   UNL A   1      40.326  33.431  35.609  1.00  0.00     0.037 A 
ATOM     54  C   UNL A   1      41.493  28.609  31.392  1.00  0.00     0.049 A 
ATOM     55  C   UNL A   1      41.268  32.256  35.621  1.00  0.00     0.074 A 
ATOM     56  C   UNL A   1      42.453  27.615  31.472  1.00  0.00     0.029 A 
ATOM     57  N   UNL A   1      41.604  29.370  32.545  1.00  0.00    -0.354 N 
ATOM     58  N   UNL A   1      41.451  31.333  34.706  1.00  0.00    -0.248 NA
ATOM     59  C   UNL A   1      42.113  32.089  36.813  1.00  0.00     0.031 C 
ATOM     60  C   UNL A   1      43.117  27.749  32.693  1.00  0.00     0.029 A 
ATOM     61  C   UNL A   1      42.602  28.854  33.353  1.00  0.00     0.049 A 
ATOM     62  H   UNL A   1      41.055  30.159  32.758  1.00  0.00     0.167 HD
ATOM     63  C   UNL A   1      42.446  30.498  35.199  1.00  0.00     0.074 A 
ATOM     64  C   UNL A   1      42.833  31.023  36.491  1.00  0.00     0.031 C 
ATOM     65  C   UNL A   1      42.989  29.394  34.631  1.00  0.00     0.037 A 
BRANCH  52  66
ATOM     66  C   UNL A   1      40.551  27.927  29.162  1.00  0.00     0.057 A 
ATOM     67  C   UNL A   1      41.369  28.190  28.056  1.00  0.00     0.134 A 
ATOM     68  C   UNL A   1      39.701  26.816  29.093  1.00  0.00     0.134 A 
ATOM     69  F   UNL A   1      42.205  29.239  28.061  1.00  0.00    -0.206 F 
ATOM     70  C   UNL A   1      41.330  27.388  26.915  1.00  0.00     0.040 A 
ATOM     71  C   UNL A   1      39.667  25.996  27.965  1.00  0.00     0.040 A 
ATOM     72  F   UNL A   1      38.906  26.504  30.128  1.00  0.00    -0.206 F 
ATOM     73  C   UNL A   1      40.476  26.287  26.868  1.00  0.00     0.006 A 
ENDBRANCH  52  66
BRANCH  53  74
ATOM     74  C   UNL A   1      40.301  34.384  36.748  1.00  0.00     0.057 A 
ATOM     75  C   UNL A   1      41.147  35.499  36.784  1.00  0.00     0.134 A 
ATOM     76  C   UNL A   1      39.416  34.210  37.817  1.00  0.00     0.134 A 
ATOM     77  F   UNL A   1      42.013  35.725  35.786  1.00  0.00    -0.206 F 
ATOM     78  C   UNL A   1      41.122  36.401  37.849  1.00  0.00     0.040 A 
ATOM     79  C   UNL A   1      39.366  35.115  38.879  1.00  0.00     0.040 A 
ATOM     80  F   UNL A   1      38.562  33.176  37.826  1.00  0.00    -0.206 F 
ATOM     81  C   UNL A   1      40.226  36.212  38.899  1.00  0.00     0.006 A 
ENDBRANCH  53  74
BRANCH  65  82
ATOM     82  C   UNL A   1      44.081  28.688  35.375  1.00  0.00     0.057 A 
ATOM     83  C   UNL A   1      45.426  28.981  35.112  1.00  0.00     0.134 A 
ATOM     84  C   UNL A   1      43.808  27.658  36.282  1.00  0.00     0.134 A 
ATOM     85  F   UNL A   1      45.755  29.949  34.243  1.00  0.00    -0.206 F 
ATOM     86  C   UNL A   1      46.461  28.264  35.714  1.00  0.00     0.040 A 
ATOM     87  C   UNL A   1      44.835  26.947  36.907  1.00  0.00     0.040 A 
ATOM     88  F   UNL A   1      42.541  27.334  36.582  1.00  0.00    -0.206 F 
ATOM     89  C   UNL A   1      46.165  27.243  36.616  1.00  0.00     0.006 A 
ENDBRANCH  65  82
ENDBRANCH  39  40
ENDBRANCH  32  34
ENDBRANCH  31  32
ENDBRANCH  30  31
ENDBRANCH  29  30
ENDBRANCH  28  29
ENDBRANCH  27  28
ENDBRANCH  26  27
ENDBRANCH   1  26
TORSDOF 23
ENDMDL
MODEL 2
REMARK VINA RESULT:      -9.6      2.957      8.050
REMARK SMILES COC[C@@H](NS(=O)(=O)c1ccc(C(=O)OCCOCCOCCOC(=O)c2ccc(-c3c4nc(c(-c5c(F)cccc5F)c5ccc([nH]5)c(-c5c(F)cccc5F)c5nc(c(-c6c(F)cccc6F)c6ccc3[nH]6)C=C5)C=C4)cc2)cc1F)C(C)C
REMARK SMILES IDX 18 1 17 2 16 3 15 4 13 5 14 6 12 7 9 8 10 9 82 10 11 11
REMARK SMILES IDX 81 12 83 13 6 14 7 15 8 16 5 17 4 19 3 20 2 21 1 22 84 23
REMARK SMILES IDX 85 24 86 25 19 26 20 27 21 28 22 29 23 30 24 31 25 32 26 33
REMARK SMILES IDX 27 34 28 35 80 36 29 37 79 38 30 39 31 40 32 41 73 42 33 43
REMARK SMILES IDX 78 44 72 45 74 46 34 47 77 48 71 49 70 50 35 52 61 53 44 54
REMARK SMILES IDX 60 55 45 56 48 57 59 58 75 59 46 60 47 61 58 63 76 64 49 65
REMARK SMILES IDX 36 66 37 67 42 68 38 69 39 70 41 71 43 72 40 73 62 74 63 75
REMARK SMILES IDX 68 76 64 77 65 78 67 79 69 80 66 81 50 82 51 83 56 84 52 85
REMARK SMILES IDX 53 86 55 87 57 88 54 89
REMARK H PARENT 5 18 74 51 48 62
REMARK Flexibility Score: inf
ROOT
ATOM      1  O   UNL A   1      40.066  21.423  27.238  1.00  0.00    -0.376 OA
ENDROOT
BRANCH   1   2
ATOM      2  C   UNL A   1      39.608  21.888  25.974  1.00  0.00     0.202 C 
BRANCH   2   3
ATOM      3  C   UNL A   1      38.120  22.213  25.790  1.00  0.00     0.261 C 
BRANCH   3   4
ATOM      4  O   UNL A   1      37.486  21.558  24.678  1.00  0.00    -0.460 OA
BRANCH   4   5
ATOM      5  C   UNL A   1      36.781  22.372  23.852  1.00  0.00     0.338 C 
ATOM      6  O   UNL A   1      37.079  22.697  22.714  1.00  0.00    -0.246 OA
BRANCH   5   7
ATOM      7  C   UNL A   1      35.476  22.729  24.459  1.00  0.00     0.063 A 
ATOM      8  C   UNL A   1      33.048  23.555  25.571  1.00  0.00     0.118 A 
ATOM      9  C   UNL A   1      34.187  24.353  25.727  1.00  0.00     0.026 A 
ATOM     10  C   UNL A   1      33.133  22.338  24.900  1.00  0.00     0.144 A 
ATOM     11  C   UNL A   1      35.399  23.936  25.173  1.00  0.00     0.017 A 
ATOM     12  C   UNL A   1      34.341  21.921  24.333  1.00  0.00     0.056 A 
ATOM     13  F   UNL A   1      32.055  21.558  24.743  1.00  0.00    -0.205 F 
BRANCH   8  14
ATOM     14  S   UNL A   1      31.474  24.138  26.125  1.00  0.00     0.243 S 
ATOM     15  O   UNL A   1      31.380  23.883  27.544  1.00  0.00    -0.207 OA
ATOM     16  O   UNL A   1      30.488  23.630  25.195  1.00  0.00    -0.207 OA
BRANCH  14  17
ATOM     17  N   UNL A   1      31.550  25.805  25.878  1.00  0.00    -0.205 NA
ATOM     18  H   UNL A   1      30.791  26.212  26.426  1.00  0.00     0.141 HD
BRANCH  17  19
ATOM     19  C   UNL A   1      31.445  26.397  24.507  1.00  0.00     0.098 C 
BRANCH  19  20
ATOM     20  C   UNL A   1      32.730  27.228  24.227  1.00  0.00     0.180 C 
BRANCH  20  21
ATOM     21  O   UNL A   1      33.573  26.633  23.238  1.00  0.00    -0.383 OA
ATOM     22  C   UNL A   1      32.943  25.661  22.423  1.00  0.00     0.194 C 
ENDBRANCH  20  21
ENDBRANCH  19  20
BRANCH  19  23
ATOM     23  C   UNL A   1      30.163  27.282  24.442  1.00  0.00     0.003 C 
ATOM     24  C   UNL A   1      30.344  28.569  23.626  1.00  0.00     0.009 C 
ATOM     25  C   UNL A   1      28.983  26.509  23.850  1.00  0.00     0.009 C 
ENDBRANCH  19  23
ENDBRANCH  17  19
ENDBRANCH  14  17
ENDBRANCH   8  14
ENDBRANCH   5   7
ENDBRANCH   4   5
ENDBRANCH   3   4
ENDBRANCH   2   3
ENDBRANCH   1   2
BRANCH   1  26
ATOM     26  C   UNL A   1      41.224  20.595  27.315  1.00  0.00     0.188 C 
BRANCH  26  27
ATOM     27  C   UNL A   1      41.692  19.791  26.084  1.00  0.00     0.188 C 
BRANCH  27  28
ATOM     28  O   UNL A   1      42.767  20.391  25.396  1.00  0.00    -0.376 OA
BRANCH  28  29
ATOM     29  C   UNL A   1      43.365  21.553  25.940  1.00  0.00     0.202 C 
BRANCH  29  30
ATOM     30  C   UNL A   1      43.075  22.954  25.368  1.00  0.00     0.261 C 
BRANCH  30  31
ATOM     31  O   UNL A   1      42.339  23.861  26.198  1.00  0.00    -0.460 OA
BRANCH  31  32
ATOM     32  C   UNL A   1      42.390  25.169  25.863  1.00  0.00     0.338 C 
ATOM     33  O   UNL A   1      42.369  25.649  24.744  1.00  0.00    -0.246 OA
BRANCH  32  34
ATOM     34  C   UNL A   1      42.310  25.966  27.101  1.00  0.00     0.060 A 
ATOM     35  C   UNL A   1      41.391  25.566  28.072  1.00  0.00     0.016 A 
ATOM     36  C   UNL A   1      43.089  27.106  27.297  1.00  0.00     0.016 A 
ATOM     37  C   UNL A   1      41.237  26.301  29.248  1.00  0.00     0.010 A 
ATOM     38  C   UNL A   1      42.917  27.862  28.463  1.00  0.00     0.010 A 
ATOM     39  C   UNL A   1      41.978  27.473  29.436  1.00  0.00    -0.014 A 
BRANCH  39  40
ATOM     40  C   UNL A   1      41.657  28.371  30.573  1.00  0.00     0.031 A 
ATOM     41  C   UNL A   1      40.527  29.352  30.424  1.00  0.00     0.074 A 
ATOM     42  C   UNL A   1      42.338  28.300  31.732  1.00  0.00     0.049 A 
ATOM     43  N   UNL A   1      40.116  30.276  31.253  1.00  0.00    -0.248 NA
ATOM     44  C   UNL A   1      39.751  29.273  29.175  1.00  0.00     0.031 C 
ATOM     45  C   UNL A   1      43.407  27.351  32.028  1.00  0.00     0.029 A 
ATOM     46  N   UNL A   1      42.226  29.052  32.876  1.00  0.00    -0.354 N 
ATOM     47  C   UNL A   1      39.039  30.889  30.627  1.00  0.00     0.074 A 
ATOM     48  C   UNL A   1      38.869  30.246  29.343  1.00  0.00     0.031 C 
ATOM     49  C   UNL A   1      43.863  27.583  33.272  1.00  0.00     0.029 A 
ATOM     50  C   UNL A   1      43.143  28.721  33.844  1.00  0.00     0.049 A 
ATOM     51  H   UNL A   1      41.553  29.761  32.992  1.00  0.00     0.167 HD
ATOM     52  C   UNL A   1      38.259  31.895  31.085  1.00  0.00     0.037 A 
ATOM     53  C   UNL A   1      43.390  29.289  35.042  1.00  0.00     0.037 A 
ATOM     54  C   UNL A   1      38.428  32.540  32.359  1.00  0.00     0.049 A 
ATOM     55  C   UNL A   1      42.572  30.473  35.486  1.00  0.00     0.074 A 
ATOM     56  C   UNL A   1      37.690  33.578  32.903  1.00  0.00     0.029 A 
ATOM     57  N   UNL A   1      39.402  32.210  33.287  1.00  0.00    -0.354 N 
ATOM     58  N   UNL A   1      41.565  31.056  34.881  1.00  0.00    -0.248 NA
ATOM     59  C   UNL A   1      42.929  31.085  36.775  1.00  0.00     0.031 C 
ATOM     60  C   UNL A   1      38.244  33.903  34.143  1.00  0.00     0.029 A 
ATOM     61  C   UNL A   1      39.298  33.038  34.391  1.00  0.00     0.049 A 
ATOM     62  H   UNL A   1      40.070  31.494  33.178  1.00  0.00     0.167 HD
ATOM     63  C   UNL A   1      41.154  32.082  35.725  1.00  0.00     0.074 A 
ATOM     64  C   UNL A   1      42.015  32.039  36.887  1.00  0.00     0.031 C 
ATOM     65  C   UNL A   1      40.152  32.977  35.549  1.00  0.00     0.037 A 
BRANCH  52  66
ATOM     66  C   UNL A   1      37.156  32.381  30.195  1.00  0.00     0.057 A 
ATOM     67  C   UNL A   1      35.866  31.850  30.305  1.00  0.00     0.134 A 
ATOM     68  C   UNL A   1      37.389  33.324  29.186  1.00  0.00     0.134 A 
ATOM     69  F   UNL A   1      35.580  30.942  31.250  1.00  0.00    -0.206 F 
ATOM     70  C   UNL A   1      34.846  32.228  29.430  1.00  0.00     0.040 A 
ATOM     71  C   UNL A   1      36.372  33.724  28.317  1.00  0.00     0.040 A 
ATOM     72  F   UNL A   1      38.601  33.880  29.042  1.00  0.00    -0.206 F 
ATOM     73  C   UNL A   1      35.099  33.167  28.432  1.00  0.00     0.006 A 
ENDBRANCH  52  66
BRANCH  53  74
ATOM     74  C   UNL A   1      44.478  28.762  35.905  1.00  0.00     0.057 A 
ATOM     75  C   UNL A   1      45.768  29.303  35.863  1.00  0.00     0.134 A 
ATOM     76  C   UNL A   1      44.244  27.719  36.807  1.00  0.00     0.134 A 
ATOM     77  F   UNL A   1      46.055  30.310  35.025  1.00  0.00    -0.206 F 
ATOM     78  C   UNL A   1      46.792  28.816  36.678  1.00  0.00     0.040 A 
ATOM     79  C   UNL A   1      45.252  27.236  37.643  1.00  0.00     0.040 A 
ATOM     80  F   UNL A   1      43.021  27.178  36.913  1.00  0.00    -0.206 F 
ATOM     81  C   UNL A   1      46.533  27.782  37.575  1.00  0.00     0.006 A 
ENDBRANCH  53  74
BRANCH  65  82
ATOM     82  C   UNL A   1      39.901  33.971  36.644  1.00  0.00     0.057 A 
ATOM     83  C   UNL A   1      39.052  33.653  37.712  1.00  0.00     0.134 A 
ATOM     84  C   UNL A   1      40.423  35.268  36.595  1.00  0.00     0.134 A 
ATOM     85  F   UNL A   1      38.509  32.430  37.810  1.00  0.00    -0.206 F 
ATOM     86  C   UNL A   1      38.719  34.596  38.685  1.00  0.00     0.040 A 
ATOM     87  C   UNL A   1      40.115  36.214  37.574  1.00  0.00     0.040 A 
ATOM     88  F   UNL A   1      41.248  35.632  35.601  1.00  0.00    -0.206 F 
ATOM     89  C   UNL A   1      39.253  35.881  38.618  1.00  0.00     0.006 A 
ENDBRANCH  65  82
ENDBRANCH  39  40
ENDBRANCH  32  34
ENDBRANCH  31  32
ENDBRANCH  30  31
ENDBRANCH  29  30
ENDBRANCH  28  29
ENDBRANCH  27  28
ENDBRANCH  26  27
ENDBRANCH   1  26
TORSDOF 23
ENDMDL
MODEL 3
REMARK VINA RESULT:      -9.6      4.346      8.583
REMARK SMILES COC[C@@H](NS(=O)(=O)c1ccc(C(=O)OCCOCCOCCOC(=O)c2ccc(-c3c4nc(c(-c5c(F)cccc5F)c5ccc([nH]5)c(-c5c(F)cccc5F)c5nc(c(-c6c(F)cccc6F)c6ccc3[nH]6)C=C5)C=C4)cc2)cc1F)C(C)C
REMARK SMILES IDX 18 1 17 2 16 3 15 4 13 5 14 6 12 7 9 8 10 9 82 10 11 11
REMARK SMILES IDX 81 12 83 13 6 14 7 15 8 16 5 17 4 19 3 20 2 21 1 22 84 23
REMARK SMILES IDX 85 24 86 25 19 26 20 27 21 28 22 29 23 30 24 31 25 32 26 33
REMARK SMILES IDX 27 34 28 35 80 36 29 37 79 38 30 39 31 40 32 41 73 42 33 43
REMARK SMILES IDX 78 44 72 45 74 46 34 47 77 48 71 49 70 50 35 52 61 53 44 54
REMARK SMILES IDX 60 55 45 56 48 57 59 58 75 59 46 60 47 61 58 63 76 64 49 65
REMARK SMILES IDX 36 66 37 67 42 68 38 69 39 70 41 71 43 72 40 73 62 74 63 75
REMARK SMILES IDX 68 76 64 77 65 78 67 79 69 80 66 81 50 82 51 83 56 84 52 85
REMARK SMILES IDX 53 86 55 87 57 88 54 89
REMARK H PARENT 5 18 74 51 48 62
REMARK Flexibility Score: inf
ROOT
ATOM      1  O   UNL A   1      34.169  34.216  27.848  1.00  0.00    -0.376 OA
ENDROOT
BRANCH   1   2
ATOM      2  C   UNL A   1      34.974  33.049  27.961  1.00  0.00     0.202 C 
BRANCH   2   3
ATOM      3  C   UNL A   1      34.312  31.714  28.327  1.00  0.00     0.261 C 
BRANCH   3   4
ATOM      4  O   UNL A   1      34.039  30.845  27.215  1.00  0.00    -0.460 OA
BRANCH   4   5
ATOM      5  C   UNL A   1      32.724  30.642  26.947  1.00  0.00     0.338 C 
ATOM      6  O   UNL A   1      31.829  31.471  27.001  1.00  0.00    -0.246 OA
BRANCH   5   7
ATOM      7  C   UNL A   1      32.502  29.273  26.421  1.00  0.00     0.063 A 
ATOM      8  C   UNL A   1      31.944  26.693  25.504  1.00  0.00     0.118 A 
ATOM      9  C   UNL A   1      31.538  27.073  26.788  1.00  0.00     0.026 A 
ATOM     10  C   UNL A   1      32.656  27.582  24.703  1.00  0.00     0.144 A 
ATOM     11  C   UNL A   1      31.821  28.363  27.244  1.00  0.00     0.017 A 
ATOM     12  C   UNL A   1      32.932  28.878  25.151  1.00  0.00     0.056 A 
ATOM     13  F   UNL A   1      33.057  27.236  23.472  1.00  0.00    -0.205 F 
BRANCH   8  14
ATOM     14  S   UNL A   1      31.458  25.125  24.848  1.00  0.00     0.243 S 
ATOM     15  O   UNL A   1      30.613  25.365  23.701  1.00  0.00    -0.207 OA
ATOM     16  O   UNL A   1      31.012  24.323  25.967  1.00  0.00    -0.207 OA
BRANCH  14  17
ATOM     17  N   UNL A   1      32.908  24.442  24.319  1.00  0.00    -0.205 NA
ATOM     18  H   UNL A   1      32.899  24.502  23.301  1.00  0.00     0.141 HD
BRANCH  17  19
ATOM     19  C   UNL A   1      33.275  23.030  24.655  1.00  0.00     0.098 C 
BRANCH  19  20
ATOM     20  C   UNL A   1      34.667  22.719  24.034  1.00  0.00     0.180 C 
BRANCH  20  21
ATOM     21  O   UNL A   1      35.588  22.173  24.980  1.00  0.00    -0.383 OA
ATOM     22  C   UNL A   1      35.555  20.762  25.101  1.00  0.00     0.194 C 
ENDBRANCH  20  21
ENDBRANCH  19  20
BRANCH  19  23
ATOM     23  C   UNL A   1      32.172  22.081  24.095  1.00  0.00     0.003 C 
ATOM     24  C   UNL A   1      32.292  21.818  22.588  1.00  0.00     0.009 C 
ATOM     25  C   UNL A   1      32.185  20.730  24.813  1.00  0.00     0.009 C 
ENDBRANCH  19  23
ENDBRANCH  17  19
ENDBRANCH  14  17
ENDBRANCH   8  14
ENDBRANCH   5   7
ENDBRANCH   4   5
ENDBRANCH   3   4
ENDBRANCH   2   3
ENDBRANCH   1   2
BRANCH   1  26
ATOM     26  C   UNL A   1      34.254  35.239  28.837  1.00  0.00     0.188 C 
BRANCH  26  27
ATOM     27  C   UNL A   1      33.244  35.281  30.004  1.00  0.00     0.188 C 
BRANCH  27  28
ATOM     28  O   UNL A   1      33.810  35.712  31.221  1.00  0.00    -0.376 OA
BRANCH  28  29
ATOM     29  C   UNL A   1      33.739  34.860  32.350  1.00  0.00     0.202 C 
BRANCH  29  30
ATOM     30  C   UNL A   1      34.094  33.364  32.255  1.00  0.00     0.261 C 
BRANCH  30  31
ATOM     31  O   UNL A   1      35.361  33.025  31.677  1.00  0.00    -0.460 OA
BRANCH  31  32
ATOM     32  C   UNL A   1      36.354  32.704  32.533  1.00  0.00     0.338 C 
ATOM     33  O   UNL A   1      36.375  32.872  33.739  1.00  0.00    -0.246 OA
BRANCH  32  34
ATOM     34  C   UNL A   1      37.379  31.949  31.790  1.00  0.00     0.060 A 
ATOM     35  C   UNL A   1      38.289  31.191  32.528  1.00  0.00     0.016 A 
ATOM     36  C   UNL A   1      37.477  32.007  30.400  1.00  0.00     0.016 A 
ATOM     37  C   UNL A   1      39.309  30.485  31.888  1.00  0.00     0.010 A 
ATOM     38  C   UNL A   1      38.516  31.324  29.756  1.00  0.00     0.010 A 
ATOM     39  C   UNL A   1      39.447  30.574  30.498  1.00  0.00    -0.014 A 
BRANCH  39  40
ATOM     40  C   UNL A   1      40.653  30.012  29.842  1.00  0.00     0.031 A 
ATOM     41  C   UNL A   1      41.847  30.903  29.637  1.00  0.00     0.074 A 
ATOM     42  C   UNL A   1      40.703  28.723  29.458  1.00  0.00     0.049 A 
ATOM     43  N   UNL A   1      42.976  30.650  29.028  1.00  0.00    -0.248 NA
ATOM     44  C   UNL A   1      41.757  32.259  30.203  1.00  0.00     0.031 C 
ATOM     45  C   UNL A   1      39.643  27.739  29.660  1.00  0.00     0.029 A 
ATOM     46  N   UNL A   1      41.693  28.025  28.812  1.00  0.00    -0.354 N 
ATOM     47  C   UNL A   1      43.728  31.813  29.135  1.00  0.00     0.074 A 
ATOM     48  C   UNL A   1      42.924  32.778  29.850  1.00  0.00     0.031 C 
ATOM     49  C   UNL A   1      40.035  26.563  29.138  1.00  0.00     0.029 A 
ATOM     50  C   UNL A   1      41.357  26.723  28.532  1.00  0.00     0.049 A 
ATOM     51  H   UNL A   1      42.563  28.420  28.572  1.00  0.00     0.167 HD
ATOM     52  C   UNL A   1      44.980  32.052  28.680  1.00  0.00     0.037 A 
ATOM     53  C   UNL A   1      42.028  25.778  27.844  1.00  0.00     0.037 A 
ATOM     54  C   UNL A   1      45.781  31.097  27.963  1.00  0.00     0.049 A 
ATOM     55  C   UNL A   1      43.379  26.100  27.261  1.00  0.00     0.074 A 
ATOM     56  C   UNL A   1      47.059  31.255  27.454  1.00  0.00     0.029 A 
ATOM     57  N   UNL A   1      45.382  29.806  27.654  1.00  0.00    -0.354 N 
ATOM     58  N   UNL A   1      44.077  27.207  27.353  1.00  0.00    -0.248 NA
ATOM     59  C   UNL A   1      44.034  25.047  26.469  1.00  0.00     0.031 C 
ATOM     60  C   UNL A   1      47.417  30.073  26.801  1.00  0.00     0.029 A 
ATOM     61  C   UNL A   1      46.381  29.164  26.943  1.00  0.00     0.049 A 
ATOM     62  H   UNL A   1      44.518  29.406  27.903  1.00  0.00     0.167 HD
ATOM     63  C   UNL A   1      45.257  26.974  26.658  1.00  0.00     0.074 A 
ATOM     64  C   UNL A   1      45.187  25.620  26.153  1.00  0.00     0.031 C 
ATOM     65  C   UNL A   1      46.305  27.810  26.457  1.00  0.00     0.037 A 
BRANCH  52  66
ATOM     66  C   UNL A   1      45.562  33.410  28.924  1.00  0.00     0.057 A 
ATOM     67  C   UNL A   1      46.327  33.662  30.070  1.00  0.00     0.134 A 
ATOM     68  C   UNL A   1      45.307  34.484  28.062  1.00  0.00     0.134 A 
ATOM     69  F   UNL A   1      46.604  32.676  30.935  1.00  0.00    -0.206 F 
ATOM     70  C   UNL A   1      46.806  34.941  30.358  1.00  0.00     0.040 A 
ATOM     71  C   UNL A   1      45.798  35.763  28.330  1.00  0.00     0.040 A 
ATOM     72  F   UNL A   1      44.594  34.301  26.941  1.00  0.00    -0.206 F 
ATOM     73  C   UNL A   1      46.541  35.995  29.487  1.00  0.00     0.006 A 
ENDBRANCH  52  66
BRANCH  53  74
ATOM     74  C   UNL A   1      41.426  24.435  27.643  1.00  0.00     0.057 A 
ATOM     75  C   UNL A   1      41.846  23.328  28.391  1.00  0.00     0.134 A 
ATOM     76  C   UNL A   1      40.402  24.233  26.712  1.00  0.00     0.134 A 
ATOM     77  F   UNL A   1      42.819  23.457  29.304  1.00  0.00    -0.206 F 
ATOM     78  C   UNL A   1      41.279  22.066  28.210  1.00  0.00     0.040 A 
ATOM     79  C   UNL A   1      39.810  22.981  26.536  1.00  0.00     0.040 A 
ATOM     80  F   UNL A   1      39.937  25.260  25.985  1.00  0.00    -0.206 F 
ATOM     81  C   UNL A   1      40.253  21.891  27.283  1.00  0.00     0.006 A 
ENDBRANCH  53  74
BRANCH  65  82
ATOM     82  C   UNL A   1      47.480  27.288  25.687  1.00  0.00     0.057 A 
ATOM     83  C   UNL A   1      48.548  26.669  26.350  1.00  0.00     0.134 A 
ATOM     84  C   UNL A   1      47.598  27.477  24.305  1.00  0.00     0.134 A 
ATOM     85  F   UNL A   1      48.503  26.470  27.676  1.00  0.00    -0.206 F 
ATOM     86  C   UNL A   1      49.699  26.272  25.668  1.00  0.00     0.040 A 
ATOM     87  C   UNL A   1      48.734  27.064  23.608  1.00  0.00     0.040 A 
ATOM     88  F   UNL A   1      46.606  28.056  23.611  1.00  0.00    -0.206 F 
ATOM     89  C   UNL A   1      49.793  26.468  24.292  1.00  0.00     0.006 A 
ENDBRANCH  65  82
ENDBRANCH  39  40
ENDBRANCH  32  34
ENDBRANCH  31  32
ENDBRANCH  30  31
ENDBRANCH  29  30
ENDBRANCH  28  29
ENDBRANCH  27  28
ENDBRANCH  26  27
ENDBRANCH   1  26
TORSDOF 23
ENDMDL
