MODEL 1
REMARK VINA RESULT:     -10.6      0.000      0.000
REMARK SMILES O=C(OCCOCCOCCOC(=O)[C@@H]1CCC[N@@H+](Cc2ccc(F)cc2Cl)C1)c1ccc(-c2c3nc(c(-c4c(F)cccc4F)c4ccc([nH]4)c(-c4c(F)cccc4F)c4nc(c(-c5c(F)cccc5F)c5ccc2[nH]5)C=C4)C=C3)cc1
REMARK SMILES IDX 7 1 6 2 5 3 4 4 3 5 2 6 1 7 30 8 31 9 83 10 32 11 82 12
REMARK SMILES IDX 33 13 34 14 35 15 76 16 36 17 81 18 75 19 77 20 37 21 80 22
REMARK SMILES IDX 74 23 73 24 38 26 64 27 47 28 63 29 48 30 51 31 62 32 78 33
REMARK SMILES IDX 49 34 50 35 61 37 79 38 52 39 39 40 40 41 45 42 41 43 42 44
REMARK SMILES IDX 44 45 46 46 43 47 65 48 66 49 71 50 67 51 68 52 70 53 72 54
REMARK SMILES IDX 69 55 53 56 54 57 59 58 55 59 56 60 58 61 60 62 57 63 8 64
REMARK SMILES IDX 9 65 10 66 11 67 12 68 13 69 14 70 15 71 16 72 29 73 17 74
REMARK SMILES IDX 19 75 18 76 20 78 21 79 22 80 27 81 23 82 26 83 28 84 24 85
REMARK SMILES IDX 25 86
REMARK H PARENT 77 25 51 36 19 77
REMARK Flexibility Score: inf
ROOT
ATOM      1  C   UNL A   1      34.373  34.574  27.961  1.00  0.00     0.188 C 
ENDROOT
BRANCH   1   2
ATOM      2  O   UNL A   1      34.545  35.917  28.414  1.00  0.00    -0.376 OA
BRANCH   2   3
ATOM      3  C   UNL A   1      33.341  36.618  28.730  1.00  0.00     0.202 C 
BRANCH   3   4
ATOM      4  C   UNL A   1      33.229  37.212  30.145  1.00  0.00     0.261 C 
BRANCH   4   5
ATOM      5  O   UNL A   1      32.244  36.593  30.990  1.00  0.00    -0.460 OA
BRANCH   5   6
ATOM      6  C   UNL A   1      32.413  35.907  32.144  1.00  0.00     0.338 C 
ATOM      7  O   UNL A   1      31.513  35.914  32.980  1.00  0.00    -0.246 OA
BRANCH   6   8
ATOM      8  C   UNL A   1      33.647  35.138  32.462  1.00  0.00     0.060 A 
ATOM      9  C   UNL A   1      34.932  35.675  32.452  1.00  0.00     0.016 A 
ATOM     10  C   UNL A   1      33.486  33.823  32.925  1.00  0.00     0.016 A 
ATOM     11  C   UNL A   1      36.044  34.915  32.783  1.00  0.00     0.010 A 
ATOM     12  C   UNL A   1      34.592  33.065  33.321  1.00  0.00     0.010 A 
ATOM     13  C   UNL A   1      35.879  33.606  33.223  1.00  0.00    -0.014 A 
BRANCH  13  14
ATOM     14  C   UNL A   1      37.085  32.815  33.523  1.00  0.00     0.031 A 
ATOM     15  C   UNL A   1      37.762  33.005  34.837  1.00  0.00     0.074 A 
ATOM     16  C   UNL A   1      37.523  31.904  32.638  1.00  0.00     0.049 A 
ATOM     17  N   UNL A   1      38.873  32.473  35.265  1.00  0.00    -0.248 NA
ATOM     18  C   UNL A   1      37.121  33.929  35.784  1.00  0.00     0.031 C 
ATOM     19  C   UNL A   1      36.924  31.665  31.328  1.00  0.00     0.029 A 
ATOM     20  N   UNL A   1      38.570  31.021  32.692  1.00  0.00    -0.354 N 
ATOM     21  C   UNL A   1      39.103  33.051  36.503  1.00  0.00     0.074 A 
ATOM     22  C   UNL A   1      38.002  33.950  36.771  1.00  0.00     0.031 C 
ATOM     23  C   UNL A   1      37.622  30.702  30.708  1.00  0.00     0.029 A 
ATOM     24  C   UNL A   1      38.698  30.245  31.565  1.00  0.00     0.049 A 
ATOM     25  H   UNL A   1      39.174  30.950  33.466  1.00  0.00     0.167 HD
ATOM     26  C   UNL A   1      40.166  32.865  37.315  1.00  0.00     0.037 A 
ATOM     27  C   UNL A   1      39.606  29.301  31.262  1.00  0.00     0.037 A 
ATOM     28  C   UNL A   1      41.246  31.964  37.021  1.00  0.00     0.049 A 
ATOM     29  C   UNL A   1      40.747  29.097  32.209  1.00  0.00     0.074 A 
ATOM     30  C   UNL A   1      42.373  31.694  37.774  1.00  0.00     0.029 A 
ATOM     31  N   UNL A   1      41.335  31.193  35.871  1.00  0.00    -0.354 N 
ATOM     32  N   UNL A   1      40.978  29.681  33.356  1.00  0.00    -0.248 NA
ATOM     33  C   UNL A   1      41.784  28.145  31.785  1.00  0.00     0.031 C 
ATOM     34  C   UNL A   1      43.173  30.801  37.054  1.00  0.00     0.029 A 
ATOM     35  C   UNL A   1      42.515  30.471  35.880  1.00  0.00     0.049 A 
ATOM     36  H   UNL A   1      40.659  31.164  35.156  1.00  0.00     0.167 HD
ATOM     37  C   UNL A   1      42.212  29.208  33.767  1.00  0.00     0.074 A 
ATOM     38  C   UNL A   1      42.651  28.244  32.779  1.00  0.00     0.031 C 
ATOM     39  C   UNL A   1      42.935  29.560  34.852  1.00  0.00     0.037 A 
BRANCH  26  40
ATOM     40  C   UNL A   1      40.247  33.724  38.535  1.00  0.00     0.057 A 
ATOM     41  C   UNL A   1      39.595  33.401  39.730  1.00  0.00     0.134 A 
ATOM     42  C   UNL A   1      40.988  34.913  38.499  1.00  0.00     0.134 A 
ATOM     43  F   UNL A   1      38.842  32.294  39.817  1.00  0.00    -0.206 F 
ATOM     44  C   UNL A   1      39.661  34.241  40.843  1.00  0.00     0.040 A 
ATOM     45  C   UNL A   1      41.082  35.747  39.612  1.00  0.00     0.040 A 
ATOM     46  F   UNL A   1      41.624  35.286  37.377  1.00  0.00    -0.206 F 
ATOM     47  C   UNL A   1      40.413  35.415  40.786  1.00  0.00     0.006 A 
ENDBRANCH  26  40
BRANCH  27  48
ATOM     48  C   UNL A   1      39.605  28.521  30.002  1.00  0.00     0.057 A 
ATOM     49  C   UNL A   1      39.142  27.199  29.970  1.00  0.00     0.134 A 
ATOM     50  C   UNL A   1      40.260  29.006  28.866  1.00  0.00     0.134 A 
ATOM     51  F   UNL A   1      38.557  26.663  31.051  1.00  0.00    -0.206 F 
ATOM     52  C   UNL A   1      39.334  26.385  28.850  1.00  0.00     0.040 A 
ATOM     53  C   UNL A   1      40.460  28.203  27.740  1.00  0.00     0.040 A 
ATOM     54  F   UNL A   1      40.707  30.270  28.835  1.00  0.00    -0.206 F 
ATOM     55  C   UNL A   1      39.997  26.888  27.731  1.00  0.00     0.006 A 
ENDBRANCH  27  48
BRANCH  39  56
ATOM     56  C   UNL A   1      44.275  28.915  34.984  1.00  0.00     0.057 A 
ATOM     57  C   UNL A   1      45.427  29.511  34.456  1.00  0.00     0.134 A 
ATOM     58  C   UNL A   1      44.410  27.691  35.645  1.00  0.00     0.134 A 
ATOM     59  F   UNL A   1      45.348  30.668  33.780  1.00  0.00    -0.206 F 
ATOM     60  C   UNL A   1      46.674  28.902  34.577  1.00  0.00     0.040 A 
ATOM     61  C   UNL A   1      45.656  27.087  35.795  1.00  0.00     0.040 A 
ATOM     62  F   UNL A   1      43.336  27.072  36.157  1.00  0.00    -0.206 F 
ATOM     63  C   UNL A   1      46.790  27.691  35.257  1.00  0.00     0.006 A 
ENDBRANCH  39  56
ENDBRANCH  13  14
ENDBRANCH   6   8
ENDBRANCH   5   6
ENDBRANCH   4   5
ENDBRANCH   3   4
ENDBRANCH   2   3
ENDBRANCH   1   2
BRANCH   1  64
ATOM     64  C   UNL A   1      33.809  33.666  29.048  1.00  0.00     0.188 C 
BRANCH  64  65
ATOM     65  O   UNL A   1      34.289  32.325  29.099  1.00  0.00    -0.376 OA
BRANCH  65  66
ATOM     66  C   UNL A   1      34.380  31.589  27.886  1.00  0.00     0.202 C 
BRANCH  66  67
ATOM     67  C   UNL A   1      33.101  31.313  27.079  1.00  0.00     0.261 C 
BRANCH  67  68
ATOM     68  O   UNL A   1      32.441  30.077  27.365  1.00  0.00    -0.463 OA
BRANCH  68  69
ATOM     69  C   UNL A   1      31.787  29.558  26.284  1.00  0.00     0.314 C 
ATOM     70  O   UNL A   1      31.273  30.225  25.407  1.00  0.00    -0.252 OA
BRANCH  69  71
ATOM     71  C   UNL A   1      31.836  28.039  26.326  1.00  0.00     0.154 C 
ATOM     72  C   UNL A   1      33.267  27.495  26.290  1.00  0.00     0.027 C 
ATOM     73  C   UNL A   1      31.044  27.500  25.142  1.00  0.00     0.277 C 
ATOM     74  C   UNL A   1      33.953  27.793  24.962  1.00  0.00     0.062 C 
ATOM     75  N   UNL A   1      31.653  27.907  23.871  1.00  0.00    -0.330 N 
ATOM     76  C   UNL A   1      33.063  27.485  23.756  1.00  0.00     0.262 C 
ATOM     77  H   UNL A   1      31.667  28.927  23.897  1.00  0.00     0.348 HD
BRANCH  75  78
ATOM     78  C   UNL A   1      30.833  27.595  22.670  1.00  0.00     0.300 C 
BRANCH  78  79
ATOM     79  C   UNL A   1      29.635  28.519  22.527  1.00  0.00     0.025 A 
ATOM     80  C   UNL A   1      29.901  29.791  22.016  1.00  0.00     0.014 A 
ATOM     81  C   UNL A   1      28.418  28.303  23.191  1.00  0.00     0.052 A 
ATOM     82  C   UNL A   1      29.159  30.879  22.455  1.00  0.00     0.040 A 
ATOM     83  C   UNL A   1      27.597  29.384  23.513  1.00  0.00     0.060 A 
ATOM     84  Cl  UNL A   1      27.926  26.736  23.711  1.00  0.00    -0.084 Cl
ATOM     85  C   UNL A   1      28.014  30.668  23.202  1.00  0.00     0.124 A 
ATOM     86  F   UNL A   1      27.303  31.724  23.614  1.00  0.00    -0.207 F 
ENDBRANCH  78  79
ENDBRANCH  75  78
ENDBRANCH  69  71
ENDBRANCH  68  69
ENDBRANCH  67  68
ENDBRANCH  66  67
ENDBRANCH  65  66
ENDBRANCH  64  65
ENDBRANCH   1  64
TORSDOF 19
ENDMDL
MODEL 2
REMARK VINA RESULT:     -10.5      4.362      9.196
REMARK SMILES O=C(OCCOCCOCCOC(=O)[C@@H]1CCC[N@@H+](Cc2ccc(F)cc2Cl)C1)c1ccc(-c2c3nc(c(-c4c(F)cccc4F)c4ccc([nH]4)c(-c4c(F)cccc4F)c4nc(c(-c5c(F)cccc5F)c5ccc2[nH]5)C=C4)C=C3)cc1
REMARK SMILES IDX 7 1 6 2 5 3 4 4 3 5 2 6 1 7 30 8 31 9 83 10 32 11 82 12
REMARK SMILES IDX 33 13 34 14 35 15 76 16 36 17 81 18 75 19 77 20 37 21 80 22
REMARK SMILES IDX 74 23 73 24 38 26 64 27 47 28 63 29 48 30 51 31 62 32 78 33
REMARK SMILES IDX 49 34 50 35 61 37 79 38 52 39 39 40 40 41 45 42 41 43 42 44
REMARK SMILES IDX 44 45 46 46 43 47 65 48 66 49 71 50 67 51 68 52 70 53 72 54
REMARK SMILES IDX 69 55 53 56 54 57 59 58 55 59 56 60 58 61 60 62 57 63 8 64
REMARK SMILES IDX 9 65 10 66 11 67 12 68 13 69 14 70 15 71 16 72 29 73 17 74
REMARK SMILES IDX 19 75 18 76 20 78 21 79 22 80 27 81 23 82 26 83 28 84 24 85
REMARK SMILES IDX 25 86
REMARK H PARENT 77 25 51 36 19 77
REMARK Flexibility Score: inf
ROOT
ATOM      1  C   UNL A   1      40.401  21.088  26.923  1.00  0.00     0.188 C 
ENDROOT
BRANCH   1   2
ATOM      2  O   UNL A   1      41.222  20.243  26.115  1.00  0.00    -0.376 OA
BRANCH   2   3
ATOM      3  C   UNL A   1      42.626  20.334  26.363  1.00  0.00     0.202 C 
BRANCH   3   4
ATOM      4  C   UNL A   1      43.456  21.172  25.375  1.00  0.00     0.261 C 
BRANCH   4   5
ATOM      5  O   UNL A   1      42.886  22.445  25.026  1.00  0.00    -0.460 OA
BRANCH   5   6
ATOM      6  C   UNL A   1      43.395  23.687  25.193  1.00  0.00     0.338 C 
ATOM      7  O   UNL A   1      44.263  24.087  24.420  1.00  0.00    -0.246 OA
BRANCH   6   8
ATOM      8  C   UNL A   1      42.960  24.608  26.278  1.00  0.00     0.060 A 
ATOM      9  C   UNL A   1      42.184  24.225  27.370  1.00  0.00     0.016 A 
ATOM     10  C   UNL A   1      43.474  25.914  26.262  1.00  0.00     0.016 A 
ATOM     11  C   UNL A   1      41.830  25.123  28.366  1.00  0.00     0.010 A 
ATOM     12  C   UNL A   1      43.175  26.812  27.291  1.00  0.00     0.010 A 
ATOM     13  C   UNL A   1      42.327  26.421  28.333  1.00  0.00    -0.014 A 
BRANCH  13  14
ATOM     14  C   UNL A   1      41.894  27.359  29.384  1.00  0.00     0.031 A 
ATOM     15  C   UNL A   1      42.672  27.429  30.653  1.00  0.00     0.074 A 
ATOM     16  C   UNL A   1      40.844  28.169  29.163  1.00  0.00     0.049 A 
ATOM     17  N   UNL A   1      42.416  28.121  31.727  1.00  0.00    -0.248 NA
ATOM     18  C   UNL A   1      43.881  26.595  30.734  1.00  0.00     0.031 C 
ATOM     19  C   UNL A   1      40.025  28.156  27.954  1.00  0.00     0.029 A 
ATOM     20  N   UNL A   1      40.279  29.147  29.939  1.00  0.00    -0.354 N 
ATOM     21  C   UNL A   1      43.392  27.754  32.640  1.00  0.00     0.074 A 
ATOM     22  C   UNL A   1      44.262  26.803  31.984  1.00  0.00     0.031 C 
ATOM     23  C   UNL A   1      39.062  29.081  28.080  1.00  0.00     0.029 A 
ATOM     24  C   UNL A   1      39.195  29.758  29.355  1.00  0.00     0.049 A 
ATOM     25  H   UNL A   1      40.616  29.387  30.832  1.00  0.00     0.167 HD
ATOM     26  C   UNL A   1      43.513  28.158  33.923  1.00  0.00     0.037 A 
ATOM     27  C   UNL A   1      38.393  30.731  29.822  1.00  0.00     0.037 A 
ATOM     28  C   UNL A   1      42.633  29.106  34.548  1.00  0.00     0.049 A 
ATOM     29  C   UNL A   1      38.588  31.180  31.237  1.00  0.00     0.074 A 
ATOM     30  C   UNL A   1      42.665  29.589  35.842  1.00  0.00     0.029 A 
ATOM     31  N   UNL A   1      41.551  29.706  33.920  1.00  0.00    -0.354 N 
ATOM     32  N   UNL A   1      39.486  30.793  32.106  1.00  0.00    -0.248 NA
ATOM     33  C   UNL A   1      37.615  32.154  31.751  1.00  0.00     0.031 C 
ATOM     34  C   UNL A   1      41.568  30.440  36.015  1.00  0.00     0.029 A 
ATOM     35  C   UNL A   1      40.889  30.531  34.812  1.00  0.00     0.049 A 
ATOM     36  H   UNL A   1      41.293  29.565  32.980  1.00  0.00     0.167 HD
ATOM     37  C   UNL A   1      39.156  31.437  33.285  1.00  0.00     0.074 A 
ATOM     38  C   UNL A   1      38.015  32.285  33.005  1.00  0.00     0.031 C 
ATOM     39  C   UNL A   1      39.728  31.318  34.504  1.00  0.00     0.037 A 
BRANCH  26  40
ATOM     40  C   UNL A   1      44.573  27.497  34.745  1.00  0.00     0.057 A 
ATOM     41  C   UNL A   1      45.841  28.058  34.933  1.00  0.00     0.134 A 
ATOM     42  C   UNL A   1      44.313  26.259  35.348  1.00  0.00     0.134 A 
ATOM     43  F   UNL A   1      46.163  29.224  34.353  1.00  0.00    -0.206 F 
ATOM     44  C   UNL A   1      46.821  27.400  35.678  1.00  0.00     0.040 A 
ATOM     45  C   UNL A   1      45.275  25.606  36.116  1.00  0.00     0.040 A 
ATOM     46  F   UNL A   1      43.120  25.663  35.193  1.00  0.00    -0.206 F 
ATOM     47  C   UNL A   1      46.536  26.174  36.277  1.00  0.00     0.006 A 
ENDBRANCH  26  40
BRANCH  27  48
ATOM     48  C   UNL A   1      37.264  31.315  29.060  1.00  0.00     0.057 A 
ATOM     49  C   UNL A   1      37.290  32.651  28.640  1.00  0.00     0.134 A 
ATOM     50  C   UNL A   1      36.060  30.617  28.929  1.00  0.00     0.134 A 
ATOM     51  F   UNL A   1      38.402  33.385  28.794  1.00  0.00    -0.206 F 
ATOM     52  C   UNL A   1      36.154  33.274  28.116  1.00  0.00     0.040 A 
ATOM     53  C   UNL A   1      34.916  31.227  28.408  1.00  0.00     0.040 A 
ATOM     54  F   UNL A   1      35.984  29.331  29.298  1.00  0.00    -0.206 F 
ATOM     55  C   UNL A   1      34.962  32.561  28.001  1.00  0.00     0.006 A 
ENDBRANCH  27  48
BRANCH  39  56
ATOM     56  C   UNL A   1      39.093  32.101  35.605  1.00  0.00     0.057 A 
ATOM     57  C   UNL A   1      39.408  33.449  35.817  1.00  0.00     0.134 A 
ATOM     58  C   UNL A   1      38.159  31.500  36.454  1.00  0.00     0.134 A 
ATOM     59  F   UNL A   1      40.325  34.063  35.054  1.00  0.00    -0.206 F 
ATOM     60  C   UNL A   1      38.816  34.174  36.850  1.00  0.00     0.040 A 
ATOM     61  C   UNL A   1      37.541  32.223  37.472  1.00  0.00     0.040 A 
ATOM     62  F   UNL A   1      37.832  30.209  36.301  1.00  0.00    -0.206 F 
ATOM     63  C   UNL A   1      37.872  33.562  37.673  1.00  0.00     0.006 A 
ENDBRANCH  39  56
ENDBRANCH  13  14
ENDBRANCH   6   8
ENDBRANCH   5   6
ENDBRANCH   4   5
ENDBRANCH   3   4
ENDBRANCH   2   3
ENDBRANCH   1   2
BRANCH   1  64
ATOM     64  C   UNL A   1      39.257  21.711  26.129  1.00  0.00     0.188 C 
BRANCH  64  65
ATOM     65  O   UNL A   1      39.200  23.134  26.066  1.00  0.00    -0.376 OA
BRANCH  65  66
ATOM     66  C   UNL A   1      37.991  23.782  26.440  1.00  0.00     0.202 C 
BRANCH  66  67
ATOM     67  C   UNL A   1      36.763  23.665  25.522  1.00  0.00     0.261 C 
BRANCH  67  68
ATOM     68  O   UNL A   1      35.584  23.128  26.128  1.00  0.00    -0.463 OA
BRANCH  68  69
ATOM     69  C   UNL A   1      35.307  21.854  25.720  1.00  0.00     0.314 C 
ATOM     70  O   UNL A   1      35.931  21.257  24.864  1.00  0.00    -0.252 OA
BRANCH  69  71
ATOM     71  C   UNL A   1      34.138  21.295  26.516  1.00  0.00     0.154 C 
ATOM     72  C   UNL A   1      33.280  20.324  25.699  1.00  0.00     0.027 C 
ATOM     73  C   UNL A   1      33.287  22.460  27.003  1.00  0.00     0.277 C 
ATOM     74  C   UNL A   1      32.567  21.029  24.551  1.00  0.00     0.062 C 
ATOM     75  N   UNL A   1      32.714  23.201  25.874  1.00  0.00    -0.330 N 
ATOM     76  C   UNL A   1      31.911  22.342  24.981  1.00  0.00     0.262 C 
ATOM     77  H   UNL A   1      33.514  23.510  25.323  1.00  0.00     0.348 HD
BRANCH  75  78
ATOM     78  C   UNL A   1      32.037  24.470  26.254  1.00  0.00     0.300 C 
BRANCH  78  79
ATOM     79  C   UNL A   1      32.567  25.667  25.483  1.00  0.00     0.025 A 
ATOM     80  C   UNL A   1      33.578  26.399  26.108  1.00  0.00     0.014 A 
ATOM     81  C   UNL A   1      31.875  26.255  24.412  1.00  0.00     0.052 A 
ATOM     82  C   UNL A   1      33.654  27.772  25.916  1.00  0.00     0.040 A 
ATOM     83  C   UNL A   1      32.054  27.608  24.126  1.00  0.00     0.060 A 
ATOM     84  Cl  UNL A   1      30.729  25.378  23.473  1.00  0.00    -0.084 Cl
ATOM     85  C   UNL A   1      32.890  28.367  24.929  1.00  0.00     0.124 A 
ATOM     86  F   UNL A   1      32.976  29.690  24.748  1.00  0.00    -0.207 F 
ENDBRANCH  78  79
ENDBRANCH  75  78
ENDBRANCH  69  71
ENDBRANCH  68  69
ENDBRANCH  67  68
ENDBRANCH  66  67
ENDBRANCH  65  66
ENDBRANCH  64  65
ENDBRANCH   1  64
TORSDOF 19
ENDMDL
MODEL 3
REMARK VINA RESULT:     -10.5      4.980      9.643
REMARK SMILES O=C(OCCOCCOCCOC(=O)[C@@H]1CCC[N@@H+](Cc2ccc(F)cc2Cl)C1)c1ccc(-c2c3nc(c(-c4c(F)cccc4F)c4ccc([nH]4)c(-c4c(F)cccc4F)c4nc(c(-c5c(F)cccc5F)c5ccc2[nH]5)C=C4)C=C3)cc1
REMARK SMILES IDX 7 1 6 2 5 3 4 4 3 5 2 6 1 7 30 8 31 9 83 10 32 11 82 12
REMARK SMILES IDX 33 13 34 14 35 15 76 16 36 17 81 18 75 19 77 20 37 21 80 22
REMARK SMILES IDX 74 23 73 24 38 26 64 27 47 28 63 29 48 30 51 31 62 32 78 33
REMARK SMILES IDX 49 34 50 35 61 37 79 38 52 39 39 40 40 41 45 42 41 43 42 44
REMARK SMILES IDX 44 45 46 46 43 47 65 48 66 49 71 50 67 51 68 52 70 53 72 54
REMARK SMILES IDX 69 55 53 56 54 57 59 58 55 59 56 60 58 61 60 62 57 63 8 64
REMARK SMILES IDX 9 65 10 66 11 67 12 68 13 69 14 70 15 71 16 72 29 73 17 74
REMARK SMILES IDX 19 75 18 76 20 78 21 79 22 80 27 81 23 82 26 83 28 84 24 85
REMARK SMILES IDX 25 86
REMARK H PARENT 77 25 51 36 19 77
REMARK Flexibility Score: inf
ROOT
ATOM      1  C   UNL A   1      40.029  21.358  26.829  1.00  0.00     0.188 C 
ENDROOT
BRANCH   1   2
ATOM      2  O   UNL A   1      40.583  20.063  26.598  1.00  0.00    -0.376 OA
BRANCH   2   3
ATOM      3  C   UNL A   1      41.880  20.048  25.998  1.00  0.00     0.202 C 
BRANCH   3   4
ATOM      4  C   UNL A   1      42.787  21.262  26.265  1.00  0.00     0.261 C 
BRANCH   4   5
ATOM      5  O   UNL A   1      42.778  22.267  25.238  1.00  0.00    -0.460 OA
BRANCH   5   6
ATOM      6  C   UNL A   1      43.281  23.523  25.263  1.00  0.00     0.338 C 
ATOM      7  O   UNL A   1      44.085  23.863  24.397  1.00  0.00    -0.246 OA
BRANCH   6   8
ATOM      8  C   UNL A   1      42.914  24.528  26.297  1.00  0.00     0.060 A 
ATOM      9  C   UNL A   1      43.416  25.827  26.346  1.00  0.00     0.016 A 
ATOM     10  C   UNL A   1      41.899  24.181  27.203  1.00  0.00     0.016 A 
ATOM     11  C   UNL A   1      43.016  26.729  27.320  1.00  0.00     0.010 A 
ATOM     12  C   UNL A   1      41.443  25.101  28.152  1.00  0.00     0.010 A 
ATOM     13  C   UNL A   1      42.025  26.371  28.227  1.00  0.00    -0.014 A 
BRANCH  13  14
ATOM     14  C   UNL A   1      41.658  27.339  29.275  1.00  0.00     0.031 A 
ATOM     15  C   UNL A   1      42.482  27.407  30.515  1.00  0.00     0.074 A 
ATOM     16  C   UNL A   1      40.625  28.177  29.077  1.00  0.00     0.049 A 
ATOM     17  N   UNL A   1      42.286  28.124  31.585  1.00  0.00    -0.248 NA
ATOM     18  C   UNL A   1      43.668  26.539  30.568  1.00  0.00     0.031 C 
ATOM     19  C   UNL A   1      39.763  28.168  27.898  1.00  0.00     0.029 A 
ATOM     20  N   UNL A   1      40.117  29.184  29.855  1.00  0.00    -0.354 N 
ATOM     21  C   UNL A   1      43.282  27.744  32.469  1.00  0.00     0.074 A 
ATOM     22  C   UNL A   1      44.100  26.756  31.800  1.00  0.00     0.031 C 
ATOM     23  C   UNL A   1      38.833  29.123  28.042  1.00  0.00     0.029 A 
ATOM     24  C   UNL A   1      39.031  29.818  29.299  1.00  0.00     0.049 A 
ATOM     25  H   UNL A   1      40.493  29.429  30.732  1.00  0.00     0.167 HD
ATOM     26  C   UNL A   1      43.462  28.165  33.740  1.00  0.00     0.037 A 
ATOM     27  C   UNL A   1      38.276  30.822  29.777  1.00  0.00     0.037 A 
ATOM     28  C   UNL A   1      42.632  29.149  34.379  1.00  0.00     0.049 A 
ATOM     29  C   UNL A   1      38.534  31.288  31.176  1.00  0.00     0.074 A 
ATOM     30  C   UNL A   1      42.725  29.653  35.662  1.00  0.00     0.029 A 
ATOM     31  N   UNL A   1      41.547  29.771  33.779  1.00  0.00    -0.354 N 
ATOM     32  N   UNL A   1      39.451  30.890  32.019  1.00  0.00    -0.248 NA
ATOM     33  C   UNL A   1      37.609  32.300  31.707  1.00  0.00     0.031 C 
ATOM     34  C   UNL A   1      41.661  30.539  35.858  1.00  0.00     0.029 A 
ATOM     35  C   UNL A   1      40.942  30.630  34.678  1.00  0.00     0.049 A 
ATOM     36  H   UNL A   1      41.251  29.622  32.851  1.00  0.00     0.167 HD
ATOM     37  C   UNL A   1      39.183  31.563  33.198  1.00  0.00     0.074 A 
ATOM     38  C   UNL A   1      38.058  32.439  32.943  1.00  0.00     0.031 C 
ATOM     39  C   UNL A   1      39.794  31.447  34.398  1.00  0.00     0.037 A 
BRANCH  26  40
ATOM     40  C   UNL A   1      44.530  27.487  34.536  1.00  0.00     0.057 A 
ATOM     41  C   UNL A   1      44.299  26.311  35.260  1.00  0.00     0.134 A 
ATOM     42  C   UNL A   1      45.816  28.040  34.585  1.00  0.00     0.134 A 
ATOM     43  F   UNL A   1      43.080  25.752  35.281  1.00  0.00    -0.206 F 
ATOM     44  C   UNL A   1      45.308  25.720  36.022  1.00  0.00     0.040 A 
ATOM     45  C   UNL A   1      46.838  27.444  35.321  1.00  0.00     0.040 A 
ATOM     46  F   UNL A   1      46.095  29.174  33.924  1.00  0.00    -0.206 F 
ATOM     47  C   UNL A   1      46.583  26.283  36.048  1.00  0.00     0.006 A 
ENDBRANCH  26  40
BRANCH  27  48
ATOM     48  C   UNL A   1      37.138  31.427  29.045  1.00  0.00     0.057 A 
ATOM     49  C   UNL A   1      37.199  32.745  28.576  1.00  0.00     0.134 A 
ATOM     50  C   UNL A   1      35.901  30.777  28.992  1.00  0.00     0.134 A 
ATOM     51  F   UNL A   1      38.346  33.437  28.655  1.00  0.00    -0.206 F 
ATOM     52  C   UNL A   1      36.067  33.397  28.080  1.00  0.00     0.040 A 
ATOM     53  C   UNL A   1      34.761  31.416  28.500  1.00  0.00     0.040 A 
ATOM     54  F   UNL A   1      35.790  29.508  29.410  1.00  0.00    -0.206 F 
ATOM     55  C   UNL A   1      34.842  32.731  28.044  1.00  0.00     0.006 A 
ENDBRANCH  27  48
BRANCH  39  56
ATOM     56  C   UNL A   1      39.222  32.267  35.506  1.00  0.00     0.057 A 
ATOM     57  C   UNL A   1      39.591  33.605  35.690  1.00  0.00     0.134 A 
ATOM     58  C   UNL A   1      38.293  31.712  36.392  1.00  0.00     0.134 A 
ATOM     59  F   UNL A   1      40.506  34.176  34.890  1.00  0.00    -0.206 F 
ATOM     60  C   UNL A   1      39.058  34.364  36.729  1.00  0.00     0.040 A 
ATOM     61  C   UNL A   1      37.734  32.470  37.417  1.00  0.00     0.040 A 
ATOM     62  F   UNL A   1      37.916  30.431  36.268  1.00  0.00    -0.206 F 
ATOM     63  C   UNL A   1      38.119  33.798  37.589  1.00  0.00     0.006 A 
ENDBRANCH  39  56
ENDBRANCH  13  14
ENDBRANCH   6   8
ENDBRANCH   5   6
ENDBRANCH   4   5
ENDBRANCH   3   4
ENDBRANCH   2   3
ENDBRANCH   1   2
BRANCH   1  64
ATOM     64  C   UNL A   1      39.070  21.782  25.721  1.00  0.00     0.188 C 
BRANCH  64  65
ATOM     65  O   UNL A   1      38.286  22.952  25.942  1.00  0.00    -0.376 OA
BRANCH  65  66
ATOM     66  C   UNL A   1      37.037  23.069  25.271  1.00  0.00     0.202 C 
BRANCH  66  67
ATOM     67  C   UNL A   1      35.973  24.026  25.833  1.00  0.00     0.261 C 
BRANCH  67  68
ATOM     68  O   UNL A   1      34.645  23.837  25.337  1.00  0.00    -0.463 OA
BRANCH  68  69
ATOM     69  C   UNL A   1      34.297  24.750  24.381  1.00  0.00     0.314 C 
ATOM     70  O   UNL A   1      34.239  25.950  24.568  1.00  0.00    -0.252 OA
BRANCH  69  71
ATOM     71  C   UNL A   1      34.036  24.047  23.059  1.00  0.00     0.154 C 
ATOM     72  C   UNL A   1      32.956  24.742  22.225  1.00  0.00     0.027 C 
ATOM     73  C   UNL A   1      33.624  22.611  23.352  1.00  0.00     0.277 C 
ATOM     74  C   UNL A   1      31.588  24.667  22.895  1.00  0.00     0.062 C 
ATOM     75  N   UNL A   1      32.368  22.567  24.110  1.00  0.00    -0.330 N 
ATOM     76  C   UNL A   1      31.265  23.267  23.421  1.00  0.00     0.262 C 
ATOM     77  H   UNL A   1      32.551  23.099  24.960  1.00  0.00     0.348 HD
BRANCH  75  78
ATOM     78  C   UNL A   1      32.001  21.215  24.611  1.00  0.00     0.300 C 
BRANCH  78  79
ATOM     79  C   UNL A   1      32.842  20.114  23.987  1.00  0.00     0.025 A 
ATOM     80  C   UNL A   1      32.245  19.404  22.943  1.00  0.00     0.014 A 
ATOM     81  C   UNL A   1      33.969  19.563  24.615  1.00  0.00     0.052 A 
ATOM     82  C   UNL A   1      32.532  18.057  22.773  1.00  0.00     0.040 A 
ATOM     83  C   UNL A   1      34.346  18.248  24.342  1.00  0.00     0.060 A 
ATOM     84  Cl  UNL A   1      34.873  20.430  25.797  1.00  0.00    -0.084 Cl
ATOM     85  C   UNL A   1      33.578  17.488  23.475  1.00  0.00     0.124 A 
ATOM     86  F   UNL A   1      33.851  16.190  23.298  1.00  0.00    -0.207 F 
ENDBRANCH  78  79
ENDBRANCH  75  78
ENDBRANCH  69  71
ENDBRANCH  68  69
ENDBRANCH  67  68
ENDBRANCH  66  67
ENDBRANCH  65  66
ENDBRANCH  64  65
ENDBRANCH   1  64
TORSDOF 19
ENDMDL
