MODEL 1
REMARK VINA RESULT:     -10.3      0.000      0.000
REMARK SMILES O=C(OCCOCCOCCOC(=O)c1cccc(Oc2ncc([N+](=O)[O-])cc2Br)c1)c1ccc(-c2c3nc(c(-c4c(F)cccc4F)c4ccc([nH]4)c(-c4c(F)cccc4F)c4nc(c(-c5c(F)cccc5F)c5ccc2[nH]5)C=C4)C=C3)cc1
REMARK SMILES IDX 8 1 7 2 6 3 5 4 4 5 3 6 2 7 1 8 32 9 33 10 85 11 34 12 84 13
REMARK SMILES IDX 35 14 36 15 37 16 78 17 38 18 83 19 77 20 79 21 39 22 82 23
REMARK SMILES IDX 76 24 75 25 40 27 66 28 49 29 65 30 50 31 53 32 64 33 80 34
REMARK SMILES IDX 51 35 52 36 63 38 81 39 54 40 41 41 42 42 47 43 43 44 44 45
REMARK SMILES IDX 46 46 48 47 45 48 67 49 68 50 73 51 69 52 70 53 72 54 74 55
REMARK SMILES IDX 71 56 55 57 56 58 61 59 57 60 58 61 60 62 62 63 59 64 9 65
REMARK SMILES IDX 10 66 11 67 12 68 13 69 14 70 15 71 16 72 31 73 17 74 19 75
REMARK SMILES IDX 18 76 20 77 21 78 22 79 29 80 23 81 28 82 30 83 24 84 25 85
REMARK SMILES IDX 26 86 27 87
REMARK H PARENT 79 26 53 37
REMARK Flexibility Score: inf
ROOT
ATOM      1  C   UNL A   1      30.898  29.328  24.125  1.00  0.00     0.188 C 
ENDROOT
BRANCH   1   2
ATOM      2  C   UNL A   1      32.126  29.518  25.016  1.00  0.00     0.188 C 
BRANCH   2   3
ATOM      3  O   UNL A   1      31.863  30.526  26.006  1.00  0.00    -0.376 OA
BRANCH   3   4
ATOM      4  C   UNL A   1      32.552  30.304  27.238  1.00  0.00     0.202 C 
BRANCH   4   5
ATOM      5  C   UNL A   1      33.980  30.858  27.251  1.00  0.00     0.261 C 
BRANCH   5   6
ATOM      6  O   UNL A   1      34.821  30.128  28.160  1.00  0.00    -0.460 OA
BRANCH   6   7
ATOM      7  C   UNL A   1      35.787  30.632  28.968  1.00  0.00     0.338 C 
ATOM      8  O   UNL A   1      35.482  31.466  29.818  1.00  0.00    -0.246 OA
BRANCH   7   9
ATOM      9  C   UNL A   1      37.201  30.154  28.938  1.00  0.00     0.060 A 
ATOM     10  C   UNL A   1      37.955  29.828  30.068  1.00  0.00     0.016 A 
ATOM     11  C   UNL A   1      37.772  29.936  27.673  1.00  0.00     0.016 A 
ATOM     12  C   UNL A   1      39.280  29.406  29.950  1.00  0.00     0.010 A 
ATOM     13  C   UNL A   1      39.076  29.446  27.549  1.00  0.00     0.010 A 
ATOM     14  C   UNL A   1      39.850  29.203  28.690  1.00  0.00    -0.014 A 
BRANCH  14  15
ATOM     15  C   UNL A   1      41.253  28.738  28.575  1.00  0.00     0.031 A 
ATOM     16  C   UNL A   1      42.381  29.712  28.721  1.00  0.00     0.074 A 
ATOM     17  C   UNL A   1      41.517  27.433  28.367  1.00  0.00     0.049 A 
ATOM     18  N   UNL A   1      43.666  29.514  28.574  1.00  0.00    -0.248 NA
ATOM     19  C   UNL A   1      42.021  31.088  29.096  1.00  0.00     0.031 C 
ATOM     20  C   UNL A   1      40.511  26.378  28.275  1.00  0.00     0.029 A 
ATOM     21  N   UNL A   1      42.709  26.776  28.191  1.00  0.00    -0.354 N 
ATOM     22  C   UNL A   1      44.267  30.735  28.834  1.00  0.00     0.074 A 
ATOM     23  C   UNL A   1      43.207  31.678  29.127  1.00  0.00     0.031 C 
ATOM     24  C   UNL A   1      41.129  25.210  28.051  1.00  0.00     0.029 A 
ATOM     25  C   UNL A   1      42.557  25.440  27.916  1.00  0.00     0.049 A 
ATOM     26  H   UNL A   1      43.586  27.220  28.257  1.00  0.00     0.167 HD
ATOM     27  C   UNL A   1      45.586  31.040  28.839  1.00  0.00     0.037 A 
ATOM     28  C   UNL A   1      43.453  24.505  27.546  1.00  0.00     0.037 A 
ATOM     29  C   UNL A   1      46.637  30.101  28.557  1.00  0.00     0.049 A 
ATOM     30  C   UNL A   1      44.895  24.897  27.434  1.00  0.00     0.074 A 
ATOM     31  C   UNL A   1      48.006  30.306  28.568  1.00  0.00     0.029 A 
ATOM     32  N   UNL A   1      46.433  28.776  28.202  1.00  0.00    -0.354 N 
ATOM     33  N   UNL A   1      45.454  26.054  27.690  1.00  0.00    -0.248 NA
ATOM     34  C   UNL A   1      45.830  23.862  26.972  1.00  0.00     0.031 C 
ATOM     35  C   UNL A   1      48.629  29.114  28.180  1.00  0.00     0.029 A 
ATOM     36  C   UNL A   1      47.649  28.161  27.954  1.00  0.00     0.049 A 
ATOM     37  H   UNL A   1      45.555  28.338  28.137  1.00  0.00     0.167 HD
ATOM     38  C   UNL A   1      46.804  25.889  27.428  1.00  0.00     0.074 A 
ATOM     39  C   UNL A   1      46.985  24.513  27.009  1.00  0.00     0.031 C 
ATOM     40  C   UNL A   1      47.805  26.796  27.523  1.00  0.00     0.037 A 
BRANCH  27  41
ATOM     41  C   UNL A   1      45.951  32.460  29.133  1.00  0.00     0.057 A 
ATOM     42  C   UNL A   1      46.239  32.892  30.433  1.00  0.00     0.134 A 
ATOM     43  C   UNL A   1      46.013  33.406  28.103  1.00  0.00     0.134 A 
ATOM     44  F   UNL A   1      46.175  32.037  31.464  1.00  0.00    -0.206 F 
ATOM     45  C   UNL A   1      46.562  34.224  30.701  1.00  0.00     0.040 A 
ATOM     46  C   UNL A   1      46.348  34.736  28.356  1.00  0.00     0.040 A 
ATOM     47  F   UNL A   1      45.740  33.052  26.838  1.00  0.00    -0.206 F 
ATOM     48  C   UNL A   1      46.620  35.149  29.659  1.00  0.00     0.006 A 
ENDBRANCH  27  41
BRANCH  28  49
ATOM     49  C   UNL A   1      43.003  23.139  27.177  1.00  0.00     0.057 A 
ATOM     50  C   UNL A   1      42.718  22.171  28.145  1.00  0.00     0.134 A 
ATOM     51  C   UNL A   1      42.874  22.763  25.833  1.00  0.00     0.134 A 
ATOM     52  F   UNL A   1      42.837  22.464  29.449  1.00  0.00    -0.206 F 
ATOM     53  C   UNL A   1      42.340  20.873  27.792  1.00  0.00     0.040 A 
ATOM     54  C   UNL A   1      42.475  21.476  25.465  1.00  0.00     0.040 A 
ATOM     55  F   UNL A   1      43.133  23.643  24.854  1.00  0.00    -0.206 F 
ATOM     56  C   UNL A   1      42.213  20.525  26.448  1.00  0.00     0.006 A 
ENDBRANCH  28  49
BRANCH  40  57
ATOM     57  C   UNL A   1      49.176  26.318  27.166  1.00  0.00     0.057 A 
ATOM     58  C   UNL A   1      50.025  25.764  28.130  1.00  0.00     0.134 A 
ATOM     59  C   UNL A   1      49.646  26.405  25.851  1.00  0.00     0.134 A 
ATOM     60  F   UNL A   1      49.636  25.676  29.410  1.00  0.00    -0.206 F 
ATOM     61  C   UNL A   1      51.307  25.324  27.799  1.00  0.00     0.040 A 
ATOM     62  C   UNL A   1      50.919  25.952  25.505  1.00  0.00     0.040 A 
ATOM     63  F   UNL A   1      48.876  26.929  24.886  1.00  0.00    -0.206 F 
ATOM     64  C   UNL A   1      51.754  25.413  26.482  1.00  0.00     0.006 A 
ENDBRANCH  40  57
ENDBRANCH  14  15
ENDBRANCH   7   9
ENDBRANCH   6   7
ENDBRANCH   5   6
ENDBRANCH   4   5
ENDBRANCH   3   4
ENDBRANCH   2   3
ENDBRANCH   1   2
BRANCH   1  65
ATOM     65  O   UNL A   1      30.604  27.967  23.793  1.00  0.00    -0.376 OA
BRANCH  65  66
ATOM     66  C   UNL A   1      30.552  27.629  22.412  1.00  0.00     0.202 C 
BRANCH  66  67
ATOM     67  C   UNL A   1      31.570  26.599  21.918  1.00  0.00     0.261 C 
BRANCH  67  68
ATOM     68  O   UNL A   1      32.455  26.077  22.925  1.00  0.00    -0.460 OA
BRANCH  68  69
ATOM     69  C   UNL A   1      32.783  24.785  22.736  1.00  0.00     0.338 C 
ATOM     70  O   UNL A   1      33.320  24.280  21.750  1.00  0.00    -0.246 OA
BRANCH  69  71
ATOM     71  C   UNL A   1      32.213  23.949  23.790  1.00  0.00     0.063 A 
ATOM     72  C   UNL A   1      30.937  24.154  24.315  1.00  0.00     0.016 A 
ATOM     73  C   UNL A   1      33.106  23.061  24.393  1.00  0.00     0.062 A 
ATOM     74  C   UNL A   1      30.572  23.468  25.477  1.00  0.00     0.005 A 
ATOM     75  C   UNL A   1      32.753  22.402  25.568  1.00  0.00     0.130 A 
ATOM     76  C   UNL A   1      31.484  22.613  26.113  1.00  0.00     0.047 A 
BRANCH  75  77
ATOM     77  O   UNL A   1      33.613  21.577  26.274  1.00  0.00    -0.438 OA
BRANCH  77  78
ATOM     78  C   UNL A   1      33.780  20.306  25.758  1.00  0.00     0.234 A 
ATOM     79  N   UNL A   1      32.688  19.502  25.824  1.00  0.00    -0.214 NA
ATOM     80  C   UNL A   1      34.967  19.944  25.119  1.00  0.00     0.087 A 
ATOM     81  C   UNL A   1      32.755  18.311  25.182  1.00  0.00     0.200 A 
ATOM     82  C   UNL A   1      35.002  18.731  24.432  1.00  0.00     0.108 A 
ATOM     83  Br  UNL A   1      36.477  21.080  25.058  1.00  0.00    -0.045 Br
ATOM     84  C   UNL A   1      33.869  17.912  24.460  1.00  0.00     0.288 A 
BRANCH  84  85
ATOM     85  N   UNL A   1      33.832  16.667  23.709  1.00  0.00     0.064 N 
ATOM     86  O   UNL A   1      33.596  15.626  24.335  1.00  0.00    -0.258 OA
ATOM     87  O   UNL A   1      34.028  16.732  22.489  1.00  0.00    -0.258 OA
ENDBRANCH  84  85
ENDBRANCH  77  78
ENDBRANCH  75  77
ENDBRANCH  69  71
ENDBRANCH  68  69
ENDBRANCH  67  68
ENDBRANCH  66  67
ENDBRANCH  65  66
ENDBRANCH   1  65
TORSDOF 20
ENDMDL
MODEL 2
REMARK VINA RESULT:     -10.3      1.585      6.669
REMARK SMILES O=C(OCCOCCOCCOC(=O)c1cccc(Oc2ncc([N+](=O)[O-])cc2Br)c1)c1ccc(-c2c3nc(c(-c4c(F)cccc4F)c4ccc([nH]4)c(-c4c(F)cccc4F)c4nc(c(-c5c(F)cccc5F)c5ccc2[nH]5)C=C4)C=C3)cc1
REMARK SMILES IDX 8 1 7 2 6 3 5 4 4 5 3 6 2 7 1 8 32 9 33 10 85 11 34 12 84 13
REMARK SMILES IDX 35 14 36 15 37 16 78 17 38 18 83 19 77 20 79 21 39 22 82 23
REMARK SMILES IDX 76 24 75 25 40 27 66 28 49 29 65 30 50 31 53 32 64 33 80 34
REMARK SMILES IDX 51 35 52 36 63 38 81 39 54 40 41 41 42 42 47 43 43 44 44 45
REMARK SMILES IDX 46 46 48 47 45 48 67 49 68 50 73 51 69 52 70 53 72 54 74 55
REMARK SMILES IDX 71 56 55 57 56 58 61 59 57 60 58 61 60 62 62 63 59 64 9 65
REMARK SMILES IDX 10 66 11 67 12 68 13 69 14 70 15 71 16 72 31 73 17 74 19 75
REMARK SMILES IDX 18 76 20 77 21 78 22 79 29 80 23 81 28 82 30 83 24 84 25 85
REMARK SMILES IDX 26 86 27 87
REMARK H PARENT 79 26 53 37
REMARK Flexibility Score: inf
ROOT
ATOM      1  C   UNL A   1      34.871  31.407  27.928  1.00  0.00     0.188 C 
ENDROOT
BRANCH   1   2
ATOM      2  C   UNL A   1      35.580  32.760  28.005  1.00  0.00     0.188 C 
BRANCH   2   3
ATOM      3  O   UNL A   1      35.863  33.089  29.375  1.00  0.00    -0.376 OA
BRANCH   3   4
ATOM      4  C   UNL A   1      34.759  32.859  30.253  1.00  0.00     0.202 C 
BRANCH   4   5
ATOM      5  C   UNL A   1      35.169  32.324  31.628  1.00  0.00     0.261 C 
BRANCH   5   6
ATOM      6  O   UNL A   1      36.534  31.874  31.634  1.00  0.00    -0.460 OA
BRANCH   6   7
ATOM      7  C   UNL A   1      36.976  30.595  31.553  1.00  0.00     0.338 C 
ATOM      8  O   UNL A   1      36.282  29.691  32.016  1.00  0.00    -0.246 OA
BRANCH   7   9
ATOM      9  C   UNL A   1      38.232  30.212  30.843  1.00  0.00     0.060 A 
ATOM     10  C   UNL A   1      38.468  30.409  29.481  1.00  0.00     0.016 A 
ATOM     11  C   UNL A   1      39.277  29.699  31.630  1.00  0.00     0.016 A 
ATOM     12  C   UNL A   1      39.668  30.003  28.894  1.00  0.00     0.010 A 
ATOM     13  C   UNL A   1      40.506  29.356  31.058  1.00  0.00     0.010 A 
ATOM     14  C   UNL A   1      40.700  29.481  29.677  1.00  0.00    -0.014 A 
BRANCH  14  15
ATOM     15  C   UNL A   1      41.976  29.068  29.046  1.00  0.00     0.031 A 
ATOM     16  C   UNL A   1      42.169  27.652  28.598  1.00  0.00     0.074 A 
ATOM     17  C   UNL A   1      42.955  29.972  28.850  1.00  0.00     0.049 A 
ATOM     18  N   UNL A   1      43.236  27.082  28.101  1.00  0.00    -0.248 NA
ATOM     19  C   UNL A   1      41.004  26.760  28.709  1.00  0.00     0.031 C 
ATOM     20  C   UNL A   1      42.865  31.392  29.179  1.00  0.00     0.029 A 
ATOM     21  N   UNL A   1      44.218  29.828  28.329  1.00  0.00    -0.354 N 
ATOM     22  C   UNL A   1      42.876  25.769  27.843  1.00  0.00     0.074 A 
ATOM     23  C   UNL A   1      41.497  25.616  28.257  1.00  0.00     0.031 C 
ATOM     24  C   UNL A   1      44.025  31.984  28.862  1.00  0.00     0.029 A 
ATOM     25  C   UNL A   1      44.958  30.983  28.374  1.00  0.00     0.049 A 
ATOM     26  H   UNL A   1      44.558  28.980  27.961  1.00  0.00     0.167 HD
ATOM     27  C   UNL A   1      43.626  24.782  27.298  1.00  0.00     0.037 A 
ATOM     28  C   UNL A   1      46.257  31.213  28.102  1.00  0.00     0.037 A 
ATOM     29  C   UNL A   1      44.992  24.937  26.879  1.00  0.00     0.049 A 
ATOM     30  C   UNL A   1      47.102  30.074  27.621  1.00  0.00     0.074 A 
ATOM     31  C   UNL A   1      45.827  24.006  26.287  1.00  0.00     0.029 A 
ATOM     32  N   UNL A   1      45.729  26.104  27.019  1.00  0.00    -0.354 N 
ATOM     33  N   UNL A   1      46.749  28.836  27.373  1.00  0.00    -0.248 NA
ATOM     34  C   UNL A   1      48.526  30.354  27.392  1.00  0.00     0.031 C 
ATOM     35  C   UNL A   1      47.083  24.598  26.104  1.00  0.00     0.029 A 
ATOM     36  C   UNL A   1      47.021  25.905  26.559  1.00  0.00     0.049 A 
ATOM     37  H   UNL A   1      45.385  26.948  27.389  1.00  0.00     0.167 HD
ATOM     38  C   UNL A   1      47.901  28.191  26.952  1.00  0.00     0.074 A 
ATOM     39  C   UNL A   1      48.962  29.177  26.962  1.00  0.00     0.031 C 
ATOM     40  C   UNL A   1      48.064  26.896  26.593  1.00  0.00     0.037 A 
BRANCH  27  41
ATOM     41  C   UNL A   1      42.980  23.441  27.157  1.00  0.00     0.057 A 
ATOM     42  C   UNL A   1      42.532  22.966  25.918  1.00  0.00     0.134 A 
ATOM     43  C   UNL A   1      42.802  22.616  28.274  1.00  0.00     0.134 A 
ATOM     44  F   UNL A   1      42.655  23.720  24.816  1.00  0.00    -0.206 F 
ATOM     45  C   UNL A   1      41.914  21.720  25.798  1.00  0.00     0.040 A 
ATOM     46  C   UNL A   1      42.199  21.364  28.164  1.00  0.00     0.040 A 
ATOM     47  F   UNL A   1      43.205  23.020  29.488  1.00  0.00    -0.206 F 
ATOM     48  C   UNL A   1      41.749  20.914  26.924  1.00  0.00     0.006 A 
ENDBRANCH  27  41
BRANCH  28  49
ATOM     49  C   UNL A   1      46.852  32.549  28.359  1.00  0.00     0.057 A 
ATOM     50  C   UNL A   1      46.911  33.531  27.365  1.00  0.00     0.134 A 
ATOM     51  C   UNL A   1      47.404  32.863  29.608  1.00  0.00     0.134 A 
ATOM     52  F   UNL A   1      46.414  33.288  26.144  1.00  0.00    -0.206 F 
ATOM     53  C   UNL A   1      47.514  34.770  27.598  1.00  0.00     0.040 A 
ATOM     54  C   UNL A   1      47.989  34.105  29.862  1.00  0.00     0.040 A 
ATOM     55  F   UNL A   1      47.381  31.966  30.605  1.00  0.00    -0.206 F 
ATOM     56  C   UNL A   1      48.050  35.061  28.851  1.00  0.00     0.006 A 
ENDBRANCH  28  49
BRANCH  40  57
ATOM     57  C   UNL A   1      49.443  26.485  26.184  1.00  0.00     0.057 A 
ATOM     58  C   UNL A   1      50.312  25.860  27.086  1.00  0.00     0.134 A 
ATOM     59  C   UNL A   1      49.902  26.707  24.881  1.00  0.00     0.134 A 
ATOM     60  F   UNL A   1      49.934  25.642  28.354  1.00  0.00    -0.206 F 
ATOM     61  C   UNL A   1      51.599  25.483  26.708  1.00  0.00     0.040 A 
ATOM     62  C   UNL A   1      51.181  26.318  24.487  1.00  0.00     0.040 A 
ATOM     63  F   UNL A   1      49.113  27.303  23.974  1.00  0.00    -0.206 F 
ATOM     64  C   UNL A   1      52.035  25.707  25.403  1.00  0.00     0.006 A 
ENDBRANCH  40  57
ENDBRANCH  14  15
ENDBRANCH   7   9
ENDBRANCH   6   7
ENDBRANCH   5   6
ENDBRANCH   4   5
ENDBRANCH   3   4
ENDBRANCH   2   3
ENDBRANCH   1   2
BRANCH   1  65
ATOM     65  O   UNL A   1      33.547  31.455  27.385  1.00  0.00    -0.376 OA
BRANCH  65  66
ATOM     66  C   UNL A   1      32.956  30.221  26.997  1.00  0.00     0.202 C 
BRANCH  66  67
ATOM     67  C   UNL A   1      33.896  29.160  26.420  1.00  0.00     0.261 C 
BRANCH  67  68
ATOM     68  O   UNL A   1      33.590  27.803  26.785  1.00  0.00    -0.460 OA
BRANCH  68  69
ATOM     69  C   UNL A   1      32.406  27.372  26.311  1.00  0.00     0.338 C 
ATOM     70  O   UNL A   1      31.401  27.071  26.953  1.00  0.00    -0.246 OA
BRANCH  69  71
ATOM     71  C   UNL A   1      32.502  27.072  24.884  1.00  0.00     0.063 A 
ATOM     72  C   UNL A   1      31.660  27.644  23.929  1.00  0.00     0.016 A 
ATOM     73  C   UNL A   1      33.350  26.014  24.553  1.00  0.00     0.062 A 
ATOM     74  C   UNL A   1      31.662  27.119  22.634  1.00  0.00     0.005 A 
ATOM     75  C   UNL A   1      33.329  25.472  23.270  1.00  0.00     0.130 A 
ATOM     76  C   UNL A   1      32.477  26.025  22.311  1.00  0.00     0.047 A 
BRANCH  75  77
ATOM     77  O   UNL A   1      34.073  24.367  22.891  1.00  0.00    -0.438 OA
BRANCH  77  78
ATOM     78  C   UNL A   1      33.608  23.148  23.344  1.00  0.00     0.234 A 
ATOM     79  N   UNL A   1      32.534  22.651  22.679  1.00  0.00    -0.214 NA
ATOM     80  C   UNL A   1      34.287  22.450  24.344  1.00  0.00     0.087 A 
ATOM     81  C   UNL A   1      32.150  21.387  22.978  1.00  0.00     0.200 A 
ATOM     82  C   UNL A   1      33.900  21.137  24.609  1.00  0.00     0.108 A 
ATOM     83  Br  UNL A   1      35.771  23.177  25.263  1.00  0.00    -0.045 Br
ATOM     84  C   UNL A   1      32.820  20.600  23.902  1.00  0.00     0.288 A 
BRANCH  84  85
ATOM     85  N   UNL A   1      32.416  19.217  24.096  1.00  0.00     0.064 N 
ATOM     86  O   UNL A   1      32.258  18.518  23.088  1.00  0.00    -0.258 OA
ATOM     87  O   UNL A   1      32.266  18.826  25.262  1.00  0.00    -0.258 OA
ENDBRANCH  84  85
ENDBRANCH  77  78
ENDBRANCH  75  77
ENDBRANCH  69  71
ENDBRANCH  68  69
ENDBRANCH  67  68
ENDBRANCH  66  67
ENDBRANCH  65  66
ENDBRANCH   1  65
TORSDOF 20
ENDMDL
MODEL 3
REMARK VINA RESULT:     -10.1      4.304      7.838
REMARK SMILES O=C(OCCOCCOCCOC(=O)c1cccc(Oc2ncc([N+](=O)[O-])cc2Br)c1)c1ccc(-c2c3nc(c(-c4c(F)cccc4F)c4ccc([nH]4)c(-c4c(F)cccc4F)c4nc(c(-c5c(F)cccc5F)c5ccc2[nH]5)C=C4)C=C3)cc1
REMARK SMILES IDX 8 1 7 2 6 3 5 4 4 5 3 6 2 7 1 8 32 9 33 10 85 11 34 12 84 13
REMARK SMILES IDX 35 14 36 15 37 16 78 17 38 18 83 19 77 20 79 21 39 22 82 23
REMARK SMILES IDX 76 24 75 25 40 27 66 28 49 29 65 30 50 31 53 32 64 33 80 34
REMARK SMILES IDX 51 35 52 36 63 38 81 39 54 40 41 41 42 42 47 43 43 44 44 45
REMARK SMILES IDX 46 46 48 47 45 48 67 49 68 50 73 51 69 52 70 53 72 54 74 55
REMARK SMILES IDX 71 56 55 57 56 58 61 59 57 60 58 61 60 62 62 63 59 64 9 65
REMARK SMILES IDX 10 66 11 67 12 68 13 69 14 70 15 71 16 72 31 73 17 74 19 75
REMARK SMILES IDX 18 76 20 77 21 78 22 79 29 80 23 81 28 82 30 83 24 84 25 85
REMARK SMILES IDX 26 86 27 87
REMARK H PARENT 79 26 53 37
REMARK Flexibility Score: inf
ROOT
ATOM      1  C   UNL A   1      30.884  26.098  25.089  1.00  0.00     0.188 C 
ENDROOT
BRANCH   1   2
ATOM      2  C   UNL A   1      31.458  26.658  23.786  1.00  0.00     0.188 C 
BRANCH   2   3
ATOM      3  O   UNL A   1      32.399  27.705  24.074  1.00  0.00    -0.376 OA
BRANCH   3   4
ATOM      4  C   UNL A   1      31.846  29.016  23.943  1.00  0.00     0.202 C 
BRANCH   4   5
ATOM      5  C   UNL A   1      31.737  29.772  25.270  1.00  0.00     0.261 C 
BRANCH   5   6
ATOM      6  O   UNL A   1      33.025  29.958  25.879  1.00  0.00    -0.460 OA
BRANCH   6   7
ATOM      7  C   UNL A   1      33.366  30.883  26.811  1.00  0.00     0.338 C 
ATOM      8  O   UNL A   1      32.557  31.761  27.108  1.00  0.00    -0.246 OA
BRANCH   7   9
ATOM      9  C   UNL A   1      34.650  30.836  27.570  1.00  0.00     0.060 A 
ATOM     10  C   UNL A   1      35.423  31.952  27.898  1.00  0.00     0.016 A 
ATOM     11  C   UNL A   1      35.053  29.583  28.062  1.00  0.00     0.016 A 
ATOM     12  C   UNL A   1      36.623  31.815  28.597  1.00  0.00     0.010 A 
ATOM     13  C   UNL A   1      36.219  29.450  28.823  1.00  0.00     0.010 A 
ATOM     14  C   UNL A   1      37.029  30.565  29.073  1.00  0.00    -0.014 A 
BRANCH  14  15
ATOM     15  C   UNL A   1      38.297  30.432  29.828  1.00  0.00     0.031 A 
ATOM     16  C   UNL A   1      39.450  29.684  29.234  1.00  0.00     0.074 A 
ATOM     17  C   UNL A   1      38.425  31.009  31.039  1.00  0.00     0.049 A 
ATOM     18  N   UNL A   1      40.607  29.392  29.769  1.00  0.00    -0.248 NA
ATOM     19  C   UNL A   1      39.288  29.212  27.850  1.00  0.00     0.031 C 
ATOM     20  C   UNL A   1      37.402  31.820  31.695  1.00  0.00     0.029 A 
ATOM     21  N   UNL A   1      39.467  30.997  31.932  1.00  0.00    -0.354 N 
ATOM     22  C   UNL A   1      41.310  28.703  28.793  1.00  0.00     0.074 A 
ATOM     23  C   UNL A   1      40.443  28.598  27.638  1.00  0.00     0.031 C 
ATOM     24  C   UNL A   1      37.865  32.218  32.888  1.00  0.00     0.029 A 
ATOM     25  C   UNL A   1      39.179  31.639  33.111  1.00  0.00     0.049 A 
ATOM     26  H   UNL A   1      40.335  30.570  31.746  1.00  0.00     0.167 HD
ATOM     27  C   UNL A   1      42.570  28.211  28.853  1.00  0.00     0.037 A 
ATOM     28  C   UNL A   1      39.867  31.720  34.266  1.00  0.00     0.037 A 
ATOM     29  C   UNL A   1      43.432  28.323  29.997  1.00  0.00     0.049 A 
ATOM     30  C   UNL A   1      41.207  31.057  34.351  1.00  0.00     0.074 A 
ATOM     31  C   UNL A   1      44.737  27.885  30.144  1.00  0.00     0.029 A 
ATOM     32  N   UNL A   1      43.070  28.911  31.200  1.00  0.00    -0.354 N 
ATOM     33  N   UNL A   1      41.866  30.414  33.419  1.00  0.00    -0.248 NA
ATOM     34  C   UNL A   1      41.898  31.119  35.646  1.00  0.00     0.031 C 
ATOM     35  C   UNL A   1      45.150  28.173  31.450  1.00  0.00     0.029 A 
ATOM     36  C   UNL A   1      44.112  28.813  32.107  1.00  0.00     0.049 A 
ATOM     37  H   UNL A   1      42.201  29.335  31.382  1.00  0.00     0.167 HD
ATOM     38  C   UNL A   1      43.049  29.999  34.009  1.00  0.00     0.074 A 
ATOM     39  C   UNL A   1      43.027  30.480  35.375  1.00  0.00     0.031 C 
ATOM     40  C   UNL A   1      44.063  29.284  33.467  1.00  0.00     0.037 A 
BRANCH  27  41
ATOM     41  C   UNL A   1      43.068  27.481  27.647  1.00  0.00     0.057 A 
ATOM     42  C   UNL A   1      43.571  28.160  26.531  1.00  0.00     0.134 A 
ATOM     43  C   UNL A   1      43.043  26.082  27.602  1.00  0.00     0.134 A 
ATOM     44  F   UNL A   1      43.601  29.501  26.507  1.00  0.00    -0.206 F 
ATOM     45  C   UNL A   1      44.019  27.472  25.402  1.00  0.00     0.040 A 
ATOM     46  C   UNL A   1      43.500  25.382  26.485  1.00  0.00     0.040 A 
ATOM     47  F   UNL A   1      42.566  25.376  28.638  1.00  0.00    -0.206 F 
ATOM     48  C   UNL A   1      43.986  26.078  25.379  1.00  0.00     0.006 A 
ENDBRANCH  27  41
BRANCH  28  49
ATOM     49  C   UNL A   1      39.265  32.380  35.452  1.00  0.00     0.057 A 
ATOM     50  C   UNL A   1      38.416  31.692  36.326  1.00  0.00     0.134 A 
ATOM     51  C   UNL A   1      39.506  33.734  35.722  1.00  0.00     0.134 A 
ATOM     52  F   UNL A   1      38.133  30.399  36.114  1.00  0.00    -0.206 F 
ATOM     53  C   UNL A   1      37.815  32.330  37.414  1.00  0.00     0.040 A 
ATOM     54  C   UNL A   1      38.930  34.378  36.819  1.00  0.00     0.040 A 
ATOM     55  F   UNL A   1      40.310  34.452  34.923  1.00  0.00    -0.206 F 
ATOM     56  C   UNL A   1      38.076  33.676  37.665  1.00  0.00     0.006 A 
ENDBRANCH  28  49
BRANCH  40  57
ATOM     57  C   UNL A   1      45.222  28.983  34.362  1.00  0.00     0.057 A 
ATOM     58  C   UNL A   1      46.293  29.875  34.488  1.00  0.00     0.134 A 
ATOM     59  C   UNL A   1      45.264  27.800  35.110  1.00  0.00     0.134 A 
ATOM     60  F   UNL A   1      46.317  31.013  33.779  1.00  0.00    -0.206 F 
ATOM     61  C   UNL A   1      47.377  29.592  35.318  1.00  0.00     0.040 A 
ATOM     62  C   UNL A   1      46.334  27.516  35.956  1.00  0.00     0.040 A 
ATOM     63  F   UNL A   1      44.266  26.908  35.028  1.00  0.00    -0.206 F 
ATOM     64  C   UNL A   1      47.397  28.412  36.059  1.00  0.00     0.006 A 
ENDBRANCH  40  57
ENDBRANCH  14  15
ENDBRANCH   7   9
ENDBRANCH   6   7
ENDBRANCH   5   6
ENDBRANCH   4   5
ENDBRANCH   3   4
ENDBRANCH   2   3
ENDBRANCH   1   2
BRANCH   1  65
ATOM     65  O   UNL A   1      30.976  24.676  25.222  1.00  0.00    -0.376 OA
BRANCH  65  66
ATOM     66  C   UNL A   1      30.470  24.099  26.420  1.00  0.00     0.202 C 
BRANCH  66  67
ATOM     67  C   UNL A   1      30.660  22.590  26.589  1.00  0.00     0.261 C 
BRANCH  67  68
ATOM     68  O   UNL A   1      31.662  21.998  25.744  1.00  0.00    -0.460 OA
BRANCH  68  69
ATOM     69  C   UNL A   1      32.896  22.012  26.282  1.00  0.00     0.338 C 
ATOM     70  O   UNL A   1      33.223  21.712  27.429  1.00  0.00    -0.246 OA
BRANCH  69  71
ATOM     71  C   UNL A   1      33.843  22.664  25.379  1.00  0.00     0.063 A 
ATOM     72  C   UNL A   1      33.750  22.578  23.989  1.00  0.00     0.016 A 
ATOM     73  C   UNL A   1      34.975  23.204  25.992  1.00  0.00     0.062 A 
ATOM     74  C   UNL A   1      34.826  23.022  23.217  1.00  0.00     0.005 A 
ATOM     75  C   UNL A   1      36.059  23.618  25.223  1.00  0.00     0.130 A 
ATOM     76  C   UNL A   1      35.984  23.520  23.832  1.00  0.00     0.047 A 
BRANCH  75  77
ATOM     77  O   UNL A   1      37.249  24.080  25.760  1.00  0.00    -0.438 OA
BRANCH  77  78
ATOM     78  C   UNL A   1      38.177  23.109  26.083  1.00  0.00     0.234 A 
ATOM     79  N   UNL A   1      38.041  21.931  25.424  1.00  0.00    -0.214 NA
ATOM     80  C   UNL A   1      39.235  23.391  26.949  1.00  0.00     0.087 A 
ATOM     81  C   UNL A   1      39.024  21.012  25.584  1.00  0.00     0.200 A 
ATOM     82  C   UNL A   1      40.256  22.448  27.071  1.00  0.00     0.108 A 
ATOM     83  Br  UNL A   1      39.388  25.037  27.866  1.00  0.00    -0.045 Br
ATOM     84  C   UNL A   1      40.146  21.246  26.365  1.00  0.00     0.288 A 
BRANCH  84  85
ATOM     85  N   UNL A   1      41.211  20.257  26.408  1.00  0.00     0.064 N 
ATOM     86  O   UNL A   1      41.027  19.188  25.813  1.00  0.00    -0.258 OA
ATOM     87  O   UNL A   1      42.239  20.555  27.031  1.00  0.00    -0.258 OA
ENDBRANCH  84  85
ENDBRANCH  77  78
ENDBRANCH  75  77
ENDBRANCH  69  71
ENDBRANCH  68  69
ENDBRANCH  67  68
ENDBRANCH  66  67
ENDBRANCH  65  66
ENDBRANCH   1  65
TORSDOF 20
ENDMDL
