MODEL 1
REMARK VINA RESULT:     -12.2      0.000      0.000
REMARK SMILES Cc1ccccc1CNc1ccc(C(=O)OCCOCCOCCOC(=O)c2ccc(-c3c4nc(c(-c5c(F)cccc5F)c5ccc([nH]5)c(-c5c(F)cccc5F)c5nc(c(-c6c(F)cccc6F)c6ccc3[nH]6)C=C5)C=C4)cc2)c(F)c1F
REMARK SMILES IDX 20 1 19 2 18 3 17 4 16 5 14 6 15 7 13 8 10 9 11 10 84 11
REMARK SMILES IDX 12 12 82 13 85 14 83 15 9 16 8 18 7 19 1 20 2 21 3 22 4 23
REMARK SMILES IDX 6 24 5 25 21 26 22 27 23 28 24 29 25 30 26 31 27 32 28 33
REMARK SMILES IDX 29 34 81 35 30 36 80 37 31 38 32 39 33 40 74 41 34 42 79 43
REMARK SMILES IDX 73 44 75 45 35 46 78 47 72 48 71 49 36 51 62 52 45 53 61 54
REMARK SMILES IDX 46 55 49 56 60 57 76 58 47 59 48 60 59 62 77 63 50 64 37 65
REMARK SMILES IDX 38 66 43 67 39 68 40 69 42 70 44 71 41 72 63 73 64 74 69 75
REMARK SMILES IDX 65 76 66 77 68 78 70 79 67 80 51 81 52 82 57 83 53 84 54 85
REMARK SMILES IDX 56 86 58 87 55 88
REMARK H PARENT 9 17 75 50 49 61
REMARK Flexibility Score: inf
ROOT
ATOM      1  C   UNL A   1      33.860  32.141  27.729  1.00  0.00     0.188 C 
ENDROOT
BRANCH   1   2
ATOM      2  O   UNL A   1      34.003  30.733  28.038  1.00  0.00    -0.376 OA
BRANCH   2   3
ATOM      3  C   UNL A   1      34.401  29.721  27.107  1.00  0.00     0.202 C 
BRANCH   3   4
ATOM      4  C   UNL A   1      33.471  28.358  26.697  1.00  0.00     0.261 C 
BRANCH   4   5
ATOM      5  O   UNL A   1      31.991  28.210  25.897  1.00  0.00    -0.460 OA
BRANCH   5   6
ATOM      6  C   UNL A   1      31.495  28.383  24.576  1.00  0.00     0.341 C 
ATOM      7  O   UNL A   1      30.905  29.344  24.088  1.00  0.00    -0.246 OA
BRANCH   6   8
ATOM      8  C   UNL A   1      31.591  27.441  23.445  1.00  0.00     0.099 A 
ATOM      9  C   UNL A   1      32.429  24.937  22.358  1.00  0.00     0.074 A 
ATOM     10  C   UNL A   1      33.244  26.081  22.302  1.00  0.00     0.030 A 
ATOM     11  C   UNL A   1      31.177  25.062  22.946  1.00  0.00     0.182 A 
ATOM     12  C   UNL A   1      32.834  27.325  22.832  1.00  0.00     0.021 A 
ATOM     13  C   UNL A   1      30.783  26.268  23.508  1.00  0.00     0.175 A 
ATOM     14  F   UNL A   1      30.415  23.966  23.124  1.00  0.00    -0.201 F 
ATOM     15  F   UNL A   1      29.712  26.182  24.302  1.00  0.00    -0.203 F 
BRANCH   9  16
ATOM     16  N   UNL A   1      32.918  23.655  22.060  1.00  0.00    -0.379 N 
ATOM     17  H   UNL A   1      33.081  23.354  21.138  1.00  0.00     0.161 HD
BRANCH  16  18
ATOM     18  C   UNL A   1      33.168  22.801  23.219  1.00  0.00     0.149 C 
BRANCH  18  19
ATOM     19  C   UNL A   1      34.480  23.174  23.882  1.00  0.00    -0.026 A 
ATOM     20  C   UNL A   1      33.347  24.033  26.013  1.00  0.00     0.044 C 
ATOM     21  C   UNL A   1      34.558  23.730  25.175  1.00  0.00    -0.046 A 
ATOM     22  C   UNL A   1      35.824  23.975  25.741  1.00  0.00     0.004 A 
ATOM     23  C   UNL A   1      36.994  23.721  25.028  1.00  0.00     0.000 A 
ATOM     24  C   UNL A   1      35.673  22.955  23.164  1.00  0.00     0.006 A 
ATOM     25  C   UNL A   1      36.919  23.224  23.733  1.00  0.00     0.000 A 
ENDBRANCH  18  19
ENDBRANCH  16  18
ENDBRANCH   9  16
ENDBRANCH   6   8
ENDBRANCH   5   6
ENDBRANCH   4   5
ENDBRANCH   3   4
ENDBRANCH   2   3
ENDBRANCH   1   2
BRANCH   1  26
ATOM     26  C   UNL A   1      34.964  33.164  27.992  1.00  0.00     0.188 C 
BRANCH  26  27
ATOM     27  O   UNL A   1      34.543  34.437  27.543  1.00  0.00    -0.376 OA
BRANCH  27  28
ATOM     28  C   UNL A   1      34.505  35.456  28.525  1.00  0.00     0.202 C 
BRANCH  28  29
ATOM     29  C   UNL A   1      33.124  35.566  29.195  1.00  0.00     0.261 C 
BRANCH  29  30
ATOM     30  O   UNL A   1      33.100  34.817  30.437  1.00  0.00    -0.460 OA
BRANCH  30  31
ATOM     31  C   UNL A   1      33.639  35.426  31.560  1.00  0.00     0.338 C 
ATOM     32  O   UNL A   1      33.479  36.566  31.867  1.00  0.00    -0.246 OA
BRANCH  31  33
ATOM     33  C   UNL A   1      34.669  34.500  32.183  1.00  0.00     0.060 A 
ATOM     34  C   UNL A   1      35.891  34.895  32.750  1.00  0.00     0.016 A 
ATOM     35  C   UNL A   1      34.611  33.209  31.792  1.00  0.00     0.016 A 
ATOM     36  C   UNL A   1      37.066  34.015  32.748  1.00  0.00     0.010 A 
ATOM     37  C   UNL A   1      35.848  32.608  31.544  1.00  0.00     0.010 A 
ATOM     38  C   UNL A   1      37.122  32.793  32.061  1.00  0.00    -0.014 A 
BRANCH  38  39
ATOM     39  C   UNL A   1      38.408  31.936  31.607  1.00  0.00     0.031 A 
ATOM     40  C   UNL A   1      38.672  30.554  30.749  1.00  0.00     0.074 A 
ATOM     41  C   UNL A   1      39.584  32.439  32.047  1.00  0.00     0.049 A 
ATOM     42  N   UNL A   1      39.553  29.617  31.094  1.00  0.00    -0.248 NA
ATOM     43  C   UNL A   1      37.987  30.035  29.522  1.00  0.00     0.031 C 
ATOM     44  C   UNL A   1      40.936  32.050  31.657  1.00  0.00     0.029 A 
ATOM     45  N   UNL A   1      39.785  33.360  33.083  1.00  0.00    -0.354 N 
ATOM     46  C   UNL A   1      39.507  28.604  30.120  1.00  0.00     0.074 A 
ATOM     47  C   UNL A   1      38.264  28.745  29.522  1.00  0.00     0.031 C 
ATOM     48  C   UNL A   1      41.787  32.455  32.612  1.00  0.00     0.029 A 
ATOM     49  C   UNL A   1      40.991  33.004  33.696  1.00  0.00     0.049 A 
ATOM     50  H   UNL A   1      39.195  34.107  33.332  1.00  0.00     0.167 HD
ATOM     51  C   UNL A   1      40.554  27.885  29.620  1.00  0.00     0.037 A 
ATOM     52  C   UNL A   1      41.027  32.627  35.003  1.00  0.00     0.037 A 
ATOM     53  C   UNL A   1      41.694  28.101  30.471  1.00  0.00     0.049 A 
ATOM     54  C   UNL A   1      41.629  31.258  35.211  1.00  0.00     0.074 A 
ATOM     55  C   UNL A   1      42.825  28.886  30.370  1.00  0.00     0.029 A 
ATOM     56  N   UNL A   1      41.574  27.725  31.796  1.00  0.00    -0.354 N 
ATOM     57  N   UNL A   1      41.870  30.410  34.248  1.00  0.00    -0.248 NA
ATOM     58  C   UNL A   1      42.001  30.727  36.518  1.00  0.00     0.031 C 
ATOM     59  C   UNL A   1      43.321  29.078  31.688  1.00  0.00     0.029 A 
ATOM     60  C   UNL A   1      42.525  28.355  32.563  1.00  0.00     0.049 A 
ATOM     61  H   UNL A   1      40.903  27.093  32.141  1.00  0.00     0.167 HD
ATOM     62  C   UNL A   1      42.327  29.232  34.773  1.00  0.00     0.074 A 
ATOM     63  C   UNL A   1      42.440  29.499  36.193  1.00  0.00     0.031 C 
ATOM     64  C   UNL A   1      42.529  28.125  33.998  1.00  0.00     0.037 A 
BRANCH  51  65
ATOM     65  C   UNL A   1      40.594  27.192  28.219  1.00  0.00     0.057 A 
ATOM     66  C   UNL A   1      39.950  25.949  28.039  1.00  0.00     0.134 A 
ATOM     67  C   UNL A   1      41.284  27.603  27.042  1.00  0.00     0.134 A 
ATOM     68  F   UNL A   1      39.194  25.412  29.005  1.00  0.00    -0.206 F 
ATOM     69  C   UNL A   1      40.045  25.176  26.857  1.00  0.00     0.040 A 
ATOM     70  C   UNL A   1      41.391  26.840  25.864  1.00  0.00     0.040 A 
ATOM     71  F   UNL A   1      41.906  28.772  26.904  1.00  0.00    -0.206 F 
ATOM     72  C   UNL A   1      40.783  25.610  25.769  1.00  0.00     0.006 A 
ENDBRANCH  51  65
BRANCH  52  73
ATOM     73  C   UNL A   1      39.997  33.297  35.853  1.00  0.00     0.057 A 
ATOM     74  C   UNL A   1      38.784  32.614  36.087  1.00  0.00     0.134 A 
ATOM     75  C   UNL A   1      40.273  34.379  36.696  1.00  0.00     0.134 A 
ATOM     76  F   UNL A   1      38.449  31.561  35.324  1.00  0.00    -0.206 F 
ATOM     77  C   UNL A   1      37.946  32.914  37.165  1.00  0.00     0.040 A 
ATOM     78  C   UNL A   1      39.427  34.703  37.773  1.00  0.00     0.040 A 
ATOM     79  F   UNL A   1      41.423  35.058  36.581  1.00  0.00    -0.206 F 
ATOM     80  C   UNL A   1      38.280  33.950  38.030  1.00  0.00     0.006 A 
ENDBRANCH  52  73
BRANCH  64  81
ATOM     81  C   UNL A   1      42.719  26.708  34.493  1.00  0.00     0.057 A 
ATOM     82  C   UNL A   1      41.782  26.006  35.264  1.00  0.00     0.134 A 
ATOM     83  C   UNL A   1      43.809  25.932  34.029  1.00  0.00     0.134 A 
ATOM     84  F   UNL A   1      40.644  26.573  35.682  1.00  0.00    -0.206 F 
ATOM     85  C   UNL A   1      41.941  24.652  35.589  1.00  0.00     0.040 A 
ATOM     86  C   UNL A   1      43.939  24.565  34.289  1.00  0.00     0.040 A 
ATOM     87  F   UNL A   1      44.778  26.461  33.267  1.00  0.00    -0.206 F 
ATOM     88  C   UNL A   1      43.010  23.922  35.087  1.00  0.00     0.006 A 
ENDBRANCH  64  81
ENDBRANCH  38  39
ENDBRANCH  31  33
ENDBRANCH  30  31
ENDBRANCH  29  30
ENDBRANCH  28  29
ENDBRANCH  27  28
ENDBRANCH  26  27
ENDBRANCH   1  26
TORSDOF 20
ENDMDL
MODEL 2
REMARK VINA RESULT:     -11.7      1.415      2.186
REMARK SMILES Cc1ccccc1CNc1ccc(C(=O)OCCOCCOCCOC(=O)c2ccc(-c3c4nc(c(-c5c(F)cccc5F)c5ccc([nH]5)c(-c5c(F)cccc5F)c5nc(c(-c6c(F)cccc6F)c6ccc3[nH]6)C=C5)C=C4)cc2)c(F)c1F
REMARK SMILES IDX 20 1 19 2 18 3 17 4 16 5 14 6 15 7 13 8 10 9 11 10 84 11
REMARK SMILES IDX 12 12 82 13 85 14 83 15 9 16 8 18 7 19 1 20 2 21 3 22 4 23
REMARK SMILES IDX 6 24 5 25 21 26 22 27 23 28 24 29 25 30 26 31 27 32 28 33
REMARK SMILES IDX 29 34 81 35 30 36 80 37 31 38 32 39 33 40 74 41 34 42 79 43
REMARK SMILES IDX 73 44 75 45 35 46 78 47 72 48 71 49 36 51 62 52 45 53 61 54
REMARK SMILES IDX 46 55 49 56 60 57 76 58 47 59 48 60 59 62 77 63 50 64 37 65
REMARK SMILES IDX 38 66 43 67 39 68 40 69 42 70 44 71 41 72 63 73 64 74 69 75
REMARK SMILES IDX 65 76 66 77 68 78 70 79 67 80 51 81 52 82 57 83 53 84 54 85
REMARK SMILES IDX 56 86 58 87 55 88
REMARK H PARENT 9 17 75 50 49 61
REMARK Flexibility Score: inf
ROOT
ATOM      1  C   UNL A   1      33.961  34.508  28.887  1.00  0.00     0.188 C 
ENDROOT
BRANCH   1   2
ATOM      2  O   UNL A   1      33.695  33.447  27.938  1.00  0.00    -0.376 OA
BRANCH   2   3
ATOM      3  C   UNL A   1      34.143  32.094  28.066  1.00  0.00     0.202 C 
BRANCH   3   4
ATOM      4  C   UNL A   1      33.368  30.745  27.382  1.00  0.00     0.261 C 
BRANCH   4   5
ATOM      5  O   UNL A   1      32.785  30.458  25.822  1.00  0.00    -0.460 OA
BRANCH   5   6
ATOM      6  C   UNL A   1      32.457  29.332  25.019  1.00  0.00     0.341 C 
ATOM      7  O   UNL A   1      32.939  28.979  23.945  1.00  0.00    -0.246 OA
BRANCH   6   8
ATOM      8  C   UNL A   1      31.460  28.283  25.299  1.00  0.00     0.099 A 
ATOM      9  C   UNL A   1      30.525  25.599  25.018  1.00  0.00     0.074 A 
ATOM     10  C   UNL A   1      30.143  26.617  24.126  1.00  0.00     0.030 A 
ATOM     11  C   UNL A   1      31.366  25.942  26.069  1.00  0.00     0.182 A 
ATOM     12  C   UNL A   1      30.596  27.948  24.263  1.00  0.00     0.021 A 
ATOM     13  C   UNL A   1      31.850  27.237  26.186  1.00  0.00     0.175 A 
ATOM     14  F   UNL A   1      31.848  24.977  26.875  1.00  0.00    -0.201 F 
ATOM     15  F   UNL A   1      32.874  27.367  27.034  1.00  0.00    -0.203 F 
BRANCH   9  16
ATOM     16  N   UNL A   1      30.282  24.242  24.753  1.00  0.00    -0.379 N 
ATOM     17  H   UNL A   1      29.781  23.666  25.372  1.00  0.00     0.161 HD
BRANCH  16  18
ATOM     18  C   UNL A   1      30.827  23.750  23.489  1.00  0.00     0.149 C 
BRANCH  18  19
ATOM     19  C   UNL A   1      32.178  23.097  23.709  1.00  0.00    -0.026 A 
ATOM     20  C   UNL A   1      33.484  25.188  23.015  1.00  0.00     0.044 C 
ATOM     21  C   UNL A   1      33.400  23.768  23.500  1.00  0.00    -0.046 A 
ATOM     22  C   UNL A   1      34.606  23.106  23.801  1.00  0.00     0.004 A 
ATOM     23  C   UNL A   1      34.612  21.789  24.255  1.00  0.00     0.000 A 
ATOM     24  C   UNL A   1      32.206  21.754  24.137  1.00  0.00     0.006 A 
ATOM     25  C   UNL A   1      33.411  21.106  24.409  1.00  0.00     0.000 A 
ENDBRANCH  18  19
ENDBRANCH  16  18
ENDBRANCH   9  16
ENDBRANCH   6   8
ENDBRANCH   5   6
ENDBRANCH   4   5
ENDBRANCH   3   4
ENDBRANCH   2   3
ENDBRANCH   1   2
BRANCH   1  26
ATOM     26  C   UNL A   1      32.852  35.264  29.618  1.00  0.00     0.188 C 
BRANCH  26  27
ATOM     27  O   UNL A   1      33.285  36.581  29.898  1.00  0.00    -0.376 OA
BRANCH  27  28
ATOM     28  C   UNL A   1      33.235  36.970  31.258  1.00  0.00     0.202 C 
BRANCH  28  29
ATOM     29  C   UNL A   1      32.550  35.911  32.140  1.00  0.00     0.261 C 
BRANCH  29  30
ATOM     30  O   UNL A   1      33.478  35.394  33.129  1.00  0.00    -0.460 OA
BRANCH  30  31
ATOM     31  C   UNL A   1      33.946  34.102  32.949  1.00  0.00     0.338 C 
ATOM     32  O   UNL A   1      33.276  33.117  32.979  1.00  0.00    -0.246 OA
BRANCH  31  33
ATOM     33  C   UNL A   1      35.464  34.114  32.976  1.00  0.00     0.060 A 
ATOM     34  C   UNL A   1      36.299  34.642  31.977  1.00  0.00     0.016 A 
ATOM     35  C   UNL A   1      36.045  33.199  33.781  1.00  0.00     0.016 A 
ATOM     36  C   UNL A   1      37.641  34.101  31.724  1.00  0.00     0.010 A 
ATOM     37  C   UNL A   1      37.164  32.558  33.241  1.00  0.00     0.010 A 
ATOM     38  C   UNL A   1      38.140  32.941  32.333  1.00  0.00    -0.014 A 
BRANCH  38  39
ATOM     39  C   UNL A   1      39.364  31.997  31.880  1.00  0.00     0.031 A 
ATOM     40  C   UNL A   1      39.537  30.625  30.984  1.00  0.00     0.074 A 
ATOM     41  C   UNL A   1      40.566  32.389  32.363  1.00  0.00     0.049 A 
ATOM     42  N   UNL A   1      40.331  29.610  31.318  1.00  0.00    -0.248 NA
ATOM     43  C   UNL A   1      38.843  30.201  29.725  1.00  0.00     0.031 C 
ATOM     44  C   UNL A   1      41.891  31.904  31.990  1.00  0.00     0.029 A 
ATOM     45  N   UNL A   1      40.814  33.258  33.433  1.00  0.00    -0.354 N 
ATOM     46  C   UNL A   1      40.228  28.634  30.310  1.00  0.00     0.074 A 
ATOM     47  C   UNL A   1      39.015  28.893  29.690  1.00  0.00     0.031 C 
ATOM     48  C   UNL A   1      42.747  32.209  32.978  1.00  0.00     0.029 A 
ATOM     49  C   UNL A   1      41.971  32.786  34.061  1.00  0.00     0.049 A 
ATOM     50  H   UNL A   1      40.280  34.043  33.692  1.00  0.00     0.167 HD
ATOM     51  C   UNL A   1      41.226  27.847  29.811  1.00  0.00     0.037 A 
ATOM     52  C   UNL A   1      41.944  32.368  35.355  1.00  0.00     0.037 A 
ATOM     53  C   UNL A   1      42.358  27.944  30.694  1.00  0.00     0.049 A 
ATOM     54  C   UNL A   1      42.429  30.949  35.532  1.00  0.00     0.074 A 
ATOM     55  C   UNL A   1      43.550  28.637  30.644  1.00  0.00     0.029 A 
ATOM     56  N   UNL A   1      42.175  27.538  32.003  1.00  0.00    -0.354 N 
ATOM     57  N   UNL A   1      42.625  30.114  34.547  1.00  0.00    -0.248 NA
ATOM     58  C   UNL A   1      42.723  30.349  36.829  1.00  0.00     0.031 C 
ATOM     59  C   UNL A   1      44.027  28.747  31.979  1.00  0.00     0.029 A 
ATOM     60  C   UNL A   1      43.154  28.066  32.812  1.00  0.00     0.049 A 
ATOM     61  H   UNL A   1      41.447  26.953  32.312  1.00  0.00     0.167 HD
ATOM     62  C   UNL A   1      42.971  28.887  35.044  1.00  0.00     0.074 A 
ATOM     63  C   UNL A   1      43.071  29.100  36.473  1.00  0.00     0.031 C 
ATOM     64  C   UNL A   1      43.103  27.792  34.238  1.00  0.00     0.037 A 
BRANCH  51  65
ATOM     65  C   UNL A   1      41.245  27.197  28.390  1.00  0.00     0.057 A 
ATOM     66  C   UNL A   1      41.902  27.861  27.330  1.00  0.00     0.134 A 
ATOM     67  C   UNL A   1      40.603  26.006  27.945  1.00  0.00     0.134 A 
ATOM     68  F   UNL A   1      42.620  28.970  27.544  1.00  0.00    -0.206 F 
ATOM     69  C   UNL A   1      41.859  27.429  25.983  1.00  0.00     0.040 A 
ATOM     70  C   UNL A   1      40.547  25.571  26.607  1.00  0.00     0.040 A 
ATOM     71  F   UNL A   1      39.982  25.143  28.747  1.00  0.00    -0.206 F 
ATOM     72  C   UNL A   1      41.164  26.291  25.611  1.00  0.00     0.006 A 
ENDBRANCH  51  65
BRANCH  52  73
ATOM     73  C   UNL A   1      40.950  33.093  36.204  1.00  0.00     0.057 A 
ATOM     74  C   UNL A   1      39.691  32.489  36.413  1.00  0.00     0.134 A 
ATOM     75  C   UNL A   1      41.287  34.142  37.065  1.00  0.00     0.134 A 
ATOM     76  F   UNL A   1      39.297  31.472  35.630  1.00  0.00    -0.206 F 
ATOM     77  C   UNL A   1      38.863  32.830  37.486  1.00  0.00     0.040 A 
ATOM     78  C   UNL A   1      40.451  34.507  38.137  1.00  0.00     0.040 A 
ATOM     79  F   UNL A   1      42.480  34.745  36.973  1.00  0.00    -0.206 F 
ATOM     80  C   UNL A   1      39.253  33.828  38.369  1.00  0.00     0.006 A 
ENDBRANCH  52  73
BRANCH  64  81
ATOM     81  C   UNL A   1      43.166  26.349  34.691  1.00  0.00     0.057 A 
ATOM     82  C   UNL A   1      42.058  25.604  35.117  1.00  0.00     0.134 A 
ATOM     83  C   UNL A   1      44.357  25.601  34.522  1.00  0.00     0.134 A 
ATOM     84  F   UNL A   1      40.838  26.146  35.216  1.00  0.00    -0.206 F 
ATOM     85  C   UNL A   1      42.139  24.234  35.402  1.00  0.00     0.040 A 
ATOM     86  C   UNL A   1      44.430  24.223  34.736  1.00  0.00     0.040 A 
ATOM     87  F   UNL A   1      45.496  26.174  34.104  1.00  0.00    -0.206 F 
ATOM     88  C   UNL A   1      43.320  23.535  35.194  1.00  0.00     0.006 A 
ENDBRANCH  64  81
ENDBRANCH  38  39
ENDBRANCH  31  33
ENDBRANCH  30  31
ENDBRANCH  29  30
ENDBRANCH  28  29
ENDBRANCH  27  28
ENDBRANCH  26  27
ENDBRANCH   1  26
TORSDOF 20
ENDMDL
MODEL 3
REMARK VINA RESULT:     -11.7      1.896      3.118
REMARK SMILES Cc1ccccc1CNc1ccc(C(=O)OCCOCCOCCOC(=O)c2ccc(-c3c4nc(c(-c5c(F)cccc5F)c5ccc([nH]5)c(-c5c(F)cccc5F)c5nc(c(-c6c(F)cccc6F)c6ccc3[nH]6)C=C5)C=C4)cc2)c(F)c1F
REMARK SMILES IDX 20 1 19 2 18 3 17 4 16 5 14 6 15 7 13 8 10 9 11 10 84 11
REMARK SMILES IDX 12 12 82 13 85 14 83 15 9 16 8 18 7 19 1 20 2 21 3 22 4 23
REMARK SMILES IDX 6 24 5 25 21 26 22 27 23 28 24 29 25 30 26 31 27 32 28 33
REMARK SMILES IDX 29 34 81 35 30 36 80 37 31 38 32 39 33 40 74 41 34 42 79 43
REMARK SMILES IDX 73 44 75 45 35 46 78 47 72 48 71 49 36 51 62 52 45 53 61 54
REMARK SMILES IDX 46 55 49 56 60 57 76 58 47 59 48 60 59 62 77 63 50 64 37 65
REMARK SMILES IDX 38 66 43 67 39 68 40 69 42 70 44 71 41 72 63 73 64 74 69 75
REMARK SMILES IDX 65 76 66 77 68 78 70 79 67 80 51 81 52 82 57 83 53 84 54 85
REMARK SMILES IDX 56 86 58 87 55 88
REMARK H PARENT 9 17 75 50 49 61
REMARK Flexibility Score: inf
ROOT
ATOM      1  C   UNL A   1      33.596  34.998  29.938  1.00  0.00     0.188 C 
ENDROOT
BRANCH   1   2
ATOM      2  O   UNL A   1      33.751  34.018  28.883  1.00  0.00    -0.376 OA
BRANCH   2   3
ATOM      3  C   UNL A   1      34.224  32.678  29.064  1.00  0.00     0.202 C 
BRANCH   3   4
ATOM      4  C   UNL A   1      35.242  31.853  27.983  1.00  0.00     0.261 C 
BRANCH   4   5
ATOM      5  O   UNL A   1      35.041  30.404  27.137  1.00  0.00    -0.460 OA
BRANCH   5   6
ATOM      6  C   UNL A   1      33.973  29.681  26.541  1.00  0.00     0.341 C 
ATOM      7  O   UNL A   1      33.402  29.881  25.472  1.00  0.00    -0.246 OA
BRANCH   6   8
ATOM      8  C   UNL A   1      33.296  28.479  27.061  1.00  0.00     0.099 A 
ATOM      9  C   UNL A   1      31.416  26.352  26.749  1.00  0.00     0.074 A 
ATOM     10  C   UNL A   1      31.057  27.582  27.328  1.00  0.00     0.030 A 
ATOM     11  C   UNL A   1      32.735  26.186  26.346  1.00  0.00     0.182 A 
ATOM     12  C   UNL A   1      31.983  28.636  27.491  1.00  0.00     0.021 A 
ATOM     13  C   UNL A   1      33.640  27.231  26.462  1.00  0.00     0.175 A 
ATOM     14  F   UNL A   1      33.090  25.069  25.683  1.00  0.00    -0.201 F 
ATOM     15  F   UNL A   1      34.769  27.061  25.768  1.00  0.00    -0.203 F 
BRANCH   9  16
ATOM     16  N   UNL A   1      30.459  25.400  26.363  1.00  0.00    -0.379 N 
ATOM     17  H   UNL A   1      30.399  24.512  26.783  1.00  0.00     0.161 HD
BRANCH  16  18
ATOM     18  C   UNL A   1      29.558  25.824  25.294  1.00  0.00     0.149 C 
BRANCH  18  19
ATOM     19  C   UNL A   1      30.333  26.095  24.019  1.00  0.00    -0.026 A 
ATOM     20  C   UNL A   1      30.862  23.621  23.620  1.00  0.00     0.044 C 
ATOM     21  C   UNL A   1      30.923  25.075  23.245  1.00  0.00    -0.046 A 
ATOM     22  C   UNL A   1      31.560  25.413  22.036  1.00  0.00     0.004 A 
ATOM     23  C   UNL A   1      31.658  26.739  21.618  1.00  0.00     0.000 A 
ATOM     24  C   UNL A   1      30.473  27.433  23.597  1.00  0.00     0.006 A 
ATOM     25  C   UNL A   1      31.127  27.752  22.407  1.00  0.00     0.000 A 
ENDBRANCH  18  19
ENDBRANCH  16  18
ENDBRANCH   9  16
ENDBRANCH   6   8
ENDBRANCH   5   6
ENDBRANCH   4   5
ENDBRANCH   3   4
ENDBRANCH   2   3
ENDBRANCH   1   2
BRANCH   1  26
ATOM     26  C   UNL A   1      32.867  36.326  29.735  1.00  0.00     0.188 C 
BRANCH  26  27
ATOM     27  O   UNL A   1      32.482  36.849  30.991  1.00  0.00    -0.376 OA
BRANCH  27  28
ATOM     28  C   UNL A   1      33.515  37.442  31.755  1.00  0.00     0.202 C 
BRANCH  28  29
ATOM     29  C   UNL A   1      33.740  36.714  33.092  1.00  0.00     0.261 C 
BRANCH  29  30
ATOM     30  O   UNL A   1      35.044  36.079  33.115  1.00  0.00    -0.460 OA
BRANCH  30  31
ATOM     31  C   UNL A   1      35.146  34.855  33.758  1.00  0.00     0.338 C 
ATOM     32  O   UNL A   1      35.067  34.690  34.936  1.00  0.00    -0.246 OA
BRANCH  31  33
ATOM     33  C   UNL A   1      35.635  33.812  32.770  1.00  0.00     0.060 A 
ATOM     34  C   UNL A   1      35.640  32.423  32.978  1.00  0.00     0.016 A 
ATOM     35  C   UNL A   1      36.499  34.251  31.830  1.00  0.00     0.016 A 
ATOM     36  C   UNL A   1      36.638  31.549  32.347  1.00  0.00     0.010 A 
ATOM     37  C   UNL A   1      37.575  33.399  31.567  1.00  0.00     0.010 A 
ATOM     38  C   UNL A   1      37.741  32.023  31.623  1.00  0.00    -0.014 A 
BRANCH  38  39
ATOM     39  C   UNL A   1      39.113  31.269  31.243  1.00  0.00     0.031 A 
ATOM     40  C   UNL A   1      39.539  29.975  30.315  1.00  0.00     0.074 A 
ATOM     41  C   UNL A   1      40.208  31.790  31.842  1.00  0.00     0.049 A 
ATOM     42  N   UNL A   1      40.432  29.057  30.679  1.00  0.00    -0.248 NA
ATOM     43  C   UNL A   1      39.012  29.525  28.987  1.00  0.00     0.031 C 
ATOM     44  C   UNL A   1      41.612  31.499  31.567  1.00  0.00     0.029 A 
ATOM     45  N   UNL A   1      40.251  32.632  32.960  1.00  0.00    -0.354 N 
ATOM     46  C   UNL A   1      40.542  28.125  29.631  1.00  0.00     0.074 A 
ATOM     47  C   UNL A   1      39.360  28.254  28.918  1.00  0.00     0.031 C 
ATOM     48  C   UNL A   1      42.337  31.866  32.635  1.00  0.00     0.029 A 
ATOM     49  C   UNL A   1      41.407  32.285  33.667  1.00  0.00     0.049 A 
ATOM     50  H   UNL A   1      39.597  33.327  33.201  1.00  0.00     0.167 HD
ATOM     51  C   UNL A   1      41.672  27.500  29.191  1.00  0.00     0.037 A 
ATOM     52  C   UNL A   1      41.331  31.806  34.938  1.00  0.00     0.037 A 
ATOM     53  C   UNL A   1      42.707  27.701  30.171  1.00  0.00     0.049 A 
ATOM     54  C   UNL A   1      41.985  30.455  35.104  1.00  0.00     0.074 A 
ATOM     55  C   UNL A   1      43.796  28.544  30.250  1.00  0.00     0.029 A 
ATOM     56  N   UNL A   1      42.475  27.212  31.444  1.00  0.00    -0.354 N 
ATOM     57  N   UNL A   1      42.370  29.701  34.110  1.00  0.00    -0.248 NA
ATOM     58  C   UNL A   1      42.251  29.838  36.399  1.00  0.00     0.031 C 
ATOM     59  C   UNL A   1      44.144  28.652  31.624  1.00  0.00     0.029 A 
ATOM     60  C   UNL A   1      43.306  27.824  32.353  1.00  0.00     0.049 A 
ATOM     61  H   UNL A   1      41.809  26.523  31.667  1.00  0.00     0.167 HD
ATOM     62  C   UNL A   1      42.836  28.507  34.590  1.00  0.00     0.074 A 
ATOM     63  C   UNL A   1      42.790  28.663  36.029  1.00  0.00     0.031 C 
ATOM     64  C   UNL A   1      43.177  27.478  33.759  1.00  0.00     0.037 A 
BRANCH  51  65
ATOM     65  C   UNL A   1      41.893  26.926  27.754  1.00  0.00     0.057 A 
ATOM     66  C   UNL A   1      41.909  25.528  27.558  1.00  0.00     0.134 A 
ATOM     67  C   UNL A   1      42.175  27.629  26.548  1.00  0.00     0.134 A 
ATOM     68  F   UNL A   1      41.608  24.684  28.552  1.00  0.00    -0.206 F 
ATOM     69  C   UNL A   1      42.239  24.909  26.329  1.00  0.00     0.040 A 
ATOM     70  C   UNL A   1      42.511  27.024  25.321  1.00  0.00     0.040 A 
ATOM     71  F   UNL A   1      42.142  28.955  26.425  1.00  0.00    -0.206 F 
ATOM     72  C   UNL A   1      42.561  25.655  25.208  1.00  0.00     0.006 A 
ENDBRANCH  51  65
BRANCH  52  73
ATOM     73  C   UNL A   1      40.184  32.354  35.724  1.00  0.00     0.057 A 
ATOM     74  C   UNL A   1      40.343  33.614  36.340  1.00  0.00     0.134 A 
ATOM     75  C   UNL A   1      38.874  31.878  35.614  1.00  0.00     0.134 A 
ATOM     76  F   UNL A   1      41.571  34.143  36.478  1.00  0.00    -0.206 F 
ATOM     77  C   UNL A   1      39.258  34.408  36.722  1.00  0.00     0.040 A 
ATOM     78  C   UNL A   1      37.774  32.660  36.014  1.00  0.00     0.040 A 
ATOM     79  F   UNL A   1      38.619  30.713  35.002  1.00  0.00    -0.206 F 
ATOM     80  C   UNL A   1      37.963  33.940  36.538  1.00  0.00     0.006 A 
ENDBRANCH  52  73
BRANCH  64  81
ATOM     81  C   UNL A   1      43.396  26.036  34.162  1.00  0.00     0.057 A 
ATOM     82  C   UNL A   1      42.433  25.235  34.791  1.00  0.00     0.134 A 
ATOM     83  C   UNL A   1      44.560  25.347  33.740  1.00  0.00     0.134 A 
ATOM     84  F   UNL A   1      41.235  25.717  35.147  1.00  0.00    -0.206 F 
ATOM     85  C   UNL A   1      42.631  23.868  35.028  1.00  0.00     0.040 A 
ATOM     86  C   UNL A   1      44.736  23.972  33.909  1.00  0.00     0.040 A 
ATOM     87  F   UNL A   1      45.563  25.976  33.110  1.00  0.00    -0.206 F 
ATOM     88  C   UNL A   1      43.775  23.228  34.571  1.00  0.00     0.006 A 
ENDBRANCH  64  81
ENDBRANCH  38  39
ENDBRANCH  31  33
ENDBRANCH  30  31
ENDBRANCH  29  30
ENDBRANCH  28  29
ENDBRANCH  27  28
ENDBRANCH  26  27
ENDBRANCH   1  26
TORSDOF 20
ENDMDL
