MODEL 1
REMARK VINA RESULT:     -10.8      0.000      0.000
REMARK SMILES O=C(CCCN1C(=O)/C(=C\c2ccc(O)c(O)c2)SC1=S)OCCOCCOCCOC(=O)c1ccc(-c2c3nc(c(-c4c(F)cccc4F)c4ccc([nH]4)c(-c4c(F)cccc4F)c4nc(c(-c5c(F)cccc5F)c5ccc2[nH]5)C=C4)C=C3)cc1
REMARK SMILES IDX 25 1 24 2 23 3 22 4 2 5 1 6 3 7 4 8 5 9 6 10 7 11 20 12 8 13
REMARK SMILES IDX 9 14 19 15 21 16 10 17 11 18 12 19 18 20 13 21 16 22 14 23
REMARK SMILES IDX 17 24 15 26 26 28 27 29 28 30 29 31 30 32 31 33 32 34 33 35
REMARK SMILES IDX 34 36 35 37 87 38 36 39 86 40 37 41 38 42 39 43 80 44 40 45
REMARK SMILES IDX 85 46 79 47 81 48 41 49 84 50 78 51 77 52 42 54 68 55 51 56
REMARK SMILES IDX 67 57 52 58 55 59 66 60 82 61 53 62 54 63 65 65 83 66 56 67
REMARK SMILES IDX 43 68 44 69 49 70 45 71 46 72 48 73 50 74 47 75 69 76 70 77
REMARK SMILES IDX 75 78 71 79 72 80 74 81 76 82 73 83 57 84 58 85 63 86 59 87
REMARK SMILES IDX 60 88 62 89 64 90 61 91
REMARK H PARENT 17 25 15 27 81 53 55 64
REMARK Flexibility Score: inf
ROOT
ATOM      1  O   UNL A   1      41.635  21.503  26.424  1.00  0.00    -0.376 OA
ENDROOT
BRANCH   1   2
ATOM      2  C   UNL A   1      40.794  21.688  27.556  1.00  0.00     0.202 C 
BRANCH   2   3
ATOM      3  C   UNL A   1      39.752  22.762  27.286  1.00  0.00     0.261 C 
BRANCH   3   4
ATOM      4  O   UNL A   1      39.343  22.808  25.912  1.00  0.00    -0.463 OA
BRANCH   4   5
ATOM      5  C   UNL A   1      38.180  22.267  25.478  1.00  0.00     0.305 C 
ATOM      6  O   UNL A   1      38.074  21.045  25.384  1.00  0.00    -0.252 OA
BRANCH   5   7
ATOM      7  C   UNL A   1      37.049  23.172  25.034  1.00  0.00     0.124 C 
BRANCH   7   8
ATOM      8  C   UNL A   1      36.067  23.576  26.133  1.00  0.00     0.034 C 
BRANCH   8   9
ATOM      9  C   UNL A   1      34.966  22.557  26.499  1.00  0.00     0.128 C 
BRANCH   9  10
ATOM     10  N   UNL A   1      33.905  22.330  25.505  1.00  0.00    -0.293 N 
ATOM     11  C   UNL A   1      33.985  21.232  24.663  1.00  0.00     0.266 C 
ATOM     12  C   UNL A   1      32.709  23.020  25.446  1.00  0.00     0.148 C 
ATOM     13  O   UNL A   1      34.932  20.465  24.579  1.00  0.00    -0.268 OA
ATOM     14  C   UNL A   1      32.719  21.090  23.884  1.00  0.00     0.081 C 
ATOM     15  S   UNL A   1      31.825  22.555  23.989  1.00  0.00    -0.054 SA
ATOM     16  S   UNL A   1      32.069  24.089  26.557  1.00  0.00    -0.052 S 
ATOM     17  C   UNL A   1      32.184  19.952  23.422  1.00  0.00     0.029 C 
BRANCH  17  18
ATOM     18  C   UNL A   1      32.678  18.644  23.859  1.00  0.00    -0.020 A 
ATOM     19  C   UNL A   1      32.434  18.265  25.195  1.00  0.00     0.012 A 
ATOM     20  C   UNL A   1      33.371  17.784  23.009  1.00  0.00     0.058 A 
ATOM     21  C   UNL A   1      32.917  17.060  25.700  1.00  0.00     0.051 A 
ATOM     22  C   UNL A   1      33.837  16.576  23.519  1.00  0.00     0.157 A 
ATOM     23  C   UNL A   1      33.626  16.222  24.852  1.00  0.00     0.157 A 
BRANCH  22  24
ATOM     24  O   UNL A   1      34.521  15.727  22.697  1.00  0.00    -0.504 OA
ATOM     25  H   UNL A   1      35.240  15.228  23.033  1.00  0.00     0.293 HD
ENDBRANCH  22  24
BRANCH  23  26
ATOM     26  O   UNL A   1      34.136  15.032  25.290  1.00  0.00    -0.504 OA
ATOM     27  H   UNL A   1      33.830  14.227  24.923  1.00  0.00     0.293 HD
ENDBRANCH  23  26
ENDBRANCH  17  18
ENDBRANCH   9  10
ENDBRANCH   8   9
ENDBRANCH   7   8
ENDBRANCH   5   7
ENDBRANCH   4   5
ENDBRANCH   3   4
ENDBRANCH   2   3
ENDBRANCH   1   2
BRANCH   1  28
ATOM     28  C   UNL A   1      41.895  20.137  26.116  1.00  0.00     0.188 C 
BRANCH  28  29
ATOM     29  C   UNL A   1      43.339  19.813  25.697  1.00  0.00     0.188 C 
BRANCH  29  30
ATOM     30  O   UNL A   1      43.917  20.548  24.625  1.00  0.00    -0.376 OA
BRANCH  30  31
ATOM     31  C   UNL A   1      44.769  21.652  24.915  1.00  0.00     0.202 C 
BRANCH  31  32
ATOM     32  C   UNL A   1      44.510  22.941  24.140  1.00  0.00     0.261 C 
BRANCH  32  33
ATOM     33  O   UNL A   1      43.767  23.890  24.922  1.00  0.00    -0.460 OA
BRANCH  33  34
ATOM     34  C   UNL A   1      44.410  25.049  25.194  1.00  0.00     0.338 C 
ATOM     35  O   UNL A   1      45.406  25.499  24.661  1.00  0.00    -0.246 OA
BRANCH  34  36
ATOM     36  C   UNL A   1      43.646  25.785  26.210  1.00  0.00     0.060 A 
ATOM     37  C   UNL A   1      44.030  27.092  26.533  1.00  0.00     0.016 A 
ATOM     38  C   UNL A   1      42.617  25.143  26.899  1.00  0.00     0.016 A 
ATOM     39  C   UNL A   1      43.387  27.763  27.571  1.00  0.00     0.010 A 
ATOM     40  C   UNL A   1      41.991  25.808  27.951  1.00  0.00     0.010 A 
ATOM     41  C   UNL A   1      42.389  27.109  28.305  1.00  0.00    -0.014 A 
BRANCH  41  42
ATOM     42  C   UNL A   1      41.828  27.718  29.530  1.00  0.00     0.031 A 
ATOM     43  C   UNL A   1      40.601  28.575  29.414  1.00  0.00     0.074 A 
ATOM     44  C   UNL A   1      42.454  27.565  30.709  1.00  0.00     0.049 A 
ATOM     45  N   UNL A   1      40.039  29.342  30.311  1.00  0.00    -0.248 NA
ATOM     46  C   UNL A   1      39.921  28.575  28.107  1.00  0.00     0.031 C 
ATOM     47  C   UNL A   1      43.637  26.735  30.935  1.00  0.00     0.029 A 
ATOM     48  N   UNL A   1      42.204  28.140  31.929  1.00  0.00    -0.354 N 
ATOM     49  C   UNL A   1      38.954  29.929  29.676  1.00  0.00     0.074 A 
ATOM     50  C   UNL A   1      38.934  29.434  28.316  1.00  0.00     0.031 C 
ATOM     51  C   UNL A   1      44.039  26.892  32.208  1.00  0.00     0.029 A 
ATOM     52  C   UNL A   1      43.167  27.861  32.867  1.00  0.00     0.049 A 
ATOM     53  H   UNL A   1      41.413  28.698  32.113  1.00  0.00     0.167 HD
ATOM     54  C   UNL A   1      38.061  30.808  30.185  1.00  0.00     0.037 A 
ATOM     55  C   UNL A   1      43.349  28.374  34.099  1.00  0.00     0.037 A 
ATOM     56  C   UNL A   1      38.092  31.294  31.538  1.00  0.00     0.049 A 
ATOM     57  C   UNL A   1      42.381  29.407  34.614  1.00  0.00     0.074 A 
ATOM     58  C   UNL A   1      37.199  32.141  32.170  1.00  0.00     0.029 A 
ATOM     59  N   UNL A   1      39.081  30.990  32.460  1.00  0.00    -0.354 N 
ATOM     60  N   UNL A   1      41.320  29.912  34.031  1.00  0.00    -0.248 NA
ATOM     61  C   UNL A   1      42.640  29.950  35.957  1.00  0.00     0.031 C 
ATOM     62  C   UNL A   1      37.678  32.394  33.458  1.00  0.00     0.029 A 
ATOM     63  C   UNL A   1      38.843  31.667  33.644  1.00  0.00     0.049 A 
ATOM     64  H   UNL A   1      39.838  30.383  32.298  1.00  0.00     0.167 HD
ATOM     65  C   UNL A   1      40.778  30.814  34.939  1.00  0.00     0.074 A 
ATOM     66  C   UNL A   1      41.615  30.774  36.119  1.00  0.00     0.031 C 
ATOM     67  C   UNL A   1      39.687  31.608  34.809  1.00  0.00     0.037 A 
BRANCH  54  68
ATOM     68  C   UNL A   1      36.990  31.330  29.275  1.00  0.00     0.057 A 
ATOM     69  C   UNL A   1      35.875  30.560  28.926  1.00  0.00     0.134 A 
ATOM     70  C   UNL A   1      37.045  32.646  28.799  1.00  0.00     0.134 A 
ATOM     71  F   UNL A   1      35.770  29.288  29.340  1.00  0.00    -0.206 F 
ATOM     72  C   UNL A   1      34.850  31.080  28.132  1.00  0.00     0.040 A 
ATOM     73  C   UNL A   1      36.019  33.183  28.021  1.00  0.00     0.040 A 
ATOM     74  F   UNL A   1      38.087  33.436  29.098  1.00  0.00    -0.206 F 
ATOM     75  C   UNL A   1      34.917  32.399  27.685  1.00  0.00     0.006 A 
ENDBRANCH  54  68
BRANCH  55  76
ATOM     76  C   UNL A   1      44.523  27.972  34.914  1.00  0.00     0.057 A 
ATOM     77  C   UNL A   1      45.779  28.559  34.721  1.00  0.00     0.134 A 
ATOM     78  C   UNL A   1      44.427  26.957  35.874  1.00  0.00     0.134 A 
ATOM     79  F   UNL A   1      45.940  29.517  33.796  1.00  0.00    -0.206 F 
ATOM     80  C   UNL A   1      46.902  28.134  35.433  1.00  0.00     0.040 A 
ATOM     81  C   UNL A   1      45.536  26.541  36.614  1.00  0.00     0.040 A 
ATOM     82  F   UNL A   1      43.254  26.350  36.105  1.00  0.00    -0.206 F 
ATOM     83  C   UNL A   1      46.781  27.124  36.386  1.00  0.00     0.006 A 
ENDBRANCH  55  76
BRANCH  67  84
ATOM     84  C   UNL A   1      39.325  32.478  35.974  1.00  0.00     0.057 A 
ATOM     85  C   UNL A   1      39.821  33.782  36.099  1.00  0.00     0.134 A 
ATOM     86  C   UNL A   1      38.426  32.029  36.949  1.00  0.00     0.134 A 
ATOM     87  F   UNL A   1      40.696  34.265  35.205  1.00  0.00    -0.206 F 
ATOM     88  C   UNL A   1      39.446  34.603  37.163  1.00  0.00     0.040 A 
ATOM     89  C   UNL A   1      38.023  32.850  38.003  1.00  0.00     0.040 A 
ATOM     90  F   UNL A   1      37.908  30.794  36.881  1.00  0.00    -0.206 F 
ATOM     91  C   UNL A   1      38.538  34.140  38.113  1.00  0.00     0.006 A 
ENDBRANCH  67  84
ENDBRANCH  41  42
ENDBRANCH  34  36
ENDBRANCH  33  34
ENDBRANCH  32  33
ENDBRANCH  31  32
ENDBRANCH  30  31
ENDBRANCH  29  30
ENDBRANCH  28  29
ENDBRANCH   1  28
TORSDOF 23
ENDMDL
MODEL 2
REMARK VINA RESULT:     -10.2      2.032      3.714
REMARK SMILES O=C(CCCN1C(=O)/C(=C\c2ccc(O)c(O)c2)SC1=S)OCCOCCOCCOC(=O)c1ccc(-c2c3nc(c(-c4c(F)cccc4F)c4ccc([nH]4)c(-c4c(F)cccc4F)c4nc(c(-c5c(F)cccc5F)c5ccc2[nH]5)C=C4)C=C3)cc1
REMARK SMILES IDX 25 1 24 2 23 3 22 4 2 5 1 6 3 7 4 8 5 9 6 10 7 11 20 12 8 13
REMARK SMILES IDX 9 14 19 15 21 16 10 17 11 18 12 19 18 20 13 21 16 22 14 23
REMARK SMILES IDX 17 24 15 26 26 28 27 29 28 30 29 31 30 32 31 33 32 34 33 35
REMARK SMILES IDX 34 36 35 37 87 38 36 39 86 40 37 41 38 42 39 43 80 44 40 45
REMARK SMILES IDX 85 46 79 47 81 48 41 49 84 50 78 51 77 52 42 54 68 55 51 56
REMARK SMILES IDX 67 57 52 58 55 59 66 60 82 61 53 62 54 63 65 65 83 66 56 67
REMARK SMILES IDX 43 68 44 69 49 70 45 71 46 72 48 73 50 74 47 75 69 76 70 77
REMARK SMILES IDX 75 78 71 79 72 80 74 81 76 82 73 83 57 84 58 85 63 86 59 87
REMARK SMILES IDX 60 88 62 89 64 90 61 91
REMARK H PARENT 17 25 15 27 81 53 55 64
REMARK Flexibility Score: inf
ROOT
ATOM      1  O   UNL A   1      41.428  21.137  26.120  1.00  0.00    -0.376 OA
ENDROOT
BRANCH   1   2
ATOM      2  C   UNL A   1      40.409  21.240  27.108  1.00  0.00     0.202 C 
BRANCH   2   3
ATOM      3  C   UNL A   1      39.412  22.330  26.744  1.00  0.00     0.261 C 
BRANCH   3   4
ATOM      4  O   UNL A   1      38.964  22.242  25.385  1.00  0.00    -0.463 OA
BRANCH   4   5
ATOM      5  C   UNL A   1      37.773  21.696  25.041  1.00  0.00     0.305 C 
ATOM      6  O   UNL A   1      37.515  20.540  25.371  1.00  0.00    -0.252 OA
BRANCH   5   7
ATOM      7  C   UNL A   1      36.802  22.486  24.187  1.00  0.00     0.124 C 
BRANCH   7   8
ATOM      8  C   UNL A   1      36.108  23.650  24.892  1.00  0.00     0.034 C 
BRANCH   8   9
ATOM      9  C   UNL A   1      35.250  23.309  26.130  1.00  0.00     0.128 C 
BRANCH   9  10
ATOM     10  N   UNL A   1      33.803  23.150  25.918  1.00  0.00    -0.293 N 
ATOM     11  C   UNL A   1      33.000  24.275  25.825  1.00  0.00     0.266 C 
ATOM     12  C   UNL A   1      33.169  21.959  25.614  1.00  0.00     0.148 C 
ATOM     13  O   UNL A   1      33.362  25.427  26.015  1.00  0.00    -0.268 OA
ATOM     14  C   UNL A   1      31.618  23.887  25.415  1.00  0.00     0.081 C 
ATOM     15  S   UNL A   1      31.419  22.194  25.636  1.00  0.00    -0.054 SA
ATOM     16  S   UNL A   1      33.853  20.493  25.200  1.00  0.00    -0.052 S 
ATOM     17  C   UNL A   1      30.751  24.629  24.712  1.00  0.00     0.029 C 
BRANCH  17  18
ATOM     18  C   UNL A   1      31.172  25.855  24.031  1.00  0.00    -0.020 A 
ATOM     19  C   UNL A   1      30.665  27.079  24.513  1.00  0.00     0.012 A 
ATOM     20  C   UNL A   1      32.038  25.844  22.938  1.00  0.00     0.058 A 
ATOM     21  C   UNL A   1      30.977  28.283  23.886  1.00  0.00     0.051 A 
ATOM     22  C   UNL A   1      32.355  27.053  22.328  1.00  0.00     0.157 A 
ATOM     23  C   UNL A   1      31.821  28.259  22.785  1.00  0.00     0.157 A 
BRANCH  22  24
ATOM     24  O   UNL A   1      33.199  27.055  21.255  1.00  0.00    -0.504 OA
ATOM     25  H   UNL A   1      32.854  27.139  20.387  1.00  0.00     0.293 HD
ENDBRANCH  22  24
BRANCH  23  26
ATOM     26  O   UNL A   1      32.155  29.404  22.119  1.00  0.00    -0.504 OA
ATOM     27  H   UNL A   1      32.268  30.205  22.591  1.00  0.00     0.293 HD
ENDBRANCH  23  26
ENDBRANCH  17  18
ENDBRANCH   9  10
ENDBRANCH   8   9
ENDBRANCH   7   8
ENDBRANCH   5   7
ENDBRANCH   4   5
ENDBRANCH   3   4
ENDBRANCH   2   3
ENDBRANCH   1   2
BRANCH   1  28
ATOM     28  C   UNL A   1      41.916  19.813  25.932  1.00  0.00     0.188 C 
BRANCH  28  29
ATOM     29  C   UNL A   1      43.433  19.687  25.716  1.00  0.00     0.188 C 
BRANCH  29  30
ATOM     30  O   UNL A   1      44.034  20.434  24.664  1.00  0.00    -0.376 OA
BRANCH  30  31
ATOM     31  C   UNL A   1      44.751  21.625  24.974  1.00  0.00     0.202 C 
BRANCH  31  32
ATOM     32  C   UNL A   1      44.364  22.882  24.201  1.00  0.00     0.261 C 
BRANCH  32  33
ATOM     33  O   UNL A   1      43.635  23.808  25.023  1.00  0.00    -0.460 OA
BRANCH  33  34
ATOM     34  C   UNL A   1      44.230  25.007  25.217  1.00  0.00     0.338 C 
ATOM     35  O   UNL A   1      45.185  25.476  24.627  1.00  0.00    -0.246 OA
BRANCH  34  36
ATOM     36  C   UNL A   1      43.469  25.754  26.226  1.00  0.00     0.060 A 
ATOM     37  C   UNL A   1      43.888  27.043  26.575  1.00  0.00     0.016 A 
ATOM     38  C   UNL A   1      42.404  25.138  26.884  1.00  0.00     0.016 A 
ATOM     39  C   UNL A   1      43.244  27.722  27.607  1.00  0.00     0.010 A 
ATOM     40  C   UNL A   1      41.776  25.810  27.930  1.00  0.00     0.010 A 
ATOM     41  C   UNL A   1      42.209  27.093  28.311  1.00  0.00    -0.014 A 
BRANCH  41  42
ATOM     42  C   UNL A   1      41.640  27.704  29.531  1.00  0.00     0.031 A 
ATOM     43  C   UNL A   1      40.423  28.573  29.404  1.00  0.00     0.074 A 
ATOM     44  C   UNL A   1      42.253  27.543  30.716  1.00  0.00     0.049 A 
ATOM     45  N   UNL A   1      39.859  29.343  30.296  1.00  0.00    -0.248 NA
ATOM     46  C   UNL A   1      39.757  28.581  28.090  1.00  0.00     0.031 C 
ATOM     47  C   UNL A   1      43.425  26.701  30.952  1.00  0.00     0.029 A 
ATOM     48  N   UNL A   1      41.996  28.118  31.934  1.00  0.00    -0.354 N 
ATOM     49  C   UNL A   1      38.786  29.941  29.651  1.00  0.00     0.074 A 
ATOM     50  C   UNL A   1      38.776  29.450  28.291  1.00  0.00     0.031 C 
ATOM     51  C   UNL A   1      43.816  26.852  32.230  1.00  0.00     0.029 A 
ATOM     52  C   UNL A   1      42.946  27.827  32.882  1.00  0.00     0.049 A 
ATOM     53  H   UNL A   1      41.208  28.682  32.112  1.00  0.00     0.167 HD
ATOM     54  C   UNL A   1      37.896  30.828  30.153  1.00  0.00     0.037 A 
ATOM     55  C   UNL A   1      43.120  28.336  34.117  1.00  0.00     0.037 A 
ATOM     56  C   UNL A   1      37.917  31.310  31.507  1.00  0.00     0.049 A 
ATOM     57  C   UNL A   1      42.156  29.377  34.624  1.00  0.00     0.074 A 
ATOM     58  C   UNL A   1      37.026  32.164  32.132  1.00  0.00     0.029 A 
ATOM     59  N   UNL A   1      38.893  30.995  32.440  1.00  0.00    -0.354 N 
ATOM     60  N   UNL A   1      41.106  29.893  34.031  1.00  0.00    -0.248 NA
ATOM     61  C   UNL A   1      42.406  29.914  35.971  1.00  0.00     0.031 C 
ATOM     62  C   UNL A   1      37.493  32.410  33.426  1.00  0.00     0.029 A 
ATOM     63  C   UNL A   1      38.649  31.671  33.622  1.00  0.00     0.049 A 
ATOM     64  H   UNL A   1      39.647  30.382  32.284  1.00  0.00     0.167 HD
ATOM     65  C   UNL A   1      40.563  30.798  34.935  1.00  0.00     0.074 A 
ATOM     66  C   UNL A   1      41.387  30.747  36.124  1.00  0.00     0.031 C 
ATOM     67  C   UNL A   1      39.481  31.602  34.796  1.00  0.00     0.037 A 
BRANCH  54  68
ATOM     68  C   UNL A   1      36.840  31.361  29.233  1.00  0.00     0.057 A 
ATOM     69  C   UNL A   1      35.720  30.603  28.872  1.00  0.00     0.134 A 
ATOM     70  C   UNL A   1      36.912  32.678  28.760  1.00  0.00     0.134 A 
ATOM     71  F   UNL A   1      35.598  29.332  29.283  1.00  0.00    -0.206 F 
ATOM     72  C   UNL A   1      34.709  31.134  28.069  1.00  0.00     0.040 A 
ATOM     73  C   UNL A   1      35.900  33.226  27.972  1.00  0.00     0.040 A 
ATOM     74  F   UNL A   1      37.959  33.456  29.070  1.00  0.00    -0.206 F 
ATOM     75  C   UNL A   1      34.793  32.454  27.624  1.00  0.00     0.006 A 
ENDBRANCH  54  68
BRANCH  55  76
ATOM     76  C   UNL A   1      44.281  27.921  34.943  1.00  0.00     0.057 A 
ATOM     77  C   UNL A   1      44.225  26.786  35.761  1.00  0.00     0.134 A 
ATOM     78  C   UNL A   1      45.459  28.677  34.971  1.00  0.00     0.134 A 
ATOM     79  F   UNL A   1      43.113  26.036  35.798  1.00  0.00    -0.206 F 
ATOM     80  C   UNL A   1      45.288  26.432  36.594  1.00  0.00     0.040 A 
ATOM     81  C   UNL A   1      46.540  28.320  35.779  1.00  0.00     0.040 A 
ATOM     82  F   UNL A   1      45.576  29.779  34.216  1.00  0.00    -0.206 F 
ATOM     83  C   UNL A   1      46.451  27.199  36.603  1.00  0.00     0.006 A 
ENDBRANCH  55  76
BRANCH  67  84
ATOM     84  C   UNL A   1      39.115  32.473  35.959  1.00  0.00     0.057 A 
ATOM     85  C   UNL A   1      38.304  32.006  37.000  1.00  0.00     0.134 A 
ATOM     86  C   UNL A   1      39.626  33.773  36.067  1.00  0.00     0.134 A 
ATOM     87  F   UNL A   1      37.774  30.776  36.949  1.00  0.00    -0.206 F 
ATOM     88  C   UNL A   1      38.003  32.808  38.102  1.00  0.00     0.040 A 
ATOM     89  C   UNL A   1      39.353  34.574  37.175  1.00  0.00     0.040 A 
ATOM     90  F   UNL A   1      40.416  34.277  35.107  1.00  0.00    -0.206 F 
ATOM     91  C   UNL A   1      38.535  34.092  38.196  1.00  0.00     0.006 A 
ENDBRANCH  67  84
ENDBRANCH  41  42
ENDBRANCH  34  36
ENDBRANCH  33  34
ENDBRANCH  32  33
ENDBRANCH  31  32
ENDBRANCH  30  31
ENDBRANCH  29  30
ENDBRANCH  28  29
ENDBRANCH   1  28
TORSDOF 23
ENDMDL
MODEL 3
REMARK VINA RESULT:     -10.2      4.994     10.023
REMARK SMILES O=C(CCCN1C(=O)/C(=C\c2ccc(O)c(O)c2)SC1=S)OCCOCCOCCOC(=O)c1ccc(-c2c3nc(c(-c4c(F)cccc4F)c4ccc([nH]4)c(-c4c(F)cccc4F)c4nc(c(-c5c(F)cccc5F)c5ccc2[nH]5)C=C4)C=C3)cc1
REMARK SMILES IDX 25 1 24 2 23 3 22 4 2 5 1 6 3 7 4 8 5 9 6 10 7 11 20 12 8 13
REMARK SMILES IDX 9 14 19 15 21 16 10 17 11 18 12 19 18 20 13 21 16 22 14 23
REMARK SMILES IDX 17 24 15 26 26 28 27 29 28 30 29 31 30 32 31 33 32 34 33 35
REMARK SMILES IDX 34 36 35 37 87 38 36 39 86 40 37 41 38 42 39 43 80 44 40 45
REMARK SMILES IDX 85 46 79 47 81 48 41 49 84 50 78 51 77 52 42 54 68 55 51 56
REMARK SMILES IDX 67 57 52 58 55 59 66 60 82 61 53 62 54 63 65 65 83 66 56 67
REMARK SMILES IDX 43 68 44 69 49 70 45 71 46 72 48 73 50 74 47 75 69 76 70 77
REMARK SMILES IDX 75 78 71 79 72 80 74 81 76 82 73 83 57 84 58 85 63 86 59 87
REMARK SMILES IDX 60 88 62 89 64 90 61 91
REMARK H PARENT 17 25 15 27 81 53 55 64
REMARK Flexibility Score: inf
ROOT
ATOM      1  O   UNL A   1      34.779  32.260  29.362  1.00  0.00    -0.376 OA
ENDROOT
BRANCH   1   2
ATOM      2  C   UNL A   1      34.572  31.820  28.025  1.00  0.00     0.202 C 
BRANCH   2   3
ATOM      3  C   UNL A   1      35.099  30.406  27.833  1.00  0.00     0.261 C 
BRANCH   3   4
ATOM      4  O   UNL A   1      34.639  29.802  26.617  1.00  0.00    -0.463 OA
BRANCH   4   5
ATOM      5  C   UNL A   1      33.365  29.374  26.449  1.00  0.00     0.305 C 
ATOM      6  O   UNL A   1      32.650  29.906  25.602  1.00  0.00    -0.252 OA
BRANCH   5   7
ATOM      7  C   UNL A   1      32.807  28.299  27.360  1.00  0.00     0.124 C 
BRANCH   7   8
ATOM      8  C   UNL A   1      31.405  27.806  27.006  1.00  0.00     0.034 C 
BRANCH   8   9
ATOM      9  C   UNL A   1      31.303  26.461  26.256  1.00  0.00     0.128 C 
BRANCH   9  10
ATOM     10  N   UNL A   1      32.074  26.329  25.009  1.00  0.00    -0.293 N 
ATOM     11  C   UNL A   1      33.134  25.439  24.955  1.00  0.00     0.266 C 
ATOM     12  C   UNL A   1      31.723  26.887  23.793  1.00  0.00     0.148 C 
ATOM     13  O   UNL A   1      33.585  24.808  25.899  1.00  0.00    -0.268 OA
ATOM     14  C   UNL A   1      33.638  25.324  23.554  1.00  0.00     0.081 C 
ATOM     15  S   UNL A   1      33.024  26.635  22.625  1.00  0.00    -0.054 SA
ATOM     16  S   UNL A   1      30.293  27.635  23.366  1.00  0.00    -0.052 S 
ATOM     17  C   UNL A   1      34.215  24.253  22.993  1.00  0.00     0.029 C 
BRANCH  17  18
ATOM     18  C   UNL A   1      34.192  22.943  23.648  1.00  0.00    -0.020 A 
ATOM     19  C   UNL A   1      35.402  22.459  24.187  1.00  0.00     0.012 A 
ATOM     20  C   UNL A   1      33.032  22.176  23.747  1.00  0.00     0.058 A 
ATOM     21  C   UNL A   1      35.473  21.200  24.779  1.00  0.00     0.051 A 
ATOM     22  C   UNL A   1      33.110  20.926  24.351  1.00  0.00     0.157 A 
ATOM     23  C   UNL A   1      34.318  20.435  24.850  1.00  0.00     0.157 A 
BRANCH  22  24
ATOM     24  O   UNL A   1      31.982  20.163  24.450  1.00  0.00    -0.504 OA
ATOM     25  H   UNL A   1      31.497  19.942  23.679  1.00  0.00     0.293 HD
ENDBRANCH  22  24
BRANCH  23  26
ATOM     26  O   UNL A   1      34.324  19.187  25.407  1.00  0.00    -0.504 OA
ATOM     27  H   UNL A   1      33.684  18.957  26.050  1.00  0.00     0.293 HD
ENDBRANCH  23  26
ENDBRANCH  17  18
ENDBRANCH   9  10
ENDBRANCH   8   9
ENDBRANCH   7   8
ENDBRANCH   5   7
ENDBRANCH   4   5
ENDBRANCH   3   4
ENDBRANCH   2   3
ENDBRANCH   1   2
BRANCH   1  28
ATOM     28  C   UNL A   1      35.014  33.660  29.479  1.00  0.00     0.188 C 
BRANCH  28  29
ATOM     29  C   UNL A   1      34.028  34.427  30.375  1.00  0.00     0.188 C 
BRANCH  29  30
ATOM     30  O   UNL A   1      34.452  34.809  31.679  1.00  0.00    -0.376 OA
BRANCH  30  31
ATOM     31  C   UNL A   1      34.100  33.995  32.794  1.00  0.00     0.202 C 
BRANCH  31  32
ATOM     32  C   UNL A   1      35.248  33.478  33.657  1.00  0.00     0.261 C 
BRANCH  32  33
ATOM     33  O   UNL A   1      35.898  32.348  33.052  1.00  0.00    -0.460 OA
BRANCH  33  34
ATOM     34  C   UNL A   1      36.986  31.884  33.710  1.00  0.00     0.338 C 
ATOM     35  O   UNL A   1      37.189  31.868  34.909  1.00  0.00    -0.246 OA
BRANCH  34  36
ATOM     36  C   UNL A   1      37.901  31.275  32.736  1.00  0.00     0.060 A 
ATOM     37  C   UNL A   1      39.066  30.652  33.198  1.00  0.00     0.016 A 
ATOM     38  C   UNL A   1      37.645  31.408  31.371  1.00  0.00     0.016 A 
ATOM     39  C   UNL A   1      39.999  30.168  32.282  1.00  0.00     0.010 A 
ATOM     40  C   UNL A   1      38.589  30.943  30.458  1.00  0.00     0.010 A 
ATOM     41  C   UNL A   1      39.778  30.344  30.910  1.00  0.00    -0.014 A 
BRANCH  41  42
ATOM     42  C   UNL A   1      40.832  30.019  29.926  1.00  0.00     0.031 A 
ATOM     43  C   UNL A   1      40.878  28.637  29.345  1.00  0.00     0.074 A 
ATOM     44  C   UNL A   1      41.774  30.929  29.620  1.00  0.00     0.049 A 
ATOM     45  N   UNL A   1      41.801  28.079  28.607  1.00  0.00    -0.248 NA
ATOM     46  C   UNL A   1      39.733  27.760  29.644  1.00  0.00     0.031 C 
ATOM     47  C   UNL A   1      41.807  32.306  30.109  1.00  0.00     0.029 A 
ATOM     48  N   UNL A   1      42.908  30.811  28.858  1.00  0.00    -0.354 N 
ATOM     49  C   UNL A   1      41.360  26.785  28.369  1.00  0.00     0.074 A 
ATOM     50  C   UNL A   1      40.089  26.635  29.041  1.00  0.00     0.031 C 
ATOM     51  C   UNL A   1      42.934  32.894  29.672  1.00  0.00     0.029 A 
ATOM     52  C   UNL A   1      43.713  31.922  28.910  1.00  0.00     0.049 A 
ATOM     53  H   UNL A   1      43.122  30.010  28.326  1.00  0.00     0.167 HD
ATOM     54  C   UNL A   1      41.971  25.810  27.656  1.00  0.00     0.037 A 
ATOM     55  C   UNL A   1      44.962  32.108  28.439  1.00  0.00     0.037 A 
ATOM     56  C   UNL A   1      43.237  25.971  26.993  1.00  0.00     0.049 A 
ATOM     57  C   UNL A   1      45.648  30.980  27.714  1.00  0.00     0.074 A 
ATOM     58  C   UNL A   1      43.913  25.064  26.197  1.00  0.00     0.029 A 
ATOM     59  N   UNL A   1      44.025  27.109  27.067  1.00  0.00    -0.354 N 
ATOM     60  N   UNL A   1      45.200  29.778  27.438  1.00  0.00    -0.248 NA
ATOM     61  C   UNL A   1      47.018  31.230  27.241  1.00  0.00     0.031 C 
ATOM     62  C   UNL A   1      45.137  25.633  25.834  1.00  0.00     0.029 A 
ATOM     63  C   UNL A   1      45.201  26.912  26.365  1.00  0.00     0.049 A 
ATOM     64  H   UNL A   1      43.783  27.934  27.546  1.00  0.00     0.167 HD
ATOM     65  C   UNL A   1      46.223  29.139  26.747  1.00  0.00     0.074 A 
ATOM     66  C   UNL A   1      47.306  30.091  26.627  1.00  0.00     0.031 C 
ATOM     67  C   UNL A   1      46.265  27.876  26.256  1.00  0.00     0.037 A 
BRANCH  54  68
ATOM     68  C   UNL A   1      41.301  24.472  27.579  1.00  0.00     0.057 A 
ATOM     69  C   UNL A   1      40.236  24.227  26.704  1.00  0.00     0.134 A 
ATOM     70  C   UNL A   1      41.777  23.396  28.340  1.00  0.00     0.134 A 
ATOM     71  F   UNL A   1      39.727  25.218  25.958  1.00  0.00    -0.206 F 
ATOM     72  C   UNL A   1      39.664  22.958  26.592  1.00  0.00     0.040 A 
ATOM     73  C   UNL A   1      41.227  22.120  28.222  1.00  0.00     0.040 A 
ATOM     74  F   UNL A   1      42.796  23.566  29.195  1.00  0.00    -0.206 F 
ATOM     75  C   UNL A   1      40.166  21.897  27.345  1.00  0.00     0.006 A 
ENDBRANCH  54  68
BRANCH  55  76
ATOM     76  C   UNL A   1      45.675  33.386  28.686  1.00  0.00     0.057 A 
ATOM     77  C   UNL A   1      46.327  33.633  29.900  1.00  0.00     0.134 A 
ATOM     78  C   UNL A   1      45.680  34.410  27.732  1.00  0.00     0.134 A 
ATOM     79  F   UNL A   1      46.332  32.701  30.864  1.00  0.00    -0.206 F 
ATOM     80  C   UNL A   1      46.936  34.861  30.165  1.00  0.00     0.040 A 
ATOM     81  C   UNL A   1      46.310  35.633  27.973  1.00  0.00     0.040 A 
ATOM     82  F   UNL A   1      45.069  34.240  26.550  1.00  0.00    -0.206 F 
ATOM     83  C   UNL A   1      46.931  35.864  29.198  1.00  0.00     0.006 A 
ENDBRANCH  55  76
BRANCH  67  84
ATOM     84  C   UNL A   1      47.508  27.459  25.531  1.00  0.00     0.057 A 
ATOM     85  C   UNL A   1      48.569  26.829  26.193  1.00  0.00     0.134 A 
ATOM     86  C   UNL A   1      47.622  27.638  24.146  1.00  0.00     0.134 A 
ATOM     87  F   UNL A   1      48.526  26.641  27.520  1.00  0.00    -0.206 F 
ATOM     88  C   UNL A   1      49.706  26.403  25.504  1.00  0.00     0.040 A 
ATOM     89  C   UNL A   1      48.741  27.193  23.443  1.00  0.00     0.040 A 
ATOM     90  F   UNL A   1      46.636  28.226  23.452  1.00  0.00    -0.206 F 
ATOM     91  C   UNL A   1      49.790  26.578  24.124  1.00  0.00     0.006 A 
ENDBRANCH  67  84
ENDBRANCH  41  42
ENDBRANCH  34  36
ENDBRANCH  33  34
ENDBRANCH  32  33
ENDBRANCH  31  32
ENDBRANCH  30  31
ENDBRANCH  29  30
ENDBRANCH  28  29
ENDBRANCH   1  28
TORSDOF 23
ENDMDL
