MODEL 1
REMARK VINA RESULT:     -12.1      0.000      0.000
REMARK SMILES Cc1ccccc1[C@@H](Cc1c(Cl)cccc1Cl)C(=O)OCCOCCOCCOC(=O)c1ccc(-c2c3nc(c(-c4c(F)cccc4F)c4ccc([nH]4)c(-c4c(F)cccc4F)c4nc(c(-c5c(F)cccc5F)c5ccc2[nH]5)C=C4)C=C3)cc1
REMARK SMILES IDX 24 1 23 2 22 3 21 4 20 5 18 6 19 7 8 8 7 9 1 10 2 11 3 12
REMARK SMILES IDX 4 13 6 14 5 15 9 16 10 17 11 18 16 19 12 20 13 21 15 22
REMARK SMILES IDX 17 23 14 24 25 25 26 26 27 27 28 28 29 29 30 30 31 31 32 32
REMARK SMILES IDX 33 33 85 34 34 35 84 36 35 37 36 38 37 39 78 40 38 41 83 42
REMARK SMILES IDX 77 43 79 44 39 45 82 46 76 47 75 48 40 50 66 51 49 52 65 53
REMARK SMILES IDX 50 54 53 55 64 56 80 57 51 58 52 59 63 61 81 62 54 63 41 64
REMARK SMILES IDX 42 65 47 66 43 67 44 68 46 69 48 70 45 71 67 72 68 73 73 74
REMARK SMILES IDX 69 75 70 76 72 77 74 78 71 79 55 80 56 81 61 82 57 83 58 84
REMARK SMILES IDX 60 85 62 86 59 87
REMARK H PARENT 79 49 53 60
REMARK Flexibility Score: inf
ROOT
ATOM      1  C   UNL A   1      33.243  34.142  28.034  1.00  0.00     0.188 C 
ENDROOT
BRANCH   1   2
ATOM      2  O   UNL A   1      33.861  32.838  27.935  1.00  0.00    -0.376 OA
BRANCH   2   3
ATOM      3  C   UNL A   1      33.200  31.607  27.594  1.00  0.00     0.202 C 
BRANCH   3   4
ATOM      4  C   UNL A   1      33.906  30.056  27.387  1.00  0.00     0.261 C 
BRANCH   4   5
ATOM      5  O   UNL A   1      33.267  28.457  27.508  1.00  0.00    -0.463 OA
BRANCH   5   6
ATOM      6  C   UNL A   1      32.121  27.710  27.074  1.00  0.00     0.313 C 
ATOM      7  O   UNL A   1      31.035  27.621  27.649  1.00  0.00    -0.252 OA
BRANCH   6   8
ATOM      8  C   UNL A   1      32.015  26.916  25.811  1.00  0.00     0.134 C 
BRANCH   8   9
ATOM      9  C   UNL A   1      31.262  27.589  24.710  1.00  0.00    -0.031 A 
ATOM     10  C   UNL A   1      29.959  25.436  24.111  1.00  0.00     0.044 C 
ATOM     11  C   UNL A   1      30.199  26.926  24.054  1.00  0.00    -0.047 A 
ATOM     12  C   UNL A   1      29.330  27.691  23.271  1.00  0.00     0.004 A 
ATOM     13  C   UNL A   1      29.506  29.068  23.139  1.00  0.00     0.000 A 
ATOM     14  C   UNL A   1      31.492  28.955  24.482  1.00  0.00     0.005 A 
ATOM     15  C   UNL A   1      30.597  29.697  23.727  1.00  0.00     0.000 A 
ENDBRANCH   8   9
BRANCH   8  16
ATOM     16  C   UNL A   1      33.366  26.140  25.468  1.00  0.00     0.058 C 
BRANCH  16  17
ATOM     17  C   UNL A   1      33.354  24.775  24.703  1.00  0.00    -0.010 A 
ATOM     18  C   UNL A   1      33.574  24.705  23.303  1.00  0.00     0.045 A 
ATOM     19  C   UNL A   1      33.144  23.523  25.334  1.00  0.00     0.045 A 
ATOM     20  Cl  UNL A   1      33.631  26.119  22.303  1.00  0.00    -0.084 Cl
ATOM     21  C   UNL A   1      33.713  23.477  22.618  1.00  0.00     0.021 A 
ATOM     22  C   UNL A   1      33.304  22.298  24.650  1.00  0.00     0.021 A 
ATOM     23  Cl  UNL A   1      32.601  23.374  26.967  1.00  0.00    -0.084 Cl
ATOM     24  C   UNL A   1      33.613  22.271  23.297  1.00  0.00     0.003 A 
ENDBRANCH  16  17
ENDBRANCH   8  16
ENDBRANCH   6   8
ENDBRANCH   5   6
ENDBRANCH   4   5
ENDBRANCH   3   4
ENDBRANCH   2   3
ENDBRANCH   1   2
BRANCH   1  25
ATOM     25  C   UNL A   1      33.632  35.220  29.049  1.00  0.00     0.188 C 
BRANCH  25  26
ATOM     26  O   UNL A   1      32.598  35.424  29.990  1.00  0.00    -0.376 OA
BRANCH  26  27
ATOM     27  C   UNL A   1      32.876  36.391  30.991  1.00  0.00     0.202 C 
BRANCH  27  28
ATOM     28  C   UNL A   1      32.787  35.833  32.427  1.00  0.00     0.261 C 
BRANCH  28  29
ATOM     29  O   UNL A   1      33.384  34.518  32.509  1.00  0.00    -0.460 OA
BRANCH  29  30
ATOM     30  C   UNL A   1      34.749  34.449  32.734  1.00  0.00     0.338 C 
ATOM     31  O   UNL A   1      35.410  35.298  33.249  1.00  0.00    -0.246 OA
BRANCH  30  32
ATOM     32  C   UNL A   1      35.306  33.261  31.980  1.00  0.00     0.060 A 
ATOM     33  C   UNL A   1      35.534  31.984  32.517  1.00  0.00     0.016 A 
ATOM     34  C   UNL A   1      35.978  33.550  30.849  1.00  0.00     0.016 A 
ATOM     35  C   UNL A   1      36.619  31.131  32.045  1.00  0.00     0.010 A 
ATOM     36  C   UNL A   1      37.150  32.832  30.646  1.00  0.00     0.010 A 
ATOM     37  C   UNL A   1      37.594  31.580  31.149  1.00  0.00    -0.014 A 
BRANCH  37  38
ATOM     38  C   UNL A   1      39.089  30.853  30.858  1.00  0.00     0.031 A 
ATOM     39  C   UNL A   1      39.593  29.347  30.174  1.00  0.00     0.074 A 
ATOM     40  C   UNL A   1      40.151  31.498  31.394  1.00  0.00     0.049 A 
ATOM     41  N   UNL A   1      40.725  28.745  30.491  1.00  0.00    -0.248 NA
ATOM     42  C   UNL A   1      38.882  28.356  29.253  1.00  0.00     0.031 C 
ATOM     43  C   UNL A   1      41.570  31.246  31.163  1.00  0.00     0.029 A 
ATOM     44  N   UNL A   1      40.147  32.452  32.419  1.00  0.00    -0.354 N 
ATOM     45  C   UNL A   1      40.857  27.612  29.689  1.00  0.00     0.074 A 
ATOM     46  C   UNL A   1      39.586  27.245  29.248  1.00  0.00     0.031 C 
ATOM     47  C   UNL A   1      42.263  31.728  32.203  1.00  0.00     0.029 A 
ATOM     48  C   UNL A   1      41.303  32.206  33.178  1.00  0.00     0.049 A 
ATOM     49  H   UNL A   1      39.472  33.152  32.575  1.00  0.00     0.167 HD
ATOM     50  C   UNL A   1      42.036  27.129  29.230  1.00  0.00     0.037 A 
ATOM     51  C   UNL A   1      41.203  31.851  34.487  1.00  0.00     0.037 A 
ATOM     52  C   UNL A   1      43.077  27.493  30.151  1.00  0.00     0.049 A 
ATOM     53  C   UNL A   1      41.839  30.508  34.788  1.00  0.00     0.074 A 
ATOM     54  C   UNL A   1      44.127  28.380  30.190  1.00  0.00     0.029 A 
ATOM     55  N   UNL A   1      42.867  27.090  31.452  1.00  0.00    -0.354 N 
ATOM     56  N   UNL A   1      42.592  29.827  33.964  1.00  0.00    -0.248 NA
ATOM     57  C   UNL A   1      41.586  29.781  36.032  1.00  0.00     0.031 C 
ATOM     58  C   UNL A   1      44.454  28.583  31.577  1.00  0.00     0.029 A 
ATOM     59  C   UNL A   1      43.645  27.767  32.355  1.00  0.00     0.049 A 
ATOM     60  H   UNL A   1      42.225  26.388  31.707  1.00  0.00     0.167 HD
ATOM     61  C   UNL A   1      42.782  28.565  34.464  1.00  0.00     0.074 A 
ATOM     62  C   UNL A   1      42.160  28.596  35.778  1.00  0.00     0.031 C 
ATOM     63  C   UNL A   1      43.347  27.536  33.761  1.00  0.00     0.037 A 
BRANCH  50  64
ATOM     64  C   UNL A   1      42.151  26.332  27.934  1.00  0.00     0.057 A 
ATOM     65  C   UNL A   1      42.462  24.967  27.965  1.00  0.00     0.134 A 
ATOM     66  C   UNL A   1      42.070  26.866  26.614  1.00  0.00     0.134 A 
ATOM     67  F   UNL A   1      42.630  24.330  29.131  1.00  0.00    -0.206 F 
ATOM     68  C   UNL A   1      42.643  24.200  26.798  1.00  0.00     0.040 A 
ATOM     69  C   UNL A   1      42.165  26.095  25.446  1.00  0.00     0.040 A 
ATOM     70  F   UNL A   1      41.965  28.180  26.365  1.00  0.00    -0.206 F 
ATOM     71  C   UNL A   1      42.471  24.752  25.535  1.00  0.00     0.006 A 
ENDBRANCH  50  64
BRANCH  51  72
ATOM     72  C   UNL A   1      40.024  32.480  35.167  1.00  0.00     0.057 A 
ATOM     73  C   UNL A   1      40.130  33.835  35.558  1.00  0.00     0.134 A 
ATOM     74  C   UNL A   1      38.734  31.941  35.158  1.00  0.00     0.134 A 
ATOM     75  F   UNL A   1      41.330  34.439  35.583  1.00  0.00    -0.206 F 
ATOM     76  C   UNL A   1      39.011  34.636  35.812  1.00  0.00     0.040 A 
ATOM     77  C   UNL A   1      37.605  32.726  35.449  1.00  0.00     0.040 A 
ATOM     78  F   UNL A   1      38.515  30.686  34.743  1.00  0.00    -0.206 F 
ATOM     79  C   UNL A   1      37.741  34.083  35.740  1.00  0.00     0.006 A 
ENDBRANCH  51  72
BRANCH  63  80
ATOM     80  C   UNL A   1      43.506  26.164  34.377  1.00  0.00     0.057 A 
ATOM     81  C   UNL A   1      44.766  25.560  34.489  1.00  0.00     0.134 A 
ATOM     82  C   UNL A   1      42.424  25.375  34.823  1.00  0.00     0.134 A 
ATOM     83  F   UNL A   1      45.867  26.176  34.031  1.00  0.00    -0.206 F 
ATOM     84  C   UNL A   1      44.949  24.305  35.082  1.00  0.00     0.040 A 
ATOM     85  C   UNL A   1      42.586  24.095  35.359  1.00  0.00     0.040 A 
ATOM     86  F   UNL A   1      41.159  25.817  34.806  1.00  0.00    -0.206 F 
ATOM     87  C   UNL A   1      43.856  23.565  35.515  1.00  0.00     0.006 A 
ENDBRANCH  63  80
ENDBRANCH  37  38
ENDBRANCH  30  32
ENDBRANCH  29  30
ENDBRANCH  28  29
ENDBRANCH  27  28
ENDBRANCH  26  27
ENDBRANCH  25  26
ENDBRANCH   1  25
TORSDOF 20
ENDMDL
MODEL 2
REMARK VINA RESULT:     -11.9      4.757     10.471
REMARK SMILES Cc1ccccc1[C@@H](Cc1c(Cl)cccc1Cl)C(=O)OCCOCCOCCOC(=O)c1ccc(-c2c3nc(c(-c4c(F)cccc4F)c4ccc([nH]4)c(-c4c(F)cccc4F)c4nc(c(-c5c(F)cccc5F)c5ccc2[nH]5)C=C4)C=C3)cc1
REMARK SMILES IDX 24 1 23 2 22 3 21 4 20 5 18 6 19 7 8 8 7 9 1 10 2 11 3 12
REMARK SMILES IDX 4 13 6 14 5 15 9 16 10 17 11 18 16 19 12 20 13 21 15 22
REMARK SMILES IDX 17 23 14 24 25 25 26 26 27 27 28 28 29 29 30 30 31 31 32 32
REMARK SMILES IDX 33 33 85 34 34 35 84 36 35 37 36 38 37 39 78 40 38 41 83 42
REMARK SMILES IDX 77 43 79 44 39 45 82 46 76 47 75 48 40 50 66 51 49 52 65 53
REMARK SMILES IDX 50 54 53 55 64 56 80 57 51 58 52 59 63 61 81 62 54 63 41 64
REMARK SMILES IDX 42 65 47 66 43 67 44 68 46 69 48 70 45 71 67 72 68 73 73 74
REMARK SMILES IDX 69 75 70 76 72 77 74 78 71 79 55 80 56 81 61 82 57 83 58 84
REMARK SMILES IDX 60 85 62 86 59 87
REMARK H PARENT 79 49 53 60
REMARK Flexibility Score: inf
ROOT
ATOM      1  C   UNL A   1      40.236  20.592  26.416  1.00  0.00     0.188 C 
ENDROOT
BRANCH   1   2
ATOM      2  O   UNL A   1      38.959  20.627  25.739  1.00  0.00    -0.376 OA
BRANCH   2   3
ATOM      3  C   UNL A   1      38.217  21.806  25.381  1.00  0.00     0.202 C 
BRANCH   3   4
ATOM      4  C   UNL A   1      37.016  21.966  24.166  1.00  0.00     0.261 C 
BRANCH   4   5
ATOM      5  O   UNL A   1      35.998  23.279  23.695  1.00  0.00    -0.463 OA
BRANCH   5   6
ATOM      6  C   UNL A   1      34.621  23.523  23.375  1.00  0.00     0.313 C 
ATOM      7  O   UNL A   1      33.989  23.063  22.423  1.00  0.00    -0.252 OA
BRANCH   6   8
ATOM      8  C   UNL A   1      33.671  24.367  24.164  1.00  0.00     0.134 C 
BRANCH   8   9
ATOM      9  C   UNL A   1      33.423  23.894  25.560  1.00  0.00    -0.031 A 
ATOM     10  C   UNL A   1      30.866  24.226  25.357  1.00  0.00     0.044 C 
ATOM     11  C   UNL A   1      32.106  23.679  26.025  1.00  0.00    -0.047 A 
ATOM     12  C   UNL A   1      31.934  22.943  27.200  1.00  0.00     0.004 A 
ATOM     13  C   UNL A   1      33.031  22.434  27.895  1.00  0.00     0.000 A 
ATOM     14  C   UNL A   1      34.522  23.471  26.325  1.00  0.00     0.005 A 
ATOM     15  C   UNL A   1      34.324  22.714  27.470  1.00  0.00     0.000 A 
ENDBRANCH   8   9
BRANCH   8  16
ATOM     16  C   UNL A   1      33.881  25.926  23.898  1.00  0.00     0.058 C 
BRANCH  16  17
ATOM     17  C   UNL A   1      32.672  26.920  23.861  1.00  0.00    -0.010 A 
ATOM     18  C   UNL A   1      32.373  27.768  24.959  1.00  0.00     0.045 A 
ATOM     19  C   UNL A   1      31.808  27.064  22.748  1.00  0.00     0.045 A 
ATOM     20  Cl  UNL A   1      33.157  27.604  26.497  1.00  0.00    -0.084 Cl
ATOM     21  C   UNL A   1      31.382  28.772  24.893  1.00  0.00     0.021 A 
ATOM     22  C   UNL A   1      30.832  28.083  22.678  1.00  0.00     0.021 A 
ATOM     23  Cl  UNL A   1      31.809  25.970  21.410  1.00  0.00    -0.084 Cl
ATOM     24  C   UNL A   1      30.633  28.955  23.739  1.00  0.00     0.003 A 
ENDBRANCH  16  17
ENDBRANCH   8  16
ENDBRANCH   6   8
ENDBRANCH   5   6
ENDBRANCH   4   5
ENDBRANCH   3   4
ENDBRANCH   2   3
ENDBRANCH   1   2
BRANCH   1  25
ATOM     25  C   UNL A   1      41.165  19.377  26.471  1.00  0.00     0.188 C 
BRANCH  25  26
ATOM     26  O   UNL A   1      42.120  19.423  25.431  1.00  0.00    -0.376 OA
BRANCH  26  27
ATOM     27  C   UNL A   1      43.317  18.701  25.678  1.00  0.00     0.202 C 
BRANCH  27  28
ATOM     28  C   UNL A   1      44.475  19.089  24.735  1.00  0.00     0.261 C 
BRANCH  28  29
ATOM     29  O   UNL A   1      44.308  20.437  24.237  1.00  0.00    -0.460 OA
BRANCH  29  30
ATOM     30  C   UNL A   1      44.945  21.456  24.927  1.00  0.00     0.338 C 
ATOM     31  O   UNL A   1      46.011  21.375  25.455  1.00  0.00    -0.246 OA
BRANCH  30  32
ATOM     32  C   UNL A   1      43.962  22.586  25.140  1.00  0.00     0.060 A 
ATOM     33  C   UNL A   1      44.099  23.895  24.650  1.00  0.00     0.016 A 
ATOM     34  C   UNL A   1      43.112  22.435  26.176  1.00  0.00     0.016 A 
ATOM     35  C   UNL A   1      43.575  25.049  25.371  1.00  0.00     0.010 A 
ATOM     36  C   UNL A   1      42.898  23.570  26.948  1.00  0.00     0.010 A 
ATOM     37  C   UNL A   1      43.048  24.953  26.663  1.00  0.00    -0.014 A 
BRANCH  37  38
ATOM     38  C   UNL A   1      42.804  26.233  27.736  1.00  0.00     0.031 A 
ATOM     39  C   UNL A   1      41.576  27.434  27.932  1.00  0.00     0.074 A 
ATOM     40  C   UNL A   1      43.849  26.500  28.552  1.00  0.00     0.049 A 
ATOM     41  N   UNL A   1      41.797  28.623  28.464  1.00  0.00    -0.248 NA
ATOM     42  C   UNL A   1      40.124  27.496  27.458  1.00  0.00     0.031 C 
ATOM     43  C   UNL A   1      43.887  27.394  29.706  1.00  0.00     0.029 A 
ATOM     44  N   UNL A   1      45.184  26.110  28.392  1.00  0.00    -0.354 N 
ATOM     45  C   UNL A   1      40.579  29.295  28.554  1.00  0.00     0.074 A 
ATOM     46  C   UNL A   1      39.705  28.732  27.623  1.00  0.00     0.031 C 
ATOM     47  C   UNL A   1      45.159  27.753  29.925  1.00  0.00     0.029 A 
ATOM     48  C   UNL A   1      45.957  27.186  28.856  1.00  0.00     0.049 A 
ATOM     49  H   UNL A   1      45.512  25.256  28.029  1.00  0.00     0.167 HD
ATOM     50  C   UNL A   1      40.249  30.157  29.544  1.00  0.00     0.037 A 
ATOM     51  C   UNL A   1      46.800  27.841  28.013  1.00  0.00     0.037 A 
ATOM     52  C   UNL A   1      41.449  30.758  30.056  1.00  0.00     0.049 A 
ATOM     53  C   UNL A   1      46.487  29.320  27.893  1.00  0.00     0.074 A 
ATOM     54  C   UNL A   1      42.220  30.667  31.191  1.00  0.00     0.029 A 
ATOM     55  N   UNL A   1      42.232  31.387  29.111  1.00  0.00    -0.354 N 
ATOM     56  N   UNL A   1      45.649  29.980  28.650  1.00  0.00    -0.248 NA
ATOM     57  C   UNL A   1      47.040  30.155  26.826  1.00  0.00     0.031 C 
ATOM     58  C   UNL A   1      43.530  31.154  30.850  1.00  0.00     0.029 A 
ATOM     59  C   UNL A   1      43.518  31.596  29.535  1.00  0.00     0.049 A 
ATOM     60  H   UNL A   1      41.901  31.658  28.224  1.00  0.00     0.167 HD
ATOM     61  C   UNL A   1      45.428  31.218  28.106  1.00  0.00     0.074 A 
ATOM     62  C   UNL A   1      46.347  31.293  26.983  1.00  0.00     0.031 C 
ATOM     63  C   UNL A   1      44.455  32.081  28.530  1.00  0.00     0.037 A 
BRANCH  50  64
ATOM     64  C   UNL A   1      38.806  30.398  29.981  1.00  0.00     0.057 A 
ATOM     65  C   UNL A   1      38.015  29.336  30.434  1.00  0.00     0.134 A 
ATOM     66  C   UNL A   1      38.099  31.633  29.884  1.00  0.00     0.134 A 
ATOM     67  F   UNL A   1      38.518  28.098  30.526  1.00  0.00    -0.206 F 
ATOM     68  C   UNL A   1      36.661  29.491  30.789  1.00  0.00     0.040 A 
ATOM     69  C   UNL A   1      36.777  31.817  30.314  1.00  0.00     0.040 A 
ATOM     70  F   UNL A   1      38.617  32.725  29.303  1.00  0.00    -0.206 F 
ATOM     71  C   UNL A   1      36.042  30.735  30.755  1.00  0.00     0.006 A 
ENDBRANCH  50  64
BRANCH  51  72
ATOM     72  C   UNL A   1      47.386  26.940  26.968  1.00  0.00     0.057 A 
ATOM     73  C   UNL A   1      46.794  26.941  25.684  1.00  0.00     0.134 A 
ATOM     74  C   UNL A   1      48.649  26.347  27.063  1.00  0.00     0.134 A 
ATOM     75  F   UNL A   1      45.587  27.501  25.498  1.00  0.00    -0.206 F 
ATOM     76  C   UNL A   1      47.465  26.485  24.544  1.00  0.00     0.040 A 
ATOM     77  C   UNL A   1      49.317  25.851  25.931  1.00  0.00     0.040 A 
ATOM     78  F   UNL A   1      49.325  26.349  28.220  1.00  0.00    -0.206 F 
ATOM     79  C   UNL A   1      48.741  25.953  24.665  1.00  0.00     0.006 A 
ENDBRANCH  51  72
BRANCH  63  80
ATOM     80  C   UNL A   1      44.260  33.426  27.867  1.00  0.00     0.057 A 
ATOM     81  C   UNL A   1      44.377  34.618  28.595  1.00  0.00     0.134 A 
ATOM     82  C   UNL A   1      43.896  33.586  26.512  1.00  0.00     0.134 A 
ATOM     83  F   UNL A   1      44.644  34.598  29.909  1.00  0.00    -0.206 F 
ATOM     84  C   UNL A   1      44.233  35.878  28.002  1.00  0.00     0.040 A 
ATOM     85  C   UNL A   1      43.688  34.836  25.923  1.00  0.00     0.040 A 
ATOM     86  F   UNL A   1      43.767  32.546  25.676  1.00  0.00    -0.206 F 
ATOM     87  C   UNL A   1      43.882  35.991  26.662  1.00  0.00     0.006 A 
ENDBRANCH  63  80
ENDBRANCH  37  38
ENDBRANCH  30  32
ENDBRANCH  29  30
ENDBRANCH  28  29
ENDBRANCH  27  28
ENDBRANCH  26  27
ENDBRANCH  25  26
ENDBRANCH   1  25
TORSDOF 20
ENDMDL
MODEL 3
REMARK VINA RESULT:     -11.7      4.215      9.943
REMARK SMILES Cc1ccccc1[C@@H](Cc1c(Cl)cccc1Cl)C(=O)OCCOCCOCCOC(=O)c1ccc(-c2c3nc(c(-c4c(F)cccc4F)c4ccc([nH]4)c(-c4c(F)cccc4F)c4nc(c(-c5c(F)cccc5F)c5ccc2[nH]5)C=C4)C=C3)cc1
REMARK SMILES IDX 24 1 23 2 22 3 21 4 20 5 18 6 19 7 8 8 7 9 1 10 2 11 3 12
REMARK SMILES IDX 4 13 6 14 5 15 9 16 10 17 11 18 16 19 12 20 13 21 15 22
REMARK SMILES IDX 17 23 14 24 25 25 26 26 27 27 28 28 29 29 30 30 31 31 32 32
REMARK SMILES IDX 33 33 85 34 34 35 84 36 35 37 36 38 37 39 78 40 38 41 83 42
REMARK SMILES IDX 77 43 79 44 39 45 82 46 76 47 75 48 40 50 66 51 49 52 65 53
REMARK SMILES IDX 50 54 53 55 64 56 80 57 51 58 52 59 63 61 81 62 54 63 41 64
REMARK SMILES IDX 42 65 47 66 43 67 44 68 46 69 48 70 45 71 67 72 68 73 73 74
REMARK SMILES IDX 69 75 70 76 72 77 74 78 71 79 55 80 56 81 61 82 57 83 58 84
REMARK SMILES IDX 60 85 62 86 59 87
REMARK H PARENT 79 49 53 60
REMARK Flexibility Score: inf
ROOT
ATOM      1  C   UNL A   1      41.005  20.042  27.175  1.00  0.00     0.188 C 
ENDROOT
BRANCH   1   2
ATOM      2  O   UNL A   1      40.084  21.154  27.110  1.00  0.00    -0.376 OA
BRANCH   2   3
ATOM      3  C   UNL A   1      39.358  21.591  25.948  1.00  0.00     0.202 C 
BRANCH   3   4
ATOM      4  C   UNL A   1      37.903  20.942  25.311  1.00  0.00     0.261 C 
BRANCH   4   5
ATOM      5  O   UNL A   1      36.329  21.611  25.079  1.00  0.00    -0.463 OA
BRANCH   5   6
ATOM      6  C   UNL A   1      35.570  22.763  25.475  1.00  0.00     0.313 C 
ATOM      7  O   UNL A   1      36.008  23.803  25.970  1.00  0.00    -0.252 OA
BRANCH   6   8
ATOM      8  C   UNL A   1      34.091  22.934  25.333  1.00  0.00     0.134 C 
BRANCH   8   9
ATOM      9  C   UNL A   1      33.346  21.685  24.990  1.00  0.00    -0.031 A 
ATOM     10  C   UNL A   1      32.609  22.602  22.687  1.00  0.00     0.044 C 
ATOM     11  C   UNL A   1      32.815  21.495  23.694  1.00  0.00    -0.047 A 
ATOM     12  C   UNL A   1      32.418  20.206  23.327  1.00  0.00     0.004 A 
ATOM     13  C   UNL A   1      32.543  19.137  24.214  1.00  0.00     0.000 A 
ATOM     14  C   UNL A   1      33.365  20.624  25.910  1.00  0.00     0.005 A 
ATOM     15  C   UNL A   1      32.997  19.348  25.510  1.00  0.00     0.000 A 
ENDBRANCH   8   9
BRANCH   8  16
ATOM     16  C   UNL A   1      33.487  23.923  26.430  1.00  0.00     0.058 C 
BRANCH  16  17
ATOM     17  C   UNL A   1      32.290  24.876  26.102  1.00  0.00    -0.010 A 
ATOM     18  C   UNL A   1      32.496  26.241  25.773  1.00  0.00     0.045 A 
ATOM     19  C   UNL A   1      30.936  24.460  26.088  1.00  0.00     0.045 A 
ATOM     20  Cl  UNL A   1      34.038  27.013  25.944  1.00  0.00    -0.084 Cl
ATOM     21  C   UNL A   1      31.449  27.081  25.331  1.00  0.00     0.021 A 
ATOM     22  C   UNL A   1      29.895  25.296  25.626  1.00  0.00     0.021 A 
ATOM     23  Cl  UNL A   1      30.417  22.931  26.702  1.00  0.00    -0.084 Cl
ATOM     24  C   UNL A   1      30.152  26.599  25.223  1.00  0.00     0.003 A 
ENDBRANCH  16  17
ENDBRANCH   8  16
ENDBRANCH   6   8
ENDBRANCH   5   6
ENDBRANCH   4   5
ENDBRANCH   3   4
ENDBRANCH   2   3
ENDBRANCH   1   2
BRANCH   1  25
ATOM     25  C   UNL A   1      41.943  19.614  26.043  1.00  0.00     0.188 C 
BRANCH  25  26
ATOM     26  O   UNL A   1      42.463  20.739  25.366  1.00  0.00    -0.376 OA
BRANCH  26  27
ATOM     27  C   UNL A   1      43.781  21.112  25.740  1.00  0.00     0.202 C 
BRANCH  27  28
ATOM     28  C   UNL A   1      43.847  22.446  26.514  1.00  0.00     0.261 C 
BRANCH  28  29
ATOM     29  O   UNL A   1      42.611  23.186  26.375  1.00  0.00    -0.460 OA
BRANCH  29  30
ATOM     30  C   UNL A   1      42.656  24.380  25.674  1.00  0.00     0.338 C 
ATOM     31  O   UNL A   1      43.515  24.703  24.911  1.00  0.00    -0.246 OA
BRANCH  30  32
ATOM     32  C   UNL A   1      41.606  25.312  26.234  1.00  0.00     0.060 A 
ATOM     33  C   UNL A   1      41.282  26.581  25.727  1.00  0.00     0.016 A 
ATOM     34  C   UNL A   1      41.238  25.081  27.510  1.00  0.00     0.016 A 
ATOM     35  C   UNL A   1      40.826  27.665  26.590  1.00  0.00     0.010 A 
ATOM     36  C   UNL A   1      41.086  26.209  28.306  1.00  0.00     0.010 A 
ATOM     37  C   UNL A   1      40.833  27.569  27.985  1.00  0.00    -0.014 A 
BRANCH  37  38
ATOM     38  C   UNL A   1      40.733  28.857  29.071  1.00  0.00     0.031 A 
ATOM     39  C   UNL A   1      39.602  30.139  29.332  1.00  0.00     0.074 A 
ATOM     40  C   UNL A   1      41.834  29.048  29.834  1.00  0.00     0.049 A 
ATOM     41  N   UNL A   1      39.931  31.307  29.854  1.00  0.00    -0.248 NA
ATOM     42  C   UNL A   1      38.135  30.303  28.933  1.00  0.00     0.031 C 
ATOM     43  C   UNL A   1      41.992  29.930  30.986  1.00  0.00     0.029 A 
ATOM     44  N   UNL A   1      43.129  28.567  29.605  1.00  0.00    -0.354 N 
ATOM     45  C   UNL A   1      38.769  32.060  30.008  1.00  0.00     0.074 A 
ATOM     46  C   UNL A   1      37.812  31.563  29.122  1.00  0.00     0.031 C 
ATOM     47  C   UNL A   1      43.295  30.199  31.140  1.00  0.00     0.029 A 
ATOM     48  C   UNL A   1      43.997  29.585  30.031  1.00  0.00     0.049 A 
ATOM     49  H   UNL A   1      43.379  27.694  29.224  1.00  0.00     0.167 HD
ATOM     50  C   UNL A   1      38.550  32.938  31.015  1.00  0.00     0.037 A 
ATOM     51  C   UNL A   1      44.839  30.185  29.147  1.00  0.00     0.037 A 
ATOM     52  C   UNL A   1      39.813  33.452  31.466  1.00  0.00     0.049 A 
ATOM     53  C   UNL A   1      44.624  31.683  29.046  1.00  0.00     0.074 A 
ATOM     54  C   UNL A   1      40.633  33.302  32.561  1.00  0.00     0.029 A 
ATOM     55  N   UNL A   1      40.588  34.031  30.484  1.00  0.00    -0.354 N 
ATOM     56  N   UNL A   1      43.873  32.394  29.846  1.00  0.00    -0.248 NA
ATOM     57  C   UNL A   1      45.177  32.483  27.953  1.00  0.00     0.031 C 
ATOM     58  C   UNL A   1      41.954  33.700  32.154  1.00  0.00     0.029 A 
ATOM     59  C   UNL A   1      41.906  34.149  30.841  1.00  0.00     0.049 A 
ATOM     60  H   UNL A   1      40.232  34.329  29.615  1.00  0.00     0.167 HD
ATOM     61  C   UNL A   1      43.710  33.648  29.316  1.00  0.00     0.074 A 
ATOM     62  C   UNL A   1      44.574  33.665  28.148  1.00  0.00     0.031 C 
ATOM     63  C   UNL A   1      42.821  34.574  29.791  1.00  0.00     0.037 A 
BRANCH  50  64
ATOM     64  C   UNL A   1      37.151  33.275  31.526  1.00  0.00     0.057 A 
ATOM     65  C   UNL A   1      36.714  32.796  32.766  1.00  0.00     0.134 A 
ATOM     66  C   UNL A   1      36.145  33.981  30.802  1.00  0.00     0.134 A 
ATOM     67  F   UNL A   1      37.524  32.064  33.541  1.00  0.00    -0.206 F 
ATOM     68  C   UNL A   1      35.413  33.024  33.256  1.00  0.00     0.040 A 
ATOM     69  C   UNL A   1      34.876  34.286  31.315  1.00  0.00     0.040 A 
ATOM     70  F   UNL A   1      36.298  34.361  29.526  1.00  0.00    -0.206 F 
ATOM     71  C   UNL A   1      34.497  33.790  32.546  1.00  0.00     0.006 A 
ENDBRANCH  50  64
BRANCH  51  72
ATOM     72  C   UNL A   1      45.308  29.251  28.071  1.00  0.00     0.057 A 
ATOM     73  C   UNL A   1      46.382  28.382  28.371  1.00  0.00     0.134 A 
ATOM     74  C   UNL A   1      44.573  28.950  26.920  1.00  0.00     0.134 A 
ATOM     75  F   UNL A   1      47.134  28.589  29.465  1.00  0.00    -0.206 F 
ATOM     76  C   UNL A   1      46.637  27.219  27.636  1.00  0.00     0.040 A 
ATOM     77  C   UNL A   1      44.845  27.805  26.153  1.00  0.00     0.040 A 
ATOM     78  F   UNL A   1      43.498  29.672  26.581  1.00  0.00    -0.206 F 
ATOM     79  C   UNL A   1      45.854  26.919  26.531  1.00  0.00     0.006 A 
ENDBRANCH  51  72
BRANCH  63  80
ATOM     80  C   UNL A   1      42.686  35.932  29.141  1.00  0.00     0.057 A 
ATOM     81  C   UNL A   1      43.310  37.063  29.686  1.00  0.00     0.134 A 
ATOM     82  C   UNL A   1      41.895  36.179  27.998  1.00  0.00     0.134 A 
ATOM     83  F   UNL A   1      44.028  36.974  30.816  1.00  0.00    -0.206 F 
ATOM     84  C   UNL A   1      43.229  38.327  29.090  1.00  0.00     0.040 A 
ATOM     85  C   UNL A   1      41.755  37.447  27.429  1.00  0.00     0.040 A 
ATOM     86  F   UNL A   1      41.253  35.200  27.345  1.00  0.00    -0.206 F 
ATOM     87  C   UNL A   1      42.445  38.525  27.960  1.00  0.00     0.006 A 
ENDBRANCH  63  80
ENDBRANCH  37  38
ENDBRANCH  30  32
ENDBRANCH  29  30
ENDBRANCH  28  29
ENDBRANCH  27  28
ENDBRANCH  26  27
ENDBRANCH  25  26
ENDBRANCH   1  25
TORSDOF 20
ENDMDL
