MODEL 1
REMARK VINA RESULT:     -10.7      0.000      0.000
REMARK SMILES O=C(Cc1ccccc1Nc1c(F)cccc1C(F)(F)F)OCCOCCOCCOC(=O)c1ccc(-c2c3nc(c(-c4c(F)cccc4F)c4ccc([nH]4)c(-c4c(F)cccc4F)c4nc(c(-c5c(F)cccc5F)c5ccc2[nH]5)C=C4)C=C3)cc1
REMARK SMILES IDX 26 1 25 2 24 3 23 4 22 5 2 6 1 7 3 8 4 9 5 10 9 11 6 12 8 13
REMARK SMILES IDX 7 14 10 15 11 17 12 18 17 19 13 20 14 21 16 22 15 23 18 24
REMARK SMILES IDX 19 25 20 26 21 27 27 28 28 29 29 30 30 31 31 32 32 33 33 34
REMARK SMILES IDX 34 35 35 36 87 37 36 38 86 39 37 40 38 41 39 42 80 43 40 44
REMARK SMILES IDX 85 45 79 46 81 47 41 48 84 49 78 50 77 51 42 53 68 54 51 55
REMARK SMILES IDX 67 56 52 57 55 58 66 59 82 60 53 61 54 62 65 64 83 65 56 66
REMARK SMILES IDX 43 67 44 68 49 69 45 70 46 71 48 72 50 73 47 74 69 75 70 76
REMARK SMILES IDX 75 77 71 78 72 79 74 80 76 81 73 82 57 83 58 84 63 85 59 86
REMARK SMILES IDX 60 87 62 88 64 89 61 90
REMARK H PARENT 10 16 81 52 55 63
REMARK Flexibility Score: inf
ROOT
ATOM      1  C   UNL A   1      40.374  21.899  27.234  1.00  0.00     0.188 C 
ENDROOT
BRANCH   1   2
ATOM      2  O   UNL A   1      39.422  22.790  26.675  1.00  0.00    -0.376 OA
BRANCH   2   3
ATOM      3  C   UNL A   1      38.383  22.253  25.864  1.00  0.00     0.202 C 
BRANCH   3   4
ATOM      4  C   UNL A   1      37.109  23.077  25.650  1.00  0.00     0.261 C 
BRANCH   4   5
ATOM      5  O   UNL A   1      36.063  22.575  24.794  1.00  0.00    -0.463 OA
BRANCH   5   6
ATOM      6  C   UNL A   1      35.736  22.939  23.538  1.00  0.00     0.310 C 
ATOM      7  O   UNL A   1      36.624  23.007  22.686  1.00  0.00    -0.252 OA
BRANCH   6   8
ATOM      8  C   UNL A   1      34.346  23.429  23.236  1.00  0.00     0.160 C 
BRANCH   8   9
ATOM      9  C   UNL A   1      33.424  23.423  24.427  1.00  0.00    -0.013 A 
ATOM     10  C   UNL A   1      32.822  22.211  24.798  1.00  0.00     0.006 A 
ATOM     11  C   UNL A   1      33.170  24.595  25.171  1.00  0.00     0.042 A 
ATOM     12  C   UNL A   1      31.941  22.165  25.873  1.00  0.00     0.000 A 
ATOM     13  C   UNL A   1      32.278  24.530  26.245  1.00  0.00     0.026 A 
ATOM     14  C   UNL A   1      31.670  23.323  26.596  1.00  0.00     0.002 A 
BRANCH  11  15
ATOM     15  N   UNL A   1      33.614  25.845  24.696  1.00  0.00    -0.352 N 
ATOM     16  H   UNL A   1      34.520  25.825  24.311  1.00  0.00     0.167 HD
BRANCH  15  17
ATOM     17  C   UNL A   1      33.010  27.125  24.665  1.00  0.00     0.087 A 
ATOM     18  C   UNL A   1      33.421  28.036  25.666  1.00  0.00     0.147 A 
ATOM     19  C   UNL A   1      31.963  27.519  23.814  1.00  0.00     0.082 A 
ATOM     20  F   UNL A   1      34.364  27.650  26.542  1.00  0.00    -0.205 F 
ATOM     21  C   UNL A   1      32.873  29.306  25.807  1.00  0.00     0.041 A 
ATOM     22  C   UNL A   1      31.430  28.826  23.950  1.00  0.00     0.015 A 
ATOM     23  C   UNL A   1      31.877  29.709  24.933  1.00  0.00     0.004 A 
BRANCH  19  24
ATOM     24  C   UNL A   1      31.312  26.602  22.805  1.00  0.00     0.418 C 
ATOM     25  F   UNL A   1      30.443  27.273  21.985  1.00  0.00    -0.166 F 
ATOM     26  F   UNL A   1      32.204  26.013  21.967  1.00  0.00    -0.166 F 
ATOM     27  F   UNL A   1      30.562  25.616  23.358  1.00  0.00    -0.166 F 
ENDBRANCH  19  24
ENDBRANCH  15  17
ENDBRANCH  11  15
ENDBRANCH   8   9
ENDBRANCH   6   8
ENDBRANCH   5   6
ENDBRANCH   4   5
ENDBRANCH   3   4
ENDBRANCH   2   3
ENDBRANCH   1   2
BRANCH   1  28
ATOM     28  C   UNL A   1      41.118  20.964  26.279  1.00  0.00     0.188 C 
BRANCH  28  29
ATOM     29  O   UNL A   1      42.084  21.633  25.482  1.00  0.00    -0.376 OA
BRANCH  29  30
ATOM     30  C   UNL A   1      43.416  21.151  25.637  1.00  0.00     0.202 C 
BRANCH  30  31
ATOM     31  C   UNL A   1      44.558  22.096  25.213  1.00  0.00     0.261 C 
BRANCH  31  32
ATOM     32  O   UNL A   1      44.877  23.178  26.106  1.00  0.00    -0.460 OA
BRANCH  32  33
ATOM     33  C   UNL A   1      44.934  24.415  25.583  1.00  0.00     0.338 C 
ATOM     34  O   UNL A   1      45.602  24.773  24.619  1.00  0.00    -0.246 OA
BRANCH  33  35
ATOM     35  C   UNL A   1      43.954  25.284  26.270  1.00  0.00     0.060 A 
ATOM     36  C   UNL A   1      44.304  26.615  26.527  1.00  0.00     0.016 A 
ATOM     37  C   UNL A   1      42.736  24.775  26.732  1.00  0.00     0.016 A 
ATOM     38  C   UNL A   1      43.461  27.427  27.286  1.00  0.00     0.010 A 
ATOM     39  C   UNL A   1      41.906  25.581  27.524  1.00  0.00     0.010 A 
ATOM     40  C   UNL A   1      42.293  26.894  27.848  1.00  0.00    -0.014 A 
BRANCH  40  41
ATOM     41  C   UNL A   1      41.674  27.614  28.992  1.00  0.00     0.031 A 
ATOM     42  C   UNL A   1      42.349  27.498  30.335  1.00  0.00     0.074 A 
ATOM     43  C   UNL A   1      40.605  28.417  28.847  1.00  0.00     0.049 A 
ATOM     44  N   UNL A   1      42.064  28.086  31.469  1.00  0.00    -0.248 NA
ATOM     45  C   UNL A   1      43.512  26.597  30.404  1.00  0.00     0.031 C 
ATOM     46  C   UNL A   1      39.884  28.654  27.600  1.00  0.00     0.029 A 
ATOM     47  N   UNL A   1      39.950  29.195  29.771  1.00  0.00    -0.354 N 
ATOM     48  C   UNL A   1      43.013  27.632  32.378  1.00  0.00     0.074 A 
ATOM     49  C   UNL A   1      43.857  26.691  31.678  1.00  0.00     0.031 C 
ATOM     50  C   UNL A   1      38.883  29.523  27.835  1.00  0.00     0.029 A 
ATOM     51  C   UNL A   1      38.887  29.892  29.251  1.00  0.00     0.049 A 
ATOM     52  H   UNL A   1      40.219  29.249  30.716  1.00  0.00     0.167 HD
ATOM     53  C   UNL A   1      43.178  27.974  33.677  1.00  0.00     0.037 A 
ATOM     54  C   UNL A   1      38.019  30.730  29.853  1.00  0.00     0.037 A 
ATOM     55  C   UNL A   1      42.340  28.904  34.382  1.00  0.00     0.049 A 
ATOM     56  C   UNL A   1      38.184  31.047  31.319  1.00  0.00     0.074 A 
ATOM     57  C   UNL A   1      42.430  29.322  35.698  1.00  0.00     0.029 A 
ATOM     58  N   UNL A   1      41.248  29.556  33.829  1.00  0.00    -0.354 N 
ATOM     59  N   UNL A   1      39.105  30.639  32.159  1.00  0.00    -0.248 NA
ATOM     60  C   UNL A   1      37.191  31.955  31.916  1.00  0.00     0.031 C 
ATOM     61  C   UNL A   1      41.365  30.190  35.955  1.00  0.00     0.029 A 
ATOM     62  C   UNL A   1      40.644  30.356  34.783  1.00  0.00     0.049 A 
ATOM     63  H   UNL A   1      40.948  29.463  32.896  1.00  0.00     0.167 HD
ATOM     64  C   UNL A   1      38.830  31.272  33.366  1.00  0.00     0.074 A 
ATOM     65  C   UNL A   1      37.658  32.094  33.149  1.00  0.00     0.031 C 
ATOM     66  C   UNL A   1      39.490  31.185  34.548  1.00  0.00     0.037 A 
BRANCH  53  67
ATOM     67  C   UNL A   1      44.297  27.309  34.423  1.00  0.00     0.057 A 
ATOM     68  C   UNL A   1      44.117  26.097  35.103  1.00  0.00     0.134 A 
ATOM     69  C   UNL A   1      45.571  27.886  34.457  1.00  0.00     0.134 A 
ATOM     70  F   UNL A   1      42.915  25.501  35.127  1.00  0.00    -0.206 F 
ATOM     71  C   UNL A   1      45.160  25.496  35.810  1.00  0.00     0.040 A 
ATOM     72  C   UNL A   1      46.629  27.282  35.138  1.00  0.00     0.040 A 
ATOM     73  F   UNL A   1      45.810  29.046  33.827  1.00  0.00    -0.206 F 
ATOM     74  C   UNL A   1      46.423  26.086  35.823  1.00  0.00     0.006 A 
ENDBRANCH  53  67
BRANCH  54  75
ATOM     75  C   UNL A   1      36.911  31.347  29.077  1.00  0.00     0.057 A 
ATOM     76  C   UNL A   1      36.967  32.685  28.665  1.00  0.00     0.134 A 
ATOM     77  C   UNL A   1      35.749  30.629  28.773  1.00  0.00     0.134 A 
ATOM     78  F   UNL A   1      38.041  33.435  28.953  1.00  0.00    -0.206 F 
ATOM     79  C   UNL A   1      35.902  33.291  27.996  1.00  0.00     0.040 A 
ATOM     80  C   UNL A   1      34.686  31.215  28.082  1.00  0.00     0.040 A 
ATOM     81  F   UNL A   1      35.629  29.346  29.144  1.00  0.00    -0.206 F 
ATOM     82  C   UNL A   1      34.758  32.552  27.700  1.00  0.00     0.006 A 
ENDBRANCH  54  75
BRANCH  66  83
ATOM     83  C   UNL A   1      39.002  32.045  35.680  1.00  0.00     0.057 A 
ATOM     84  C   UNL A   1      38.180  31.546  36.697  1.00  0.00     0.134 A 
ATOM     85  C   UNL A   1      39.394  33.388  35.767  1.00  0.00     0.134 A 
ATOM     86  F   UNL A   1      37.763  30.271  36.670  1.00  0.00    -0.206 F 
ATOM     87  C   UNL A   1      37.739  32.359  37.744  1.00  0.00     0.040 A 
ATOM     88  C   UNL A   1      38.983  34.203  36.824  1.00  0.00     0.040 A 
ATOM     89  F   UNL A   1      40.192  33.928  34.833  1.00  0.00    -0.206 F 
ATOM     90  C   UNL A   1      38.146  33.689  37.811  1.00  0.00     0.006 A 
ENDBRANCH  66  83
ENDBRANCH  40  41
ENDBRANCH  33  35
ENDBRANCH  32  33
ENDBRANCH  31  32
ENDBRANCH  30  31
ENDBRANCH  29  30
ENDBRANCH  28  29
ENDBRANCH   1  28
TORSDOF 21
ENDMDL
MODEL 2
REMARK VINA RESULT:     -10.6      4.601      9.809
REMARK SMILES O=C(Cc1ccccc1Nc1c(F)cccc1C(F)(F)F)OCCOCCOCCOC(=O)c1ccc(-c2c3nc(c(-c4c(F)cccc4F)c4ccc([nH]4)c(-c4c(F)cccc4F)c4nc(c(-c5c(F)cccc5F)c5ccc2[nH]5)C=C4)C=C3)cc1
REMARK SMILES IDX 26 1 25 2 24 3 23 4 22 5 2 6 1 7 3 8 4 9 5 10 9 11 6 12 8 13
REMARK SMILES IDX 7 14 10 15 11 17 12 18 17 19 13 20 14 21 16 22 15 23 18 24
REMARK SMILES IDX 19 25 20 26 21 27 27 28 28 29 29 30 30 31 31 32 32 33 33 34
REMARK SMILES IDX 34 35 35 36 87 37 36 38 86 39 37 40 38 41 39 42 80 43 40 44
REMARK SMILES IDX 85 45 79 46 81 47 41 48 84 49 78 50 77 51 42 53 68 54 51 55
REMARK SMILES IDX 67 56 52 57 55 58 66 59 82 60 53 61 54 62 65 64 83 65 56 66
REMARK SMILES IDX 43 67 44 68 49 69 45 70 46 71 48 72 50 73 47 74 69 75 70 76
REMARK SMILES IDX 75 77 71 78 72 79 74 80 76 81 73 82 57 83 58 84 63 85 59 86
REMARK SMILES IDX 60 87 62 88 64 89 61 90
REMARK H PARENT 10 16 81 52 55 63
REMARK Flexibility Score: inf
ROOT
ATOM      1  C   UNL A   1      34.968  33.976  28.070  1.00  0.00     0.188 C 
ENDROOT
BRANCH   1   2
ATOM      2  O   UNL A   1      35.276  32.672  27.605  1.00  0.00    -0.376 OA
BRANCH   2   3
ATOM      3  C   UNL A   1      34.502  31.578  28.084  1.00  0.00     0.202 C 
BRANCH   3   4
ATOM      4  C   UNL A   1      33.558  30.857  27.116  1.00  0.00     0.261 C 
BRANCH   4   5
ATOM      5  O   UNL A   1      33.801  29.479  26.766  1.00  0.00    -0.463 OA
BRANCH   5   6
ATOM      6  C   UNL A   1      32.940  28.443  26.719  1.00  0.00     0.310 C 
ATOM      7  O   UNL A   1      31.787  28.606  27.123  1.00  0.00    -0.252 OA
BRANCH   6   8
ATOM      8  C   UNL A   1      33.436  27.071  26.353  1.00  0.00     0.160 C 
BRANCH   8   9
ATOM      9  C   UNL A   1      33.412  26.786  24.874  1.00  0.00    -0.013 A 
ATOM     10  C   UNL A   1      32.916  27.777  24.012  1.00  0.00     0.006 A 
ATOM     11  C   UNL A   1      33.886  25.566  24.349  1.00  0.00     0.042 A 
ATOM     12  C   UNL A   1      32.848  27.547  22.643  1.00  0.00     0.000 A 
ATOM     13  C   UNL A   1      33.805  25.351  22.970  1.00  0.00     0.026 A 
ATOM     14  C   UNL A   1      33.294  26.335  22.123  1.00  0.00     0.002 A 
BRANCH  11  15
ATOM     15  N   UNL A   1      34.205  24.499  25.213  1.00  0.00    -0.352 N 
ATOM     16  H   UNL A   1      34.562  24.787  26.084  1.00  0.00     0.167 HD
BRANCH  15  17
ATOM     17  C   UNL A   1      34.112  23.094  25.071  1.00  0.00     0.087 A 
ATOM     18  C   UNL A   1      32.915  22.497  25.529  1.00  0.00     0.147 A 
ATOM     19  C   UNL A   1      35.142  22.242  24.635  1.00  0.00     0.082 A 
ATOM     20  F   UNL A   1      31.949  23.287  26.026  1.00  0.00    -0.205 F 
ATOM     21  C   UNL A   1      32.700  21.124  25.519  1.00  0.00     0.041 A 
ATOM     22  C   UNL A   1      34.902  20.845  24.605  1.00  0.00     0.015 A 
ATOM     23  C   UNL A   1      33.698  20.291  25.041  1.00  0.00     0.004 A 
BRANCH  19  24
ATOM     24  C   UNL A   1      36.527  22.720  24.267  1.00  0.00     0.418 C 
ATOM     25  F   UNL A   1      37.422  21.686  24.179  1.00  0.00    -0.166 F 
ATOM     26  F   UNL A   1      36.575  23.332  23.055  1.00  0.00    -0.166 F 
ATOM     27  F   UNL A   1      37.077  23.568  25.172  1.00  0.00    -0.166 F 
ENDBRANCH  19  24
ENDBRANCH  15  17
ENDBRANCH  11  15
ENDBRANCH   8   9
ENDBRANCH   6   8
ENDBRANCH   5   6
ENDBRANCH   4   5
ENDBRANCH   3   4
ENDBRANCH   2   3
ENDBRANCH   1   2
BRANCH   1  28
ATOM     28  C   UNL A   1      34.158  34.095  29.363  1.00  0.00     0.188 C 
BRANCH  28  29
ATOM     29  O   UNL A   1      34.944  33.914  30.532  1.00  0.00    -0.376 OA
BRANCH  29  30
ATOM     30  C   UNL A   1      34.386  34.481  31.715  1.00  0.00     0.202 C 
BRANCH  30  31
ATOM     31  C   UNL A   1      34.458  33.634  33.000  1.00  0.00     0.261 C 
BRANCH  31  32
ATOM     32  O   UNL A   1      35.058  32.330  32.893  1.00  0.00    -0.460 OA
BRANCH  32  33
ATOM     33  C   UNL A   1      36.291  32.172  33.404  1.00  0.00     0.338 C 
ATOM     34  O   UNL A   1      36.699  32.600  34.478  1.00  0.00    -0.246 OA
BRANCH  33  35
ATOM     35  C   UNL A   1      37.073  31.274  32.528  1.00  0.00     0.060 A 
ATOM     36  C   UNL A   1      38.107  30.520  33.095  1.00  0.00     0.016 A 
ATOM     37  C   UNL A   1      36.849  31.234  31.148  1.00  0.00     0.016 A 
ATOM     38  C   UNL A   1      38.951  29.763  32.282  1.00  0.00     0.010 A 
ATOM     39  C   UNL A   1      37.717  30.500  30.328  1.00  0.00     0.010 A 
ATOM     40  C   UNL A   1      38.804  29.804  30.888  1.00  0.00    -0.014 A 
BRANCH  40  41
ATOM     41  C   UNL A   1      39.956  29.380  30.050  1.00  0.00     0.031 A 
ATOM     42  C   UNL A   1      41.056  30.385  29.816  1.00  0.00     0.074 A 
ATOM     43  C   UNL A   1      40.083  28.127  29.578  1.00  0.00     0.049 A 
ATOM     44  N   UNL A   1      42.199  30.245  29.196  1.00  0.00    -0.248 NA
ATOM     45  C   UNL A   1      40.834  31.732  30.366  1.00  0.00     0.031 C 
ATOM     46  C   UNL A   1      39.118  27.047  29.767  1.00  0.00     0.029 A 
ATOM     47  N   UNL A   1      41.096  27.553  28.849  1.00  0.00    -0.354 N 
ATOM     48  C   UNL A   1      42.831  31.479  29.287  1.00  0.00     0.074 A 
ATOM     49  C   UNL A   1      41.931  32.367  29.988  1.00  0.00     0.031 C 
ATOM     50  C   UNL A   1      39.587  25.936  29.168  1.00  0.00     0.029 A 
ATOM     51  C   UNL A   1      40.878  26.231  28.545  1.00  0.00     0.049 A 
ATOM     52  H   UNL A   1      41.903  28.043  28.572  1.00  0.00     0.167 HD
ATOM     53  C   UNL A   1      44.056  31.843  28.841  1.00  0.00     0.037 A 
ATOM     54  C   UNL A   1      41.634  25.364  27.843  1.00  0.00     0.037 A 
ATOM     55  C   UNL A   1      44.954  30.968  28.140  1.00  0.00     0.049 A 
ATOM     56  C   UNL A   1      42.970  25.812  27.299  1.00  0.00     0.074 A 
ATOM     57  C   UNL A   1      46.221  31.242  27.653  1.00  0.00     0.029 A 
ATOM     58  N   UNL A   1      44.676  29.649  27.816  1.00  0.00    -0.354 N 
ATOM     59  N   UNL A   1      43.572  26.970  27.423  1.00  0.00    -0.248 NA
ATOM     60  C   UNL A   1      43.736  24.820  26.528  1.00  0.00     0.031 C 
ATOM     61  C   UNL A   1      46.690  30.102  26.993  1.00  0.00     0.029 A 
ATOM     62  C   UNL A   1      45.739  29.102  27.117  1.00  0.00     0.049 A 
ATOM     63  H   UNL A   1      43.847  29.174  28.048  1.00  0.00     0.167 HD
ATOM     64  C   UNL A   1      44.800  26.833  26.786  1.00  0.00     0.074 A 
ATOM     65  C   UNL A   1      44.860  25.478  26.281  1.00  0.00     0.031 C 
ATOM     66  C   UNL A   1      45.793  27.745  26.637  1.00  0.00     0.037 A 
BRANCH  53  67
ATOM     67  C   UNL A   1      44.477  33.264  29.079  1.00  0.00     0.057 A 
ATOM     68  C   UNL A   1      44.224  34.278  28.146  1.00  0.00     0.134 A 
ATOM     69  C   UNL A   1      45.139  33.621  30.259  1.00  0.00     0.134 A 
ATOM     70  F   UNL A   1      43.612  33.998  26.985  1.00  0.00    -0.206 F 
ATOM     71  C   UNL A   1      44.637  35.593  28.368  1.00  0.00     0.040 A 
ATOM     72  C   UNL A   1      45.533  34.937  30.505  1.00  0.00     0.040 A 
ATOM     73  F   UNL A   1      45.412  32.698  31.193  1.00  0.00    -0.206 F 
ATOM     74  C   UNL A   1      45.288  35.927  29.554  1.00  0.00     0.006 A 
ENDBRANCH  53  67
BRANCH  54  75
ATOM     75  C   UNL A   1      41.164  23.973  27.613  1.00  0.00     0.057 A 
ATOM     76  C   UNL A   1      41.719  22.892  28.311  1.00  0.00     0.134 A 
ATOM     77  C   UNL A   1      40.185  23.686  26.656  1.00  0.00     0.134 A 
ATOM     78  F   UNL A   1      42.683  23.099  29.220  1.00  0.00    -0.206 F 
ATOM     79  C   UNL A   1      41.331  21.576  28.051  1.00  0.00     0.040 A 
ATOM     80  C   UNL A   1      39.769  22.377  26.403  1.00  0.00     0.040 A 
ATOM     81  F   UNL A   1      39.618  24.675  25.948  1.00  0.00    -0.206 F 
ATOM     82  C   UNL A   1      40.350  21.317  27.096  1.00  0.00     0.006 A 
ENDBRANCH  54  75
BRANCH  66  83
ATOM     83  C   UNL A   1      47.054  27.293  25.954  1.00  0.00     0.057 A 
ATOM     84  C   UNL A   1      48.085  26.647  26.644  1.00  0.00     0.134 A 
ATOM     85  C   UNL A   1      47.216  27.480  24.575  1.00  0.00     0.134 A 
ATOM     86  F   UNL A   1      47.996  26.443  27.967  1.00  0.00    -0.206 F 
ATOM     87  C   UNL A   1      49.249  26.230  25.993  1.00  0.00     0.040 A 
ATOM     88  C   UNL A   1      48.362  27.042  23.908  1.00  0.00     0.040 A 
ATOM     89  F   UNL A   1      46.261  28.081  23.850  1.00  0.00    -0.206 F 
ATOM     90  C   UNL A   1      49.386  26.423  24.620  1.00  0.00     0.006 A 
ENDBRANCH  66  83
ENDBRANCH  40  41
ENDBRANCH  33  35
ENDBRANCH  32  33
ENDBRANCH  31  32
ENDBRANCH  30  31
ENDBRANCH  29  30
ENDBRANCH  28  29
ENDBRANCH   1  28
TORSDOF 21
ENDMDL
MODEL 3
REMARK VINA RESULT:     -10.5      4.629      9.592
REMARK SMILES O=C(Cc1ccccc1Nc1c(F)cccc1C(F)(F)F)OCCOCCOCCOC(=O)c1ccc(-c2c3nc(c(-c4c(F)cccc4F)c4ccc([nH]4)c(-c4c(F)cccc4F)c4nc(c(-c5c(F)cccc5F)c5ccc2[nH]5)C=C4)C=C3)cc1
REMARK SMILES IDX 26 1 25 2 24 3 23 4 22 5 2 6 1 7 3 8 4 9 5 10 9 11 6 12 8 13
REMARK SMILES IDX 7 14 10 15 11 17 12 18 17 19 13 20 14 21 16 22 15 23 18 24
REMARK SMILES IDX 19 25 20 26 21 27 27 28 28 29 29 30 30 31 31 32 32 33 33 34
REMARK SMILES IDX 34 35 35 36 87 37 36 38 86 39 37 40 38 41 39 42 80 43 40 44
REMARK SMILES IDX 85 45 79 46 81 47 41 48 84 49 78 50 77 51 42 53 68 54 51 55
REMARK SMILES IDX 67 56 52 57 55 58 66 59 82 60 53 61 54 62 65 64 83 65 56 66
REMARK SMILES IDX 43 67 44 68 49 69 45 70 46 71 48 72 50 73 47 74 69 75 70 76
REMARK SMILES IDX 75 77 71 78 72 79 74 80 76 81 73 82 57 83 58 84 63 85 59 86
REMARK SMILES IDX 60 87 62 88 64 89 61 90
REMARK H PARENT 10 16 81 52 55 63
REMARK Flexibility Score: inf
ROOT
ATOM      1  C   UNL A   1      35.623  33.631  28.905  1.00  0.00     0.188 C 
ENDROOT
BRANCH   1   2
ATOM      2  O   UNL A   1      34.934  33.086  27.792  1.00  0.00    -0.376 OA
BRANCH   2   3
ATOM      3  C   UNL A   1      34.698  31.682  27.758  1.00  0.00     0.202 C 
BRANCH   3   4
ATOM      4  C   UNL A   1      33.323  31.172  27.316  1.00  0.00     0.261 C 
BRANCH   4   5
ATOM      5  O   UNL A   1      33.213  29.920  26.610  1.00  0.00    -0.463 OA
BRANCH   5   6
ATOM      6  C   UNL A   1      32.533  29.629  25.483  1.00  0.00     0.310 C 
ATOM      7  O   UNL A   1      31.322  29.853  25.441  1.00  0.00    -0.252 OA
BRANCH   6   8
ATOM      8  C   UNL A   1      33.211  28.875  24.371  1.00  0.00     0.160 C 
BRANCH   8   9
ATOM      9  C   UNL A   1      33.119  27.377  24.503  1.00  0.00    -0.013 A 
ATOM     10  C   UNL A   1      33.966  26.736  25.421  1.00  0.00     0.006 A 
ATOM     11  C   UNL A   1      32.201  26.623  23.742  1.00  0.00     0.042 A 
ATOM     12  C   UNL A   1      33.936  25.353  25.555  1.00  0.00     0.000 A 
ATOM     13  C   UNL A   1      32.190  25.233  23.887  1.00  0.00     0.026 A 
ATOM     14  C   UNL A   1      33.048  24.602  24.790  1.00  0.00     0.002 A 
BRANCH  11  15
ATOM     15  N   UNL A   1      31.487  27.229  22.690  1.00  0.00    -0.352 N 
ATOM     16  H   UNL A   1      31.860  27.041  21.797  1.00  0.00     0.167 HD
BRANCH  15  17
ATOM     17  C   UNL A   1      30.338  28.055  22.665  1.00  0.00     0.087 A 
ATOM     18  C   UNL A   1      30.506  29.345  22.111  1.00  0.00     0.147 A 
ATOM     19  C   UNL A   1      29.096  27.751  23.248  1.00  0.00     0.082 A 
ATOM     20  F   UNL A   1      31.710  29.686  21.622  1.00  0.00    -0.205 F 
ATOM     21  C   UNL A   1      29.490  30.294  22.076  1.00  0.00     0.041 A 
ATOM     22  C   UNL A   1      28.059  28.716  23.183  1.00  0.00     0.015 A 
ATOM     23  C   UNL A   1      28.252  29.972  22.605  1.00  0.00     0.004 A 
BRANCH  19  24
ATOM     24  C   UNL A   1      28.816  26.479  24.014  1.00  0.00     0.418 C 
ATOM     25  F   UNL A   1      29.145  25.361  23.294  1.00  0.00    -0.166 F 
ATOM     26  F   UNL A   1      29.533  26.382  25.164  1.00  0.00    -0.166 F 
ATOM     27  F   UNL A   1      27.510  26.304  24.335  1.00  0.00    -0.166 F 
ENDBRANCH  19  24
ENDBRANCH  15  17
ENDBRANCH  11  15
ENDBRANCH   8   9
ENDBRANCH   6   8
ENDBRANCH   5   6
ENDBRANCH   4   5
ENDBRANCH   3   4
ENDBRANCH   2   3
ENDBRANCH   1   2
BRANCH   1  28
ATOM     28  C   UNL A   1      34.885  34.661  29.762  1.00  0.00     0.188 C 
BRANCH  28  29
ATOM     29  O   UNL A   1      33.889  34.084  30.594  1.00  0.00    -0.376 OA
BRANCH  29  30
ATOM     30  C   UNL A   1      33.819  34.637  31.905  1.00  0.00     0.202 C 
BRANCH  30  31
ATOM     31  C   UNL A   1      34.388  33.785  33.057  1.00  0.00     0.261 C 
BRANCH  31  32
ATOM     32  O   UNL A   1      35.070  32.570  32.698  1.00  0.00    -0.460 OA
BRANCH  32  33
ATOM     33  C   UNL A   1      36.221  32.295  33.335  1.00  0.00     0.338 C 
ATOM     34  O   UNL A   1      36.536  32.651  34.465  1.00  0.00    -0.246 OA
BRANCH  33  35
ATOM     35  C   UNL A   1      37.027  31.367  32.513  1.00  0.00     0.060 A 
ATOM     36  C   UNL A   1      38.131  30.739  33.101  1.00  0.00     0.016 A 
ATOM     37  C   UNL A   1      36.752  31.180  31.154  1.00  0.00     0.016 A 
ATOM     38  C   UNL A   1      38.991  29.961  32.325  1.00  0.00     0.010 A 
ATOM     39  C   UNL A   1      37.636  30.427  30.368  1.00  0.00     0.010 A 
ATOM     40  C   UNL A   1      38.787  29.858  30.941  1.00  0.00    -0.014 A 
BRANCH  40  41
ATOM     41  C   UNL A   1      39.931  29.428  30.095  1.00  0.00     0.031 A 
ATOM     42  C   UNL A   1      41.043  30.422  29.869  1.00  0.00     0.074 A 
ATOM     43  C   UNL A   1      40.041  28.179  29.610  1.00  0.00     0.049 A 
ATOM     44  N   UNL A   1      42.183  30.274  29.244  1.00  0.00    -0.248 NA
ATOM     45  C   UNL A   1      40.840  31.766  30.434  1.00  0.00     0.031 C 
ATOM     46  C   UNL A   1      39.063  27.109  29.790  1.00  0.00     0.029 A 
ATOM     47  N   UNL A   1      41.045  27.600  28.872  1.00  0.00    -0.354 N 
ATOM     48  C   UNL A   1      42.831  31.499  29.347  1.00  0.00     0.074 A 
ATOM     49  C   UNL A   1      41.944  32.391  30.059  1.00  0.00     0.031 C 
ATOM     50  C   UNL A   1      39.517  25.999  29.178  1.00  0.00     0.029 A 
ATOM     51  C   UNL A   1      40.809  26.285  28.554  1.00  0.00     0.049 A 
ATOM     52  H   UNL A   1      41.858  28.083  28.598  1.00  0.00     0.167 HD
ATOM     53  C   UNL A   1      44.059  31.852  28.902  1.00  0.00     0.037 A 
ATOM     54  C   UNL A   1      41.553  25.416  27.840  1.00  0.00     0.037 A 
ATOM     55  C   UNL A   1      44.944  30.974  28.188  1.00  0.00     0.049 A 
ATOM     56  C   UNL A   1      42.892  25.852  27.298  1.00  0.00     0.074 A 
ATOM     57  C   UNL A   1      46.213  31.236  27.701  1.00  0.00     0.029 A 
ATOM     58  N   UNL A   1      44.649  29.662  27.851  1.00  0.00    -0.354 N 
ATOM     59  N   UNL A   1      43.509  27.001  27.432  1.00  0.00    -0.248 NA
ATOM     60  C   UNL A   1      43.644  24.859  26.514  1.00  0.00     0.031 C 
ATOM     61  C   UNL A   1      46.666  30.098  27.027  1.00  0.00     0.029 A 
ATOM     62  C   UNL A   1      45.703  29.109  27.143  1.00  0.00     0.049 A 
ATOM     63  H   UNL A   1      43.814  29.195  28.080  1.00  0.00     0.167 HD
ATOM     64  C   UNL A   1      44.734  26.855  26.791  1.00  0.00     0.074 A 
ATOM     65  C   UNL A   1      44.775  25.505  26.271  1.00  0.00     0.031 C 
ATOM     66  C   UNL A   1      45.738  27.757  26.649  1.00  0.00     0.037 A 
BRANCH  53  67
ATOM     67  C   UNL A   1      44.499  33.265  29.153  1.00  0.00     0.057 A 
ATOM     68  C   UNL A   1      44.304  34.282  28.208  1.00  0.00     0.134 A 
ATOM     69  C   UNL A   1      45.121  33.612  30.358  1.00  0.00     0.134 A 
ATOM     70  F   UNL A   1      43.733  34.011  27.025  1.00  0.00    -0.206 F 
ATOM     71  C   UNL A   1      44.734  35.588  28.445  1.00  0.00     0.040 A 
ATOM     72  C   UNL A   1      45.531  34.921  30.617  1.00  0.00     0.040 A 
ATOM     73  F   UNL A   1      45.337  32.687  31.304  1.00  0.00    -0.206 F 
ATOM     74  C   UNL A   1      45.344  35.912  29.655  1.00  0.00     0.006 A 
ENDBRANCH  53  67
BRANCH  54  75
ATOM     75  C   UNL A   1      41.065  24.033  27.597  1.00  0.00     0.057 A 
ATOM     76  C   UNL A   1      41.618  22.936  28.270  1.00  0.00     0.134 A 
ATOM     77  C   UNL A   1      40.067  23.771  26.651  1.00  0.00     0.134 A 
ATOM     78  F   UNL A   1      42.599  23.119  29.167  1.00  0.00    -0.206 F 
ATOM     79  C   UNL A   1      41.212  21.628  27.996  1.00  0.00     0.040 A 
ATOM     80  C   UNL A   1      39.634  22.470  26.386  1.00  0.00     0.040 A 
ATOM     81  F   UNL A   1      39.500  24.776  25.968  1.00  0.00    -0.206 F 
ATOM     82  C   UNL A   1      40.214  21.394  27.054  1.00  0.00     0.006 A 
ENDBRANCH  54  75
BRANCH  66  83
ATOM     83  C   UNL A   1      46.991  27.296  25.958  1.00  0.00     0.057 A 
ATOM     84  C   UNL A   1      48.031  26.659  26.644  1.00  0.00     0.134 A 
ATOM     85  C   UNL A   1      47.138  27.465  24.574  1.00  0.00     0.134 A 
ATOM     86  F   UNL A   1      47.957  26.473  27.971  1.00  0.00    -0.206 F 
ATOM     87  C   UNL A   1      49.187  26.234  25.985  1.00  0.00     0.040 A 
ATOM     88  C   UNL A   1      48.276  27.018  23.900  1.00  0.00     0.040 A 
ATOM     89  F   UNL A   1      46.174  28.056  23.853  1.00  0.00    -0.206 F 
ATOM     90  C   UNL A   1      49.309  26.409  24.609  1.00  0.00     0.006 A 
ENDBRANCH  66  83
ENDBRANCH  40  41
ENDBRANCH  33  35
ENDBRANCH  32  33
ENDBRANCH  31  32
ENDBRANCH  30  31
ENDBRANCH  29  30
ENDBRANCH  28  29
ENDBRANCH   1  28
TORSDOF 21
ENDMDL
