MODEL 1
REMARK VINA RESULT:      -9.1      0.000      0.000
REMARK SMILES CO[C@@H]1C[C@@H](C(=O)OCCOCCOCCOC(=O)c2ccc(-c3c4nc(c(-c5c(F)cccc5F)c5ccc([nH]5)c(-c5c(F)cccc5F)c5nc(c(-c6c(F)cccc6F)c6ccc3[nH]6)C=C5)C=C4)cc2)N(C(=O)CSc2cccs2)C1
REMARK SMILES IDX 12 1 11 2 10 3 9 4 8 5 6 6 7 7 5 8 3 9 4 10 84 11 74 12 2 13
REMARK SMILES IDX 1 14 75 15 76 16 77 17 78 18 79 19 80 20 83 21 81 22 82 23
REMARK SMILES IDX 13 24 14 25 15 26 16 27 17 28 18 29 19 30 20 31 21 32 73 33
REMARK SMILES IDX 22 34 72 35 23 36 24 37 25 38 66 39 26 40 71 41 65 42 67 43
REMARK SMILES IDX 27 44 70 45 64 46 63 47 28 49 54 50 37 51 53 52 38 53 41 54
REMARK SMILES IDX 52 55 68 56 39 57 40 58 51 60 69 61 42 62 29 63 30 64 35 65
REMARK SMILES IDX 31 66 32 67 34 68 36 69 33 70 55 71 56 72 61 73 57 74 58 75
REMARK SMILES IDX 60 76 62 77 59 78 43 79 44 80 49 81 45 82 46 83 48 84 50 85
REMARK SMILES IDX 47 86
REMARK H PARENT 67 48 41 59
REMARK Flexibility Score: inf
ROOT
ATOM      1  C   UNL A   1      32.214  30.595  26.689  1.00  0.00     0.188 C 
ENDROOT
BRANCH   1   2
ATOM      2  O   UNL A   1      32.351  30.061  25.393  1.00  0.00    -0.376 OA
BRANCH   2   3
ATOM      3  C   UNL A   1      31.208  29.564  24.738  1.00  0.00     0.202 C 
BRANCH   3   4
ATOM      4  C   UNL A   1      31.180  28.156  24.115  1.00  0.00     0.261 C 
BRANCH   4   5
ATOM      5  O   UNL A   1      32.425  27.541  23.737  1.00  0.00    -0.462 OA
BRANCH   5   6
ATOM      6  C   UNL A   1      32.982  26.685  24.632  1.00  0.00     0.329 C 
ATOM      7  O   UNL A   1      33.702  27.055  25.552  1.00  0.00    -0.250 OA
BRANCH   6   8
ATOM      8  C   UNL A   1      32.654  25.191  24.372  1.00  0.00     0.197 C 
ATOM      9  C   UNL A   1      31.639  23.600  22.847  1.00  0.00     0.140 C 
ATOM     10  C   UNL A   1      32.211  25.011  22.906  1.00  0.00     0.071 C 
ATOM     11  C   UNL A   1      31.001  23.418  24.223  1.00  0.00     0.152 C 
ATOM     12  N   UNL A   1      31.686  24.353  25.126  1.00  0.00    -0.325 N 
BRANCH   9  13
ATOM     13  O   UNL A   1      32.581  22.593  22.473  1.00  0.00    -0.380 OA
ATOM     14  C   UNL A   1      32.139  21.248  22.394  1.00  0.00     0.195 C 
ENDBRANCH   9  13
BRANCH  12  15
ATOM     15  C   UNL A   1      31.653  24.041  26.476  1.00  0.00     0.233 C 
ATOM     16  O   UNL A   1      31.530  24.921  27.334  1.00  0.00    -0.274 OA
BRANCH  15  17
ATOM     17  C   UNL A   1      31.925  22.626  26.920  1.00  0.00     0.175 C 
BRANCH  17  18
ATOM     18  S   UNL A   1      33.547  22.388  27.641  1.00  0.00    -0.105 SA
BRANCH  18  19
ATOM     19  C   UNL A   1      34.630  22.603  26.289  1.00  0.00     0.060 A 
ATOM     20  C   UNL A   1      35.373  23.712  25.954  1.00  0.00     0.027 A 
ATOM     21  S   UNL A   1      34.826  21.347  25.144  1.00  0.00    -0.137 S 
ATOM     22  C   UNL A   1      36.068  23.549  24.722  1.00  0.00     0.013 A 
ATOM     23  C   UNL A   1      35.871  22.298  24.186  1.00  0.00     0.066 A 
ENDBRANCH  18  19
ENDBRANCH  17  18
ENDBRANCH  15  17
ENDBRANCH  12  15
ENDBRANCH   6   8
ENDBRANCH   5   6
ENDBRANCH   4   5
ENDBRANCH   3   4
ENDBRANCH   2   3
ENDBRANCH   1   2
BRANCH   1  24
ATOM     24  C   UNL A   1      33.488  30.383  27.533  1.00  0.00     0.188 C 
BRANCH  24  25
ATOM     25  O   UNL A   1      34.487  31.397  27.559  1.00  0.00    -0.376 OA
BRANCH  25  26
ATOM     26  C   UNL A   1      34.299  32.531  28.391  1.00  0.00     0.202 C 
BRANCH  26  27
ATOM     27  C   UNL A   1      34.696  32.404  29.863  1.00  0.00     0.261 C 
BRANCH  27  28
ATOM     28  O   UNL A   1      36.093  32.180  30.109  1.00  0.00    -0.460 OA
BRANCH  28  29
ATOM     29  C   UNL A   1      36.373  31.070  30.837  1.00  0.00     0.338 C 
ATOM     30  O   UNL A   1      35.728  30.630  31.780  1.00  0.00    -0.246 OA
BRANCH  29  31
ATOM     31  C   UNL A   1      37.540  30.359  30.268  1.00  0.00     0.060 A 
ATOM     32  C   UNL A   1      38.354  29.624  31.137  1.00  0.00     0.016 A 
ATOM     33  C   UNL A   1      37.879  30.462  28.915  1.00  0.00     0.016 A 
ATOM     34  C   UNL A   1      39.519  29.016  30.662  1.00  0.00     0.010 A 
ATOM     35  C   UNL A   1      39.060  29.870  28.444  1.00  0.00     0.010 A 
ATOM     36  C   UNL A   1      39.898  29.161  29.318  1.00  0.00    -0.014 A 
BRANCH  36  37
ATOM     37  C   UNL A   1      41.244  28.699  28.889  1.00  0.00     0.031 A 
ATOM     38  C   UNL A   1      42.411  29.633  29.039  1.00  0.00     0.074 A 
ATOM     39  C   UNL A   1      41.443  27.459  28.406  1.00  0.00     0.049 A 
ATOM     40  N   UNL A   1      43.682  29.425  28.802  1.00  0.00    -0.248 NA
ATOM     41  C   UNL A   1      42.095  30.993  29.501  1.00  0.00     0.031 C 
ATOM     42  C   UNL A   1      40.400  26.462  28.196  1.00  0.00     0.029 A 
ATOM     43  N   UNL A   1      42.604  26.816  28.047  1.00  0.00    -0.354 N 
ATOM     44  C   UNL A   1      44.315  30.634  29.063  1.00  0.00     0.074 A 
ATOM     45  C   UNL A   1      43.289  31.564  29.486  1.00  0.00     0.031 C 
ATOM     46  C   UNL A   1      40.974  25.306  27.822  1.00  0.00     0.029 A 
ATOM     47  C   UNL A   1      42.422  25.494  27.718  1.00  0.00     0.049 A 
ATOM     48  H   UNL A   1      43.482  27.261  28.026  1.00  0.00     0.167 HD
ATOM     49  C   UNL A   1      45.626  30.952  28.934  1.00  0.00     0.037 A 
ATOM     50  C   UNL A   1      43.320  24.545  27.383  1.00  0.00     0.037 A 
ATOM     51  C   UNL A   1      46.641  30.046  28.462  1.00  0.00     0.049 A 
ATOM     52  C   UNL A   1      44.778  24.913  27.266  1.00  0.00     0.074 A 
ATOM     53  C   UNL A   1      47.985  30.291  28.246  1.00  0.00     0.029 A 
ATOM     54  N   UNL A   1      46.416  28.721  28.115  1.00  0.00    -0.354 N 
ATOM     55  N   UNL A   1      45.368  26.056  27.521  1.00  0.00    -0.248 NA
ATOM     56  C   UNL A   1      45.692  23.865  26.784  1.00  0.00     0.031 C 
ATOM     57  C   UNL A   1      48.563  29.131  27.719  1.00  0.00     0.029 A 
ATOM     58  C   UNL A   1      47.592  28.144  27.665  1.00  0.00     0.049 A 
ATOM     59  H   UNL A   1      45.549  28.260  28.180  1.00  0.00     0.167 HD
ATOM     60  C   UNL A   1      46.712  25.872  27.213  1.00  0.00     0.074 A 
ATOM     61  C   UNL A   1      46.861  24.491  26.803  1.00  0.00     0.031 C 
ATOM     62  C   UNL A   1      47.726  26.772  27.242  1.00  0.00     0.037 A 
BRANCH  49  63
ATOM     63  C   UNL A   1      46.003  32.375  29.226  1.00  0.00     0.057 A 
ATOM     64  C   UNL A   1      46.377  32.800  30.508  1.00  0.00     0.134 A 
ATOM     65  C   UNL A   1      45.949  33.344  28.216  1.00  0.00     0.134 A 
ATOM     66  F   UNL A   1      46.428  31.927  31.526  1.00  0.00    -0.206 F 
ATOM     67  C   UNL A   1      46.639  34.144  30.784  1.00  0.00     0.040 A 
ATOM     68  C   UNL A   1      46.238  34.685  28.472  1.00  0.00     0.040 A 
ATOM     69  F   UNL A   1      45.601  33.005  26.965  1.00  0.00    -0.206 F 
ATOM     70  C   UNL A   1      46.570  35.090  29.762  1.00  0.00     0.006 A 
ENDBRANCH  49  63
BRANCH  50  71
ATOM     71  C   UNL A   1      42.874  23.148  27.129  1.00  0.00     0.057 A 
ATOM     72  C   UNL A   1      42.694  22.671  25.823  1.00  0.00     0.134 A 
ATOM     73  C   UNL A   1      42.601  22.260  28.176  1.00  0.00     0.134 A 
ATOM     74  F   UNL A   1      42.908  23.480  24.774  1.00  0.00    -0.206 F 
ATOM     75  C   UNL A   1      42.250  21.371  25.570  1.00  0.00     0.040 A 
ATOM     76  C   UNL A   1      42.190  20.947  27.937  1.00  0.00     0.040 A 
ATOM     77  F   UNL A   1      42.744  22.652  29.450  1.00  0.00    -0.206 F 
ATOM     78  C   UNL A   1      42.007  20.502  26.630  1.00  0.00     0.006 A 
ENDBRANCH  50  71
BRANCH  62  79
ATOM     79  C   UNL A   1      49.086  26.302  26.803  1.00  0.00     0.057 A 
ATOM     80  C   UNL A   1      49.533  26.467  25.485  1.00  0.00     0.134 A 
ATOM     81  C   UNL A   1      49.982  25.736  27.720  1.00  0.00     0.134 A 
ATOM     82  F   UNL A   1      48.725  26.995  24.554  1.00  0.00    -0.206 F 
ATOM     83  C   UNL A   1      50.812  26.066  25.090  1.00  0.00     0.040 A 
ATOM     84  C   UNL A   1      51.272  25.357  27.344  1.00  0.00     0.040 A 
ATOM     85  F   UNL A   1      49.625  25.560  29.001  1.00  0.00    -0.206 F 
ATOM     86  C   UNL A   1      51.689  25.517  26.023  1.00  0.00     0.006 A 
ENDBRANCH  62  79
ENDBRANCH  36  37
ENDBRANCH  29  31
ENDBRANCH  28  29
ENDBRANCH  27  28
ENDBRANCH  26  27
ENDBRANCH  25  26
ENDBRANCH  24  25
ENDBRANCH   1  24
TORSDOF 22
ENDMDL
MODEL 2
REMARK VINA RESULT:      -9.0      5.239     10.165
REMARK SMILES CO[C@@H]1C[C@@H](C(=O)OCCOCCOCCOC(=O)c2ccc(-c3c4nc(c(-c5c(F)cccc5F)c5ccc([nH]5)c(-c5c(F)cccc5F)c5nc(c(-c6c(F)cccc6F)c6ccc3[nH]6)C=C5)C=C4)cc2)N(C(=O)CSc2cccs2)C1
REMARK SMILES IDX 12 1 11 2 10 3 9 4 8 5 6 6 7 7 5 8 3 9 4 10 84 11 74 12 2 13
REMARK SMILES IDX 1 14 75 15 76 16 77 17 78 18 79 19 80 20 83 21 81 22 82 23
REMARK SMILES IDX 13 24 14 25 15 26 16 27 17 28 18 29 19 30 20 31 21 32 73 33
REMARK SMILES IDX 22 34 72 35 23 36 24 37 25 38 66 39 26 40 71 41 65 42 67 43
REMARK SMILES IDX 27 44 70 45 64 46 63 47 28 49 54 50 37 51 53 52 38 53 41 54
REMARK SMILES IDX 52 55 68 56 39 57 40 58 51 60 69 61 42 62 29 63 30 64 35 65
REMARK SMILES IDX 31 66 32 67 34 68 36 69 33 70 55 71 56 72 61 73 57 74 58 75
REMARK SMILES IDX 60 76 62 77 59 78 43 79 44 80 49 81 45 82 46 83 48 84 50 85
REMARK SMILES IDX 47 86
REMARK H PARENT 67 48 41 59
REMARK Flexibility Score: inf
ROOT
ATOM      1  C   UNL A   1      39.541  20.707  25.905  1.00  0.00     0.188 C 
ENDROOT
BRANCH   1   2
ATOM      2  O   UNL A   1      39.306  21.818  26.740  1.00  0.00    -0.376 OA
BRANCH   2   3
ATOM      3  C   UNL A   1      38.898  23.032  26.155  1.00  0.00     0.202 C 
BRANCH   3   4
ATOM      4  C   UNL A   1      37.411  23.415  26.039  1.00  0.00     0.261 C 
BRANCH   4   5
ATOM      5  O   UNL A   1      36.420  22.374  26.109  1.00  0.00    -0.462 OA
BRANCH   5   6
ATOM      6  C   UNL A   1      35.929  21.915  24.929  1.00  0.00     0.329 C 
ATOM      7  O   UNL A   1      36.527  22.033  23.866  1.00  0.00    -0.250 OA
BRANCH   6   8
ATOM      8  C   UNL A   1      34.530  21.255  25.035  1.00  0.00     0.197 C 
ATOM      9  C   UNL A   1      33.185  19.315  24.476  1.00  0.00     0.140 C 
ATOM     10  C   UNL A   1      34.630  19.773  24.621  1.00  0.00     0.071 C 
ATOM     11  C   UNL A   1      32.468  20.560  23.954  1.00  0.00     0.152 C 
ATOM     12  N   UNL A   1      33.283  21.711  24.368  1.00  0.00    -0.325 N 
BRANCH   9  13
ATOM     13  O   UNL A   1      32.623  18.737  25.656  1.00  0.00    -0.380 OA
ATOM     14  C   UNL A   1      32.464  17.329  25.711  1.00  0.00     0.195 C 
ENDBRANCH   9  13
BRANCH  12  15
ATOM     15  C   UNL A   1      32.625  22.928  24.464  1.00  0.00     0.233 C 
ATOM     16  O   UNL A   1      31.910  23.343  23.545  1.00  0.00    -0.274 OA
BRANCH  15  17
ATOM     17  C   UNL A   1      32.903  23.834  25.636  1.00  0.00     0.175 C 
BRANCH  17  18
ATOM     18  S   UNL A   1      34.021  25.182  25.265  1.00  0.00    -0.105 SA
BRANCH  18  19
ATOM     19  C   UNL A   1      33.013  26.599  25.406  1.00  0.00     0.060 A 
ATOM     20  C   UNL A   1      32.939  27.499  26.445  1.00  0.00     0.027 A 
ATOM     21  S   UNL A   1      31.899  26.981  24.165  1.00  0.00    -0.137 S 
ATOM     22  C   UNL A   1      31.926  28.479  26.244  1.00  0.00     0.013 A 
ATOM     23  C   UNL A   1      31.297  28.323  25.032  1.00  0.00     0.066 A 
ENDBRANCH  18  19
ENDBRANCH  17  18
ENDBRANCH  15  17
ENDBRANCH  12  15
ENDBRANCH   6   8
ENDBRANCH   5   6
ENDBRANCH   4   5
ENDBRANCH   3   4
ENDBRANCH   2   3
ENDBRANCH   1   2
BRANCH   1  24
ATOM     24  C   UNL A   1      40.904  20.048  26.202  1.00  0.00     0.188 C 
BRANCH  24  25
ATOM     25  O   UNL A   1      42.094  20.636  25.686  1.00  0.00    -0.376 OA
BRANCH  25  26
ATOM     26  C   UNL A   1      42.744  21.650  26.434  1.00  0.00     0.202 C 
BRANCH  26  27
ATOM     27  C   UNL A   1      42.889  23.028  25.784  1.00  0.00     0.261 C 
BRANCH  27  28
ATOM     28  O   UNL A   1      42.664  24.148  26.656  1.00  0.00    -0.460 OA
BRANCH  28  29
ATOM     29  C   UNL A   1      42.146  25.246  26.051  1.00  0.00     0.338 C 
ATOM     30  O   UNL A   1      41.977  25.411  24.850  1.00  0.00    -0.246 OA
BRANCH  29  31
ATOM     31  C   UNL A   1      41.685  26.224  27.062  1.00  0.00     0.060 A 
ATOM     32  C   UNL A   1      42.294  27.484  27.089  1.00  0.00     0.016 A 
ATOM     33  C   UNL A   1      40.718  25.897  28.019  1.00  0.00     0.016 A 
ATOM     34  C   UNL A   1      41.960  28.404  28.085  1.00  0.00     0.010 A 
ATOM     35  C   UNL A   1      40.400  26.813  29.032  1.00  0.00     0.010 A 
ATOM     36  C   UNL A   1      41.033  28.065  29.083  1.00  0.00    -0.014 A 
BRANCH  36  37
ATOM     37  C   UNL A   1      40.861  28.967  30.252  1.00  0.00     0.031 A 
ATOM     38  C   UNL A   1      39.713  29.936  30.256  1.00  0.00     0.074 A 
ATOM     39  C   UNL A   1      41.686  28.910  31.314  1.00  0.00     0.049 A 
ATOM     40  N   UNL A   1      39.324  30.765  31.192  1.00  0.00    -0.248 NA
ATOM     41  C   UNL A   1      38.908  29.989  29.026  1.00  0.00     0.031 C 
ATOM     42  C   UNL A   1      42.843  28.030  31.432  1.00  0.00     0.029 A 
ATOM     43  N   UNL A   1      41.645  29.579  32.513  1.00  0.00    -0.354 N 
ATOM     44  C   UNL A   1      38.243  31.454  30.656  1.00  0.00     0.074 A 
ATOM     45  C   UNL A   1      38.034  30.939  29.320  1.00  0.00     0.031 C 
ATOM     46  C   UNL A   1      43.356  28.153  32.668  1.00  0.00     0.029 A 
ATOM     47  C   UNL A   1      42.594  29.156  33.413  1.00  0.00     0.049 A 
ATOM     48  H   UNL A   1      40.997  30.295  32.709  1.00  0.00     0.167 HD
ATOM     49  C   UNL A   1      37.510  32.448  31.214  1.00  0.00     0.037 A 
ATOM     50  C   UNL A   1      42.816  29.528  34.690  1.00  0.00     0.037 A 
ATOM     51  C   UNL A   1      37.748  33.002  32.521  1.00  0.00     0.049 A 
ATOM     52  C   UNL A   1      41.973  30.621  35.301  1.00  0.00     0.074 A 
ATOM     53  C   UNL A   1      37.093  34.046  33.150  1.00  0.00     0.029 A 
ATOM     54  N   UNL A   1      38.733  32.565  33.395  1.00  0.00    -0.354 N 
ATOM     55  N   UNL A   1      40.950  31.263  34.789  1.00  0.00    -0.248 NA
ATOM     56  C   UNL A   1      42.338  31.064  36.656  1.00  0.00     0.031 C 
ATOM     57  C   UNL A   1      37.716  34.276  34.382  1.00  0.00     0.029 A 
ATOM     58  C   UNL A   1      38.719  33.334  34.547  1.00  0.00     0.049 A 
ATOM     59  H   UNL A   1      39.352  31.819  33.221  1.00  0.00     0.167 HD
ATOM     60  C   UNL A   1      40.563  32.194  35.748  1.00  0.00     0.074 A 
ATOM     61  C   UNL A   1      41.427  31.998  36.893  1.00  0.00     0.031 C 
ATOM     62  C   UNL A   1      39.597  33.142  35.675  1.00  0.00     0.037 A 
BRANCH  49  63
ATOM     63  C   UNL A   1      36.438  33.054  30.354  1.00  0.00     0.057 A 
ATOM     64  C   UNL A   1      35.085  32.722  30.504  1.00  0.00     0.134 A 
ATOM     65  C   UNL A   1      36.773  33.950  29.331  1.00  0.00     0.134 A 
ATOM     66  F   UNL A   1      34.699  31.853  31.450  1.00  0.00    -0.206 F 
ATOM     67  C   UNL A   1      34.110  33.225  29.639  1.00  0.00     0.040 A 
ATOM     68  C   UNL A   1      35.804  34.484  28.480  1.00  0.00     0.040 A 
ATOM     69  F   UNL A   1      38.050  34.313  29.134  1.00  0.00    -0.206 F 
ATOM     70  C   UNL A   1      34.471  34.110  28.624  1.00  0.00     0.006 A 
ENDBRANCH  49  63
BRANCH  50  71
ATOM     71  C   UNL A   1      43.883  28.867  35.489  1.00  0.00     0.057 A 
ATOM     72  C   UNL A   1      45.217  29.288  35.405  1.00  0.00     0.134 A 
ATOM     73  C   UNL A   1      43.605  27.792  36.342  1.00  0.00     0.134 A 
ATOM     74  F   UNL A   1      45.557  30.293  34.584  1.00  0.00    -0.206 F 
ATOM     75  C   UNL A   1      46.233  28.659  36.128  1.00  0.00     0.040 A 
ATOM     76  C   UNL A   1      44.606  27.176  37.097  1.00  0.00     0.040 A 
ATOM     77  F   UNL A   1      42.352  27.331  36.465  1.00  0.00    -0.206 F 
ATOM     78  C   UNL A   1      45.926  27.606  36.986  1.00  0.00     0.006 A 
ENDBRANCH  50  71
BRANCH  62  79
ATOM     79  C   UNL A   1      39.429  34.056  36.858  1.00  0.00     0.057 A 
ATOM     80  C   UNL A   1      38.686  33.676  37.985  1.00  0.00     0.134 A 
ATOM     81  C   UNL A   1      40.066  35.304  36.899  1.00  0.00     0.134 A 
ATOM     82  F   UNL A   1      38.044  32.499  38.010  1.00  0.00    -0.206 F 
ATOM     83  C   UNL A   1      38.565  34.512  39.098  1.00  0.00     0.040 A 
ATOM     84  C   UNL A   1      39.976  36.135  38.017  1.00  0.00     0.040 A 
ATOM     85  F   UNL A   1      40.803  35.727  35.861  1.00  0.00    -0.206 F 
ATOM     86  C   UNL A   1      39.219  35.742  39.119  1.00  0.00     0.006 A 
ENDBRANCH  62  79
ENDBRANCH  36  37
ENDBRANCH  29  31
ENDBRANCH  28  29
ENDBRANCH  27  28
ENDBRANCH  26  27
ENDBRANCH  25  26
ENDBRANCH  24  25
ENDBRANCH   1  24
TORSDOF 22
ENDMDL
MODEL 3
REMARK VINA RESULT:      -9.0      1.779      6.507
REMARK SMILES CO[C@@H]1C[C@@H](C(=O)OCCOCCOCCOC(=O)c2ccc(-c3c4nc(c(-c5c(F)cccc5F)c5ccc([nH]5)c(-c5c(F)cccc5F)c5nc(c(-c6c(F)cccc6F)c6ccc3[nH]6)C=C5)C=C4)cc2)N(C(=O)CSc2cccs2)C1
REMARK SMILES IDX 12 1 11 2 10 3 9 4 8 5 6 6 7 7 5 8 3 9 4 10 84 11 74 12 2 13
REMARK SMILES IDX 1 14 75 15 76 16 77 17 78 18 79 19 80 20 83 21 81 22 82 23
REMARK SMILES IDX 13 24 14 25 15 26 16 27 17 28 18 29 19 30 20 31 21 32 73 33
REMARK SMILES IDX 22 34 72 35 23 36 24 37 25 38 66 39 26 40 71 41 65 42 67 43
REMARK SMILES IDX 27 44 70 45 64 46 63 47 28 49 54 50 37 51 53 52 38 53 41 54
REMARK SMILES IDX 52 55 68 56 39 57 40 58 51 60 69 61 42 62 29 63 30 64 35 65
REMARK SMILES IDX 31 66 32 67 34 68 36 69 33 70 55 71 56 72 61 73 57 74 58 75
REMARK SMILES IDX 60 76 62 77 59 78 43 79 44 80 49 81 45 82 46 83 48 84 50 85
REMARK SMILES IDX 47 86
REMARK H PARENT 67 48 41 59
REMARK Flexibility Score: inf
ROOT
ATOM      1  C   UNL A   1      34.415  33.046  29.171  1.00  0.00     0.188 C 
ENDROOT
BRANCH   1   2
ATOM      2  O   UNL A   1      33.510  32.584  28.194  1.00  0.00    -0.376 OA
BRANCH   2   3
ATOM      3  C   UNL A   1      33.789  31.374  27.529  1.00  0.00     0.202 C 
BRANCH   3   4
ATOM      4  C   UNL A   1      32.683  30.568  26.823  1.00  0.00     0.261 C 
BRANCH   4   5
ATOM      5  O   UNL A   1      33.054  29.649  25.780  1.00  0.00    -0.462 OA
BRANCH   5   6
ATOM      6  C   UNL A   1      32.946  28.325  26.063  1.00  0.00     0.329 C 
ATOM      7  O   UNL A   1      33.113  27.866  27.186  1.00  0.00    -0.250 OA
BRANCH   6   8
ATOM      8  C   UNL A   1      32.622  27.436  24.834  1.00  0.00     0.197 C 
ATOM      9  C   UNL A   1      32.138  27.408  22.456  1.00  0.00     0.140 C 
ATOM     10  C   UNL A   1      32.755  28.275  23.546  1.00  0.00     0.071 C 
ATOM     11  C   UNL A   1      31.012  26.673  23.182  1.00  0.00     0.152 C 
ATOM     12  N   UNL A   1      31.376  26.660  24.606  1.00  0.00    -0.325 N 
BRANCH   9  13
ATOM     13  O   UNL A   1      33.066  26.571  21.765  1.00  0.00    -0.380 OA
ATOM     14  C   UNL A   1      32.881  25.166  21.819  1.00  0.00     0.195 C 
ENDBRANCH   9  13
BRANCH  12  15
ATOM     15  C   UNL A   1      30.808  25.657  25.377  1.00  0.00     0.233 C 
ATOM     16  O   UNL A   1      30.366  25.891  26.507  1.00  0.00    -0.274 OA
BRANCH  15  17
ATOM     17  C   UNL A   1      30.866  24.228  24.901  1.00  0.00     0.175 C 
BRANCH  17  18
ATOM     18  S   UNL A   1      31.026  23.027  26.219  1.00  0.00    -0.105 SA
BRANCH  18  19
ATOM     19  C   UNL A   1      32.294  21.968  25.655  1.00  0.00     0.060 A 
ATOM     20  C   UNL A   1      32.176  20.780  24.970  1.00  0.00     0.027 A 
ATOM     21  S   UNL A   1      33.929  22.341  25.989  1.00  0.00    -0.137 S 
ATOM     22  C   UNL A   1      33.434  20.145  24.764  1.00  0.00     0.013 A 
ATOM     23  C   UNL A   1      34.473  20.900  25.253  1.00  0.00     0.066 A 
ENDBRANCH  18  19
ENDBRANCH  17  18
ENDBRANCH  15  17
ENDBRANCH  12  15
ENDBRANCH   6   8
ENDBRANCH   5   6
ENDBRANCH   4   5
ENDBRANCH   3   4
ENDBRANCH   2   3
ENDBRANCH   1   2
BRANCH   1  24
ATOM     24  C   UNL A   1      34.001  34.425  29.726  1.00  0.00     0.188 C 
BRANCH  24  25
ATOM     25  O   UNL A   1      33.599  34.540  31.088  1.00  0.00    -0.376 OA
BRANCH  25  26
ATOM     26  C   UNL A   1      34.554  34.937  32.058  1.00  0.00     0.202 C 
BRANCH  26  27
ATOM     27  C   UNL A   1      36.002  34.487  31.856  1.00  0.00     0.261 C 
BRANCH  27  28
ATOM     28  O   UNL A   1      36.442  33.420  32.712  1.00  0.00    -0.460 OA
BRANCH  28  29
ATOM     29  C   UNL A   1      36.046  32.181  32.329  1.00  0.00     0.338 C 
ATOM     30  O   UNL A   1      34.932  31.693  32.463  1.00  0.00    -0.246 OA
BRANCH  29  31
ATOM     31  C   UNL A   1      37.135  31.494  31.599  1.00  0.00     0.060 A 
ATOM     32  C   UNL A   1      38.167  30.912  32.344  1.00  0.00     0.016 A 
ATOM     33  C   UNL A   1      37.189  31.474  30.201  1.00  0.00     0.016 A 
ATOM     34  C   UNL A   1      39.263  30.337  31.697  1.00  0.00     0.010 A 
ATOM     35  C   UNL A   1      38.300  30.916  29.553  1.00  0.00     0.010 A 
ATOM     36  C   UNL A   1      39.354  30.362  30.296  1.00  0.00    -0.014 A 
BRANCH  36  37
ATOM     37  C   UNL A   1      40.623  29.950  29.643  1.00  0.00     0.031 A 
ATOM     38  C   UNL A   1      40.725  28.564  29.070  1.00  0.00     0.074 A 
ATOM     39  C   UNL A   1      41.662  30.796  29.523  1.00  0.00     0.049 A 
ATOM     40  N   UNL A   1      41.701  28.010  28.395  1.00  0.00    -0.248 NA
ATOM     41  C   UNL A   1      39.577  27.678  29.312  1.00  0.00     0.031 C 
ATOM     42  C   UNL A   1      41.701  32.158  30.045  1.00  0.00     0.029 A 
ATOM     43  N   UNL A   1      42.869  30.644  28.883  1.00  0.00    -0.354 N 
ATOM     44  C   UNL A   1      41.294  26.705  28.151  1.00  0.00     0.074 A 
ATOM     45  C   UNL A   1      39.981  26.555  28.741  1.00  0.00     0.031 C 
ATOM     46  C   UNL A   1      42.837  32.746  29.636  1.00  0.00     0.029 A 
ATOM     47  C   UNL A   1      43.631  31.788  28.865  1.00  0.00     0.049 A 
ATOM     48  H   UNL A   1      43.161  29.796  28.478  1.00  0.00     0.167 HD
ATOM     49  C   UNL A   1      41.964  25.710  27.519  1.00  0.00     0.037 A 
ATOM     50  C   UNL A   1      44.823  32.036  28.285  1.00  0.00     0.037 A 
ATOM     51  C   UNL A   1      43.292  25.839  26.978  1.00  0.00     0.049 A 
ATOM     52  C   UNL A   1      45.543  30.922  27.566  1.00  0.00     0.074 A 
ATOM     53  C   UNL A   1      44.074  24.874  26.369  1.00  0.00     0.029 A 
ATOM     54  N   UNL A   1      44.043  27.005  26.999  1.00  0.00    -0.354 N 
ATOM     55  N   UNL A   1      45.148  29.692  27.335  1.00  0.00    -0.248 NA
ATOM     56  C   UNL A   1      46.891  31.221  27.056  1.00  0.00     0.031 C 
ATOM     57  C   UNL A   1      45.317  25.441  26.069  1.00  0.00     0.029 A 
ATOM     58  C   UNL A   1      45.288  26.778  26.434  1.00  0.00     0.049 A 
ATOM     59  H   UNL A   1      43.736  27.868  27.361  1.00  0.00     0.167 HD
ATOM     60  C   UNL A   1      46.201  29.069  26.673  1.00  0.00     0.074 A 
ATOM     61  C   UNL A   1      47.231  30.070  26.492  1.00  0.00     0.031 C 
ATOM     62  C   UNL A   1      46.314  27.778  26.275  1.00  0.00     0.037 A 
BRANCH  49  63
ATOM     63  C   UNL A   1      41.288  24.371  27.471  1.00  0.00     0.057 A 
ATOM     64  C   UNL A   1      41.691  23.302  28.282  1.00  0.00     0.134 A 
ATOM     65  C   UNL A   1      40.245  24.137  26.566  1.00  0.00     0.134 A 
ATOM     66  F   UNL A   1      42.699  23.453  29.155  1.00  0.00    -0.206 F 
ATOM     67  C   UNL A   1      41.112  22.037  28.163  1.00  0.00     0.040 A 
ATOM     68  C   UNL A   1      39.636  22.885  26.460  1.00  0.00     0.040 A 
ATOM     69  F   UNL A   1      39.807  25.117  25.762  1.00  0.00    -0.206 F 
ATOM     70  C   UNL A   1      40.080  21.827  27.249  1.00  0.00     0.006 A 
ENDBRANCH  49  63
BRANCH  50  71
ATOM     71  C   UNL A   1      45.423  33.396  28.355  1.00  0.00     0.057 A 
ATOM     72  C   UNL A   1      45.183  34.345  27.352  1.00  0.00     0.134 A 
ATOM     73  C   UNL A   1      46.260  33.779  29.410  1.00  0.00     0.134 A 
ATOM     74  F   UNL A   1      44.415  34.033  26.297  1.00  0.00    -0.206 F 
ATOM     75  C   UNL A   1      45.761  35.616  27.390  1.00  0.00     0.040 A 
ATOM     76  C   UNL A   1      46.817  35.057  29.478  1.00  0.00     0.040 A 
ATOM     77  F   UNL A   1      46.539  32.917  30.399  1.00  0.00    -0.206 F 
ATOM     78  C   UNL A   1      46.572  35.979  28.462  1.00  0.00     0.006 A 
ENDBRANCH  50  71
BRANCH  62  79
ATOM     79  C   UNL A   1      47.602  27.363  25.618  1.00  0.00     0.057 A 
ATOM     80  C   UNL A   1      48.658  26.804  26.352  1.00  0.00     0.134 A 
ATOM     81  C   UNL A   1      47.767  27.464  24.230  1.00  0.00     0.134 A 
ATOM     82  F   UNL A   1      48.570  26.684  27.685  1.00  0.00    -0.206 F 
ATOM     83  C   UNL A   1      49.837  26.383  25.733  1.00  0.00     0.040 A 
ATOM     84  C   UNL A   1      48.930  27.021  23.597  1.00  0.00     0.040 A 
ATOM     85  F   UNL A   1      46.793  27.978  23.464  1.00  0.00    -0.206 F 
ATOM     86  C   UNL A   1      49.971  26.482  24.350  1.00  0.00     0.006 A 
ENDBRANCH  62  79
ENDBRANCH  36  37
ENDBRANCH  29  31
ENDBRANCH  28  29
ENDBRANCH  27  28
ENDBRANCH  26  27
ENDBRANCH  25  26
ENDBRANCH  24  25
ENDBRANCH   1  24
TORSDOF 22
ENDMDL
