MODEL 1
REMARK VINA RESULT:     -11.7      0.000      0.000
REMARK SMILES Cc1ccccc1NC(=O)NC[C@@H]1CC[C@@H](C(=O)OCCOCCOCCOC(=O)c2ccc(-c3c4nc(c(-c5c(F)cccc5F)c5ccc([nH]5)c(-c5c(F)cccc5F)c5nc(c(-c6c(F)cccc6F)c6ccc3[nH]6)C=C5)C=C4)cc2)O1
REMARK SMILES IDX 23 1 22 2 21 3 20 4 19 5 17 6 18 7 16 8 13 9 14 10 85 11
REMARK SMILES IDX 15 12 12 13 11 14 8 15 9 16 10 18 7 20 1 21 2 22 3 23 4 24
REMARK SMILES IDX 6 25 5 26 24 27 25 28 26 29 27 30 28 31 29 32 30 33 31 34
REMARK SMILES IDX 32 35 84 36 33 37 83 38 34 39 35 40 36 41 77 42 37 43 82 44
REMARK SMILES IDX 76 45 78 46 38 47 81 48 75 49 74 50 39 52 65 53 48 54 64 55
REMARK SMILES IDX 49 56 52 57 63 58 79 59 50 60 51 61 62 63 80 64 53 65 40 66
REMARK SMILES IDX 41 67 46 68 42 69 43 70 45 71 47 72 44 73 66 74 67 75 72 76
REMARK SMILES IDX 68 77 69 78 71 79 73 80 70 81 54 82 55 83 60 84 56 85 57 86
REMARK SMILES IDX 59 87 61 88 58 89
REMARK H PARENT 8 17 11 19 78 51 52 62
REMARK Flexibility Score: inf
ROOT
ATOM      1  C   UNL A   1      41.765  20.106  27.088  1.00  0.00     0.188 C 
ENDROOT
BRANCH   1   2
ATOM      2  O   UNL A   1      40.411  20.604  27.139  1.00  0.00    -0.376 OA
BRANCH   2   3
ATOM      3  C   UNL A   1      39.780  21.298  26.050  1.00  0.00     0.202 C 
BRANCH   3   4
ATOM      4  C   UNL A   1      38.316  20.919  25.465  1.00  0.00     0.261 C 
BRANCH   4   5
ATOM      5  O   UNL A   1      36.894  21.727  24.810  1.00  0.00    -0.461 OA
BRANCH   5   6
ATOM      6  C   UNL A   1      36.453  22.935  24.152  1.00  0.00     0.335 C 
ATOM      7  O   UNL A   1      36.599  23.262  22.973  1.00  0.00    -0.249 OA
BRANCH   6   8
ATOM      8  C   UNL A   1      35.773  24.064  24.911  1.00  0.00     0.228 C 
ATOM      9  C   UNL A   1      33.573  23.721  24.187  1.00  0.00     0.138 C 
ATOM     10  C   UNL A   1      33.583  23.637  25.704  1.00  0.00     0.037 C 
ATOM     11  O   UNL A   1      34.692  24.624  24.035  1.00  0.00    -0.361 OA
ATOM     12  C   UNL A   1      35.038  23.639  26.132  1.00  0.00     0.047 C 
BRANCH   9  13
ATOM     13  C   UNL A   1      32.237  24.181  23.500  1.00  0.00     0.149 C 
BRANCH  13  14
ATOM     14  N   UNL A   1      32.376  24.391  22.031  1.00  0.00    -0.335 N 
ATOM     15  N   UNL A   1      32.642  26.709  21.394  1.00  0.00    -0.308 N 
ATOM     16  C   UNL A   1      32.691  25.379  21.176  1.00  0.00     0.319 C 
ATOM     17  H   UNL A   1      33.174  27.212  20.736  1.00  0.00     0.171 HD
ATOM     18  O   UNL A   1      33.097  25.023  20.061  1.00  0.00    -0.249 OA
ATOM     19  H   UNL A   1      32.179  23.559  21.542  1.00  0.00     0.165 HD
BRANCH  15  20
ATOM     20  C   UNL A   1      32.020  27.554  22.328  1.00  0.00     0.045 A 
ATOM     21  C   UNL A   1      34.192  28.730  23.051  1.00  0.00     0.046 C 
ATOM     22  C   UNL A   1      32.734  28.395  23.199  1.00  0.00    -0.027 A 
ATOM     23  C   UNL A   1      32.037  29.091  24.214  1.00  0.00     0.005 A 
ATOM     24  C   UNL A   1      30.656  29.001  24.336  1.00  0.00     0.000 A 
ATOM     25  C   UNL A   1      30.645  27.642  22.363  1.00  0.00     0.026 A 
ATOM     26  C   UNL A   1      29.952  28.307  23.375  1.00  0.00     0.002 A 
ENDBRANCH  15  20
ENDBRANCH  13  14
ENDBRANCH   9  13
ENDBRANCH   6   8
ENDBRANCH   5   6
ENDBRANCH   4   5
ENDBRANCH   3   4
ENDBRANCH   2   3
ENDBRANCH   1   2
BRANCH   1  27
ATOM     27  C   UNL A   1      42.162  18.990  26.126  1.00  0.00     0.188 C 
BRANCH  27  28
ATOM     28  O   UNL A   1      42.793  19.576  25.010  1.00  0.00    -0.376 OA
BRANCH  28  29
ATOM     29  C   UNL A   1      44.203  19.559  24.987  1.00  0.00     0.202 C 
BRANCH  29  30
ATOM     30  C   UNL A   1      44.728  20.995  24.958  1.00  0.00     0.261 C 
BRANCH  30  31
ATOM     31  O   UNL A   1      43.645  21.902  24.629  1.00  0.00    -0.460 OA
BRANCH  31  32
ATOM     32  C   UNL A   1      43.954  23.239  24.626  1.00  0.00     0.338 C 
ATOM     33  O   UNL A   1      45.030  23.703  24.274  1.00  0.00    -0.246 OA
BRANCH  32  34
ATOM     34  C   UNL A   1      42.909  24.015  25.369  1.00  0.00     0.060 A 
ATOM     35  C   UNL A   1      42.558  25.339  25.088  1.00  0.00     0.016 A 
ATOM     36  C   UNL A   1      42.530  23.543  26.584  1.00  0.00     0.016 A 
ATOM     37  C   UNL A   1      42.077  26.241  26.115  1.00  0.00     0.010 A 
ATOM     38  C   UNL A   1      42.244  24.486  27.575  1.00  0.00     0.010 A 
ATOM     39  C   UNL A   1      42.058  25.911  27.481  1.00  0.00    -0.014 A 
BRANCH  39  40
ATOM     40  C   UNL A   1      41.884  27.107  28.750  1.00  0.00     0.031 A 
ATOM     41  C   UNL A   1      40.630  28.267  29.151  1.00  0.00     0.074 A 
ATOM     42  C   UNL A   1      43.012  27.410  29.433  1.00  0.00     0.049 A 
ATOM     43  N   UNL A   1      40.760  29.588  29.119  1.00  0.00    -0.248 NA
ATOM     44  C   UNL A   1      39.167  28.033  29.499  1.00  0.00     0.031 C 
ATOM     45  C   UNL A   1      43.142  28.313  30.569  1.00  0.00     0.029 A 
ATOM     46  N   UNL A   1      44.332  27.053  29.128  1.00  0.00    -0.354 N 
ATOM     47  C   UNL A   1      39.515  30.165  29.468  1.00  0.00     0.074 A 
ATOM     48  C   UNL A   1      38.533  29.173  29.326  1.00  0.00     0.031 C 
ATOM     49  C   UNL A   1      44.434  28.664  30.685  1.00  0.00     0.029 A 
ATOM     50  C   UNL A   1      45.138  28.122  29.534  1.00  0.00     0.049 A 
ATOM     51  H   UNL A   1      44.634  26.214  28.710  1.00  0.00     0.167 HD
ATOM     52  C   UNL A   1      39.289  31.260  30.251  1.00  0.00     0.037 A 
ATOM     53  C   UNL A   1      45.917  28.817  28.656  1.00  0.00     0.037 A 
ATOM     54  C   UNL A   1      40.532  31.766  30.725  1.00  0.00     0.049 A 
ATOM     55  C   UNL A   1      45.681  30.308  28.706  1.00  0.00     0.074 A 
ATOM     56  C   UNL A   1      41.281  31.467  31.847  1.00  0.00     0.029 A 
ATOM     57  N   UNL A   1      41.367  32.356  29.810  1.00  0.00    -0.354 N 
ATOM     58  N   UNL A   1      44.631  30.852  29.254  1.00  0.00    -0.248 NA
ATOM     59  C   UNL A   1      46.582  31.304  28.131  1.00  0.00     0.031 C 
ATOM     60  C   UNL A   1      42.618  31.833  31.569  1.00  0.00     0.029 A 
ATOM     61  C   UNL A   1      42.647  32.392  30.306  1.00  0.00     0.049 A 
ATOM     62  H   UNL A   1      41.091  32.701  28.931  1.00  0.00     0.167 HD
ATOM     63  C   UNL A   1      44.677  32.208  29.083  1.00  0.00     0.074 A 
ATOM     64  C   UNL A   1      45.926  32.448  28.395  1.00  0.00     0.031 C 
ATOM     65  C   UNL A   1      43.663  33.015  29.495  1.00  0.00     0.037 A 
BRANCH  52  66
ATOM     66  C   UNL A   1      37.918  31.500  30.887  1.00  0.00     0.057 A 
ATOM     67  C   UNL A   1      36.951  32.321  30.282  1.00  0.00     0.134 A 
ATOM     68  C   UNL A   1      37.574  31.046  32.181  1.00  0.00     0.134 A 
ATOM     69  F   UNL A   1      37.105  32.780  29.034  1.00  0.00    -0.206 F 
ATOM     70  C   UNL A   1      35.792  32.750  30.949  1.00  0.00     0.040 A 
ATOM     71  C   UNL A   1      36.444  31.508  32.878  1.00  0.00     0.040 A 
ATOM     72  F   UNL A   1      38.386  30.209  32.849  1.00  0.00    -0.206 F 
ATOM     73  C   UNL A   1      35.552  32.377  32.265  1.00  0.00     0.006 A 
ENDBRANCH  52  66
BRANCH  53  74
ATOM     74  C   UNL A   1      46.384  28.048  27.464  1.00  0.00     0.057 A 
ATOM     75  C   UNL A   1      45.607  28.069  26.289  1.00  0.00     0.134 A 
ATOM     76  C   UNL A   1      47.678  27.527  27.345  1.00  0.00     0.134 A 
ATOM     77  F   UNL A   1      44.354  28.555  26.318  1.00  0.00    -0.206 F 
ATOM     78  C   UNL A   1      46.113  27.682  25.043  1.00  0.00     0.040 A 
ATOM     79  C   UNL A   1      48.197  27.126  26.101  1.00  0.00     0.040 A 
ATOM     80  F   UNL A   1      48.499  27.486  28.402  1.00  0.00    -0.206 F 
ATOM     81  C   UNL A   1      47.422  27.223  24.945  1.00  0.00     0.006 A 
ENDBRANCH  53  74
BRANCH  65  82
ATOM     82  C   UNL A   1      43.456  34.463  29.157  1.00  0.00     0.057 A 
ATOM     83  C   UNL A   1      43.515  35.488  30.103  1.00  0.00     0.134 A 
ATOM     84  C   UNL A   1      43.460  34.871  27.801  1.00  0.00     0.134 A 
ATOM     85  F   UNL A   1      43.601  35.224  31.414  1.00  0.00    -0.206 F 
ATOM     86  C   UNL A   1      43.564  36.835  29.728  1.00  0.00     0.040 A 
ATOM     87  C   UNL A   1      43.567  36.206  27.417  1.00  0.00     0.040 A 
ATOM     88  F   UNL A   1      43.414  33.978  26.799  1.00  0.00    -0.206 F 
ATOM     89  C   UNL A   1      43.614  37.196  28.384  1.00  0.00     0.006 A 
ENDBRANCH  65  82
ENDBRANCH  39  40
ENDBRANCH  32  34
ENDBRANCH  31  32
ENDBRANCH  30  31
ENDBRANCH  29  30
ENDBRANCH  28  29
ENDBRANCH  27  28
ENDBRANCH   1  27
TORSDOF 20
ENDMDL
MODEL 2
REMARK VINA RESULT:     -11.7      1.925      2.760
REMARK SMILES Cc1ccccc1NC(=O)NC[C@@H]1CC[C@@H](C(=O)OCCOCCOCCOC(=O)c2ccc(-c3c4nc(c(-c5c(F)cccc5F)c5ccc([nH]5)c(-c5c(F)cccc5F)c5nc(c(-c6c(F)cccc6F)c6ccc3[nH]6)C=C5)C=C4)cc2)O1
REMARK SMILES IDX 23 1 22 2 21 3 20 4 19 5 17 6 18 7 16 8 13 9 14 10 85 11
REMARK SMILES IDX 15 12 12 13 11 14 8 15 9 16 10 18 7 20 1 21 2 22 3 23 4 24
REMARK SMILES IDX 6 25 5 26 24 27 25 28 26 29 27 30 28 31 29 32 30 33 31 34
REMARK SMILES IDX 32 35 84 36 33 37 83 38 34 39 35 40 36 41 77 42 37 43 82 44
REMARK SMILES IDX 76 45 78 46 38 47 81 48 75 49 74 50 39 52 65 53 48 54 64 55
REMARK SMILES IDX 49 56 52 57 63 58 79 59 50 60 51 61 62 63 80 64 53 65 40 66
REMARK SMILES IDX 41 67 46 68 42 69 43 70 45 71 47 72 44 73 66 74 67 75 72 76
REMARK SMILES IDX 68 77 69 78 71 79 73 80 70 81 54 82 55 83 60 84 56 85 57 86
REMARK SMILES IDX 59 87 61 88 58 89
REMARK H PARENT 8 17 11 19 78 51 52 62
REMARK Flexibility Score: inf
ROOT
ATOM      1  C   UNL A   1      42.799  18.257  26.203  1.00  0.00     0.188 C 
ENDROOT
BRANCH   1   2
ATOM      2  O   UNL A   1      41.517  18.781  25.797  1.00  0.00    -0.376 OA
BRANCH   2   3
ATOM      3  C   UNL A   1      40.837  19.839  26.492  1.00  0.00     0.202 C 
BRANCH   3   4
ATOM      4  C   UNL A   1      39.846  20.903  25.773  1.00  0.00     0.261 C 
BRANCH   4   5
ATOM      5  O   UNL A   1      38.388  21.821  26.138  1.00  0.00    -0.461 OA
BRANCH   5   6
ATOM      6  C   UNL A   1      37.695  23.053  25.845  1.00  0.00     0.335 C 
ATOM      7  O   UNL A   1      37.994  24.200  26.186  1.00  0.00    -0.249 OA
BRANCH   6   8
ATOM      8  C   UNL A   1      36.375  23.077  25.089  1.00  0.00     0.228 C 
ATOM      9  C   UNL A   1      34.946  22.421  26.823  1.00  0.00     0.138 C 
ATOM     10  C   UNL A   1      34.470  23.769  26.312  1.00  0.00     0.037 C 
ATOM     11  O   UNL A   1      35.534  21.942  25.592  1.00  0.00    -0.361 OA
ATOM     12  C   UNL A   1      35.530  24.272  25.351  1.00  0.00     0.047 C 
BRANCH   9  13
ATOM     13  C   UNL A   1      33.873  21.475  27.471  1.00  0.00     0.149 C 
BRANCH  13  14
ATOM     14  N   UNL A   1      33.361  20.437  26.530  1.00  0.00    -0.335 N 
ATOM     15  N   UNL A   1      32.085  21.334  24.682  1.00  0.00    -0.308 N 
ATOM     16  C   UNL A   1      32.773  20.368  25.324  1.00  0.00     0.319 C 
ATOM     17  H   UNL A   1      31.993  21.147  23.720  1.00  0.00     0.171 HD
ATOM     18  O   UNL A   1      32.895  19.292  24.721  1.00  0.00    -0.249 OA
ATOM     19  H   UNL A   1      33.496  19.536  26.903  1.00  0.00     0.165 HD
BRANCH  15  20
ATOM     20  C   UNL A   1      31.468  22.543  25.047  1.00  0.00     0.045 A 
ATOM     21  C   UNL A   1      32.171  23.806  22.917  1.00  0.00     0.046 C 
ATOM     22  C   UNL A   1      31.613  23.732  24.311  1.00  0.00    -0.027 A 
ATOM     23  C   UNL A   1      31.090  24.937  24.836  1.00  0.00     0.005 A 
ATOM     24  C   UNL A   1      30.391  24.961  26.037  1.00  0.00     0.000 A 
ATOM     25  C   UNL A   1      30.613  22.577  26.127  1.00  0.00     0.026 A 
ATOM     26  C   UNL A   1      30.113  23.764  26.662  1.00  0.00     0.002 A 
ENDBRANCH  15  20
ENDBRANCH  13  14
ENDBRANCH   9  13
ENDBRANCH   6   8
ENDBRANCH   5   6
ENDBRANCH   4   5
ENDBRANCH   3   4
ENDBRANCH   2   3
ENDBRANCH   1   2
BRANCH   1  27
ATOM     27  C   UNL A   1      44.055  18.507  25.373  1.00  0.00     0.188 C 
BRANCH  27  28
ATOM     28  O   UNL A   1      43.879  19.712  24.663  1.00  0.00    -0.376 OA
BRANCH  28  29
ATOM     29  C   UNL A   1      44.932  20.649  24.713  1.00  0.00     0.202 C 
BRANCH  29  30
ATOM     30  C   UNL A   1      44.611  21.717  25.759  1.00  0.00     0.261 C 
BRANCH  30  31
ATOM     31  O   UNL A   1      43.231  22.139  25.615  1.00  0.00    -0.460 OA
BRANCH  31  32
ATOM     32  C   UNL A   1      43.033  23.424  25.177  1.00  0.00     0.338 C 
ATOM     33  O   UNL A   1      43.708  23.978  24.320  1.00  0.00    -0.246 OA
BRANCH  32  34
ATOM     34  C   UNL A   1      42.071  24.138  26.078  1.00  0.00     0.060 A 
ATOM     35  C   UNL A   1      41.388  25.310  25.737  1.00  0.00     0.016 A 
ATOM     36  C   UNL A   1      42.123  23.842  27.402  1.00  0.00     0.016 A 
ATOM     37  C   UNL A   1      41.005  26.292  26.731  1.00  0.00     0.010 A 
ATOM     38  C   UNL A   1      41.905  24.891  28.300  1.00  0.00     0.010 A 
ATOM     39  C   UNL A   1      41.405  26.222  28.076  1.00  0.00    -0.014 A 
BRANCH  39  40
ATOM     40  C   UNL A   1      41.310  27.586  29.173  1.00  0.00     0.031 A 
ATOM     41  C   UNL A   1      40.117  28.846  29.431  1.00  0.00     0.074 A 
ATOM     42  C   UNL A   1      42.465  27.925  29.791  1.00  0.00     0.049 A 
ATOM     43  N   UNL A   1      40.305  30.142  29.218  1.00  0.00    -0.248 NA
ATOM     44  C   UNL A   1      38.654  28.729  29.831  1.00  0.00     0.031 C 
ATOM     45  C   UNL A   1      42.659  28.967  30.792  1.00  0.00     0.029 A 
ATOM     46  N   UNL A   1      43.761  27.470  29.518  1.00  0.00    -0.354 N 
ATOM     47  C   UNL A   1      39.094  30.819  29.504  1.00  0.00     0.074 A 
ATOM     48  C   UNL A   1      38.067  29.863  29.513  1.00  0.00     0.031 C 
ATOM     49  C   UNL A   1      43.968  29.269  30.839  1.00  0.00     0.029 A 
ATOM     50  C   UNL A   1      44.622  28.546  29.762  1.00  0.00     0.049 A 
ATOM     51  H   UNL A   1      44.017  26.569  29.213  1.00  0.00     0.167 HD
ATOM     52  C   UNL A   1      38.933  32.019  30.134  1.00  0.00     0.037 A 
ATOM     53  C   UNL A   1      45.411  29.078  28.786  1.00  0.00     0.037 A 
ATOM     54  C   UNL A   1      40.207  32.526  30.516  1.00  0.00     0.049 A 
ATOM     55  C   UNL A   1      45.242  30.571  28.636  1.00  0.00     0.074 A 
ATOM     56  C   UNL A   1      40.966  32.348  31.657  1.00  0.00     0.029 A 
ATOM     57  N   UNL A   1      41.047  32.948  29.516  1.00  0.00    -0.354 N 
ATOM     58  N   UNL A   1      44.229  31.233  29.121  1.00  0.00    -0.248 NA
ATOM     59  C   UNL A   1      46.173  31.438  27.917  1.00  0.00     0.031 C 
ATOM     60  C   UNL A   1      42.312  32.610  31.311  1.00  0.00     0.029 A 
ATOM     61  C   UNL A   1      42.338  32.991  29.983  1.00  0.00     0.049 A 
ATOM     62  H   UNL A   1      40.767  33.183  28.602  1.00  0.00     0.167 HD
ATOM     63  C   UNL A   1      44.332  32.549  28.766  1.00  0.00     0.074 A 
ATOM     64  C   UNL A   1      45.575  32.636  28.033  1.00  0.00     0.031 C 
ATOM     65  C   UNL A   1      43.363  33.451  29.080  1.00  0.00     0.037 A 
BRANCH  52  66
ATOM     66  C   UNL A   1      37.588  32.406  30.753  1.00  0.00     0.057 A 
ATOM     67  C   UNL A   1      37.178  31.919  32.006  1.00  0.00     0.134 A 
ATOM     68  C   UNL A   1      36.603  33.151  30.064  1.00  0.00     0.134 A 
ATOM     69  F   UNL A   1      38.017  31.247  32.803  1.00  0.00    -0.206 F 
ATOM     70  C   UNL A   1      35.865  32.059  32.484  1.00  0.00     0.040 A 
ATOM     71  C   UNL A   1      35.273  33.255  30.507  1.00  0.00     0.040 A 
ATOM     72  F   UNL A   1      36.883  33.721  28.879  1.00  0.00    -0.206 F 
ATOM     73  C   UNL A   1      34.896  32.694  31.719  1.00  0.00     0.006 A 
ENDBRANCH  52  66
BRANCH  53  74
ATOM     74  C   UNL A   1      45.819  28.134  27.703  1.00  0.00     0.057 A 
ATOM     75  C   UNL A   1      45.010  28.021  26.554  1.00  0.00     0.134 A 
ATOM     76  C   UNL A   1      47.091  27.554  27.628  1.00  0.00     0.134 A 
ATOM     77  F   UNL A   1      43.776  28.551  26.544  1.00  0.00    -0.206 F 
ATOM     78  C   UNL A   1      45.468  27.445  25.364  1.00  0.00     0.040 A 
ATOM     79  C   UNL A   1      47.561  26.965  26.441  1.00  0.00     0.040 A 
ATOM     80  F   UNL A   1      47.940  27.630  28.661  1.00  0.00    -0.206 F 
ATOM     81  C   UNL A   1      46.758  26.929  25.300  1.00  0.00     0.006 A 
ENDBRANCH  53  74
BRANCH  65  82
ATOM     82  C   UNL A   1      43.212  34.848  28.550  1.00  0.00     0.057 A 
ATOM     83  C   UNL A   1      42.974  35.137  27.206  1.00  0.00     0.134 A 
ATOM     84  C   UNL A   1      43.038  35.923  29.455  1.00  0.00     0.134 A 
ATOM     85  F   UNL A   1      43.025  34.182  26.266  1.00  0.00    -0.206 F 
ATOM     86  C   UNL A   1      42.595  36.416  26.782  1.00  0.00     0.040 A 
ATOM     87  C   UNL A   1      42.605  37.184  29.051  1.00  0.00     0.040 A 
ATOM     88  F   UNL A   1      43.231  35.768  30.775  1.00  0.00    -0.206 F 
ATOM     89  C   UNL A   1      42.387  37.436  27.706  1.00  0.00     0.006 A 
ENDBRANCH  65  82
ENDBRANCH  39  40
ENDBRANCH  32  34
ENDBRANCH  31  32
ENDBRANCH  30  31
ENDBRANCH  29  30
ENDBRANCH  28  29
ENDBRANCH  27  28
ENDBRANCH   1  27
TORSDOF 20
ENDMDL
MODEL 3
REMARK VINA RESULT:     -11.5      1.412      2.124
REMARK SMILES Cc1ccccc1NC(=O)NC[C@@H]1CC[C@@H](C(=O)OCCOCCOCCOC(=O)c2ccc(-c3c4nc(c(-c5c(F)cccc5F)c5ccc([nH]5)c(-c5c(F)cccc5F)c5nc(c(-c6c(F)cccc6F)c6ccc3[nH]6)C=C5)C=C4)cc2)O1
REMARK SMILES IDX 23 1 22 2 21 3 20 4 19 5 17 6 18 7 16 8 13 9 14 10 85 11
REMARK SMILES IDX 15 12 12 13 11 14 8 15 9 16 10 18 7 20 1 21 2 22 3 23 4 24
REMARK SMILES IDX 6 25 5 26 24 27 25 28 26 29 27 30 28 31 29 32 30 33 31 34
REMARK SMILES IDX 32 35 84 36 33 37 83 38 34 39 35 40 36 41 77 42 37 43 82 44
REMARK SMILES IDX 76 45 78 46 38 47 81 48 75 49 74 50 39 52 65 53 48 54 64 55
REMARK SMILES IDX 49 56 52 57 63 58 79 59 50 60 51 61 62 63 80 64 53 65 40 66
REMARK SMILES IDX 41 67 46 68 42 69 43 70 45 71 47 72 44 73 66 74 67 75 72 76
REMARK SMILES IDX 68 77 69 78 71 79 73 80 70 81 54 82 55 83 60 84 56 85 57 86
REMARK SMILES IDX 59 87 61 88 58 89
REMARK H PARENT 8 17 11 19 78 51 52 62
REMARK Flexibility Score: inf
ROOT
ATOM      1  C   UNL A   1      41.875  19.266  26.629  1.00  0.00     0.188 C 
ENDROOT
BRANCH   1   2
ATOM      2  O   UNL A   1      40.597  19.611  26.052  1.00  0.00    -0.376 OA
BRANCH   2   3
ATOM      3  C   UNL A   1      40.066  20.946  26.041  1.00  0.00     0.202 C 
BRANCH   3   4
ATOM      4  C   UNL A   1      38.517  21.300  25.718  1.00  0.00     0.261 C 
BRANCH   4   5
ATOM      5  O   UNL A   1      37.586  22.453  24.765  1.00  0.00    -0.461 OA
BRANCH   5   6
ATOM      6  C   UNL A   1      36.655  22.557  23.666  1.00  0.00     0.335 C 
ATOM      7  O   UNL A   1      36.886  22.854  22.492  1.00  0.00    -0.249 OA
BRANCH   6   8
ATOM      8  C   UNL A   1      35.158  22.375  23.857  1.00  0.00     0.228 C 
ATOM      9  C   UNL A   1      34.626  24.510  24.658  1.00  0.00     0.138 C 
ATOM     10  C   UNL A   1      33.798  24.261  23.410  1.00  0.00     0.037 C 
ATOM     11  O   UNL A   1      34.753  23.134  25.086  1.00  0.00    -0.361 OA
ATOM     12  C   UNL A   1      34.317  22.978  22.789  1.00  0.00     0.047 C 
BRANCH   9  13
ATOM     13  C   UNL A   1      34.038  25.497  25.729  1.00  0.00     0.149 C 
BRANCH  13  14
ATOM     14  N   UNL A   1      32.921  24.907  26.520  1.00  0.00    -0.335 N 
ATOM     15  N   UNL A   1      30.891  26.222  26.480  1.00  0.00    -0.308 N 
ATOM     16  C   UNL A   1      31.605  25.101  26.712  1.00  0.00     0.319 C 
ATOM     17  H   UNL A   1      29.925  26.042  26.429  1.00  0.00     0.171 HD
ATOM     18  O   UNL A   1      30.968  24.125  27.132  1.00  0.00    -0.249 OA
ATOM     19  H   UNL A   1      33.243  24.150  27.062  1.00  0.00     0.165 HD
BRANCH  15  20
ATOM     20  C   UNL A   1      31.187  27.583  26.292  1.00  0.00     0.045 A 
ATOM     21  C   UNL A   1      30.314  27.670  23.871  1.00  0.00     0.046 C 
ATOM     22  C   UNL A   1      31.054  28.233  25.053  1.00  0.00    -0.027 A 
ATOM     23  C   UNL A   1      31.525  29.561  24.916  1.00  0.00     0.005 A 
ATOM     24  C   UNL A   1      32.066  30.251  25.992  1.00  0.00     0.000 A 
ATOM     25  C   UNL A   1      31.550  28.360  27.370  1.00  0.00     0.026 A 
ATOM     26  C   UNL A   1      32.036  29.661  27.238  1.00  0.00     0.002 A 
ENDBRANCH  15  20
ENDBRANCH  13  14
ENDBRANCH   9  13
ENDBRANCH   6   8
ENDBRANCH   5   6
ENDBRANCH   4   5
ENDBRANCH   3   4
ENDBRANCH   2   3
ENDBRANCH   1   2
BRANCH   1  27
ATOM     27  C   UNL A   1      42.885  18.416  25.864  1.00  0.00     0.188 C 
BRANCH  27  28
ATOM     28  O   UNL A   1      43.455  19.216  24.853  1.00  0.00    -0.376 OA
BRANCH  28  29
ATOM     29  C   UNL A   1      44.863  19.289  24.807  1.00  0.00     0.202 C 
BRANCH  29  30
ATOM     30  C   UNL A   1      45.288  20.731  24.530  1.00  0.00     0.261 C 
BRANCH  30  31
ATOM     31  O   UNL A   1      44.112  21.559  24.347  1.00  0.00    -0.460 OA
BRANCH  31  32
ATOM     32  C   UNL A   1      44.329  22.911  24.265  1.00  0.00     0.338 C 
ATOM     33  O   UNL A   1      45.324  23.427  23.774  1.00  0.00    -0.246 OA
BRANCH  32  34
ATOM     34  C   UNL A   1      43.327  23.650  25.100  1.00  0.00     0.060 A 
ATOM     35  C   UNL A   1      42.896  24.956  24.848  1.00  0.00     0.016 A 
ATOM     36  C   UNL A   1      43.086  23.173  26.348  1.00  0.00     0.016 A 
ATOM     37  C   UNL A   1      42.477  25.845  25.912  1.00  0.00     0.010 A 
ATOM     38  C   UNL A   1      42.855  24.112  27.357  1.00  0.00     0.010 A 
ATOM     39  C   UNL A   1      42.602  25.526  27.275  1.00  0.00    -0.014 A 
BRANCH  39  40
ATOM     40  C   UNL A   1      42.499  26.725  28.550  1.00  0.00     0.031 A 
ATOM     41  C   UNL A   1      41.271  27.890  29.014  1.00  0.00     0.074 A 
ATOM     42  C   UNL A   1      43.662  27.025  29.171  1.00  0.00     0.049 A 
ATOM     43  N   UNL A   1      41.404  29.210  28.974  1.00  0.00    -0.248 NA
ATOM     44  C   UNL A   1      39.829  27.661  29.440  1.00  0.00     0.031 C 
ATOM     45  C   UNL A   1      43.856  27.930  30.298  1.00  0.00     0.029 A 
ATOM     46  N   UNL A   1      44.963  26.664  28.797  1.00  0.00    -0.354 N 
ATOM     47  C   UNL A   1      40.181  29.792  29.386  1.00  0.00     0.074 A 
ATOM     48  C   UNL A   1      39.190  28.802  29.298  1.00  0.00     0.031 C 
ATOM     49  C   UNL A   1      45.153  28.276  30.344  1.00  0.00     0.029 A 
ATOM     50  C   UNL A   1      45.793  27.731  29.158  1.00  0.00     0.049 A 
ATOM     51  H   UNL A   1      45.240  25.823  28.365  1.00  0.00     0.167 HD
ATOM     52  C   UNL A   1      40.000  30.889  30.179  1.00  0.00     0.037 A 
ATOM     53  C   UNL A   1      46.526  28.422  28.239  1.00  0.00     0.037 A 
ATOM     54  C   UNL A   1      41.268  31.391  30.586  1.00  0.00     0.049 A 
ATOM     55  C   UNL A   1      46.298  29.913  28.299  1.00  0.00     0.074 A 
ATOM     56  C   UNL A   1      42.075  31.092  31.667  1.00  0.00     0.029 A 
ATOM     57  N   UNL A   1      42.055  31.977  29.626  1.00  0.00    -0.354 N 
ATOM     58  N   UNL A   1      45.281  30.462  28.901  1.00  0.00    -0.248 NA
ATOM     59  C   UNL A   1      47.170  30.906  27.675  1.00  0.00     0.031 C 
ATOM     60  C   UNL A   1      43.396  31.452  31.318  1.00  0.00     0.029 A 
ATOM     61  C   UNL A   1      43.360  32.010  30.054  1.00  0.00     0.049 A 
ATOM     62  H   UNL A   1      41.734  32.322  28.762  1.00  0.00     0.167 HD
ATOM     63  C   UNL A   1      45.322  31.817  28.725  1.00  0.00     0.074 A 
ATOM     64  C   UNL A   1      46.533  32.053  27.972  1.00  0.00     0.031 C 
ATOM     65  C   UNL A   1      44.334  32.629  29.189  1.00  0.00     0.037 A 
BRANCH  52  66
ATOM     66  C   UNL A   1      38.665  31.134  30.887  1.00  0.00     0.057 A 
ATOM     67  C   UNL A   1      38.330  30.483  32.086  1.00  0.00     0.134 A 
ATOM     68  C   UNL A   1      37.622  31.905  30.327  1.00  0.00     0.134 A 
ATOM     69  F   UNL A   1      39.230  29.764  32.767  1.00  0.00    -0.206 F 
ATOM     70  C   UNL A   1      37.033  30.501  32.624  1.00  0.00     0.040 A 
ATOM     71  C   UNL A   1      36.308  31.891  30.826  1.00  0.00     0.040 A 
ATOM     72  F   UNL A   1      37.827  32.623  29.210  1.00  0.00    -0.206 F 
ATOM     73  C   UNL A   1      36.006  31.173  31.975  1.00  0.00     0.006 A 
ENDBRANCH  52  66
BRANCH  53  74
ATOM     74  C   UNL A   1      46.928  27.650  27.026  1.00  0.00     0.057 A 
ATOM     75  C   UNL A   1      46.096  27.682  25.888  1.00  0.00     0.134 A 
ATOM     76  C   UNL A   1      48.208  27.114  26.844  1.00  0.00     0.134 A 
ATOM     77  F   UNL A   1      44.852  28.182  25.978  1.00  0.00    -0.206 F 
ATOM     78  C   UNL A   1      46.538  27.291  24.620  1.00  0.00     0.040 A 
ATOM     79  C   UNL A   1      48.663  26.709  25.577  1.00  0.00     0.040 A 
ATOM     80  F   UNL A   1      49.078  27.061  27.862  1.00  0.00    -0.206 F 
ATOM     81  C   UNL A   1      47.835  26.818  24.459  1.00  0.00     0.006 A 
ENDBRANCH  53  74
BRANCH  65  82
ATOM     82  C   UNL A   1      44.114  34.076  28.860  1.00  0.00     0.057 A 
ATOM     83  C   UNL A   1      44.353  35.114  29.763  1.00  0.00     0.134 A 
ATOM     84  C   UNL A   1      43.908  34.463  27.514  1.00  0.00     0.134 A 
ATOM     85  F   UNL A   1      44.643  34.868  31.049  1.00  0.00    -0.206 F 
ATOM     86  C   UNL A   1      44.377  36.453  29.359  1.00  0.00     0.040 A 
ATOM     87  C   UNL A   1      43.988  35.789  27.090  1.00  0.00     0.040 A 
ATOM     88  F   UNL A   1      43.676  33.557  26.550  1.00  0.00    -0.206 F 
ATOM     89  C   UNL A   1      44.217  36.792  28.018  1.00  0.00     0.006 A 
ENDBRANCH  65  82
ENDBRANCH  39  40
ENDBRANCH  32  34
ENDBRANCH  31  32
ENDBRANCH  30  31
ENDBRANCH  29  30
ENDBRANCH  28  29
ENDBRANCH  27  28
ENDBRANCH   1  27
TORSDOF 20
ENDMDL
