MODEL 1
REMARK VINA RESULT:     -13.3      0.000      0.000
REMARK SMILES Cc1ccc([C@@]23C[C@@H]4C[C@@H](C[C@@](C(=O)N5CCC(C(=O)OCCOCCOCCOC(=O)c6ccc(-c7c8nc(c(-c9c(F)cccc9F)c9ccc([nH]9)c(-c9c(F)cccc9F)c9nc(c(-c%10c(F)cccc%10F)c%10ccc7[nH]%10)C=C9)C=C8)cc6)CC5)(C4)C2)C3)cc1
REMARK SMILES IDX 25 1 24 2 23 3 22 4 21 5 19 6 20 7 18 8 13 9 14 10 15 11
REMARK SMILES IDX 16 12 88 13 17 14 87 15 12 16 6 17 7 18 90 19 91 20 8 21
REMARK SMILES IDX 10 22 9 23 89 24 11 25 5 26 1 27 2 28 3 29 93 30 4 31 92 32
REMARK SMILES IDX 26 33 27 34 28 35 29 36 30 37 31 38 32 39 33 40 34 41 86 42
REMARK SMILES IDX 35 43 85 44 36 45 37 46 38 47 79 48 39 49 84 50 78 51 80 52
REMARK SMILES IDX 40 53 83 54 77 55 76 56 41 58 67 59 50 60 66 61 51 62 54 63
REMARK SMILES IDX 65 64 81 65 52 66 53 67 64 69 82 70 55 71 42 72 43 73 48 74
REMARK SMILES IDX 44 75 45 76 47 77 49 78 46 79 68 80 69 81 74 82 70 83 71 84
REMARK SMILES IDX 73 85 75 86 72 87 56 88 57 89 62 90 58 91 59 92 61 93 63 94
REMARK SMILES IDX 60 95
REMARK H PARENT 80 57 54 68
REMARK Flexibility Score: inf
ROOT
ATOM      1  C   UNL A   1      33.105  35.439  29.092  1.00  0.00     0.188 C 
ENDROOT
BRANCH   1   2
ATOM      2  O   UNL A   1      33.114  34.005  29.070  1.00  0.00    -0.376 OA
BRANCH   2   3
ATOM      3  C   UNL A   1      34.018  33.214  28.301  1.00  0.00     0.202 C 
BRANCH   3   4
ATOM      4  C   UNL A   1      34.130  31.566  28.062  1.00  0.00     0.261 C 
BRANCH   4   5
ATOM      5  O   UNL A   1      33.856  30.414  26.732  1.00  0.00    -0.463 OA
BRANCH   5   6
ATOM      6  C   UNL A   1      33.922  29.030  26.366  1.00  0.00     0.309 C 
ATOM      7  O   UNL A   1      34.722  28.144  26.690  1.00  0.00    -0.252 OA
BRANCH   6   8
ATOM      8  C   UNL A   1      32.938  28.354  25.519  1.00  0.00     0.103 C 
ATOM      9  C   UNL A   1      31.592  24.967  25.596  1.00  0.00     0.228 C 
ATOM     10  O   UNL A   1      31.258  24.773  26.765  1.00  0.00    -0.274 OA
ATOM     11  N   UNL A   1      31.381  26.193  24.952  1.00  0.00    -0.342 N 
ATOM     12  C   UNL A   1      30.673  27.218  25.686  1.00  0.00     0.120 C 
ATOM     13  C   UNL A   1      32.256  26.743  23.907  1.00  0.00     0.120 C 
ATOM     14  C   UNL A   1      31.719  28.010  26.430  1.00  0.00     0.037 C 
ATOM     15  C   UNL A   1      33.471  27.312  24.609  1.00  0.00     0.037 C 
BRANCH   9  16
ATOM     16  C   UNL A   1      32.193  23.848  24.750  1.00  0.00     0.051 C 
ATOM     17  C   UNL A   1      34.461  22.694  24.498  1.00  0.00    -0.003 C 
ATOM     18  C   UNL A   1      33.702  21.365  24.797  1.00  0.00     0.015 C 
ATOM     19  C   UNL A   1      33.678  23.846  25.117  1.00  0.00     0.028 C 
ATOM     20  C   UNL A   1      34.407  22.954  22.971  1.00  0.00     0.015 C 
ATOM     21  C   UNL A   1      32.266  21.385  24.235  1.00  0.00    -0.009 C 
ATOM     22  C   UNL A   1      32.934  23.038  22.478  1.00  0.00    -0.009 C 
ATOM     23  C   UNL A   1      32.259  21.681  22.737  1.00  0.00     0.007 C 
ATOM     24  C   UNL A   1      31.487  22.488  24.935  1.00  0.00     0.020 C 
ATOM     25  C   UNL A   1      32.152  24.144  23.234  1.00  0.00     0.020 C 
BRANCH  17  26
ATOM     26  C   UNL A   1      35.877  22.661  25.108  1.00  0.00    -0.042 A 
ATOM     27  C   UNL A   1      39.984  22.679  26.528  1.00  0.00     0.044 C 
ATOM     28  C   UNL A   1      38.563  22.686  26.059  1.00  0.00    -0.051 A 
ATOM     29  C   UNL A   1      38.050  21.551  25.445  1.00  0.00     0.004 A 
ATOM     30  C   UNL A   1      37.732  23.802  26.208  1.00  0.00     0.004 A 
ATOM     31  C   UNL A   1      36.731  21.536  24.997  1.00  0.00     0.004 A 
ATOM     32  C   UNL A   1      36.409  23.790  25.739  1.00  0.00     0.004 A 
ENDBRANCH  17  26
ENDBRANCH   9  16
ENDBRANCH   6   8
ENDBRANCH   5   6
ENDBRANCH   4   5
ENDBRANCH   3   4
ENDBRANCH   2   3
ENDBRANCH   1   2
BRANCH   1  33
ATOM     33  C   UNL A   1      33.038  36.207  30.408  1.00  0.00     0.188 C 
BRANCH  33  34
ATOM     34  O   UNL A   1      32.686  35.323  31.457  1.00  0.00    -0.376 OA
BRANCH  34  35
ATOM     35  C   UNL A   1      33.706  35.058  32.402  1.00  0.00     0.202 C 
BRANCH  35  36
ATOM     36  C   UNL A   1      33.688  33.592  32.861  1.00  0.00     0.261 C 
BRANCH  36  37
ATOM     37  O   UNL A   1      34.395  32.753  31.914  1.00  0.00    -0.460 OA
BRANCH  37  38
ATOM     38  C   UNL A   1      35.555  32.157  32.344  1.00  0.00     0.338 C 
ATOM     39  O   UNL A   1      36.071  32.342  33.435  1.00  0.00    -0.246 OA
BRANCH  38  40
ATOM     40  C   UNL A   1      36.229  31.460  31.197  1.00  0.00     0.060 A 
ATOM     41  C   UNL A   1      36.509  30.089  31.126  1.00  0.00     0.016 A 
ATOM     42  C   UNL A   1      36.964  32.248  30.387  1.00  0.00     0.016 A 
ATOM     43  C   UNL A   1      37.706  29.577  30.462  1.00  0.00     0.010 A 
ATOM     44  C   UNL A   1      38.216  31.744  30.043  1.00  0.00     0.010 A 
ATOM     45  C   UNL A   1      38.752  30.406  30.021  1.00  0.00    -0.014 A 
BRANCH  45  46
ATOM     46  C   UNL A   1      40.400  29.843  29.635  1.00  0.00     0.031 A 
ATOM     47  C   UNL A   1      41.047  28.392  28.770  1.00  0.00     0.074 A 
ATOM     48  C   UNL A   1      41.392  30.399  30.371  1.00  0.00     0.049 A 
ATOM     49  N   UNL A   1      41.994  27.595  29.257  1.00  0.00    -0.248 NA
ATOM     50  C   UNL A   1      40.536  27.645  27.545  1.00  0.00     0.031 C 
ATOM     51  C   UNL A   1      42.819  30.111  30.298  1.00  0.00     0.029 A 
ATOM     52  N   UNL A   1      41.270  31.226  31.493  1.00  0.00    -0.354 N 
ATOM     53  C   UNL A   1      42.139  26.450  28.445  1.00  0.00     0.074 A 
ATOM     54  C   UNL A   1      41.150  26.491  27.460  1.00  0.00     0.031 C 
ATOM     55  C   UNL A   1      43.380  30.454  31.467  1.00  0.00     0.029 A 
ATOM     56  C   UNL A   1      42.318  30.887  32.355  1.00  0.00     0.049 A 
ATOM     57  H   UNL A   1      40.580  31.913  31.646  1.00  0.00     0.167 HD
ATOM     58  C   UNL A   1      43.114  25.507  28.502  1.00  0.00     0.037 A 
ATOM     59  C   UNL A   1      42.122  30.489  33.641  1.00  0.00     0.037 A 
ATOM     60  C   UNL A   1      44.037  25.848  29.525  1.00  0.00     0.049 A 
ATOM     61  C   UNL A   1      42.850  29.217  33.991  1.00  0.00     0.074 A 
ATOM     62  C   UNL A   1      45.060  26.776  29.534  1.00  0.00     0.029 A 
ATOM     63  N   UNL A   1      43.681  25.592  30.828  1.00  0.00    -0.354 N 
ATOM     64  N   UNL A   1      43.258  28.341  33.114  1.00  0.00    -0.248 NA
ATOM     65  C   UNL A   1      43.171  28.825  35.360  1.00  0.00     0.031 C 
ATOM     66  C   UNL A   1      45.278  27.138  30.880  1.00  0.00     0.029 A 
ATOM     67  C   UNL A   1      44.446  26.365  31.670  1.00  0.00     0.049 A 
ATOM     68  H   UNL A   1      42.988  24.954  31.114  1.00  0.00     0.167 HD
ATOM     69  C   UNL A   1      43.843  27.284  33.766  1.00  0.00     0.074 A 
ATOM     70  C   UNL A   1      43.787  27.646  35.165  1.00  0.00     0.031 C 
ATOM     71  C   UNL A   1      44.312  26.193  33.097  1.00  0.00     0.037 A 
BRANCH  58  72
ATOM     72  C   UNL A   1      43.345  24.562  27.336  1.00  0.00     0.057 A 
ATOM     73  C   UNL A   1      43.209  23.178  27.522  1.00  0.00     0.134 A 
ATOM     74  C   UNL A   1      43.876  24.943  26.084  1.00  0.00     0.134 A 
ATOM     75  F   UNL A   1      42.650  22.683  28.634  1.00  0.00    -0.206 F 
ATOM     76  C   UNL A   1      43.689  22.240  26.596  1.00  0.00     0.040 A 
ATOM     77  C   UNL A   1      44.415  24.015  25.175  1.00  0.00     0.040 A 
ATOM     78  F   UNL A   1      43.961  26.238  25.739  1.00  0.00    -0.206 F 
ATOM     79  C   UNL A   1      44.340  22.655  25.441  1.00  0.00     0.006 A 
ENDBRANCH  58  72
BRANCH  59  80
ATOM     80  C   UNL A   1      40.869  30.977  34.288  1.00  0.00     0.057 A 
ATOM     81  C   UNL A   1      39.687  30.220  34.150  1.00  0.00     0.134 A 
ATOM     82  C   UNL A   1      40.847  31.998  35.244  1.00  0.00     0.134 A 
ATOM     83  F   UNL A   1      39.627  29.221  33.255  1.00  0.00    -0.206 F 
ATOM     84  C   UNL A   1      38.576  30.406  34.978  1.00  0.00     0.040 A 
ATOM     85  C   UNL A   1      39.734  32.201  36.076  1.00  0.00     0.040 A 
ATOM     86  F   UNL A   1      41.929  32.760  35.458  1.00  0.00    -0.206 F 
ATOM     87  C   UNL A   1      38.604  31.391  35.960  1.00  0.00     0.006 A 
ENDBRANCH  59  80
BRANCH  71  88
ATOM     88  C   UNL A   1      44.721  24.856  33.670  1.00  0.00     0.057 A 
ATOM     89  C   UNL A   1      46.043  24.406  33.746  1.00  0.00     0.134 A 
ATOM     90  C   UNL A   1      43.776  24.057  34.363  1.00  0.00     0.134 A 
ATOM     91  F   UNL A   1      47.056  25.106  33.220  1.00  0.00    -0.206 F 
ATOM     92  C   UNL A   1      46.396  23.234  34.430  1.00  0.00     0.040 A 
ATOM     93  C   UNL A   1      44.126  22.927  35.105  1.00  0.00     0.040 A 
ATOM     94  F   UNL A   1      42.468  24.358  34.383  1.00  0.00    -0.206 F 
ATOM     95  C   UNL A   1      45.443  22.504  35.130  1.00  0.00     0.006 A 
ENDBRANCH  71  88
ENDBRANCH  45  46
ENDBRANCH  38  40
ENDBRANCH  37  38
ENDBRANCH  36  37
ENDBRANCH  35  36
ENDBRANCH  34  35
ENDBRANCH  33  34
ENDBRANCH   1  33
TORSDOF 19
ENDMDL
MODEL 2
REMARK VINA RESULT:     -13.1      1.650      2.423
REMARK SMILES Cc1ccc([C@@]23C[C@@H]4C[C@@H](C[C@@](C(=O)N5CCC(C(=O)OCCOCCOCCOC(=O)c6ccc(-c7c8nc(c(-c9c(F)cccc9F)c9ccc([nH]9)c(-c9c(F)cccc9F)c9nc(c(-c%10c(F)cccc%10F)c%10ccc7[nH]%10)C=C9)C=C8)cc6)CC5)(C4)C2)C3)cc1
REMARK SMILES IDX 25 1 24 2 23 3 22 4 21 5 19 6 20 7 18 8 13 9 14 10 15 11
REMARK SMILES IDX 16 12 88 13 17 14 87 15 12 16 6 17 7 18 90 19 91 20 8 21
REMARK SMILES IDX 10 22 9 23 89 24 11 25 5 26 1 27 2 28 3 29 93 30 4 31 92 32
REMARK SMILES IDX 26 33 27 34 28 35 29 36 30 37 31 38 32 39 33 40 34 41 86 42
REMARK SMILES IDX 35 43 85 44 36 45 37 46 38 47 79 48 39 49 84 50 78 51 80 52
REMARK SMILES IDX 40 53 83 54 77 55 76 56 41 58 67 59 50 60 66 61 51 62 54 63
REMARK SMILES IDX 65 64 81 65 52 66 53 67 64 69 82 70 55 71 42 72 43 73 48 74
REMARK SMILES IDX 44 75 45 76 47 77 49 78 46 79 68 80 69 81 74 82 70 83 71 84
REMARK SMILES IDX 73 85 75 86 72 87 56 88 57 89 62 90 58 91 59 92 61 93 63 94
REMARK SMILES IDX 60 95
REMARK H PARENT 80 57 54 68
REMARK Flexibility Score: inf
ROOT
ATOM      1  C   UNL A   1      32.594  36.331  28.818  1.00  0.00     0.188 C 
ENDROOT
BRANCH   1   2
ATOM      2  O   UNL A   1      32.581  34.897  28.800  1.00  0.00    -0.376 OA
BRANCH   2   3
ATOM      3  C   UNL A   1      33.740  34.077  28.937  1.00  0.00     0.202 C 
BRANCH   3   4
ATOM      4  C   UNL A   1      34.095  32.548  28.370  1.00  0.00     0.261 C 
BRANCH   4   5
ATOM      5  O   UNL A   1      33.506  31.455  27.094  1.00  0.00    -0.463 OA
BRANCH   5   6
ATOM      6  C   UNL A   1      32.904  30.177  26.851  1.00  0.00     0.309 C 
ATOM      7  O   UNL A   1      31.823  29.707  27.225  1.00  0.00    -0.252 OA
BRANCH   6   8
ATOM      8  C   UNL A   1      33.489  29.139  26.001  1.00  0.00     0.103 C 
ATOM      9  C   UNL A   1      31.986  26.344  24.207  1.00  0.00     0.228 C 
ATOM     10  O   UNL A   1      31.034  26.823  23.592  1.00  0.00    -0.274 OA
ATOM     11  N   UNL A   1      33.213  27.011  24.324  1.00  0.00    -0.342 N 
ATOM     12  C   UNL A   1      33.358  28.265  23.620  1.00  0.00     0.120 C 
ATOM     13  C   UNL A   1      34.110  26.902  25.483  1.00  0.00     0.120 C 
ATOM     14  C   UNL A   1      32.901  29.344  24.570  1.00  0.00     0.037 C 
ATOM     15  C   UNL A   1      33.523  27.772  26.574  1.00  0.00     0.037 C 
BRANCH   9  16
ATOM     16  C   UNL A   1      31.910  24.948  24.820  1.00  0.00     0.051 C 
ATOM     17  C   UNL A   1      33.535  23.060  25.400  1.00  0.00    -0.003 C 
ATOM     18  C   UNL A   1      32.985  23.173  26.855  1.00  0.00     0.015 C 
ATOM     19  C   UNL A   1      33.335  24.401  24.703  1.00  0.00     0.028 C 
ATOM     20  C   UNL A   1      32.638  22.069  24.615  1.00  0.00     0.015 C 
ATOM     21  C   UNL A   1      31.491  23.557  26.876  1.00  0.00    -0.009 C 
ATOM     22  C   UNL A   1      31.159  22.549  24.609  1.00  0.00    -0.009 C 
ATOM     23  C   UNL A   1      30.653  22.575  26.060  1.00  0.00     0.007 C 
ATOM     24  C   UNL A   1      31.337  24.936  26.253  1.00  0.00     0.020 C 
ATOM     25  C   UNL A   1      31.034  23.972  24.004  1.00  0.00     0.020 C 
BRANCH  17  26
ATOM     26  C   UNL A   1      35.038  22.717  25.412  1.00  0.00    -0.042 A 
ATOM     27  C   UNL A   1      39.227  21.614  25.754  1.00  0.00     0.044 C 
ATOM     28  C   UNL A   1      37.783  21.983  25.615  1.00  0.00    -0.051 A 
ATOM     29  C   UNL A   1      37.355  23.218  26.082  1.00  0.00     0.004 A 
ATOM     30  C   UNL A   1      36.845  21.121  25.036  1.00  0.00     0.004 A 
ATOM     31  C   UNL A   1      36.015  23.581  25.966  1.00  0.00     0.004 A 
ATOM     32  C   UNL A   1      35.492  21.483  24.937  1.00  0.00     0.004 A 
ENDBRANCH  17  26
ENDBRANCH   9  16
ENDBRANCH   6   8
ENDBRANCH   5   6
ENDBRANCH   4   5
ENDBRANCH   3   4
ENDBRANCH   2   3
ENDBRANCH   1   2
BRANCH   1  33
ATOM     33  C   UNL A   1      33.508  37.100  29.768  1.00  0.00     0.188 C 
BRANCH  33  34
ATOM     34  O   UNL A   1      32.829  37.342  30.988  1.00  0.00    -0.376 OA
BRANCH  34  35
ATOM     35  C   UNL A   1      33.655  37.663  32.093  1.00  0.00     0.202 C 
BRANCH  35  36
ATOM     36  C   UNL A   1      33.477  36.660  33.244  1.00  0.00     0.261 C 
BRANCH  36  37
ATOM     37  O   UNL A   1      33.757  35.311  32.792  1.00  0.00    -0.460 OA
BRANCH  37  38
ATOM     38  C   UNL A   1      34.818  34.660  33.373  1.00  0.00     0.338 C 
ATOM     39  O   UNL A   1      35.386  35.024  34.391  1.00  0.00    -0.246 OA
BRANCH  38  40
ATOM     40  C   UNL A   1      35.340  33.602  32.444  1.00  0.00     0.060 A 
ATOM     41  C   UNL A   1      35.746  32.315  32.820  1.00  0.00     0.016 A 
ATOM     42  C   UNL A   1      35.826  34.047  31.268  1.00  0.00     0.016 A 
ATOM     43  C   UNL A   1      36.847  31.625  32.153  1.00  0.00     0.010 A 
ATOM     44  C   UNL A   1      37.040  33.487  30.877  1.00  0.00     0.010 A 
ATOM     45  C   UNL A   1      37.701  32.257  31.231  1.00  0.00    -0.014 A 
BRANCH  45  46
ATOM     46  C   UNL A   1      39.302  31.637  30.741  1.00  0.00     0.031 A 
ATOM     47  C   UNL A   1      39.835  30.245  29.718  1.00  0.00     0.074 A 
ATOM     48  C   UNL A   1      40.344  32.058  31.497  1.00  0.00     0.049 A 
ATOM     49  N   UNL A   1      40.743  29.349  30.095  1.00  0.00    -0.248 NA
ATOM     50  C   UNL A   1      39.248  29.656  28.443  1.00  0.00     0.031 C 
ATOM     51  C   UNL A   1      41.748  31.695  31.351  1.00  0.00     0.029 A 
ATOM     52  N   UNL A   1      40.301  32.774  32.698  1.00  0.00    -0.354 N 
ATOM     53  C   UNL A   1      40.797  28.283  29.170  1.00  0.00     0.074 A 
ATOM     54  C   UNL A   1      39.787  28.481  28.225  1.00  0.00     0.031 C 
ATOM     55  C   UNL A   1      42.359  31.885  32.531  1.00  0.00     0.029 A 
ATOM     56  C   UNL A   1      41.348  32.290  33.489  1.00  0.00     0.049 A 
ATOM     57  H   UNL A   1      39.660  33.482  32.939  1.00  0.00     0.167 HD
ATOM     58  C   UNL A   1      41.712  27.284  29.103  1.00  0.00     0.037 A 
ATOM     59  C   UNL A   1      41.160  31.778  34.735  1.00  0.00     0.037 A 
ATOM     60  C   UNL A   1      42.680  27.466  30.126  1.00  0.00     0.049 A 
ATOM     61  C   UNL A   1      41.817  30.436  34.936  1.00  0.00     0.074 A 
ATOM     62  C   UNL A   1      43.758  28.326  30.194  1.00  0.00     0.029 A 
ATOM     63  N   UNL A   1      42.342  27.102  31.408  1.00  0.00    -0.354 N 
ATOM     64  N   UNL A   1      42.147  29.629  33.965  1.00  0.00    -0.248 NA
ATOM     65  C   UNL A   1      42.147  29.891  36.249  1.00  0.00     0.031 C 
ATOM     66  C   UNL A   1      44.032  28.539  31.562  1.00  0.00     0.029 A 
ATOM     67  C   UNL A   1      43.174  27.740  32.297  1.00  0.00     0.049 A 
ATOM     68  H   UNL A   1      41.617  26.481  31.651  1.00  0.00     0.167 HD
ATOM     69  C   UNL A   1      42.682  28.480  34.491  1.00  0.00     0.074 A 
ATOM     70  C   UNL A   1      42.684  28.703  35.921  1.00  0.00     0.031 C 
ATOM     71  C   UNL A   1      43.065  27.435  33.705  1.00  0.00     0.037 A 
BRANCH  58  72
ATOM     72  C   UNL A   1      41.854  26.448  27.844  1.00  0.00     0.057 A 
ATOM     73  C   UNL A   1      41.141  25.247  27.719  1.00  0.00     0.134 A 
ATOM     74  C   UNL A   1      42.806  26.681  26.827  1.00  0.00     0.134 A 
ATOM     75  F   UNL A   1      40.158  24.936  28.574  1.00  0.00    -0.206 F 
ATOM     76  C   UNL A   1      41.441  24.286  26.742  1.00  0.00     0.040 A 
ATOM     77  C   UNL A   1      43.158  25.703  25.879  1.00  0.00     0.040 A 
ATOM     78  F   UNL A   1      43.482  27.840  26.770  1.00  0.00    -0.206 F 
ATOM     79  C   UNL A   1      42.485  24.490  25.849  1.00  0.00     0.006 A 
ENDBRANCH  58  72
BRANCH  59  80
ATOM     80  C   UNL A   1      39.956  32.272  35.466  1.00  0.00     0.057 A 
ATOM     81  C   UNL A   1      40.005  33.535  36.090  1.00  0.00     0.134 A 
ATOM     82  C   UNL A   1      38.694  31.681  35.353  1.00  0.00     0.134 A 
ATOM     83  F   UNL A   1      41.180  34.170  36.237  1.00  0.00    -0.206 F 
ATOM     84  C   UNL A   1      38.853  34.217  36.496  1.00  0.00     0.040 A 
ATOM     85  C   UNL A   1      37.530  32.351  35.764  1.00  0.00     0.040 A 
ATOM     86  F   UNL A   1      38.546  30.488  34.761  1.00  0.00    -0.206 F 
ATOM     87  C   UNL A   1      37.606  33.631  36.317  1.00  0.00     0.006 A 
ENDBRANCH  59  80
BRANCH  71  88
ATOM     88  C   UNL A   1      43.405  26.026  34.131  1.00  0.00     0.057 A 
ATOM     89  C   UNL A   1      44.679  25.458  34.020  1.00  0.00     0.134 A 
ATOM     90  C   UNL A   1      42.469  25.259  34.871  1.00  0.00     0.134 A 
ATOM     91  F   UNL A   1      45.690  26.107  33.431  1.00  0.00    -0.206 F 
ATOM     92  C   UNL A   1      44.990  24.209  34.575  1.00  0.00     0.040 A 
ATOM     93  C   UNL A   1      42.789  24.047  35.486  1.00  0.00     0.040 A 
ATOM     94  F   UNL A   1      41.206  25.669  35.064  1.00  0.00    -0.206 F 
ATOM     95  C   UNL A   1      44.054  23.510  35.328  1.00  0.00     0.006 A 
ENDBRANCH  71  88
ENDBRANCH  45  46
ENDBRANCH  38  40
ENDBRANCH  37  38
ENDBRANCH  36  37
ENDBRANCH  35  36
ENDBRANCH  34  35
ENDBRANCH  33  34
ENDBRANCH   1  33
TORSDOF 19
ENDMDL
MODEL 3
REMARK VINA RESULT:     -12.9      3.994      9.896
REMARK SMILES Cc1ccc([C@@]23C[C@@H]4C[C@@H](C[C@@](C(=O)N5CCC(C(=O)OCCOCCOCCOC(=O)c6ccc(-c7c8nc(c(-c9c(F)cccc9F)c9ccc([nH]9)c(-c9c(F)cccc9F)c9nc(c(-c%10c(F)cccc%10F)c%10ccc7[nH]%10)C=C9)C=C8)cc6)CC5)(C4)C2)C3)cc1
REMARK SMILES IDX 25 1 24 2 23 3 22 4 21 5 19 6 20 7 18 8 13 9 14 10 15 11
REMARK SMILES IDX 16 12 88 13 17 14 87 15 12 16 6 17 7 18 90 19 91 20 8 21
REMARK SMILES IDX 10 22 9 23 89 24 11 25 5 26 1 27 2 28 3 29 93 30 4 31 92 32
REMARK SMILES IDX 26 33 27 34 28 35 29 36 30 37 31 38 32 39 33 40 34 41 86 42
REMARK SMILES IDX 35 43 85 44 36 45 37 46 38 47 79 48 39 49 84 50 78 51 80 52
REMARK SMILES IDX 40 53 83 54 77 55 76 56 41 58 67 59 50 60 66 61 51 62 54 63
REMARK SMILES IDX 65 64 81 65 52 66 53 67 64 69 82 70 55 71 42 72 43 73 48 74
REMARK SMILES IDX 44 75 45 76 47 77 49 78 46 79 68 80 69 81 74 82 70 83 71 84
REMARK SMILES IDX 73 85 75 86 72 87 56 88 57 89 62 90 58 91 59 92 61 93 63 94
REMARK SMILES IDX 60 95
REMARK H PARENT 80 57 54 68
REMARK Flexibility Score: inf
ROOT
ATOM      1  C   UNL A   1      41.074  21.049  27.192  1.00  0.00     0.188 C 
ENDROOT
BRANCH   1   2
ATOM      2  O   UNL A   1      39.764  21.551  26.890  1.00  0.00    -0.376 OA
BRANCH   2   3
ATOM      3  C   UNL A   1      39.410  22.933  26.886  1.00  0.00     0.202 C 
BRANCH   3   4
ATOM      4  C   UNL A   1      38.168  23.761  26.140  1.00  0.00     0.261 C 
BRANCH   4   5
ATOM      5  O   UNL A   1      36.527  23.406  25.548  1.00  0.00    -0.463 OA
BRANCH   5   6
ATOM      6  C   UNL A   1      35.426  22.496  25.663  1.00  0.00     0.309 C 
ATOM      7  O   UNL A   1      35.226  21.562  26.449  1.00  0.00    -0.252 OA
BRANCH   6   8
ATOM      8  C   UNL A   1      34.220  22.554  24.836  1.00  0.00     0.103 C 
ATOM      9  C   UNL A   1      32.908  25.150  22.639  1.00  0.00     0.228 C 
ATOM     10  O   UNL A   1      33.854  25.484  21.925  1.00  0.00    -0.274 OA
ATOM     11  N   UNL A   1      32.669  23.814  22.986  1.00  0.00    -0.342 N 
ATOM     12  C   UNL A   1      33.532  22.810  22.405  1.00  0.00     0.120 C 
ATOM     13  C   UNL A   1      32.066  23.381  24.255  1.00  0.00     0.120 C 
ATOM     14  C   UNL A   1      34.694  22.646  23.353  1.00  0.00     0.037 C 
ATOM     15  C   UNL A   1      33.152  23.469  25.306  1.00  0.00     0.037 C 
BRANCH   9  16
ATOM     16  C   UNL A   1      31.888  26.173  23.131  1.00  0.00     0.051 C 
ATOM     17  C   UNL A   1      31.836  28.136  24.769  1.00  0.00    -0.003 C 
ATOM     18  C   UNL A   1      31.356  28.998  23.561  1.00  0.00     0.015 C 
ATOM     19  C   UNL A   1      32.620  26.945  24.231  1.00  0.00     0.028 C 
ATOM     20  C   UNL A   1      30.591  27.515  25.450  1.00  0.00     0.015 C 
ATOM     21  C   UNL A   1      30.474  28.185  22.591  1.00  0.00    -0.009 C 
ATOM     22  C   UNL A   1      29.785  26.648  24.441  1.00  0.00    -0.009 C 
ATOM     23  C   UNL A   1      29.282  27.562  23.312  1.00  0.00     0.007 C 
ATOM     24  C   UNL A   1      31.311  27.058  22.005  1.00  0.00     0.020 C 
ATOM     25  C   UNL A   1      30.670  25.531  23.831  1.00  0.00     0.020 C 
BRANCH  17  26
ATOM     26  C   UNL A   1      32.749  28.963  25.698  1.00  0.00    -0.042 A 
ATOM     27  C   UNL A   1      35.170  31.136  28.578  1.00  0.00     0.044 C 
ATOM     28  C   UNL A   1      34.356  30.381  27.574  1.00  0.00    -0.051 A 
ATOM     29  C   UNL A   1      33.133  30.900  27.170  1.00  0.00     0.004 A 
ATOM     30  C   UNL A   1      34.781  29.163  27.033  1.00  0.00     0.004 A 
ATOM     31  C   UNL A   1      32.357  30.212  26.240  1.00  0.00     0.004 A 
ATOM     32  C   UNL A   1      33.989  28.464  26.108  1.00  0.00     0.004 A 
ENDBRANCH  17  26
ENDBRANCH   9  16
ENDBRANCH   6   8
ENDBRANCH   5   6
ENDBRANCH   4   5
ENDBRANCH   3   4
ENDBRANCH   2   3
ENDBRANCH   1   2
BRANCH   1  33
ATOM     33  C   UNL A   1      41.845  20.203  26.184  1.00  0.00     0.188 C 
BRANCH  33  34
ATOM     34  O   UNL A   1      43.230  20.483  26.288  1.00  0.00    -0.376 OA
BRANCH  34  35
ATOM     35  C   UNL A   1      43.981  20.304  25.101  1.00  0.00     0.202 C 
BRANCH  35  36
ATOM     36  C   UNL A   1      44.554  21.634  24.586  1.00  0.00     0.261 C 
BRANCH  36  37
ATOM     37  O   UNL A   1      43.499  22.616  24.427  1.00  0.00    -0.460 OA
BRANCH  37  38
ATOM     38  C   UNL A   1      43.776  23.905  24.813  1.00  0.00     0.338 C 
ATOM     39  O   UNL A   1      44.830  24.484  24.603  1.00  0.00    -0.246 OA
BRANCH  38  40
ATOM     40  C   UNL A   1      42.711  24.399  25.749  1.00  0.00     0.060 A 
ATOM     41  C   UNL A   1      41.933  25.549  25.565  1.00  0.00     0.016 A 
ATOM     42  C   UNL A   1      42.793  23.948  27.017  1.00  0.00     0.016 A 
ATOM     43  C   UNL A   1      41.496  26.376  26.687  1.00  0.00     0.010 A 
ATOM     44  C   UNL A   1      42.617  24.914  28.005  1.00  0.00     0.010 A 
ATOM     45  C   UNL A   1      41.972  26.203  27.998  1.00  0.00    -0.014 A 
BRANCH  45  46
ATOM     46  C   UNL A   1      41.850  27.425  29.293  1.00  0.00     0.031 A 
ATOM     47  C   UNL A   1      40.544  28.566  29.806  1.00  0.00     0.074 A 
ATOM     48  C   UNL A   1      43.029  27.835  29.818  1.00  0.00     0.049 A 
ATOM     49  N   UNL A   1      40.728  29.869  30.001  1.00  0.00    -0.248 NA
ATOM     50  C   UNL A   1      39.032  28.399  29.860  1.00  0.00     0.031 C 
ATOM     51  C   UNL A   1      43.237  28.835  30.858  1.00  0.00     0.029 A 
ATOM     52  N   UNL A   1      44.320  27.546  29.363  1.00  0.00    -0.354 N 
ATOM     53  C   UNL A   1      39.490  30.517  30.198  1.00  0.00     0.074 A 
ATOM     54  C   UNL A   1      38.475  29.576  30.006  1.00  0.00     0.031 C 
ATOM     55  C   UNL A   1      44.486  29.312  30.743  1.00  0.00     0.029 A 
ATOM     56  C   UNL A   1      45.085  28.698  29.574  1.00  0.00     0.049 A 
ATOM     57  H   UNL A   1      44.630  26.697  28.971  1.00  0.00     0.167 HD
ATOM     58  C   UNL A   1      39.273  31.792  30.609  1.00  0.00     0.037 A 
ATOM     59  C   UNL A   1      45.757  29.334  28.577  1.00  0.00     0.037 A 
ATOM     60  C   UNL A   1      40.520  32.424  30.852  1.00  0.00     0.049 A 
ATOM     61  C   UNL A   1      45.493  30.818  28.530  1.00  0.00     0.074 A 
ATOM     62  C   UNL A   1      41.382  32.321  31.927  1.00  0.00     0.029 A 
ATOM     63  N   UNL A   1      41.241  32.871  29.770  1.00  0.00    -0.354 N 
ATOM     64  N   UNL A   1      44.444  31.392  29.050  1.00  0.00    -0.248 NA
ATOM     65  C   UNL A   1      46.388  31.773  27.884  1.00  0.00     0.031 C 
ATOM     66  C   UNL A   1      42.671  32.649  31.458  1.00  0.00     0.029 A 
ATOM     67  C   UNL A   1      42.558  33.028  30.131  1.00  0.00     0.049 A 
ATOM     68  H   UNL A   1      40.871  33.050  28.875  1.00  0.00     0.167 HD
ATOM     69  C   UNL A   1      44.489  32.739  28.794  1.00  0.00     0.074 A 
ATOM     70  C   UNL A   1      45.736  32.932  28.085  1.00  0.00     0.031 C 
ATOM     71  C   UNL A   1      43.488  33.582  29.176  1.00  0.00     0.037 A 
BRANCH  58  72
ATOM     72  C   UNL A   1      37.913  32.215  31.134  1.00  0.00     0.057 A 
ATOM     73  C   UNL A   1      37.183  33.207  30.461  1.00  0.00     0.134 A 
ATOM     74  C   UNL A   1      37.371  31.821  32.377  1.00  0.00     0.134 A 
ATOM     75  F   UNL A   1      37.544  33.620  29.240  1.00  0.00    -0.206 F 
ATOM     76  C   UNL A   1      36.080  33.855  31.037  1.00  0.00     0.040 A 
ATOM     77  C   UNL A   1      36.305  32.502  32.991  1.00  0.00     0.040 A 
ATOM     78  F   UNL A   1      37.914  30.809  33.073  1.00  0.00    -0.206 F 
ATOM     79  C   UNL A   1      35.668  33.540  32.325  1.00  0.00     0.006 A 
ENDBRANCH  58  72
BRANCH  59  80
ATOM     80  C   UNL A   1      46.151  28.487  27.414  1.00  0.00     0.057 A 
ATOM     81  C   UNL A   1      45.246  28.327  26.345  1.00  0.00     0.134 A 
ATOM     82  C   UNL A   1      47.462  28.052  27.191  1.00  0.00     0.134 A 
ATOM     83  F   UNL A   1      43.969  28.720  26.479  1.00  0.00    -0.206 F 
ATOM     84  C   UNL A   1      45.641  27.847  25.092  1.00  0.00     0.040 A 
ATOM     85  C   UNL A   1      47.869  27.560  25.940  1.00  0.00     0.040 A 
ATOM     86  F   UNL A   1      48.397  28.177  28.143  1.00  0.00    -0.206 F 
ATOM     87  C   UNL A   1      46.964  27.477  24.881  1.00  0.00     0.006 A 
ENDBRANCH  59  80
BRANCH  71  88
ATOM     88  C   UNL A   1      43.257  35.010  28.739  1.00  0.00     0.057 A 
ATOM     89  C   UNL A   1      43.317  36.113  29.597  1.00  0.00     0.134 A 
ATOM     90  C   UNL A   1      43.165  35.328  27.359  1.00  0.00     0.134 A 
ATOM     91  F   UNL A   1      43.498  35.969  30.915  1.00  0.00    -0.206 F 
ATOM     92  C   UNL A   1      43.258  37.431  29.124  1.00  0.00     0.040 A 
ATOM     93  C   UNL A   1      43.175  36.637  26.874  1.00  0.00     0.040 A 
ATOM     94  F   UNL A   1      43.098  34.379  26.413  1.00  0.00    -0.206 F 
ATOM     95  C   UNL A   1      43.210  37.698  27.761  1.00  0.00     0.006 A 
ENDBRANCH  71  88
ENDBRANCH  45  46
ENDBRANCH  38  40
ENDBRANCH  37  38
ENDBRANCH  36  37
ENDBRANCH  35  36
ENDBRANCH  34  35
ENDBRANCH  33  34
ENDBRANCH   1  33
TORSDOF 19
ENDMDL
