MODEL 1
REMARK VINA RESULT:      -9.6      0.000      0.000
REMARK SMILES CSCc1ccc(C(=O)N[C@](C)(C(=O)OCCOCCOCCOC(=O)c2ccc(-c3c4nc(c(-c5c(F)cccc5F)c5ccc([nH]5)c(-c5c(F)cccc5F)c5nc(c(-c6c(F)cccc6F)c6ccc3[nH]6)C=C5)C=C4)cc2)C(F)(F)F)o1
REMARK SMILES IDX 19 1 18 2 17 3 16 4 15 5 13 6 14 7 11 8 12 9 10 10 8 11 9 12
REMARK SMILES IDX 7 14 4 15 5 16 85 17 6 18 3 19 2 20 1 21 81 22 82 23 83 24
REMARK SMILES IDX 84 25 20 26 21 27 22 28 23 29 24 30 25 31 26 32 27 33 28 34
REMARK SMILES IDX 80 35 29 36 79 37 30 38 31 39 32 40 73 41 33 42 78 43 72 44
REMARK SMILES IDX 74 45 34 46 77 47 71 48 70 49 35 51 61 52 44 53 60 54 45 55
REMARK SMILES IDX 48 56 59 57 75 58 46 59 47 60 58 62 76 63 49 64 36 65 37 66
REMARK SMILES IDX 42 67 38 68 39 69 41 70 43 71 40 72 62 73 63 74 68 75 64 76
REMARK SMILES IDX 65 77 67 78 69 79 66 80 50 81 51 82 56 83 52 84 53 85 55 86
REMARK SMILES IDX 57 87 54 88
REMARK H PARENT 10 13 74 50 48 61
REMARK Flexibility Score: inf
ROOT
ATOM      1  C   UNL A   1      34.126  32.567  27.692  1.00  0.00     0.188 C 
ENDROOT
BRANCH   1   2
ATOM      2  O   UNL A   1      34.988  31.470  27.985  1.00  0.00    -0.376 OA
BRANCH   2   3
ATOM      3  C   UNL A   1      34.729  30.201  27.391  1.00  0.00     0.202 C 
BRANCH   3   4
ATOM      4  C   UNL A   1      33.305  29.653  27.540  1.00  0.00     0.261 C 
BRANCH   4   5
ATOM      5  O   UNL A   1      33.162  28.397  26.859  1.00  0.00    -0.461 OA
BRANCH   5   6
ATOM      6  C   UNL A   1      32.005  27.714  27.056  1.00  0.00     0.341 C 
ATOM      7  O   UNL A   1      31.148  28.026  27.876  1.00  0.00    -0.249 OA
BRANCH   6   8
ATOM      8  C   UNL A   1      31.874  26.530  26.076  1.00  0.00     0.231 C 
ATOM      9  C   UNL A   1      33.280  25.942  25.821  1.00  0.00     0.058 C 
BRANCH   8  10
ATOM     10  N   UNL A   1      31.069  25.488  26.777  1.00  0.00    -0.326 N 
ATOM     11  C   UNL A   1      30.743  24.189  26.463  1.00  0.00     0.288 C 
ATOM     12  O   UNL A   1      30.016  23.620  27.280  1.00  0.00    -0.266 OA
ATOM     13  H   UNL A   1      30.697  25.790  27.637  1.00  0.00     0.165 HD
BRANCH  11  14
ATOM     14  C   UNL A   1      31.181  23.547  25.233  1.00  0.00     0.191 A 
ATOM     15  C   UNL A   1      32.361  22.000  24.154  1.00  0.00     0.114 A 
ATOM     16  C   UNL A   1      31.658  22.694  23.195  1.00  0.00     0.047 A 
ATOM     17  O   UNL A   1      32.090  22.525  25.381  1.00  0.00    -0.455 OA
ATOM     18  C   UNL A   1      30.919  23.690  23.882  1.00  0.00     0.056 A 
BRANCH  15  19
ATOM     19  C   UNL A   1      33.333  20.876  24.142  1.00  0.00     0.144 C 
BRANCH  19  20
ATOM     20  S   UNL A   1      32.748  19.376  24.990  1.00  0.00    -0.157 SA
ATOM     21  C   UNL A   1      32.880  18.194  23.626  1.00  0.00     0.085 C 
ENDBRANCH  19  20
ENDBRANCH  15  19
ENDBRANCH  11  14
ENDBRANCH   8  10
BRANCH   8  22
ATOM     22  C   UNL A   1      31.183  27.175  24.845  1.00  0.00     0.422 C 
ATOM     23  F   UNL A   1      31.196  28.530  24.914  1.00  0.00    -0.168 F 
ATOM     24  F   UNL A   1      31.776  26.850  23.677  1.00  0.00    -0.168 F 
ATOM     25  F   UNL A   1      29.888  26.806  24.703  1.00  0.00    -0.168 F 
ENDBRANCH   8  22
ENDBRANCH   6   8
ENDBRANCH   5   6
ENDBRANCH   4   5
ENDBRANCH   3   4
ENDBRANCH   2   3
ENDBRANCH   1   2
BRANCH   1  26
ATOM     26  C   UNL A   1      33.747  33.548  28.815  1.00  0.00     0.188 C 
BRANCH  26  27
ATOM     27  O   UNL A   1      34.086  33.085  30.111  1.00  0.00    -0.376 OA
BRANCH  27  28
ATOM     28  C   UNL A   1      34.929  33.939  30.869  1.00  0.00     0.202 C 
BRANCH  28  29
ATOM     29  C   UNL A   1      36.093  33.184  31.517  1.00  0.00     0.261 C 
BRANCH  29  30
ATOM     30  O   UNL A   1      36.744  32.235  30.649  1.00  0.00    -0.460 OA
BRANCH  30  31
ATOM     31  C   UNL A   1      36.813  30.956  31.082  1.00  0.00     0.338 C 
ATOM     32  O   UNL A   1      35.954  30.337  31.685  1.00  0.00    -0.246 OA
BRANCH  31  33
ATOM     33  C   UNL A   1      38.033  30.346  30.510  1.00  0.00     0.060 A 
ATOM     34  C   UNL A   1      38.993  29.810  31.379  1.00  0.00     0.016 A 
ATOM     35  C   UNL A   1      38.227  30.299  29.128  1.00  0.00     0.016 A 
ATOM     36  C   UNL A   1      40.167  29.252  30.865  1.00  0.00     0.010 A 
ATOM     37  C   UNL A   1      39.409  29.757  28.617  1.00  0.00     0.010 A 
ATOM     38  C   UNL A   1      40.398  29.258  29.483  1.00  0.00    -0.014 A 
BRANCH  38  39
ATOM     39  C   UNL A   1      41.738  28.920  28.944  1.00  0.00     0.031 A 
ATOM     40  C   UNL A   1      41.993  27.502  28.504  1.00  0.00     0.074 A 
ATOM     41  C   UNL A   1      42.718  29.836  28.857  1.00  0.00     0.049 A 
ATOM     42  N   UNL A   1      43.103  26.947  28.090  1.00  0.00    -0.248 NA
ATOM     43  C   UNL A   1      40.838  26.590  28.540  1.00  0.00     0.031 C 
ATOM     44  C   UNL A   1      42.596  31.248  29.211  1.00  0.00     0.029 A 
ATOM     45  N   UNL A   1      44.025  29.700  28.455  1.00  0.00    -0.354 N 
ATOM     46  C   UNL A   1      42.783  25.623  27.825  1.00  0.00     0.074 A 
ATOM     47  C   UNL A   1      41.382  25.450  28.142  1.00  0.00     0.031 C 
ATOM     48  C   UNL A   1      43.789  31.845  29.034  1.00  0.00     0.029 A 
ATOM     49  C   UNL A   1      44.764  30.851  28.585  1.00  0.00     0.049 A 
ATOM     50  H   UNL A   1      44.398  28.858  28.107  1.00  0.00     0.167 HD
ATOM     51  C   UNL A   1      43.582  24.637  27.355  1.00  0.00     0.037 A 
ATOM     52  C   UNL A   1      46.081  31.066  28.392  1.00  0.00     0.037 A 
ATOM     53  C   UNL A   1      44.975  24.798  27.040  1.00  0.00     0.049 A 
ATOM     54  C   UNL A   1      46.967  29.930  27.943  1.00  0.00     0.074 A 
ATOM     55  C   UNL A   1      45.859  23.858  26.539  1.00  0.00     0.029 A 
ATOM     56  N   UNL A   1      45.689  25.974  27.202  1.00  0.00    -0.354 N 
ATOM     57  N   UNL A   1      46.647  28.690  27.664  1.00  0.00    -0.248 NA
ATOM     58  C   UNL A   1      48.400  30.227  27.786  1.00  0.00     0.031 C 
ATOM     59  C   UNL A   1      47.120  24.454  26.440  1.00  0.00     0.029 A 
ATOM     60  C   UNL A   1      47.009  25.777  26.834  1.00  0.00     0.049 A 
ATOM     61  H   UNL A   1      45.314  26.823  27.529  1.00  0.00     0.167 HD
ATOM     62  C   UNL A   1      47.828  28.071  27.267  1.00  0.00     0.074 A 
ATOM     63  C   UNL A   1      48.870  29.074  27.333  1.00  0.00     0.031 C 
ATOM     64  C   UNL A   1      48.032  26.788  26.883  1.00  0.00     0.037 A 
BRANCH  51  65
ATOM     65  C   UNL A   1      42.972  23.281  27.173  1.00  0.00     0.057 A 
ATOM     66  C   UNL A   1      42.718  22.435  28.260  1.00  0.00     0.134 A 
ATOM     67  C   UNL A   1      42.590  22.836  25.902  1.00  0.00     0.134 A 
ATOM     68  F   UNL A   1      43.077  22.797  29.501  1.00  0.00    -0.206 F 
ATOM     69  C   UNL A   1      42.115  21.188  28.087  1.00  0.00     0.040 A 
ATOM     70  C   UNL A   1      41.967  21.601  25.718  1.00  0.00     0.040 A 
ATOM     71  F   UNL A   1      42.805  23.601  24.821  1.00  0.00    -0.206 F 
ATOM     72  C   UNL A   1      41.730  20.773  26.813  1.00  0.00     0.006 A 
ENDBRANCH  51  65
BRANCH  52  73
ATOM     73  C   UNL A   1      46.671  32.406  28.649  1.00  0.00     0.057 A 
ATOM     74  C   UNL A   1      46.796  33.352  27.624  1.00  0.00     0.134 A 
ATOM     75  C   UNL A   1      47.185  32.744  29.906  1.00  0.00     0.134 A 
ATOM     76  F   UNL A   1      46.350  33.073  26.390  1.00  0.00    -0.206 F 
ATOM     77  C   UNL A   1      47.436  34.575  27.833  1.00  0.00     0.040 A 
ATOM     78  C   UNL A   1      47.804  33.975  30.136  1.00  0.00     0.040 A 
ATOM     79  F   UNL A   1      47.103  31.880  30.927  1.00  0.00    -0.206 F 
ATOM     80  C   UNL A   1      47.940  34.890  29.093  1.00  0.00     0.006 A 
ENDBRANCH  52  73
BRANCH  64  81
ATOM     81  C   UNL A   1      49.418  26.401  26.454  1.00  0.00     0.057 A 
ATOM     82  C   UNL A   1      50.274  25.669  27.286  1.00  0.00     0.134 A 
ATOM     83  C   UNL A   1      49.882  26.725  25.173  1.00  0.00     0.134 A 
ATOM     84  F   UNL A   1      49.894  25.337  28.529  1.00  0.00    -0.206 F 
ATOM     85  C   UNL A   1      51.549  25.287  26.864  1.00  0.00     0.040 A 
ATOM     86  C   UNL A   1      51.144  26.327  24.730  1.00  0.00     0.040 A 
ATOM     87  F   UNL A   1      49.108  27.416  24.323  1.00  0.00    -0.206 F 
ATOM     88  C   UNL A   1      51.984  25.610  25.579  1.00  0.00     0.006 A 
ENDBRANCH  64  81
ENDBRANCH  38  39
ENDBRANCH  31  33
ENDBRANCH  30  31
ENDBRANCH  29  30
ENDBRANCH  28  29
ENDBRANCH  27  28
ENDBRANCH  26  27
ENDBRANCH   1  26
TORSDOF 22
ENDMDL
MODEL 2
REMARK VINA RESULT:      -9.6      3.302      8.205
REMARK SMILES CSCc1ccc(C(=O)N[C@](C)(C(=O)OCCOCCOCCOC(=O)c2ccc(-c3c4nc(c(-c5c(F)cccc5F)c5ccc([nH]5)c(-c5c(F)cccc5F)c5nc(c(-c6c(F)cccc6F)c6ccc3[nH]6)C=C5)C=C4)cc2)C(F)(F)F)o1
REMARK SMILES IDX 19 1 18 2 17 3 16 4 15 5 13 6 14 7 11 8 12 9 10 10 8 11 9 12
REMARK SMILES IDX 7 14 4 15 5 16 85 17 6 18 3 19 2 20 1 21 81 22 82 23 83 24
REMARK SMILES IDX 84 25 20 26 21 27 22 28 23 29 24 30 25 31 26 32 27 33 28 34
REMARK SMILES IDX 80 35 29 36 79 37 30 38 31 39 32 40 73 41 33 42 78 43 72 44
REMARK SMILES IDX 74 45 34 46 77 47 71 48 70 49 35 51 61 52 44 53 60 54 45 55
REMARK SMILES IDX 48 56 59 57 75 58 46 59 47 60 58 62 76 63 49 64 36 65 37 66
REMARK SMILES IDX 42 67 38 68 39 69 41 70 43 71 40 72 62 73 63 74 68 75 64 76
REMARK SMILES IDX 65 77 67 78 69 79 66 80 50 81 51 82 56 83 52 84 53 85 55 86
REMARK SMILES IDX 57 87 54 88
REMARK H PARENT 10 13 74 50 48 61
REMARK Flexibility Score: inf
ROOT
ATOM      1  C   UNL A   1      36.176  21.124  25.879  1.00  0.00     0.188 C 
ENDROOT
BRANCH   1   2
ATOM      2  O   UNL A   1      34.776  21.295  25.673  1.00  0.00    -0.376 OA
BRANCH   2   3
ATOM      3  C   UNL A   1      33.990  20.180  25.261  1.00  0.00     0.202 C 
BRANCH   3   4
ATOM      4  C   UNL A   1      32.715  20.497  24.471  1.00  0.00     0.261 C 
BRANCH   4   5
ATOM      5  O   UNL A   1      32.492  21.914  24.399  1.00  0.00    -0.461 OA
BRANCH   5   6
ATOM      6  C   UNL A   1      32.170  22.430  23.185  1.00  0.00     0.341 C 
ATOM      7  O   UNL A   1      31.822  21.760  22.219  1.00  0.00    -0.249 OA
BRANCH   6   8
ATOM      8  C   UNL A   1      32.238  23.970  23.190  1.00  0.00     0.231 C 
ATOM      9  C   UNL A   1      33.446  24.409  24.048  1.00  0.00     0.058 C 
BRANCH   8  10
ATOM     10  N   UNL A   1      32.508  24.386  21.783  1.00  0.00    -0.326 N 
ATOM     11  C   UNL A   1      32.745  25.608  21.197  1.00  0.00     0.288 C 
ATOM     12  O   UNL A   1      32.900  25.581  19.974  1.00  0.00    -0.266 OA
ATOM     13  H   UNL A   1      32.519  23.635  21.146  1.00  0.00     0.165 HD
BRANCH  11  14
ATOM     14  C   UNL A   1      32.762  26.849  21.955  1.00  0.00     0.191 A 
ATOM     15  C   UNL A   1      31.715  28.533  22.965  1.00  0.00     0.114 A 
ATOM     16  C   UNL A   1      33.061  28.728  23.176  1.00  0.00     0.047 A 
ATOM     17  O   UNL A   1      31.533  27.412  22.213  1.00  0.00    -0.455 OA
ATOM     18  C   UNL A   1      33.729  27.664  22.519  1.00  0.00     0.056 A 
BRANCH  15  19
ATOM     19  C   UNL A   1      30.473  29.262  23.333  1.00  0.00     0.144 C 
BRANCH  19  20
ATOM     20  S   UNL A   1      28.947  28.294  23.111  1.00  0.00    -0.157 SA
ATOM     21  C   UNL A   1      27.761  29.649  22.930  1.00  0.00     0.085 C 
ENDBRANCH  19  20
ENDBRANCH  15  19
ENDBRANCH  11  14
ENDBRANCH   8  10
BRANCH   8  22
ATOM     22  C   UNL A   1      30.843  24.376  23.737  1.00  0.00     0.422 C 
ATOM     23  F   UNL A   1      30.876  25.587  24.348  1.00  0.00    -0.168 F 
ATOM     24  F   UNL A   1      29.903  24.464  22.772  1.00  0.00    -0.168 F 
ATOM     25  F   UNL A   1      30.346  23.499  24.641  1.00  0.00    -0.168 F 
ENDBRANCH   8  22
ENDBRANCH   6   8
ENDBRANCH   5   6
ENDBRANCH   4   5
ENDBRANCH   3   4
ENDBRANCH   2   3
ENDBRANCH   1   2
BRANCH   1  26
ATOM     26  C   UNL A   1      37.164  21.695  24.846  1.00  0.00     0.188 C 
BRANCH  26  27
ATOM     27  O   UNL A   1      38.507  21.301  25.067  1.00  0.00    -0.376 OA
BRANCH  27  28
ATOM     28  C   UNL A   1      38.754  19.903  25.017  1.00  0.00     0.202 C 
BRANCH  28  29
ATOM     29  C   UNL A   1      39.839  19.468  26.007  1.00  0.00     0.261 C 
BRANCH  29  30
ATOM     30  O   UNL A   1      41.032  18.945  25.390  1.00  0.00    -0.460 OA
BRANCH  30  31
ATOM     31  C   UNL A   1      42.174  19.012  26.112  1.00  0.00     0.338 C 
ATOM     32  O   UNL A   1      42.983  18.119  26.293  1.00  0.00    -0.246 OA
BRANCH  31  33
ATOM     33  C   UNL A   1      42.400  20.427  26.476  1.00  0.00     0.060 A 
ATOM     34  C   UNL A   1      42.678  21.352  25.461  1.00  0.00     0.016 A 
ATOM     35  C   UNL A   1      42.333  20.841  27.809  1.00  0.00     0.016 A 
ATOM     36  C   UNL A   1      42.922  22.691  25.781  1.00  0.00     0.010 A 
ATOM     37  C   UNL A   1      42.595  22.175  28.128  1.00  0.00     0.010 A 
ATOM     38  C   UNL A   1      42.920  23.101  27.121  1.00  0.00    -0.014 A 
BRANCH  38  39
ATOM     39  C   UNL A   1      43.435  24.440  27.498  1.00  0.00     0.031 A 
ATOM     40  C   UNL A   1      42.443  25.493  27.918  1.00  0.00     0.074 A 
ATOM     41  C   UNL A   1      44.746  24.732  27.456  1.00  0.00     0.049 A 
ATOM     42  N   UNL A   1      42.640  26.755  28.200  1.00  0.00    -0.248 NA
ATOM     43  C   UNL A   1      41.041  25.060  28.031  1.00  0.00     0.031 C 
ATOM     44  C   UNL A   1      45.814  23.800  27.104  1.00  0.00     0.029 A 
ATOM     45  N   UNL A   1      45.398  25.918  27.697  1.00  0.00    -0.354 N 
ATOM     46  C   UNL A   1      41.389  27.267  28.517  1.00  0.00     0.074 A 
ATOM     47  C   UNL A   1      40.437  26.188  28.373  1.00  0.00     0.031 C 
ATOM     48  C   UNL A   1      46.989  24.455  27.128  1.00  0.00     0.029 A 
ATOM     49  C   UNL A   1      46.752  25.858  27.467  1.00  0.00     0.049 A 
ATOM     50  H   UNL A   1      44.940  26.732  28.007  1.00  0.00     0.167 HD
ATOM     51  C   UNL A   1      41.061  28.524  28.896  1.00  0.00     0.037 A 
ATOM     52  C   UNL A   1      47.682  26.833  27.496  1.00  0.00     0.037 A 
ATOM     53  C   UNL A   1      42.000  29.604  29.039  1.00  0.00     0.049 A 
ATOM     54  C   UNL A   1      47.278  28.244  27.847  1.00  0.00     0.074 A 
ATOM     55  C   UNL A   1      41.760  30.907  29.439  1.00  0.00     0.029 A 
ATOM     56  N   UNL A   1      43.357  29.507  28.779  1.00  0.00    -0.354 N 
ATOM     57  N   UNL A   1      46.097  28.711  28.175  1.00  0.00    -0.248 NA
ATOM     58  C   UNL A   1      48.338  29.264  27.827  1.00  0.00     0.031 C 
ATOM     59  C   UNL A   1      42.966  31.611  29.378  1.00  0.00     0.029 A 
ATOM     60  C   UNL A   1      43.963  30.734  28.987  1.00  0.00     0.049 A 
ATOM     61  H   UNL A   1      43.821  28.688  28.490  1.00  0.00     0.167 HD
ATOM     62  C   UNL A   1      46.281  30.065  28.433  1.00  0.00     0.074 A 
ATOM     63  C   UNL A   1      47.687  30.345  28.231  1.00  0.00     0.031 C 
ATOM     64  C   UNL A   1      45.368  30.995  28.803  1.00  0.00     0.037 A 
BRANCH  51  65
ATOM     65  C   UNL A   1      39.615  28.810  29.165  1.00  0.00     0.057 A 
ATOM     66  C   UNL A   1      39.064  28.684  30.446  1.00  0.00     0.134 A 
ATOM     67  C   UNL A   1      38.776  29.262  28.139  1.00  0.00     0.134 A 
ATOM     68  F   UNL A   1      39.814  28.239  31.467  1.00  0.00    -0.206 F 
ATOM     69  C   UNL A   1      37.726  28.988  30.696  1.00  0.00     0.040 A 
ATOM     70  C   UNL A   1      37.442  29.590  28.380  1.00  0.00     0.040 A 
ATOM     71  F   UNL A   1      39.245  29.404  26.890  1.00  0.00    -0.206 F 
ATOM     72  C   UNL A   1      36.913  29.451  29.662  1.00  0.00     0.006 A 
ENDBRANCH  51  65
BRANCH  52  73
ATOM     73  C   UNL A   1      49.098  26.534  27.156  1.00  0.00     0.057 A 
ATOM     74  C   UNL A   1      49.534  26.504  25.826  1.00  0.00     0.134 A 
ATOM     75  C   UNL A   1      50.029  26.205  28.148  1.00  0.00     0.134 A 
ATOM     76  F   UNL A   1      48.680  26.780  24.829  1.00  0.00    -0.206 F 
ATOM     77  C   UNL A   1      50.837  26.131  25.492  1.00  0.00     0.040 A 
ATOM     78  C   UNL A   1      51.343  25.855  27.830  1.00  0.00     0.040 A 
ATOM     79  F   UNL A   1      49.673  26.209  29.440  1.00  0.00    -0.206 F 
ATOM     80  C   UNL A   1      51.747  25.808  26.497  1.00  0.00     0.006 A 
ENDBRANCH  52  73
BRANCH  64  81
ATOM     81  C   UNL A   1      45.859  32.389  29.065  1.00  0.00     0.057 A 
ATOM     82  C   UNL A   1      45.865  33.373  28.068  1.00  0.00     0.134 A 
ATOM     83  C   UNL A   1      46.286  32.763  30.346  1.00  0.00     0.134 A 
ATOM     84  F   UNL A   1      45.478  33.076  26.818  1.00  0.00    -0.206 F 
ATOM     85  C   UNL A   1      46.295  34.675  28.333  1.00  0.00     0.040 A 
ATOM     86  C   UNL A   1      46.693  34.068  30.628  1.00  0.00     0.040 A 
ATOM     87  F   UNL A   1      46.296  31.872  31.348  1.00  0.00    -0.206 F 
ATOM     88  C   UNL A   1      46.703  35.027  29.618  1.00  0.00     0.006 A 
ENDBRANCH  64  81
ENDBRANCH  38  39
ENDBRANCH  31  33
ENDBRANCH  30  31
ENDBRANCH  29  30
ENDBRANCH  28  29
ENDBRANCH  27  28
ENDBRANCH  26  27
ENDBRANCH   1  26
TORSDOF 22
ENDMDL
MODEL 3
REMARK VINA RESULT:      -9.5      4.885      7.181
REMARK SMILES CSCc1ccc(C(=O)N[C@](C)(C(=O)OCCOCCOCCOC(=O)c2ccc(-c3c4nc(c(-c5c(F)cccc5F)c5ccc([nH]5)c(-c5c(F)cccc5F)c5nc(c(-c6c(F)cccc6F)c6ccc3[nH]6)C=C5)C=C4)cc2)C(F)(F)F)o1
REMARK SMILES IDX 19 1 18 2 17 3 16 4 15 5 13 6 14 7 11 8 12 9 10 10 8 11 9 12
REMARK SMILES IDX 7 14 4 15 5 16 85 17 6 18 3 19 2 20 1 21 81 22 82 23 83 24
REMARK SMILES IDX 84 25 20 26 21 27 22 28 23 29 24 30 25 31 26 32 27 33 28 34
REMARK SMILES IDX 80 35 29 36 79 37 30 38 31 39 32 40 73 41 33 42 78 43 72 44
REMARK SMILES IDX 74 45 34 46 77 47 71 48 70 49 35 51 61 52 44 53 60 54 45 55
REMARK SMILES IDX 48 56 59 57 75 58 46 59 47 60 58 62 76 63 49 64 36 65 37 66
REMARK SMILES IDX 42 67 38 68 39 69 41 70 43 71 40 72 62 73 63 74 68 75 64 76
REMARK SMILES IDX 65 77 67 78 69 79 66 80 50 81 51 82 56 83 52 84 53 85 55 86
REMARK SMILES IDX 57 87 54 88
REMARK H PARENT 10 13 74 50 48 61
REMARK Flexibility Score: inf
ROOT
ATOM      1  C   UNL A   1      32.424  29.664  24.961  1.00  0.00     0.188 C 
ENDROOT
BRANCH   1   2
ATOM      2  O   UNL A   1      31.977  28.789  23.929  1.00  0.00    -0.376 OA
BRANCH   2   3
ATOM      3  C   UNL A   1      30.600  28.429  23.867  1.00  0.00     0.202 C 
BRANCH   3   4
ATOM      4  C   UNL A   1      30.277  26.935  23.985  1.00  0.00     0.261 C 
BRANCH   4   5
ATOM      5  O   UNL A   1      31.385  26.211  24.542  1.00  0.00    -0.461 OA
BRANCH   5   6
ATOM      6  C   UNL A   1      31.096  25.207  25.411  1.00  0.00     0.341 C 
ATOM      7  O   UNL A   1      30.133  25.206  26.169  1.00  0.00    -0.249 OA
BRANCH   6   8
ATOM      8  C   UNL A   1      32.097  24.042  25.281  1.00  0.00     0.231 C 
ATOM      9  C   UNL A   1      33.444  24.602  24.772  1.00  0.00     0.058 C 
BRANCH   8  10
ATOM     10  N   UNL A   1      32.316  23.518  26.660  1.00  0.00    -0.326 N 
ATOM     11  C   UNL A   1      33.084  22.491  27.160  1.00  0.00     0.288 C 
ATOM     12  O   UNL A   1      32.998  22.319  28.378  1.00  0.00    -0.266 OA
ATOM     13  H   UNL A   1      31.813  24.006  27.351  1.00  0.00     0.165 HD
BRANCH  11  14
ATOM     14  C   UNL A   1      33.899  21.637  26.310  1.00  0.00     0.191 A 
ATOM     15  C   UNL A   1      34.137  19.880  24.967  1.00  0.00     0.114 A 
ATOM     16  C   UNL A   1      35.360  20.511  25.004  1.00  0.00     0.047 A 
ATOM     17  O   UNL A   1      33.260  20.546  25.769  1.00  0.00    -0.455 OA
ATOM     18  C   UNL A   1      35.212  21.621  25.873  1.00  0.00     0.056 A 
BRANCH  15  19
ATOM     19  C   UNL A   1      33.597  18.666  24.300  1.00  0.00     0.144 C 
BRANCH  19  20
ATOM     20  S   UNL A   1      32.529  17.645  25.363  1.00  0.00    -0.157 SA
ATOM     21  C   UNL A   1      33.496  16.115  25.371  1.00  0.00     0.085 C 
ENDBRANCH  19  20
ENDBRANCH  15  19
ENDBRANCH  11  14
ENDBRANCH   8  10
BRANCH   8  22
ATOM     22  C   UNL A   1      31.368  23.066  24.317  1.00  0.00     0.422 C 
ATOM     23  F   UNL A   1      30.488  23.717  23.516  1.00  0.00    -0.168 F 
ATOM     24  F   UNL A   1      32.213  22.408  23.496  1.00  0.00    -0.168 F 
ATOM     25  F   UNL A   1      30.670  22.101  24.960  1.00  0.00    -0.168 F 
ENDBRANCH   8  22
ENDBRANCH   6   8
ENDBRANCH   5   6
ENDBRANCH   4   5
ENDBRANCH   3   4
ENDBRANCH   2   3
ENDBRANCH   1   2
BRANCH   1  26
ATOM     26  C   UNL A   1      31.401  30.553  25.690  1.00  0.00     0.188 C 
BRANCH  26  27
ATOM     27  O   UNL A   1      31.837  30.991  26.966  1.00  0.00    -0.376 OA
BRANCH  27  28
ATOM     28  C   UNL A   1      33.221  30.826  27.233  1.00  0.00     0.202 C 
BRANCH  28  29
ATOM     29  C   UNL A   1      33.898  32.140  27.633  1.00  0.00     0.261 C 
BRANCH  29  30
ATOM     30  O   UNL A   1      33.025  33.286  27.623  1.00  0.00    -0.460 OA
BRANCH  30  31
ATOM     31  C   UNL A   1      33.293  34.267  28.515  1.00  0.00     0.338 C 
ATOM     32  O   UNL A   1      32.605  35.240  28.766  1.00  0.00    -0.246 OA
BRANCH  31  33
ATOM     33  C   UNL A   1      34.470  33.853  29.308  1.00  0.00     0.060 A 
ATOM     34  C   UNL A   1      35.747  34.243  28.881  1.00  0.00     0.016 A 
ATOM     35  C   UNL A   1      34.317  33.089  30.468  1.00  0.00     0.016 A 
ATOM     36  C   UNL A   1      36.877  33.843  29.598  1.00  0.00     0.010 A 
ATOM     37  C   UNL A   1      35.450  32.674  31.172  1.00  0.00     0.010 A 
ATOM     38  C   UNL A   1      36.737  33.024  30.726  1.00  0.00    -0.014 A 
BRANCH  38  39
ATOM     39  C   UNL A   1      37.923  32.373  31.335  1.00  0.00     0.031 A 
ATOM     40  C   UNL A   1      38.593  31.258  30.577  1.00  0.00     0.074 A 
ATOM     41  C   UNL A   1      38.394  32.744  32.539  1.00  0.00     0.049 A 
ATOM     42  N   UNL A   1      39.579  30.480  30.942  1.00  0.00    -0.248 NA
ATOM     43  C   UNL A   1      38.075  30.984  29.226  1.00  0.00     0.031 C 
ATOM     44  C   UNL A   1      37.865  33.829  33.361  1.00  0.00     0.029 A 
ATOM     45  N   UNL A   1      39.422  32.223  33.287  1.00  0.00    -0.354 N 
ATOM     46  C   UNL A   1      39.795  29.622  29.872  1.00  0.00     0.074 A 
ATOM     47  C   UNL A   1      38.826  29.960  28.852  1.00  0.00     0.031 C 
ATOM     48  C   UNL A   1      38.559  33.879  34.514  1.00  0.00     0.029 A 
ATOM     49  C   UNL A   1      39.557  32.810  34.522  1.00  0.00     0.049 A 
ATOM     50  H   UNL A   1      40.008  31.498  32.968  1.00  0.00     0.167 HD
ATOM     51  C   UNL A   1      40.719  28.642  29.746  1.00  0.00     0.037 A 
ATOM     52  C   UNL A   1      40.372  32.497  35.549  1.00  0.00     0.037 A 
ATOM     53  C   UNL A   1      41.684  28.298  30.754  1.00  0.00     0.049 A 
ATOM     54  C   UNL A   1      41.341  31.348  35.413  1.00  0.00     0.074 A 
ATOM     55  C   UNL A   1      42.674  27.331  30.706  1.00  0.00     0.029 A 
ATOM     56  N   UNL A   1      41.776  28.904  31.997  1.00  0.00    -0.354 N 
ATOM     57  N   UNL A   1      41.558  30.565  34.385  1.00  0.00    -0.248 NA
ATOM     58  C   UNL A   1      42.177  31.040  36.585  1.00  0.00     0.031 C 
ATOM     59  C   UNL A   1      43.336  27.322  31.937  1.00  0.00     0.029 A 
ATOM     60  C   UNL A   1      42.790  28.315  32.733  1.00  0.00     0.049 A 
ATOM     61  H   UNL A   1      41.206  29.643  32.309  1.00  0.00     0.167 HD
ATOM     62  C   UNL A   1      42.575  29.698  34.774  1.00  0.00     0.074 A 
ATOM     63  C   UNL A   1      42.937  30.057  36.128  1.00  0.00     0.031 C 
ATOM     64  C   UNL A   1      43.156  28.695  34.073  1.00  0.00     0.037 A 
BRANCH  51  65
ATOM     65  C   UNL A   1      40.719  27.851  28.474  1.00  0.00     0.057 A 
ATOM     66  C   UNL A   1      41.467  28.246  27.359  1.00  0.00     0.134 A 
ATOM     67  C   UNL A   1      39.999  26.653  28.381  1.00  0.00     0.134 A 
ATOM     68  F   UNL A   1      42.163  29.394  27.381  1.00  0.00    -0.206 F 
ATOM     69  C   UNL A   1      41.491  27.484  26.190  1.00  0.00     0.040 A 
ATOM     70  C   UNL A   1      40.033  25.870  27.227  1.00  0.00     0.040 A 
ATOM     71  F   UNL A   1      39.264  26.219  29.416  1.00  0.00    -0.206 F 
ATOM     72  C   UNL A   1      40.779  26.288  26.126  1.00  0.00     0.006 A 
ENDBRANCH  51  65
BRANCH  52  73
ATOM     73  C   UNL A   1      40.301  33.255  36.825  1.00  0.00     0.057 A 
ATOM     74  C   UNL A   1      41.210  34.282  37.111  1.00  0.00     0.134 A 
ATOM     75  C   UNL A   1      39.369  32.926  37.816  1.00  0.00     0.134 A 
ATOM     76  F   UNL A   1      42.146  34.623  36.214  1.00  0.00    -0.206 F 
ATOM     77  C   UNL A   1      41.211  34.934  38.345  1.00  0.00     0.040 A 
ATOM     78  C   UNL A   1      39.342  33.588  39.045  1.00  0.00     0.040 A 
ATOM     79  F   UNL A   1      38.475  31.948  37.607  1.00  0.00    -0.206 F 
ATOM     80  C   UNL A   1      40.272  34.589  39.315  1.00  0.00     0.006 A 
ENDBRANCH  52  73
BRANCH  64  81
ATOM     81  C   UNL A   1      44.277  27.943  34.730  1.00  0.00     0.057 A 
ATOM     82  C   UNL A   1      45.605  28.383  34.661  1.00  0.00     0.134 A 
ATOM     83  C   UNL A   1      44.015  26.792  35.483  1.00  0.00     0.134 A 
ATOM     84  F   UNL A   1      45.924  29.473  33.947  1.00  0.00    -0.206 F 
ATOM     85  C   UNL A   1      46.635  27.693  35.303  1.00  0.00     0.040 A 
ATOM     86  C   UNL A   1      45.032  26.108  36.151  1.00  0.00     0.040 A 
ATOM     87  F   UNL A   1      42.764  26.323  35.599  1.00  0.00    -0.206 F 
ATOM     88  C   UNL A   1      46.348  26.556  36.058  1.00  0.00     0.006 A 
ENDBRANCH  64  81
ENDBRANCH  38  39
ENDBRANCH  31  33
ENDBRANCH  30  31
ENDBRANCH  29  30
ENDBRANCH  28  29
ENDBRANCH  27  28
ENDBRANCH  26  27
ENDBRANCH   1  26
TORSDOF 22
ENDMDL
