MODEL 1
REMARK VINA RESULT:     -10.7      0.000      0.000
REMARK SMILES O=C(C[C@H]1C[C@H]2CC[C@@H](C1)N2C(=O)[C@H]1CCCCO1)OCCOCCOCCOC(=O)c1ccc(-c2c3nc(c(-c4c(F)cccc4F)c4ccc([nH]4)c(-c4c(F)cccc4F)c4nc(c(-c5c(F)cccc5F)c5ccc2[nH]5)C=C4)C=C3)cc1
REMARK SMILES IDX 24 1 23 2 22 3 21 4 20 5 2 6 1 7 3 8 4 9 5 10 10 11 6 12
REMARK SMILES IDX 9 13 7 14 11 15 8 16 12 17 13 18 14 19 15 20 19 21 16 22
REMARK SMILES IDX 18 23 17 24 25 25 26 26 27 27 28 28 29 29 30 30 31 31 32 32
REMARK SMILES IDX 33 33 85 34 34 35 84 36 35 37 36 38 37 39 78 40 38 41 83 42
REMARK SMILES IDX 77 43 79 44 39 45 82 46 76 47 75 48 40 50 66 51 49 52 65 53
REMARK SMILES IDX 50 54 53 55 64 56 80 57 51 58 52 59 63 61 81 62 54 63 41 64
REMARK SMILES IDX 42 65 47 66 43 67 44 68 46 69 48 70 45 71 67 72 68 73 73 74
REMARK SMILES IDX 69 75 70 76 72 77 74 78 71 79 55 80 56 81 61 82 57 83 58 84
REMARK SMILES IDX 60 85 62 86 59 87
REMARK H PARENT 79 49 53 60
REMARK Flexibility Score: inf
ROOT
ATOM      1  C   UNL A   1      40.012  21.260  26.182  1.00  0.00     0.188 C 
ENDROOT
BRANCH   1   2
ATOM      2  O   UNL A   1      39.060  22.314  26.137  1.00  0.00    -0.376 OA
BRANCH   2   3
ATOM      3  C   UNL A   1      37.810  22.119  25.486  1.00  0.00     0.202 C 
BRANCH   3   4
ATOM      4  C   UNL A   1      37.381  20.713  25.067  1.00  0.00     0.261 C 
BRANCH   4   5
ATOM      5  O   UNL A   1      35.987  20.453  24.771  1.00  0.00    -0.463 OA
BRANCH   5   6
ATOM      6  C   UNL A   1      34.872  20.976  25.304  1.00  0.00     0.306 C 
ATOM      7  O   UNL A   1      34.854  21.299  26.491  1.00  0.00    -0.252 OA
BRANCH   6   8
ATOM      8  C   UNL A   1      33.662  21.219  24.437  1.00  0.00     0.126 C 
BRANCH   8   9
ATOM      9  C   UNL A   1      33.919  22.340  23.434  1.00  0.00     0.004 C 
ATOM     10  C   UNL A   1      32.706  22.655  22.518  1.00  0.00     0.029 C 
ATOM     11  C   UNL A   1      34.460  23.594  24.158  1.00  0.00     0.029 C 
ATOM     12  C   UNL A   1      31.833  23.831  23.006  1.00  0.00     0.085 C 
ATOM     13  C   UNL A   1      33.388  24.634  24.529  1.00  0.00     0.085 C 
ATOM     14  C   UNL A   1      31.222  23.529  24.377  1.00  0.00     0.027 C 
ATOM     15  N   UNL A   1      32.711  24.955  23.295  1.00  0.00    -0.334 N 
ATOM     16  C   UNL A   1      32.244  24.083  25.386  1.00  0.00     0.027 C 
BRANCH  15  17
ATOM     17  C   UNL A   1      32.955  25.996  22.422  1.00  0.00     0.252 C 
ATOM     18  O   UNL A   1      33.517  25.786  21.345  1.00  0.00    -0.272 OA
BRANCH  17  19
ATOM     19  C   UNL A   1      32.461  27.416  22.839  1.00  0.00     0.207 C 
ATOM     20  C   UNL A   1      31.053  27.356  23.448  1.00  0.00     0.042 C 
ATOM     21  O   UNL A   1      33.367  28.009  23.775  1.00  0.00    -0.368 OA
ATOM     22  C   UNL A   1      30.590  28.683  24.030  1.00  0.00     0.006 C 
ATOM     23  C   UNL A   1      32.985  29.326  24.162  1.00  0.00     0.161 C 
ATOM     24  C   UNL A   1      31.663  29.293  24.911  1.00  0.00     0.029 C 
ENDBRANCH  17  19
ENDBRANCH  15  17
ENDBRANCH   8   9
ENDBRANCH   6   8
ENDBRANCH   5   6
ENDBRANCH   4   5
ENDBRANCH   3   4
ENDBRANCH   2   3
ENDBRANCH   1   2
BRANCH   1  25
ATOM     25  C   UNL A   1      40.871  21.277  27.448  1.00  0.00     0.188 C 
BRANCH  25  26
ATOM     26  O   UNL A   1      42.253  20.997  27.260  1.00  0.00    -0.376 OA
BRANCH  26  27
ATOM     27  C   UNL A   1      42.738  21.029  25.918  1.00  0.00     0.202 C 
BRANCH  27  28
ATOM     28  C   UNL A   1      44.145  21.612  25.699  1.00  0.00     0.261 C 
BRANCH  28  29
ATOM     29  O   UNL A   1      44.387  22.893  26.327  1.00  0.00    -0.460 OA
BRANCH  29  30
ATOM     30  C   UNL A   1      44.198  23.968  25.521  1.00  0.00     0.338 C 
ATOM     31  O   UNL A   1      44.589  24.107  24.375  1.00  0.00    -0.246 OA
BRANCH  30  32
ATOM     32  C   UNL A   1      43.360  25.004  26.159  1.00  0.00     0.060 A 
ATOM     33  C   UNL A   1      43.922  26.266  26.393  1.00  0.00     0.016 A 
ATOM     34  C   UNL A   1      42.152  24.650  26.765  1.00  0.00     0.016 A 
ATOM     35  C   UNL A   1      43.308  27.150  27.286  1.00  0.00     0.010 A 
ATOM     36  C   UNL A   1      41.541  25.538  27.663  1.00  0.00     0.010 A 
ATOM     37  C   UNL A   1      42.143  26.772  27.970  1.00  0.00    -0.014 A 
BRANCH  37  38
ATOM     38  C   UNL A   1      41.661  27.592  29.115  1.00  0.00     0.031 A 
ATOM     39  C   UNL A   1      42.380  27.513  30.440  1.00  0.00     0.074 A 
ATOM     40  C   UNL A   1      40.622  28.435  28.982  1.00  0.00     0.049 A 
ATOM     41  N   UNL A   1      42.134  28.153  31.557  1.00  0.00    -0.248 NA
ATOM     42  C   UNL A   1      43.526  26.594  30.514  1.00  0.00     0.031 C 
ATOM     43  C   UNL A   1      39.846  28.632  27.762  1.00  0.00     0.029 A 
ATOM     44  N   UNL A   1      40.041  29.282  29.894  1.00  0.00    -0.354 N 
ATOM     45  C   UNL A   1      43.099  27.726  32.461  1.00  0.00     0.074 A 
ATOM     46  C   UNL A   1      43.911  26.742  31.773  1.00  0.00     0.031 C 
ATOM     47  C   UNL A   1      38.879  29.535  28.004  1.00  0.00     0.029 A 
ATOM     48  C   UNL A   1      38.960  29.968  29.398  1.00  0.00     0.049 A 
ATOM     49  H   UNL A   1      40.369  29.388  30.817  1.00  0.00     0.167 HD
ATOM     50  C   UNL A   1      43.306  28.121  33.740  1.00  0.00     0.037 A 
ATOM     51  C   UNL A   1      38.123  30.837  29.997  1.00  0.00     0.037 A 
ATOM     52  C   UNL A   1      42.506  29.091  34.442  1.00  0.00     0.049 A 
ATOM     53  C   UNL A   1      38.340  31.223  31.436  1.00  0.00     0.074 A 
ATOM     54  C   UNL A   1      42.650  29.551  35.742  1.00  0.00     0.029 A 
ATOM     55  N   UNL A   1      41.411  29.747  33.907  1.00  0.00    -0.354 N 
ATOM     56  N   UNL A   1      39.274  30.830  32.267  1.00  0.00    -0.248 NA
ATOM     57  C   UNL A   1      37.389  32.185  32.015  1.00  0.00     0.031 C 
ATOM     58  C   UNL A   1      41.621  30.463  36.002  1.00  0.00     0.029 A 
ATOM     59  C   UNL A   1      40.859  30.598  34.855  1.00  0.00     0.049 A 
ATOM     60  H   UNL A   1      41.072  29.628  32.990  1.00  0.00     0.167 HD
ATOM     61  C   UNL A   1      39.035  31.509  33.457  1.00  0.00     0.074 A 
ATOM     62  C   UNL A   1      37.881  32.354  33.235  1.00  0.00     0.031 C 
ATOM     63  C   UNL A   1      39.711  31.436  34.628  1.00  0.00     0.037 A 
BRANCH  50  64
ATOM     64  C   UNL A   1      44.456  27.500  34.474  1.00  0.00     0.057 A 
ATOM     65  C   UNL A   1      44.314  26.288  35.162  1.00  0.00     0.134 A 
ATOM     66  C   UNL A   1      45.726  28.090  34.453  1.00  0.00     0.134 A 
ATOM     67  F   UNL A   1      43.121  25.679  35.227  1.00  0.00    -0.206 F 
ATOM     68  C   UNL A   1      45.393  25.692  35.819  1.00  0.00     0.040 A 
ATOM     69  C   UNL A   1      46.816  27.494  35.088  1.00  0.00     0.040 A 
ATOM     70  F   UNL A   1      45.928  29.247  33.805  1.00  0.00    -0.206 F 
ATOM     71  C   UNL A   1      46.651  26.294  35.776  1.00  0.00     0.006 A 
ENDBRANCH  50  64
BRANCH  51  72
ATOM     72  C   UNL A   1      36.981  31.407  29.240  1.00  0.00     0.057 A 
ATOM     73  C   UNL A   1      35.850  30.638  28.942  1.00  0.00     0.134 A 
ATOM     74  C   UNL A   1      37.012  32.723  28.769  1.00  0.00     0.134 A 
ATOM     75  F   UNL A   1      35.776  29.362  29.346  1.00  0.00    -0.206 F 
ATOM     76  C   UNL A   1      34.798  31.153  28.181  1.00  0.00     0.040 A 
ATOM     77  C   UNL A   1      35.958  33.259  28.027  1.00  0.00     0.040 A 
ATOM     78  F   UNL A   1      38.071  33.508  29.022  1.00  0.00    -0.206 F 
ATOM     79  C   UNL A   1      34.851  32.469  27.725  1.00  0.00     0.006 A 
ENDBRANCH  51  72
BRANCH  63  80
ATOM     80  C   UNL A   1      39.234  32.307  35.752  1.00  0.00     0.057 A 
ATOM     81  C   UNL A   1      38.343  31.835  36.725  1.00  0.00     0.134 A 
ATOM     82  C   UNL A   1      39.683  33.629  35.875  1.00  0.00     0.134 A 
ATOM     83  F   UNL A   1      37.865  30.583  36.656  1.00  0.00    -0.206 F 
ATOM     84  C   UNL A   1      37.894  32.653  37.763  1.00  0.00     0.040 A 
ATOM     85  C   UNL A   1      39.259  34.450  36.922  1.00  0.00     0.040 A 
ATOM     86  F   UNL A   1      40.543  34.141  34.983  1.00  0.00    -0.206 F 
ATOM     87  C   UNL A   1      38.356  33.964  37.866  1.00  0.00     0.006 A 
ENDBRANCH  63  80
ENDBRANCH  37  38
ENDBRANCH  30  32
ENDBRANCH  29  30
ENDBRANCH  28  29
ENDBRANCH  27  28
ENDBRANCH  26  27
ENDBRANCH  25  26
ENDBRANCH   1  25
TORSDOF 20
ENDMDL
MODEL 2
REMARK VINA RESULT:     -10.7      2.455      8.454
REMARK SMILES O=C(C[C@H]1C[C@H]2CC[C@@H](C1)N2C(=O)[C@H]1CCCCO1)OCCOCCOCCOC(=O)c1ccc(-c2c3nc(c(-c4c(F)cccc4F)c4ccc([nH]4)c(-c4c(F)cccc4F)c4nc(c(-c5c(F)cccc5F)c5ccc2[nH]5)C=C4)C=C3)cc1
REMARK SMILES IDX 24 1 23 2 22 3 21 4 20 5 2 6 1 7 3 8 4 9 5 10 10 11 6 12
REMARK SMILES IDX 9 13 7 14 11 15 8 16 12 17 13 18 14 19 15 20 19 21 16 22
REMARK SMILES IDX 18 23 17 24 25 25 26 26 27 27 28 28 29 29 30 30 31 31 32 32
REMARK SMILES IDX 33 33 85 34 34 35 84 36 35 37 36 38 37 39 78 40 38 41 83 42
REMARK SMILES IDX 77 43 79 44 39 45 82 46 76 47 75 48 40 50 66 51 49 52 65 53
REMARK SMILES IDX 50 54 53 55 64 56 80 57 51 58 52 59 63 61 81 62 54 63 41 64
REMARK SMILES IDX 42 65 47 66 43 67 44 68 46 69 48 70 45 71 67 72 68 73 73 74
REMARK SMILES IDX 69 75 70 76 72 77 74 78 71 79 55 80 56 81 61 82 57 83 58 84
REMARK SMILES IDX 60 85 62 86 59 87
REMARK H PARENT 79 49 53 60
REMARK Flexibility Score: inf
ROOT
ATOM      1  C   UNL A   1      30.361  27.561  22.727  1.00  0.00     0.188 C 
ENDROOT
BRANCH   1   2
ATOM      2  O   UNL A   1      29.561  27.188  23.840  1.00  0.00    -0.376 OA
BRANCH   2   3
ATOM      3  C   UNL A   1      29.965  26.115  24.682  1.00  0.00     0.202 C 
BRANCH   3   4
ATOM      4  C   UNL A   1      30.645  26.409  26.018  1.00  0.00     0.261 C 
BRANCH   4   5
ATOM      5  O   UNL A   1      31.979  25.900  26.265  1.00  0.00    -0.463 OA
BRANCH   5   6
ATOM      6  C   UNL A   1      33.137  26.149  25.632  1.00  0.00     0.306 C 
ATOM      7  O   UNL A   1      33.951  26.925  26.129  1.00  0.00    -0.252 OA
BRANCH   6   8
ATOM      8  C   UNL A   1      33.461  25.435  24.344  1.00  0.00     0.126 C 
BRANCH   8   9
ATOM      9  C   UNL A   1      34.335  24.209  24.598  1.00  0.00     0.004 C 
ATOM     10  C   UNL A   1      33.959  23.424  25.884  1.00  0.00     0.029 C 
ATOM     11  C   UNL A   1      34.375  23.310  23.342  1.00  0.00     0.029 C 
ATOM     12  C   UNL A   1      33.030  22.218  25.640  1.00  0.00     0.085 C 
ATOM     13  C   UNL A   1      33.354  22.158  23.343  1.00  0.00     0.085 C 
ATOM     14  C   UNL A   1      31.690  22.666  25.048  1.00  0.00     0.027 C 
ATOM     15  N   UNL A   1      33.596  21.422  24.561  1.00  0.00    -0.334 N 
ATOM     16  C   UNL A   1      31.900  22.604  23.525  1.00  0.00     0.027 C 
BRANCH  15  17
ATOM     17  C   UNL A   1      34.376  20.298  24.750  1.00  0.00     0.252 C 
ATOM     18  O   UNL A   1      35.539  20.407  25.145  1.00  0.00    -0.272 OA
BRANCH  17  19
ATOM     19  C   UNL A   1      33.716  18.910  24.481  1.00  0.00     0.207 C 
ATOM     20  C   UNL A   1      34.779  17.827  24.252  1.00  0.00     0.042 C 
ATOM     21  O   UNL A   1      32.872  18.535  25.574  1.00  0.00    -0.368 OA
ATOM     22  C   UNL A   1      34.199  16.424  24.156  1.00  0.00     0.006 C 
ATOM     23  C   UNL A   1      32.210  17.290  25.364  1.00  0.00     0.161 C 
ATOM     24  C   UNL A   1      33.225  16.161  25.287  1.00  0.00     0.029 C 
ENDBRANCH  17  19
ENDBRANCH  15  17
ENDBRANCH   8   9
ENDBRANCH   6   8
ENDBRANCH   5   6
ENDBRANCH   4   5
ENDBRANCH   3   4
ENDBRANCH   2   3
ENDBRANCH   1   2
BRANCH   1  25
ATOM     25  C   UNL A   1      31.184  28.827  22.973  1.00  0.00     0.188 C 
BRANCH  25  26
ATOM     26  O   UNL A   1      30.874  29.545  24.160  1.00  0.00    -0.376 OA
BRANCH  26  27
ATOM     27  C   UNL A   1      31.927  29.697  25.112  1.00  0.00     0.202 C 
BRANCH  27  28
ATOM     28  C   UNL A   1      31.777  30.830  26.143  1.00  0.00     0.261 C 
BRANCH  28  29
ATOM     29  O   UNL A   1      32.599  30.700  27.326  1.00  0.00    -0.460 OA
BRANCH  29  30
ATOM     30  C   UNL A   1      33.456  31.731  27.541  1.00  0.00     0.338 C 
ATOM     31  O   UNL A   1      33.179  32.914  27.629  1.00  0.00    -0.246 OA
BRANCH  30  32
ATOM     32  C   UNL A   1      34.844  31.268  27.746  1.00  0.00     0.060 A 
ATOM     33  C   UNL A   1      35.067  29.902  27.961  1.00  0.00     0.016 A 
ATOM     34  C   UNL A   1      35.859  32.193  28.004  1.00  0.00     0.016 A 
ATOM     35  C   UNL A   1      36.284  29.466  28.496  1.00  0.00     0.010 A 
ATOM     36  C   UNL A   1      37.077  31.753  28.543  1.00  0.00     0.010 A 
ATOM     37  C   UNL A   1      37.277  30.394  28.842  1.00  0.00    -0.014 A 
BRANCH  37  38
ATOM     38  C   UNL A   1      38.440  29.957  29.664  1.00  0.00     0.031 A 
ATOM     39  C   UNL A   1      38.598  30.487  31.068  1.00  0.00     0.074 A 
ATOM     40  C   UNL A   1      39.330  29.065  29.195  1.00  0.00     0.049 A 
ATOM     41  N   UNL A   1      39.526  30.222  31.956  1.00  0.00    -0.248 NA
ATOM     42  C   UNL A   1      37.575  31.436  31.533  1.00  0.00     0.031 C 
ATOM     43  C   UNL A   1      39.296  28.453  27.871  1.00  0.00     0.029 A 
ATOM     44  N   UNL A   1      40.444  28.524  29.790  1.00  0.00    -0.354 N 
ATOM     45  C   UNL A   1      39.194  30.961  33.084  1.00  0.00     0.074 A 
ATOM     46  C   UNL A   1      38.001  31.715  32.757  1.00  0.00     0.031 C 
ATOM     47  C   UNL A   1      40.350  27.628  27.746  1.00  0.00     0.029 A 
ATOM     48  C   UNL A   1      41.140  27.664  28.976  1.00  0.00     0.049 A 
ATOM     49  H   UNL A   1      40.718  28.732  30.712  1.00  0.00     0.167 HD
ATOM     50  C   UNL A   1      39.811  31.003  34.290  1.00  0.00     0.037 A 
ATOM     51  C   UNL A   1      42.287  26.990  29.189  1.00  0.00     0.037 A 
ATOM     52  C   UNL A   1      41.002  30.268  34.631  1.00  0.00     0.049 A 
ATOM     53  C   UNL A   1      42.985  27.091  30.519  1.00  0.00     0.074 A 
ATOM     54  C   UNL A   1      41.691  30.251  35.834  1.00  0.00     0.029 A 
ATOM     55  N   UNL A   1      41.682  29.423  33.772  1.00  0.00    -0.354 N 
ATOM     56  N   UNL A   1      42.642  27.772  31.584  1.00  0.00    -0.248 NA
ATOM     57  C   UNL A   1      44.226  26.317  30.677  1.00  0.00     0.031 C 
ATOM     58  C   UNL A   1      42.807  29.420  35.690  1.00  0.00     0.029 A 
ATOM     59  C   UNL A   1      42.792  28.891  34.411  1.00  0.00     0.049 A 
ATOM     60  H   UNL A   1      41.418  29.229  32.843  1.00  0.00     0.167 HD
ATOM     61  C   UNL A   1      43.612  27.495  32.542  1.00  0.00     0.074 A 
ATOM     62  C   UNL A   1      44.545  26.568  31.939  1.00  0.00     0.031 C 
ATOM     63  C   UNL A   1      43.718  27.969  33.806  1.00  0.00     0.037 A 
BRANCH  50  64
ATOM     64  C   UNL A   1      39.204  31.880  35.343  1.00  0.00     0.057 A 
ATOM     65  C   UNL A   1      38.322  31.367  36.302  1.00  0.00     0.134 A 
ATOM     66  C   UNL A   1      39.539  33.237  35.429  1.00  0.00     0.134 A 
ATOM     67  F   UNL A   1      37.953  30.077  36.265  1.00  0.00    -0.206 F 
ATOM     68  C   UNL A   1      37.780  32.177  37.302  1.00  0.00     0.040 A 
ATOM     69  C   UNL A   1      39.021  34.052  36.436  1.00  0.00     0.040 A 
ATOM     70  F   UNL A   1      40.384  33.787  34.545  1.00  0.00    -0.206 F 
ATOM     71  C   UNL A   1      38.137  33.523  37.375  1.00  0.00     0.006 A 
ENDBRANCH  50  64
BRANCH  51  72
ATOM     72  C   UNL A   1      42.867  26.155  28.109  1.00  0.00     0.057 A 
ATOM     73  C   UNL A   1      43.810  26.674  27.214  1.00  0.00     0.134 A 
ATOM     74  C   UNL A   1      42.462  24.828  27.926  1.00  0.00     0.134 A 
ATOM     75  F   UNL A   1      44.216  27.946  27.325  1.00  0.00    -0.206 F 
ATOM     76  C   UNL A   1      44.315  25.908  26.161  1.00  0.00     0.040 A 
ATOM     77  C   UNL A   1      42.975  24.043  26.892  1.00  0.00     0.040 A 
ATOM     78  F   UNL A   1      41.559  24.276  28.750  1.00  0.00    -0.206 F 
ATOM     79  C   UNL A   1      43.899  24.587  26.002  1.00  0.00     0.006 A 
ENDBRANCH  51  72
BRANCH  63  80
ATOM     80  C   UNL A   1      44.872  27.477  34.629  1.00  0.00     0.057 A 
ATOM     81  C   UNL A   1      46.102  28.148  34.651  1.00  0.00     0.134 A 
ATOM     82  C   UNL A   1      44.748  26.330  35.424  1.00  0.00     0.134 A 
ATOM     83  F   UNL A   1      46.290  29.245  33.901  1.00  0.00    -0.206 F 
ATOM     84  C   UNL A   1      47.175  27.680  35.410  1.00  0.00     0.040 A 
ATOM     85  C   UNL A   1      45.807  25.865  36.206  1.00  0.00     0.040 A 
ATOM     86  F   UNL A   1      43.595  25.646  35.457  1.00  0.00    -0.206 F 
ATOM     87  C   UNL A   1      47.028  26.537  36.195  1.00  0.00     0.006 A 
ENDBRANCH  63  80
ENDBRANCH  37  38
ENDBRANCH  30  32
ENDBRANCH  29  30
ENDBRANCH  28  29
ENDBRANCH  27  28
ENDBRANCH  26  27
ENDBRANCH  25  26
ENDBRANCH   1  25
TORSDOF 20
ENDMDL
MODEL 3
REMARK VINA RESULT:     -10.6      4.367     10.076
REMARK SMILES O=C(C[C@H]1C[C@H]2CC[C@@H](C1)N2C(=O)[C@H]1CCCCO1)OCCOCCOCCOC(=O)c1ccc(-c2c3nc(c(-c4c(F)cccc4F)c4ccc([nH]4)c(-c4c(F)cccc4F)c4nc(c(-c5c(F)cccc5F)c5ccc2[nH]5)C=C4)C=C3)cc1
REMARK SMILES IDX 24 1 23 2 22 3 21 4 20 5 2 6 1 7 3 8 4 9 5 10 10 11 6 12
REMARK SMILES IDX 9 13 7 14 11 15 8 16 12 17 13 18 14 19 15 20 19 21 16 22
REMARK SMILES IDX 18 23 17 24 25 25 26 26 27 27 28 28 29 29 30 30 31 31 32 32
REMARK SMILES IDX 33 33 85 34 34 35 84 36 35 37 36 38 37 39 78 40 38 41 83 42
REMARK SMILES IDX 77 43 79 44 39 45 82 46 76 47 75 48 40 50 66 51 49 52 65 53
REMARK SMILES IDX 50 54 53 55 64 56 80 57 51 58 52 59 63 61 81 62 54 63 41 64
REMARK SMILES IDX 42 65 47 66 43 67 44 68 46 69 48 70 45 71 67 72 68 73 73 74
REMARK SMILES IDX 69 75 70 76 72 77 74 78 71 79 55 80 56 81 61 82 57 83 58 84
REMARK SMILES IDX 60 85 62 86 59 87
REMARK H PARENT 79 49 53 60
REMARK Flexibility Score: inf
ROOT
ATOM      1  C   UNL A   1      33.279  34.738  28.612  1.00  0.00     0.188 C 
ENDROOT
BRANCH   1   2
ATOM      2  O   UNL A   1      33.129  33.519  27.897  1.00  0.00    -0.376 OA
BRANCH   2   3
ATOM      3  C   UNL A   1      34.253  32.674  27.684  1.00  0.00     0.202 C 
BRANCH   3   4
ATOM      4  C   UNL A   1      34.130  31.168  27.918  1.00  0.00     0.261 C 
BRANCH   4   5
ATOM      5  O   UNL A   1      32.892  30.495  27.582  1.00  0.00    -0.463 OA
BRANCH   5   6
ATOM      6  C   UNL A   1      32.190  30.483  26.438  1.00  0.00     0.306 C 
ATOM      7  O   UNL A   1      31.470  31.438  26.152  1.00  0.00    -0.252 OA
BRANCH   6   8
ATOM      8  C   UNL A   1      32.328  29.326  25.481  1.00  0.00     0.126 C 
BRANCH   8   9
ATOM      9  C   UNL A   1      32.673  28.037  26.221  1.00  0.00     0.004 C 
ATOM     10  C   UNL A   1      31.451  27.347  26.886  1.00  0.00     0.029 C 
ATOM     11  C   UNL A   1      33.464  27.084  25.297  1.00  0.00     0.029 C 
ATOM     12  C   UNL A   1      30.820  26.223  26.039  1.00  0.00     0.085 C 
ATOM     13  C   UNL A   1      32.606  26.034  24.569  1.00  0.00     0.085 C 
ATOM     14  C   UNL A   1      30.288  26.768  24.711  1.00  0.00     0.027 C 
ATOM     15  N   UNL A   1      31.886  25.332  25.605  1.00  0.00    -0.334 N 
ATOM     16  C   UNL A   1      31.466  26.621  23.731  1.00  0.00     0.027 C 
BRANCH  15  17
ATOM     17  C   UNL A   1      32.217  24.149  26.237  1.00  0.00     0.252 C 
ATOM     18  O   UNL A   1      31.599  23.786  27.240  1.00  0.00    -0.272 OA
BRANCH  17  19
ATOM     19  C   UNL A   1      33.362  23.294  25.611  1.00  0.00     0.207 C 
ATOM     20  C   UNL A   1      34.657  23.422  26.425  1.00  0.00     0.042 C 
ATOM     21  O   UNL A   1      32.975  21.918  25.531  1.00  0.00    -0.368 OA
ATOM     22  C   UNL A   1      35.756  22.478  25.962  1.00  0.00     0.006 C 
ATOM     23  C   UNL A   1      33.971  21.095  24.928  1.00  0.00     0.161 C 
ATOM     24  C   UNL A   1      35.224  21.069  25.789  1.00  0.00     0.029 C 
ENDBRANCH  17  19
ENDBRANCH  15  17
ENDBRANCH   8   9
ENDBRANCH   6   8
ENDBRANCH   5   6
ENDBRANCH   4   5
ENDBRANCH   3   4
ENDBRANCH   2   3
ENDBRANCH   1   2
BRANCH   1  25
ATOM     25  C   UNL A   1      34.105  34.589  29.891  1.00  0.00     0.188 C 
BRANCH  25  26
ATOM     26  O   UNL A   1      33.794  35.501  30.937  1.00  0.00    -0.376 OA
BRANCH  26  27
ATOM     27  C   UNL A   1      33.631  34.948  32.243  1.00  0.00     0.202 C 
BRANCH  27  28
ATOM     28  C   UNL A   1      34.878  34.327  32.897  1.00  0.00     0.261 C 
BRANCH  28  29
ATOM     29  O   UNL A   1      35.273  33.037  32.371  1.00  0.00    -0.460 OA
BRANCH  29  30
ATOM     30  C   UNL A   1      36.168  32.360  33.134  1.00  0.00     0.338 C 
ATOM     31  O   UNL A   1      36.318  32.441  34.341  1.00  0.00    -0.246 OA
BRANCH  30  32
ATOM     32  C   UNL A   1      36.956  31.394  32.343  1.00  0.00     0.060 A 
ATOM     33  C   UNL A   1      37.977  30.681  32.984  1.00  0.00     0.016 A 
ATOM     34  C   UNL A   1      36.877  31.403  30.947  1.00  0.00     0.016 A 
ATOM     35  C   UNL A   1      38.959  30.030  32.229  1.00  0.00     0.010 A 
ATOM     36  C   UNL A   1      37.865  30.752  30.193  1.00  0.00     0.010 A 
ATOM     37  C   UNL A   1      38.942  30.107  30.829  1.00  0.00    -0.014 A 
BRANCH  37  38
ATOM     38  C   UNL A   1      40.130  29.661  30.051  1.00  0.00     0.031 A 
ATOM     39  C   UNL A   1      41.266  30.624  29.811  1.00  0.00     0.074 A 
ATOM     40  C   UNL A   1      40.232  28.400  29.594  1.00  0.00     0.049 A 
ATOM     41  N   UNL A   1      42.397  30.434  29.176  1.00  0.00    -0.248 NA
ATOM     42  C   UNL A   1      41.108  31.979  30.363  1.00  0.00     0.031 C 
ATOM     43  C   UNL A   1      39.227  27.356  29.765  1.00  0.00     0.029 A 
ATOM     44  N   UNL A   1      41.237  27.790  28.883  1.00  0.00    -0.354 N 
ATOM     45  C   UNL A   1      43.087  31.636  29.259  1.00  0.00     0.074 A 
ATOM     46  C   UNL A   1      42.233  32.563  29.974  1.00  0.00     0.031 C 
ATOM     47  C   UNL A   1      39.661  26.233  29.164  1.00  0.00     0.029 A 
ATOM     48  C   UNL A   1      40.966  26.485  28.555  1.00  0.00     0.049 A 
ATOM     49  H   UNL A   1      42.074  28.245  28.634  1.00  0.00     0.167 HD
ATOM     50  C   UNL A   1      44.324  31.945  28.801  1.00  0.00     0.037 A 
ATOM     51  C   UNL A   1      41.678  25.595  27.837  1.00  0.00     0.037 A 
ATOM     52  C   UNL A   1      45.185  31.041  28.081  1.00  0.00     0.049 A 
ATOM     53  C   UNL A   1      43.028  25.975  27.290  1.00  0.00     0.074 A 
ATOM     54  C   UNL A   1      46.457  31.274  27.582  1.00  0.00     0.029 A 
ATOM     55  N   UNL A   1      44.862  29.735  27.755  1.00  0.00    -0.354 N 
ATOM     56  N   UNL A   1      43.678  27.108  27.403  1.00  0.00    -0.248 NA
ATOM     57  C   UNL A   1      43.748  24.945  26.525  1.00  0.00     0.031 C 
ATOM     58  C   UNL A   1      46.890  30.116  26.926  1.00  0.00     0.029 A 
ATOM     59  C   UNL A   1      45.904  29.153  27.048  1.00  0.00     0.049 A 
ATOM     60  H   UNL A   1      44.018  29.286  27.990  1.00  0.00     0.167 HD
ATOM     61  C   UNL A   1      44.887  26.920  26.742  1.00  0.00     0.074 A 
ATOM     62  C   UNL A   1      44.890  25.560  26.248  1.00  0.00     0.031 C 
ATOM     63  C   UNL A   1      45.902  27.799  26.560  1.00  0.00     0.037 A 
BRANCH  50  64
ATOM     64  C   UNL A   1      44.830  33.331  29.065  1.00  0.00     0.057 A 
ATOM     65  C   UNL A   1      45.506  33.649  30.249  1.00  0.00     0.134 A 
ATOM     66  C   UNL A   1      44.682  34.345  28.109  1.00  0.00     0.134 A 
ATOM     67  F   UNL A   1      45.670  32.724  31.207  1.00  0.00    -0.206 F 
ATOM     68  C   UNL A   1      46.005  34.932  30.482  1.00  0.00     0.040 A 
ATOM     69  C   UNL A   1      45.194  35.625  28.322  1.00  0.00     0.040 A 
ATOM     70  F   UNL A   1      44.050  34.102  26.952  1.00  0.00    -0.206 F 
ATOM     71  C   UNL A   1      45.855  35.923  29.512  1.00  0.00     0.006 A 
ENDBRANCH  50  64
BRANCH  51  72
ATOM     72  C   UNL A   1      41.126  24.243  27.576  1.00  0.00     0.057 A 
ATOM     73  C   UNL A   1      40.096  24.042  26.651  1.00  0.00     0.134 A 
ATOM     74  C   UNL A   1      41.595  23.125  28.275  1.00  0.00     0.134 A 
ATOM     75  F   UNL A   1      39.590  25.081  25.970  1.00  0.00    -0.206 F 
ATOM     76  C   UNL A   1      39.536  22.780  26.444  1.00  0.00     0.040 A 
ATOM     77  C   UNL A   1      41.061  21.854  28.063  1.00  0.00     0.040 A 
ATOM     78  F   UNL A   1      42.580  23.255  29.177  1.00  0.00    -0.206 F 
ATOM     79  C   UNL A   1      40.022  21.681  27.150  1.00  0.00     0.006 A 
ENDBRANCH  51  72
BRANCH  63  80
ATOM     80  C   UNL A   1      47.108  27.310  25.813  1.00  0.00     0.057 A 
ATOM     81  C   UNL A   1      48.137  26.607  26.454  1.00  0.00     0.134 A 
ATOM     82  C   UNL A   1      47.235  27.528  24.435  1.00  0.00     0.134 A 
ATOM     83  F   UNL A   1      48.082  26.377  27.774  1.00  0.00    -0.206 F 
ATOM     84  C   UNL A   1      49.262  26.163  25.757  1.00  0.00     0.040 A 
ATOM     85  C   UNL A   1      48.344  27.069  23.722  1.00  0.00     0.040 A 
ATOM     86  F   UNL A   1      46.282  28.186  23.759  1.00  0.00    -0.206 F 
ATOM     87  C   UNL A   1      49.366  26.390  24.385  1.00  0.00     0.006 A 
ENDBRANCH  63  80
ENDBRANCH  37  38
ENDBRANCH  30  32
ENDBRANCH  29  30
ENDBRANCH  28  29
ENDBRANCH  27  28
ENDBRANCH  26  27
ENDBRANCH  25  26
ENDBRANCH   1  25
TORSDOF 20
ENDMDL
