MODEL 1
REMARK VINA RESULT:     -11.1      0.000      0.000
REMARK SMILES O=C(OCCOCCOCCOC(=O)[C@@H](c1cccc(O)c1)[NH+]1CC[NH+](C2CCCC2)CC1)c1ccc(-c2c3nc(c(-c4c(F)cccc4F)c4ccc([nH]4)c(-c4c(F)cccc4F)c4nc(c(-c5c(F)cccc5F)c5ccc2[nH]5)C=C4)C=C3)cc1
REMARK SMILES IDX 7 1 6 2 5 3 4 4 3 5 2 6 1 7 34 8 35 9 87 10 36 11 86 12
REMARK SMILES IDX 37 13 38 14 39 15 80 16 40 17 85 18 79 19 81 20 41 21 84 22
REMARK SMILES IDX 78 23 77 24 42 26 68 27 51 28 67 29 52 30 55 31 66 32 82 33
REMARK SMILES IDX 53 34 54 35 65 37 83 38 56 39 43 40 44 41 49 42 45 43 46 44
REMARK SMILES IDX 48 45 50 46 47 47 69 48 70 49 75 50 71 51 72 52 74 53 76 54
REMARK SMILES IDX 73 55 57 56 58 57 63 58 59 59 60 60 62 61 64 62 61 63 8 64
REMARK SMILES IDX 9 65 10 66 11 67 12 68 13 69 14 70 15 71 16 72 17 73 22 74
REMARK SMILES IDX 18 75 20 76 19 77 21 78 23 80 24 81 33 82 25 84 32 85 26 86
REMARK SMILES IDX 27 88 28 89 31 90 29 91 30 92
REMARK H PARENT 81 25 55 36 21 79 23 83 26 87
REMARK Flexibility Score: inf
ROOT
ATOM      1  C   UNL A   1      40.461  19.856  26.124  1.00  0.00     0.188 C 
ENDROOT
BRANCH   1   2
ATOM      2  O   UNL A   1      41.688  19.563  25.438  1.00  0.00    -0.376 OA
BRANCH   2   3
ATOM      3  C   UNL A   1      42.851  19.893  26.211  1.00  0.00     0.202 C 
BRANCH   3   4
ATOM      4  C   UNL A   1      43.832  20.835  25.504  1.00  0.00     0.261 C 
BRANCH   4   5
ATOM      5  O   UNL A   1      43.977  22.085  26.188  1.00  0.00    -0.460 OA
BRANCH   5   6
ATOM      6  C   UNL A   1      43.736  23.332  25.726  1.00  0.00     0.338 C 
ATOM      7  O   UNL A   1      43.894  23.527  24.518  1.00  0.00    -0.246 OA
BRANCH   6   8
ATOM      8  C   UNL A   1      43.277  24.502  26.553  1.00  0.00     0.060 A 
ATOM      9  C   UNL A   1      43.730  25.826  26.486  1.00  0.00     0.016 A 
ATOM     10  C   UNL A   1      42.226  24.227  27.449  1.00  0.00     0.016 A 
ATOM     11  C   UNL A   1      43.210  26.825  27.325  1.00  0.00     0.010 A 
ATOM     12  C   UNL A   1      41.663  25.228  28.243  1.00  0.00     0.010 A 
ATOM     13  C   UNL A   1      42.182  26.528  28.216  1.00  0.00    -0.014 A 
BRANCH  13  14
ATOM     14  C   UNL A   1      41.765  27.488  29.265  1.00  0.00     0.031 A 
ATOM     15  C   UNL A   1      42.512  27.454  30.563  1.00  0.00     0.074 A 
ATOM     16  C   UNL A   1      40.720  28.319  29.113  1.00  0.00     0.049 A 
ATOM     17  N   UNL A   1      42.230  28.027  31.701  1.00  0.00    -0.248 NA
ATOM     18  C   UNL A   1      43.715  26.608  30.587  1.00  0.00     0.031 C 
ATOM     19  C   UNL A   1      39.912  28.434  27.908  1.00  0.00     0.029 A 
ATOM     20  N   UNL A   1      40.141  29.203  29.989  1.00  0.00    -0.354 N 
ATOM     21  C   UNL A   1      43.187  27.562  32.589  1.00  0.00     0.074 A 
ATOM     22  C   UNL A   1      44.016  26.618  31.873  1.00  0.00     0.031 C 
ATOM     23  C   UNL A   1      38.930  29.326  28.124  1.00  0.00     0.029 A 
ATOM     24  C   UNL A   1      39.038  29.842  29.479  1.00  0.00     0.049 A 
ATOM     25  H   UNL A   1      40.484  29.364  30.898  1.00  0.00     0.167 HD
ATOM     26  C   UNL A   1      43.376  27.908  33.883  1.00  0.00     0.037 A 
ATOM     27  C   UNL A   1      38.201  30.737  30.037  1.00  0.00     0.037 A 
ATOM     28  C   UNL A   1      42.571  28.876  34.571  1.00  0.00     0.049 A 
ATOM     29  C   UNL A   1      38.443  31.144  31.462  1.00  0.00     0.074 A 
ATOM     30  C   UNL A   1      42.674  29.321  35.874  1.00  0.00     0.029 A 
ATOM     31  N   UNL A   1      41.512  29.562  33.989  1.00  0.00    -0.354 N 
ATOM     32  N   UNL A   1      39.361  30.711  32.293  1.00  0.00    -0.248 NA
ATOM     33  C   UNL A   1      37.544  32.157  32.029  1.00  0.00     0.031 C 
ATOM     34  C   UNL A   1      41.666  30.272  36.084  1.00  0.00     0.029 A 
ATOM     35  C   UNL A   1      40.958  30.437  34.904  1.00  0.00     0.049 A 
ATOM     36  H   UNL A   1      41.203  29.442  33.063  1.00  0.00     0.167 HD
ATOM     37  C   UNL A   1      39.170  31.417  33.472  1.00  0.00     0.074 A 
ATOM     38  C   UNL A   1      38.050  32.310  33.247  1.00  0.00     0.031 C 
ATOM     39  C   UNL A   1      39.860  31.334  34.634  1.00  0.00     0.037 A 
BRANCH  26  40
ATOM     40  C   UNL A   1      44.487  27.193  34.591  1.00  0.00     0.057 A 
ATOM     41  C   UNL A   1      44.278  25.959  35.224  1.00  0.00     0.134 A 
ATOM     42  C   UNL A   1      45.727  27.812  34.771  1.00  0.00     0.134 A 
ATOM     43  F   UNL A   1      43.094  25.333  35.119  1.00  0.00    -0.206 F 
ATOM     44  C   UNL A   1      45.237  25.403  36.071  1.00  0.00     0.040 A 
ATOM     45  C   UNL A   1      46.708  27.248  35.590  1.00  0.00     0.040 A 
ATOM     46  F   UNL A   1      45.990  28.995  34.196  1.00  0.00    -0.206 F 
ATOM     47  C   UNL A   1      46.454  26.053  36.261  1.00  0.00     0.006 A 
ENDBRANCH  26  40
BRANCH  27  48
ATOM     48  C   UNL A   1      37.091  31.327  29.242  1.00  0.00     0.057 A 
ATOM     49  C   UNL A   1      35.922  30.600  28.986  1.00  0.00     0.134 A 
ATOM     50  C   UNL A   1      37.158  32.632  28.738  1.00  0.00     0.134 A 
ATOM     51  F   UNL A   1      35.798  29.341  29.432  1.00  0.00    -0.206 F 
ATOM     52  C   UNL A   1      34.868  31.140  28.245  1.00  0.00     0.040 A 
ATOM     53  C   UNL A   1      36.102  33.194  28.016  1.00  0.00     0.040 A 
ATOM     54  F   UNL A   1      38.245  33.385  28.957  1.00  0.00    -0.206 F 
ATOM     55  C   UNL A   1      34.954  32.444  27.762  1.00  0.00     0.006 A 
ENDBRANCH  27  48
BRANCH  39  56
ATOM     56  C   UNL A   1      39.463  32.271  35.731  1.00  0.00     0.057 A 
ATOM     57  C   UNL A   1      39.971  33.571  35.811  1.00  0.00     0.134 A 
ATOM     58  C   UNL A   1      38.497  31.885  36.669  1.00  0.00     0.134 A 
ATOM     59  F   UNL A   1      40.909  33.989  34.948  1.00  0.00    -0.206 F 
ATOM     60  C   UNL A   1      39.531  34.460  36.791  1.00  0.00     0.040 A 
ATOM     61  C   UNL A   1      38.035  32.771  37.641  1.00  0.00     0.040 A 
ATOM     62  F   UNL A   1      37.973  30.650  36.639  1.00  0.00    -0.206 F 
ATOM     63  C   UNL A   1      38.552  34.064  37.702  1.00  0.00     0.006 A 
ENDBRANCH  39  56
ENDBRANCH  13  14
ENDBRANCH   6   8
ENDBRANCH   5   6
ENDBRANCH   4   5
ENDBRANCH   3   4
ENDBRANCH   2   3
ENDBRANCH   1   2
BRANCH   1  64
ATOM     64  C   UNL A   1      40.576  21.041  27.089  1.00  0.00     0.188 C 
BRANCH  64  65
ATOM     65  O   UNL A   1      39.622  22.082  26.898  1.00  0.00    -0.376 OA
BRANCH  65  66
ATOM     66  C   UNL A   1      38.691  21.914  25.837  1.00  0.00     0.202 C 
BRANCH  66  67
ATOM     67  C   UNL A   1      37.648  23.015  25.648  1.00  0.00     0.261 C 
BRANCH  67  68
ATOM     68  O   UNL A   1      36.409  22.598  25.043  1.00  0.00    -0.459 OA
BRANCH  68  69
ATOM     69  C   UNL A   1      36.165  23.111  23.797  1.00  0.00     0.369 C 
ATOM     70  O   UNL A   1      37.058  23.442  23.011  1.00  0.00    -0.245 OA
BRANCH  69  71
ATOM     71  C   UNL A   1      34.664  23.369  23.520  1.00  0.00     0.326 C 
BRANCH  71  72
ATOM     72  C   UNL A   1      33.750  22.187  23.842  1.00  0.00     0.025 A 
ATOM     73  C   UNL A   1      32.882  21.610  22.908  1.00  0.00     0.011 A 
ATOM     74  C   UNL A   1      33.819  21.597  25.124  1.00  0.00     0.056 A 
ATOM     75  C   UNL A   1      32.088  20.515  23.260  1.00  0.00     0.004 A 
ATOM     76  C   UNL A   1      33.113  20.434  25.415  1.00  0.00     0.116 A 
ATOM     77  C   UNL A   1      32.226  19.897  24.498  1.00  0.00     0.046 A 
BRANCH  76  78
ATOM     78  O   UNL A   1      33.358  19.821  26.608  1.00  0.00    -0.508 OA
ATOM     79  H   UNL A   1      33.405  20.327  27.394  1.00  0.00     0.293 HD
ENDBRANCH  76  78
ENDBRANCH  71  72
BRANCH  71  80
ATOM     80  N   UNL A   1      34.211  24.698  23.996  1.00  0.00    -0.310 N 
ATOM     81  C   UNL A   1      33.386  25.583  23.186  1.00  0.00     0.325 C 
ATOM     82  C   UNL A   1      34.214  25.016  25.417  1.00  0.00     0.325 C 
ATOM     83  H   UNL A   1      35.135  24.944  23.643  1.00  0.00     0.349 HD
ATOM     84  C   UNL A   1      32.017  25.968  23.809  1.00  0.00     0.324 C 
ATOM     85  C   UNL A   1      32.773  25.182  25.937  1.00  0.00     0.324 C 
ATOM     86  N   UNL A   1      32.011  26.235  25.258  1.00  0.00    -0.323 N 
ATOM     87  H   UNL A   1      31.057  26.174  25.614  1.00  0.00     0.348 HD
BRANCH  86  88
ATOM     88  C   UNL A   1      32.314  27.622  25.619  1.00  0.00     0.184 C 
ATOM     89  C   UNL A   1      31.430  28.686  24.955  1.00  0.00     0.065 C 
ATOM     90  C   UNL A   1      32.377  28.053  27.099  1.00  0.00     0.065 C 
ATOM     91  C   UNL A   1      31.805  29.957  25.698  1.00  0.00     0.006 C 
ATOM     92  C   UNL A   1      31.886  29.501  27.144  1.00  0.00     0.006 C 
ENDBRANCH  86  88
ENDBRANCH  71  80
ENDBRANCH  69  71
ENDBRANCH  68  69
ENDBRANCH  67  68
ENDBRANCH  66  67
ENDBRANCH  65  66
ENDBRANCH  64  65
ENDBRANCH   1  64
TORSDOF 21
ENDMDL
MODEL 2
REMARK VINA RESULT:     -10.8      4.288      7.105
REMARK SMILES O=C(OCCOCCOCCOC(=O)[C@@H](c1cccc(O)c1)[NH+]1CC[NH+](C2CCCC2)CC1)c1ccc(-c2c3nc(c(-c4c(F)cccc4F)c4ccc([nH]4)c(-c4c(F)cccc4F)c4nc(c(-c5c(F)cccc5F)c5ccc2[nH]5)C=C4)C=C3)cc1
REMARK SMILES IDX 7 1 6 2 5 3 4 4 3 5 2 6 1 7 34 8 35 9 87 10 36 11 86 12
REMARK SMILES IDX 37 13 38 14 39 15 80 16 40 17 85 18 79 19 81 20 41 21 84 22
REMARK SMILES IDX 78 23 77 24 42 26 68 27 51 28 67 29 52 30 55 31 66 32 82 33
REMARK SMILES IDX 53 34 54 35 65 37 83 38 56 39 43 40 44 41 49 42 45 43 46 44
REMARK SMILES IDX 48 45 50 46 47 47 69 48 70 49 75 50 71 51 72 52 74 53 76 54
REMARK SMILES IDX 73 55 57 56 58 57 63 58 59 59 60 60 62 61 64 62 61 63 8 64
REMARK SMILES IDX 9 65 10 66 11 67 12 68 13 69 14 70 15 71 16 72 17 73 22 74
REMARK SMILES IDX 18 75 20 76 19 77 21 78 23 80 24 81 33 82 25 84 32 85 26 86
REMARK SMILES IDX 27 88 28 89 31 90 29 91 30 92
REMARK H PARENT 81 25 55 36 21 79 23 83 26 87
REMARK Flexibility Score: inf
ROOT
ATOM      1  C   UNL A   1      35.082  23.302  25.217  1.00  0.00     0.188 C 
ENDROOT
BRANCH   1   2
ATOM      2  O   UNL A   1      34.984  21.941  25.665  1.00  0.00    -0.376 OA
BRANCH   2   3
ATOM      3  C   UNL A   1      35.914  21.069  25.007  1.00  0.00     0.202 C 
BRANCH   3   4
ATOM      4  C   UNL A   1      37.348  21.605  24.945  1.00  0.00     0.261 C 
BRANCH   4   5
ATOM      5  O   UNL A   1      38.182  21.052  25.971  1.00  0.00    -0.460 OA
BRANCH   5   6
ATOM      6  C   UNL A   1      39.404  21.463  26.377  1.00  0.00     0.338 C 
ATOM      7  O   UNL A   1      40.273  20.598  26.513  1.00  0.00    -0.246 OA
BRANCH   6   8
ATOM      8  C   UNL A   1      39.803  22.885  26.664  1.00  0.00     0.060 A 
ATOM      9  C   UNL A   1      39.199  24.055  26.184  1.00  0.00     0.016 A 
ATOM     10  C   UNL A   1      40.868  23.037  27.571  1.00  0.00     0.016 A 
ATOM     11  C   UNL A   1      39.679  25.327  26.534  1.00  0.00     0.010 A 
ATOM     12  C   UNL A   1      41.311  24.299  27.972  1.00  0.00     0.010 A 
ATOM     13  C   UNL A   1      40.746  25.455  27.421  1.00  0.00    -0.014 A 
BRANCH  13  14
ATOM     14  C   UNL A   1      41.420  26.757  27.639  1.00  0.00     0.031 A 
ATOM     15  C   UNL A   1      42.792  26.923  27.062  1.00  0.00     0.074 A 
ATOM     16  C   UNL A   1      40.876  27.740  28.376  1.00  0.00     0.049 A 
ATOM     17  N   UNL A   1      43.675  27.861  27.274  1.00  0.00    -0.248 NA
ATOM     18  C   UNL A   1      43.246  25.848  26.167  1.00  0.00     0.031 C 
ATOM     19  C   UNL A   1      39.560  27.691  28.994  1.00  0.00     0.029 A 
ATOM     20  N   UNL A   1      41.378  28.961  28.753  1.00  0.00    -0.354 N 
ATOM     21  C   UNL A   1      44.807  27.456  26.585  1.00  0.00     0.074 A 
ATOM     22  C   UNL A   1      44.518  26.165  26.002  1.00  0.00     0.031 C 
ATOM     23  C   UNL A   1      39.362  28.824  29.690  1.00  0.00     0.029 A 
ATOM     24  C   UNL A   1      40.533  29.675  29.567  1.00  0.00     0.049 A 
ATOM     25  H   UNL A   1      42.259  29.293  28.467  1.00  0.00     0.167 HD
ATOM     26  C   UNL A   1      45.980  28.113  26.428  1.00  0.00     0.037 A 
ATOM     27  C   UNL A   1      40.685  30.877  30.156  1.00  0.00     0.037 A 
ATOM     28  C   UNL A   1      46.241  29.412  26.978  1.00  0.00     0.049 A 
ATOM     29  C   UNL A   1      41.975  31.615  29.944  1.00  0.00     0.074 A 
ATOM     30  C   UNL A   1      47.381  30.184  26.876  1.00  0.00     0.029 A 
ATOM     31  N   UNL A   1      45.324  30.137  27.729  1.00  0.00    -0.354 N 
ATOM     32  N   UNL A   1      43.038  31.232  29.277  1.00  0.00    -0.248 NA
ATOM     33  C   UNL A   1      42.094  32.943  30.559  1.00  0.00     0.031 C 
ATOM     34  C   UNL A   1      47.157  31.376  27.577  1.00  0.00     0.029 A 
ATOM     35  C   UNL A   1      45.869  31.355  28.089  1.00  0.00     0.049 A 
ATOM     36  H   UNL A   1      44.421  29.828  27.969  1.00  0.00     0.167 HD
ATOM     37  C   UNL A   1      43.941  32.282  29.366  1.00  0.00     0.074 A 
ATOM     38  C   UNL A   1      43.299  33.319  30.150  1.00  0.00     0.031 C 
ATOM     39  C   UNL A   1      45.187  32.377  28.846  1.00  0.00     0.037 A 
BRANCH  26  40
ATOM     40  C   UNL A   1      47.033  27.385  25.648  1.00  0.00     0.057 A 
ATOM     41  C   UNL A   1      47.939  26.517  26.274  1.00  0.00     0.134 A 
ATOM     42  C   UNL A   1      47.237  27.670  24.295  1.00  0.00     0.134 A 
ATOM     43  F   UNL A   1      47.818  26.234  27.581  1.00  0.00    -0.206 F 
ATOM     44  C   UNL A   1      49.055  26.019  25.599  1.00  0.00     0.040 A 
ATOM     45  C   UNL A   1      48.331  27.151  23.601  1.00  0.00     0.040 A 
ATOM     46  F   UNL A   1      46.408  28.496  23.638  1.00  0.00    -0.206 F 
ATOM     47  C   UNL A   1      49.256  26.342  24.259  1.00  0.00     0.006 A 
ENDBRANCH  26  40
BRANCH  27  48
ATOM     48  C   UNL A   1      39.582  31.463  30.964  1.00  0.00     0.057 A 
ATOM     49  C   UNL A   1      38.681  32.374  30.400  1.00  0.00     0.134 A 
ATOM     50  C   UNL A   1      39.387  31.116  32.307  1.00  0.00     0.134 A 
ATOM     51  F   UNL A   1      38.818  32.757  29.122  1.00  0.00    -0.206 F 
ATOM     52  C   UNL A   1      37.637  32.932  31.144  1.00  0.00     0.040 A 
ATOM     53  C   UNL A   1      38.334  31.647  33.056  1.00  0.00     0.040 A 
ATOM     54  F   UNL A   1      40.209  30.241  32.903  1.00  0.00    -0.206 F 
ATOM     55  C   UNL A   1      37.458  32.563  32.475  1.00  0.00     0.006 A 
ENDBRANCH  27  48
BRANCH  39  56
ATOM     56  C   UNL A   1      45.916  33.667  29.056  1.00  0.00     0.057 A 
ATOM     57  C   UNL A   1      45.784  34.742  28.173  1.00  0.00     0.134 A 
ATOM     58  C   UNL A   1      46.697  33.854  30.204  1.00  0.00     0.134 A 
ATOM     59  F   UNL A   1      45.060  34.615  27.050  1.00  0.00    -0.206 F 
ATOM     60  C   UNL A   1      46.405  35.966  28.424  1.00  0.00     0.040 A 
ATOM     61  C   UNL A   1      47.307  35.078  30.476  1.00  0.00     0.040 A 
ATOM     62  F   UNL A   1      46.858  32.857  31.088  1.00  0.00    -0.206 F 
ATOM     63  C   UNL A   1      47.159  36.138  29.584  1.00  0.00     0.006 A 
ENDBRANCH  39  56
ENDBRANCH  13  14
ENDBRANCH   6   8
ENDBRANCH   5   6
ENDBRANCH   4   5
ENDBRANCH   3   4
ENDBRANCH   2   3
ENDBRANCH   1   2
BRANCH   1  64
ATOM     64  C   UNL A   1      34.646  23.493  23.761  1.00  0.00     0.188 C 
BRANCH  64  65
ATOM     65  O   UNL A   1      33.710  24.542  23.533  1.00  0.00    -0.376 OA
BRANCH  65  66
ATOM     66  C   UNL A   1      32.899  24.439  22.371  1.00  0.00     0.202 C 
BRANCH  66  67
ATOM     67  C   UNL A   1      31.872  25.547  22.139  1.00  0.00     0.261 C 
BRANCH  67  68
ATOM     68  O   UNL A   1      30.761  25.565  23.054  1.00  0.00    -0.459 OA
BRANCH  68  69
ATOM     69  C   UNL A   1      30.815  26.532  24.022  1.00  0.00     0.369 C 
ATOM     70  O   UNL A   1      30.476  26.341  25.193  1.00  0.00    -0.245 OA
BRANCH  69  71
ATOM     71  C   UNL A   1      31.208  27.926  23.477  1.00  0.00     0.326 C 
BRANCH  71  72
ATOM     72  C   UNL A   1      30.035  28.755  22.954  1.00  0.00     0.025 A 
ATOM     73  C   UNL A   1      30.180  29.793  22.027  1.00  0.00     0.011 A 
ATOM     74  C   UNL A   1      28.726  28.426  23.370  1.00  0.00     0.056 A 
ATOM     75  C   UNL A   1      29.063  30.498  21.571  1.00  0.00     0.004 A 
ATOM     76  C   UNL A   1      27.618  29.057  22.812  1.00  0.00     0.116 A 
ATOM     77  C   UNL A   1      27.775  30.111  21.928  1.00  0.00     0.046 A 
BRANCH  76  78
ATOM     78  O   UNL A   1      26.383  28.575  23.127  1.00  0.00    -0.508 OA
ATOM     79  H   UNL A   1      26.047  28.679  23.995  1.00  0.00     0.293 HD
ENDBRANCH  76  78
ENDBRANCH  71  72
BRANCH  71  80
ATOM     80  N   UNL A   1      32.173  28.635  24.352  1.00  0.00    -0.310 N 
ATOM     81  C   UNL A   1      31.762  29.630  25.332  1.00  0.00     0.325 C 
ATOM     82  C   UNL A   1      33.509  28.098  24.569  1.00  0.00     0.325 C 
ATOM     83  H   UNL A   1      32.229  29.220  23.518  1.00  0.00     0.349 HD
ATOM     84  C   UNL A   1      32.146  29.310  26.802  1.00  0.00     0.324 C 
ATOM     85  C   UNL A   1      33.679  27.645  26.032  1.00  0.00     0.324 C 
ATOM     86  N   UNL A   1      33.476  28.714  27.015  1.00  0.00    -0.323 N 
ATOM     87  H   UNL A   1      33.510  28.270  27.932  1.00  0.00     0.348 HD
BRANCH  86  88
ATOM     88  C   UNL A   1      34.557  29.689  27.178  1.00  0.00     0.184 C 
ATOM     89  C   UNL A   1      34.133  31.061  27.718  1.00  0.00     0.065 C 
ATOM     90  C   UNL A   1      35.817  29.335  27.994  1.00  0.00     0.065 C 
ATOM     91  C   UNL A   1      35.460  31.740  28.010  1.00  0.00     0.006 C 
ATOM     92  C   UNL A   1      36.280  30.635  28.653  1.00  0.00     0.006 C 
ENDBRANCH  86  88
ENDBRANCH  71  80
ENDBRANCH  69  71
ENDBRANCH  68  69
ENDBRANCH  67  68
ENDBRANCH  66  67
ENDBRANCH  65  66
ENDBRANCH  64  65
ENDBRANCH   1  64
TORSDOF 21
ENDMDL
MODEL 3
REMARK VINA RESULT:     -10.7      4.107      9.248
REMARK SMILES O=C(OCCOCCOCCOC(=O)[C@@H](c1cccc(O)c1)[NH+]1CC[NH+](C2CCCC2)CC1)c1ccc(-c2c3nc(c(-c4c(F)cccc4F)c4ccc([nH]4)c(-c4c(F)cccc4F)c4nc(c(-c5c(F)cccc5F)c5ccc2[nH]5)C=C4)C=C3)cc1
REMARK SMILES IDX 7 1 6 2 5 3 4 4 3 5 2 6 1 7 34 8 35 9 87 10 36 11 86 12
REMARK SMILES IDX 37 13 38 14 39 15 80 16 40 17 85 18 79 19 81 20 41 21 84 22
REMARK SMILES IDX 78 23 77 24 42 26 68 27 51 28 67 29 52 30 55 31 66 32 82 33
REMARK SMILES IDX 53 34 54 35 65 37 83 38 56 39 43 40 44 41 49 42 45 43 46 44
REMARK SMILES IDX 48 45 50 46 47 47 69 48 70 49 75 50 71 51 72 52 74 53 76 54
REMARK SMILES IDX 73 55 57 56 58 57 63 58 59 59 60 60 62 61 64 62 61 63 8 64
REMARK SMILES IDX 9 65 10 66 11 67 12 68 13 69 14 70 15 71 16 72 17 73 22 74
REMARK SMILES IDX 18 75 20 76 19 77 21 78 23 80 24 81 33 82 25 84 32 85 26 86
REMARK SMILES IDX 27 88 28 89 31 90 29 91 30 92
REMARK H PARENT 81 25 55 36 21 79 23 83 26 87
REMARK Flexibility Score: inf
ROOT
ATOM      1  C   UNL A   1      34.976  33.756  28.260  1.00  0.00     0.188 C 
ENDROOT
BRANCH   1   2
ATOM      2  O   UNL A   1      34.703  34.953  29.006  1.00  0.00    -0.376 OA
BRANCH   2   3
ATOM      3  C   UNL A   1      33.302  35.164  29.230  1.00  0.00     0.202 C 
BRANCH   3   4
ATOM      4  C   UNL A   1      32.943  36.578  29.699  1.00  0.00     0.261 C 
BRANCH   4   5
ATOM      5  O   UNL A   1      32.417  36.593  31.032  1.00  0.00    -0.460 OA
BRANCH   5   6
ATOM      6  C   UNL A   1      32.538  35.656  31.998  1.00  0.00     0.338 C 
ATOM      7  O   UNL A   1      31.499  35.263  32.535  1.00  0.00    -0.246 OA
BRANCH   6   8
ATOM      8  C   UNL A   1      33.827  35.039  32.466  1.00  0.00     0.060 A 
ATOM      9  C   UNL A   1      35.093  35.637  32.517  1.00  0.00     0.016 A 
ATOM     10  C   UNL A   1      33.717  33.728  32.967  1.00  0.00     0.016 A 
ATOM     11  C   UNL A   1      36.220  34.939  32.979  1.00  0.00     0.010 A 
ATOM     12  C   UNL A   1      34.821  33.048  33.485  1.00  0.00     0.010 A 
ATOM     13  C   UNL A   1      36.092  33.636  33.454  1.00  0.00    -0.014 A 
BRANCH  13  14
ATOM     14  C   UNL A   1      37.278  32.794  33.738  1.00  0.00     0.031 A 
ATOM     15  C   UNL A   1      37.993  33.030  35.032  1.00  0.00     0.074 A 
ATOM     16  C   UNL A   1      37.756  31.897  32.859  1.00  0.00     0.049 A 
ATOM     17  N   UNL A   1      39.155  32.591  35.432  1.00  0.00    -0.248 NA
ATOM     18  C   UNL A   1      37.323  33.936  35.978  1.00  0.00     0.031 C 
ATOM     19  C   UNL A   1      37.157  31.589  31.569  1.00  0.00     0.029 A 
ATOM     20  N   UNL A   1      38.873  31.100  32.908  1.00  0.00    -0.354 N 
ATOM     21  C   UNL A   1      39.378  33.213  36.651  1.00  0.00     0.074 A 
ATOM     22  C   UNL A   1      38.264  34.103  36.890  1.00  0.00     0.031 C 
ATOM     23  C   UNL A   1      37.921  30.681  30.939  1.00  0.00     0.029 A 
ATOM     24  C   UNL A   1      39.060  30.345  31.777  1.00  0.00     0.049 A 
ATOM     25  H   UNL A   1      39.482  31.072  33.681  1.00  0.00     0.167 HD
ATOM     26  C   UNL A   1      40.410  33.043  37.509  1.00  0.00     0.037 A 
ATOM     27  C   UNL A   1      40.041  29.484  31.444  1.00  0.00     0.037 A 
ATOM     28  C   UNL A   1      41.491  32.127  37.278  1.00  0.00     0.049 A 
ATOM     29  C   UNL A   1      41.162  29.272  32.421  1.00  0.00     0.074 A 
ATOM     30  C   UNL A   1      42.583  31.855  38.077  1.00  0.00     0.029 A 
ATOM     31  N   UNL A   1      41.598  31.319  36.153  1.00  0.00    -0.354 N 
ATOM     32  N   UNL A   1      41.360  29.854  33.580  1.00  0.00    -0.248 NA
ATOM     33  C   UNL A   1      42.192  28.292  32.053  1.00  0.00     0.031 C 
ATOM     34  C   UNL A   1      43.360  30.886  37.429  1.00  0.00     0.029 A 
ATOM     35  C   UNL A   1      42.734  30.537  36.241  1.00  0.00     0.049 A 
ATOM     36  H   UNL A   1      40.960  31.305  35.404  1.00  0.00     0.167 HD
ATOM     37  C   UNL A   1      42.519  29.292  34.094  1.00  0.00     0.074 A 
ATOM     38  C   UNL A   1      42.979  28.320  33.121  1.00  0.00     0.031 C 
ATOM     39  C   UNL A   1      43.145  29.557  35.266  1.00  0.00     0.037 A 
BRANCH  26  40
ATOM     40  C   UNL A   1      40.381  33.898  38.739  1.00  0.00     0.057 A 
ATOM     41  C   UNL A   1      41.114  35.092  38.819  1.00  0.00     0.134 A 
ATOM     42  C   UNL A   1      39.741  33.452  39.899  1.00  0.00     0.134 A 
ATOM     43  F   UNL A   1      41.781  35.553  37.749  1.00  0.00    -0.206 F 
ATOM     44  C   UNL A   1      41.272  35.770  40.028  1.00  0.00     0.040 A 
ATOM     45  C   UNL A   1      39.865  34.140  41.107  1.00  0.00     0.040 A 
ATOM     46  F   UNL A   1      39.027  32.316  39.891  1.00  0.00    -0.206 F 
ATOM     47  C   UNL A   1      40.652  35.289  41.179  1.00  0.00     0.006 A 
ENDBRANCH  26  40
BRANCH  27  48
ATOM     48  C   UNL A   1      39.986  28.741  30.157  1.00  0.00     0.057 A 
ATOM     49  C   UNL A   1      39.284  27.535  30.049  1.00  0.00     0.134 A 
ATOM     50  C   UNL A   1      40.614  29.223  29.001  1.00  0.00     0.134 A 
ATOM     51  F   UNL A   1      38.670  27.013  31.122  1.00  0.00    -0.206 F 
ATOM     52  C   UNL A   1      39.219  26.826  28.847  1.00  0.00     0.040 A 
ATOM     53  C   UNL A   1      40.537  28.538  27.786  1.00  0.00     0.040 A 
ATOM     54  F   UNL A   1      41.294  30.378  29.034  1.00  0.00    -0.206 F 
ATOM     55  C   UNL A   1      39.843  27.331  27.708  1.00  0.00     0.006 A 
ENDBRANCH  27  48
BRANCH  39  56
ATOM     56  C   UNL A   1      44.360  28.745  35.587  1.00  0.00     0.057 A 
ATOM     57  C   UNL A   1      45.644  29.163  35.223  1.00  0.00     0.134 A 
ATOM     58  C   UNL A   1      44.242  27.572  36.343  1.00  0.00     0.134 A 
ATOM     59  F   UNL A   1      45.816  30.271  34.487  1.00  0.00    -0.206 F 
ATOM     60  C   UNL A   1      46.775  28.438  35.600  1.00  0.00     0.040 A 
ATOM     61  C   UNL A   1      45.365  26.849  36.741  1.00  0.00     0.040 A 
ATOM     62  F   UNL A   1      43.035  27.124  36.722  1.00  0.00    -0.206 F 
ATOM     63  C   UNL A   1      46.636  27.284  36.370  1.00  0.00     0.006 A 
ENDBRANCH  39  56
ENDBRANCH  13  14
ENDBRANCH   6   8
ENDBRANCH   5   6
ENDBRANCH   4   5
ENDBRANCH   3   4
ENDBRANCH   2   3
ENDBRANCH   1   2
BRANCH   1  64
ATOM     64  C   UNL A   1      33.730  32.896  28.022  1.00  0.00     0.188 C 
BRANCH  64  65
ATOM     65  O   UNL A   1      33.866  31.516  28.348  1.00  0.00    -0.376 OA
BRANCH  65  66
ATOM     66  C   UNL A   1      33.844  30.594  27.267  1.00  0.00     0.202 C 
BRANCH  66  67
ATOM     67  C   UNL A   1      32.579  30.556  26.411  1.00  0.00     0.261 C 
BRANCH  67  68
ATOM     68  O   UNL A   1      31.982  29.256  26.242  1.00  0.00    -0.459 OA
BRANCH  68  69
ATOM     69  C   UNL A   1      32.213  28.659  25.032  1.00  0.00     0.369 C 
ATOM     70  O   UNL A   1      33.176  28.936  24.310  1.00  0.00    -0.245 OA
BRANCH  69  71
ATOM     71  C   UNL A   1      31.078  27.705  24.589  1.00  0.00     0.326 C 
BRANCH  71  72
ATOM     72  C   UNL A   1      30.022  28.352  23.693  1.00  0.00     0.025 A 
ATOM     73  C   UNL A   1      28.738  27.825  23.515  1.00  0.00     0.011 A 
ATOM     74  C   UNL A   1      30.322  29.576  23.055  1.00  0.00     0.056 A 
ATOM     75  C   UNL A   1      27.810  28.478  22.699  1.00  0.00     0.004 A 
ATOM     76  C   UNL A   1      29.347  30.272  22.348  1.00  0.00     0.116 A 
ATOM     77  C   UNL A   1      28.093  29.721  22.143  1.00  0.00     0.046 A 
BRANCH  76  78
ATOM     78  O   UNL A   1      29.650  31.526  21.907  1.00  0.00    -0.508 OA
ATOM     79  H   UNL A   1      29.036  32.224  22.023  1.00  0.00     0.293 HD
ENDBRANCH  76  78
ENDBRANCH  71  72
BRANCH  71  80
ATOM     80  N   UNL A   1      31.576  26.376  24.161  1.00  0.00    -0.310 N 
ATOM     81  C   UNL A   1      31.882  26.061  22.773  1.00  0.00     0.325 C 
ATOM     82  C   UNL A   1      32.169  25.461  25.127  1.00  0.00     0.325 C 
ATOM     83  H   UNL A   1      30.573  26.193  24.168  1.00  0.00     0.349 HD
ATOM     84  C   UNL A   1      33.346  25.623  22.500  1.00  0.00     0.324 C 
ATOM     85  C   UNL A   1      33.671  25.272  24.843  1.00  0.00     0.324 C 
ATOM     86  N   UNL A   1      33.963  24.742  23.507  1.00  0.00    -0.323 N 
ATOM     87  H   UNL A   1      34.978  24.763  23.406  1.00  0.00     0.348 HD
BRANCH  86  88
ATOM     88  C   UNL A   1      33.729  23.313  23.286  1.00  0.00     0.184 C 
ATOM     89  C   UNL A   1      33.091  22.559  24.461  1.00  0.00     0.065 C 
ATOM     90  C   UNL A   1      32.942  22.826  22.053  1.00  0.00     0.065 C 
ATOM     91  C   UNL A   1      32.751  21.207  23.857  1.00  0.00     0.006 C 
ATOM     92  C   UNL A   1      32.190  21.569  22.492  1.00  0.00     0.006 C 
ENDBRANCH  86  88
ENDBRANCH  71  80
ENDBRANCH  69  71
ENDBRANCH  68  69
ENDBRANCH  67  68
ENDBRANCH  66  67
ENDBRANCH  65  66
ENDBRANCH  64  65
ENDBRANCH   1  64
TORSDOF 21
ENDMDL
