MODEL 1
REMARK VINA RESULT:     -10.8      0.000      0.000
REMARK SMILES O=C(OCCOCCOCCOC(=O)[C@@H]1[C@H](C(=O)Nc2ccccc2OC(F)F)[C@@H]2C=C[C@H]1C2)c1ccc(-c2c3nc(c(-c4c(F)cccc4F)c4ccc([nH]4)c(-c4c(F)cccc4F)c4nc(c(-c5c(F)cccc5F)c5ccc2[nH]5)C=C4)C=C3)cc1
REMARK SMILES IDX 8 1 7 2 6 3 5 4 4 5 3 6 2 7 1 8 35 9 36 10 88 11 37 12 87 13
REMARK SMILES IDX 38 14 39 15 40 16 81 17 41 18 86 19 80 20 82 21 42 22 85 23
REMARK SMILES IDX 79 24 78 25 43 27 69 28 52 29 68 30 53 31 56 32 67 33 83 34
REMARK SMILES IDX 54 35 55 36 66 38 84 39 57 40 44 41 45 42 50 43 46 44 47 45
REMARK SMILES IDX 49 46 51 47 48 48 70 49 71 50 76 51 72 52 73 53 75 54 77 55
REMARK SMILES IDX 74 56 58 57 59 58 64 59 60 60 61 61 63 62 65 63 62 64 9 65
REMARK SMILES IDX 10 66 11 67 12 68 13 69 14 70 15 71 16 72 33 73 30 74 32 75
REMARK SMILES IDX 34 76 31 77 17 78 18 79 19 80 20 82 21 83 25 84 22 85 24 86
REMARK SMILES IDX 23 87 26 88 27 89 28 90 29 91
REMARK H PARENT 82 26 56 37 19 81
REMARK Flexibility Score: inf
ROOT
ATOM      1  C   UNL A   1      39.582  22.338  26.490  1.00  0.00     0.188 C 
ENDROOT
BRANCH   1   2
ATOM      2  C   UNL A   1      40.164  20.924  26.472  1.00  0.00     0.188 C 
BRANCH   2   3
ATOM      3  O   UNL A   1      41.428  20.955  25.825  1.00  0.00    -0.376 OA
BRANCH   3   4
ATOM      4  C   UNL A   1      42.443  21.846  26.272  1.00  0.00     0.202 C 
BRANCH   4   5
ATOM      5  C   UNL A   1      43.343  22.585  25.270  1.00  0.00     0.261 C 
BRANCH   5   6
ATOM      6  O   UNL A   1      42.791  23.875  24.973  1.00  0.00    -0.460 OA
BRANCH   6   7
ATOM      7  C   UNL A   1      43.587  24.968  25.101  1.00  0.00     0.338 C 
ATOM      8  O   UNL A   1      44.730  25.117  24.737  1.00  0.00    -0.246 OA
BRANCH   7   9
ATOM      9  C   UNL A   1      42.767  25.875  25.925  1.00  0.00     0.060 A 
ATOM     10  C   UNL A   1      43.333  27.121  26.213  1.00  0.00     0.016 A 
ATOM     11  C   UNL A   1      41.601  25.460  26.558  1.00  0.00     0.016 A 
ATOM     12  C   UNL A   1      42.848  27.888  27.244  1.00  0.00     0.010 A 
ATOM     13  C   UNL A   1      41.057  26.276  27.556  1.00  0.00     0.010 A 
ATOM     14  C   UNL A   1      41.716  27.461  27.937  1.00  0.00    -0.014 A 
BRANCH  14  15
ATOM     15  C   UNL A   1      41.355  28.229  29.143  1.00  0.00     0.031 A 
ATOM     16  C   UNL A   1      40.137  29.098  29.103  1.00  0.00     0.074 A 
ATOM     17  C   UNL A   1      42.007  27.987  30.295  1.00  0.00     0.049 A 
ATOM     18  N   UNL A   1      39.624  29.846  30.042  1.00  0.00    -0.248 NA
ATOM     19  C   UNL A   1      39.378  29.113  27.840  1.00  0.00     0.031 C 
ATOM     20  C   UNL A   1      43.109  27.035  30.446  1.00  0.00     0.029 A 
ATOM     21  N   UNL A   1      41.820  28.480  31.557  1.00  0.00    -0.354 N 
ATOM     22  C   UNL A   1      38.498  30.431  29.481  1.00  0.00     0.074 A 
ATOM     23  C   UNL A   1      38.409  29.971  28.114  1.00  0.00     0.031 C 
ATOM     24  C   UNL A   1      43.490  26.999  31.732  1.00  0.00     0.029 A 
ATOM     25  C   UNL A   1      42.708  27.977  32.476  1.00  0.00     0.049 A 
ATOM     26  H   UNL A   1      41.117  29.130  31.784  1.00  0.00     0.167 HD
ATOM     27  C   UNL A   1      37.620  31.278  30.064  1.00  0.00     0.037 A 
ATOM     28  C   UNL A   1      42.889  28.305  33.768  1.00  0.00     0.037 A 
ATOM     29  C   UNL A   1      37.743  31.723  31.426  1.00  0.00     0.049 A 
ATOM     30  C   UNL A   1      41.981  29.350  34.353  1.00  0.00     0.074 A 
ATOM     31  C   UNL A   1      36.972  32.640  32.114  1.00  0.00     0.029 A 
ATOM     32  N   UNL A   1      38.716  31.271  32.310  1.00  0.00    -0.354 N 
ATOM     33  N   UNL A   1      40.959  29.959  33.797  1.00  0.00    -0.248 NA
ATOM     34  C   UNL A   1      42.251  29.762  35.734  1.00  0.00     0.031 C 
ATOM     35  C   UNL A   1      37.508  32.777  33.399  1.00  0.00     0.029 A 
ATOM     36  C   UNL A   1      38.579  31.905  33.532  1.00  0.00     0.049 A 
ATOM     37  H   UNL A   1      39.404  30.599  32.096  1.00  0.00     0.167 HD
ATOM     38  C   UNL A   1      40.450  30.811  34.766  1.00  0.00     0.074 A 
ATOM     39  C   UNL A   1      41.266  30.622  35.951  1.00  0.00     0.031 C 
ATOM     40  C   UNL A   1      39.408  31.676  34.689  1.00  0.00     0.037 A 
BRANCH  27  41
ATOM     41  C   UNL A   1      36.515  31.815  29.203  1.00  0.00     0.057 A 
ATOM     42  C   UNL A   1      36.491  33.145  28.761  1.00  0.00     0.134 A 
ATOM     43  C   UNL A   1      35.435  30.998  28.848  1.00  0.00     0.134 A 
ATOM     44  F   UNL A   1      37.480  33.989  29.089  1.00  0.00    -0.206 F 
ATOM     45  C   UNL A   1      35.415  33.650  28.027  1.00  0.00     0.040 A 
ATOM     46  C   UNL A   1      34.365  31.485  28.094  1.00  0.00     0.040 A 
ATOM     47  F   UNL A   1      35.391  29.717  29.243  1.00  0.00    -0.206 F 
ATOM     48  C   UNL A   1      34.349  32.818  27.689  1.00  0.00     0.006 A 
ENDBRANCH  27  41
BRANCH  28  49
ATOM     49  C   UNL A   1      43.989  27.692  34.557  1.00  0.00     0.057 A 
ATOM     50  C   UNL A   1      43.798  26.523  35.301  1.00  0.00     0.134 A 
ATOM     51  C   UNL A   1      45.262  28.279  34.608  1.00  0.00     0.134 A 
ATOM     52  F   UNL A   1      42.602  25.915  35.308  1.00  0.00    -0.206 F 
ATOM     53  C   UNL A   1      44.818  25.974  36.082  1.00  0.00     0.040 A 
ATOM     54  C   UNL A   1      46.301  27.726  35.358  1.00  0.00     0.040 A 
ATOM     55  F   UNL A   1      45.521  29.399  33.915  1.00  0.00    -0.206 F 
ATOM     56  C   UNL A   1      46.076  26.575  36.109  1.00  0.00     0.006 A 
ENDBRANCH  28  49
BRANCH  40  57
ATOM     57  C   UNL A   1      39.076  32.442  35.934  1.00  0.00     0.057 A 
ATOM     58  C   UNL A   1      39.519  33.755  36.132  1.00  0.00     0.134 A 
ATOM     59  C   UNL A   1      38.268  31.868  36.922  1.00  0.00     0.134 A 
ATOM     60  F   UNL A   1      40.308  34.352  35.228  1.00  0.00    -0.206 F 
ATOM     61  C   UNL A   1      39.185  34.464  37.287  1.00  0.00     0.040 A 
ATOM     62  C   UNL A   1      37.905  32.578  38.065  1.00  0.00     0.040 A 
ATOM     63  F   UNL A   1      37.807  30.615  36.783  1.00  0.00    -0.206 F 
ATOM     64  C   UNL A   1      38.368  33.877  38.252  1.00  0.00     0.006 A 
ENDBRANCH  40  57
ENDBRANCH  14  15
ENDBRANCH   7   9
ENDBRANCH   6   7
ENDBRANCH   5   6
ENDBRANCH   4   5
ENDBRANCH   3   4
ENDBRANCH   2   3
ENDBRANCH   1   2
BRANCH   1  65
ATOM     65  O   UNL A   1      38.376  22.404  25.733  1.00  0.00    -0.376 OA
BRANCH  65  66
ATOM     66  C   UNL A   1      37.671  23.630  25.801  1.00  0.00     0.202 C 
BRANCH  66  67
ATOM     67  C   UNL A   1      36.132  23.490  25.693  1.00  0.00     0.261 C 
BRANCH  67  68
ATOM     68  O   UNL A   1      35.333  24.593  25.194  1.00  0.00    -0.463 OA
BRANCH  68  69
ATOM     69  C   UNL A   1      34.085  24.758  25.717  1.00  0.00     0.310 C 
ATOM     70  O   UNL A   1      33.644  24.084  26.645  1.00  0.00    -0.252 OA
BRANCH  69  71
ATOM     71  C   UNL A   1      33.322  25.973  25.189  1.00  0.00     0.119 C 
ATOM     72  C   UNL A   1      31.793  26.260  24.906  1.00  0.00     0.100 C 
ATOM     73  C   UNL A   1      34.047  26.802  24.097  1.00  0.00     0.027 C 
ATOM     74  C   UNL A   1      31.901  27.347  23.782  1.00  0.00     0.025 C 
ATOM     75  C   UNL A   1      33.659  26.323  22.722  1.00  0.00    -0.027 C 
ATOM     76  C   UNL A   1      33.193  28.081  24.144  1.00  0.00     0.017 C 
ATOM     77  C   UNL A   1      32.383  26.678  22.519  1.00  0.00    -0.027 C 
BRANCH  72  78
ATOM     78  C   UNL A   1      30.462  25.513  24.626  1.00  0.00     0.229 C 
ATOM     79  O   UNL A   1      29.421  26.197  24.620  1.00  0.00    -0.274 OA
ATOM     80  N   UNL A   1      30.296  24.258  24.133  1.00  0.00    -0.323 N 
ATOM     81  H   UNL A   1      29.412  24.089  23.733  1.00  0.00     0.170 HD
BRANCH  80  82
ATOM     82  C   UNL A   1      31.162  23.173  24.097  1.00  0.00     0.084 A 
ATOM     83  C   UNL A   1      32.082  23.092  23.047  1.00  0.00     0.030 A 
ATOM     84  C   UNL A   1      31.166  22.207  25.077  1.00  0.00     0.149 A 
ATOM     85  C   UNL A   1      33.176  22.228  23.143  1.00  0.00     0.002 A 
ATOM     86  C   UNL A   1      32.287  21.379  25.195  1.00  0.00     0.049 A 
ATOM     87  C   UNL A   1      33.317  21.422  24.262  1.00  0.00     0.004 A 
BRANCH  84  88
ATOM     88  O   UNL A   1      30.183  22.025  25.987  1.00  0.00    -0.433 OA
BRANCH  88  89
ATOM     89  C   UNL A   1      29.814  23.005  26.948  1.00  0.00     0.542 C 
ATOM     90  F   UNL A   1      29.176  22.401  27.977  1.00  0.00    -0.167 F 
ATOM     91  F   UNL A   1      30.889  23.668  27.431  1.00  0.00    -0.167 F 
ENDBRANCH  88  89
ENDBRANCH  84  88
ENDBRANCH  80  82
ENDBRANCH  72  78
ENDBRANCH  69  71
ENDBRANCH  68  69
ENDBRANCH  67  68
ENDBRANCH  66  67
ENDBRANCH  65  66
ENDBRANCH   1  65
TORSDOF 21
ENDMDL
MODEL 2
REMARK VINA RESULT:     -10.8      1.483      2.555
REMARK SMILES O=C(OCCOCCOCCOC(=O)[C@@H]1[C@H](C(=O)Nc2ccccc2OC(F)F)[C@@H]2C=C[C@H]1C2)c1ccc(-c2c3nc(c(-c4c(F)cccc4F)c4ccc([nH]4)c(-c4c(F)cccc4F)c4nc(c(-c5c(F)cccc5F)c5ccc2[nH]5)C=C4)C=C3)cc1
REMARK SMILES IDX 8 1 7 2 6 3 5 4 4 5 3 6 2 7 1 8 35 9 36 10 88 11 37 12 87 13
REMARK SMILES IDX 38 14 39 15 40 16 81 17 41 18 86 19 80 20 82 21 42 22 85 23
REMARK SMILES IDX 79 24 78 25 43 27 69 28 52 29 68 30 53 31 56 32 67 33 83 34
REMARK SMILES IDX 54 35 55 36 66 38 84 39 57 40 44 41 45 42 50 43 46 44 47 45
REMARK SMILES IDX 49 46 51 47 48 48 70 49 71 50 76 51 72 52 73 53 75 54 77 55
REMARK SMILES IDX 74 56 58 57 59 58 64 59 60 60 61 61 63 62 65 63 62 64 9 65
REMARK SMILES IDX 10 66 11 67 12 68 13 69 14 70 15 71 16 72 33 73 30 74 32 75
REMARK SMILES IDX 34 76 31 77 17 78 18 79 19 80 20 82 21 83 25 84 22 85 24 86
REMARK SMILES IDX 23 87 26 88 27 89 28 90 29 91
REMARK H PARENT 82 26 56 37 19 81
REMARK Flexibility Score: inf
ROOT
ATOM      1  C   UNL A   1      39.255  22.901  26.509  1.00  0.00     0.188 C 
ENDROOT
BRANCH   1   2
ATOM      2  C   UNL A   1      40.208  21.759  26.150  1.00  0.00     0.188 C 
BRANCH   2   3
ATOM      3  O   UNL A   1      41.526  22.124  26.535  1.00  0.00    -0.376 OA
BRANCH   3   4
ATOM      4  C   UNL A   1      42.643  21.705  25.760  1.00  0.00     0.202 C 
BRANCH   4   5
ATOM      5  C   UNL A   1      43.469  22.718  24.952  1.00  0.00     0.261 C 
BRANCH   5   6
ATOM      6  O   UNL A   1      42.842  24.007  24.995  1.00  0.00    -0.460 OA
BRANCH   6   7
ATOM      7  C   UNL A   1      43.625  25.106  25.151  1.00  0.00     0.338 C 
ATOM      8  O   UNL A   1      44.767  25.277  24.794  1.00  0.00    -0.246 OA
BRANCH   7   9
ATOM      9  C   UNL A   1      42.793  25.984  25.994  1.00  0.00     0.060 A 
ATOM     10  C   UNL A   1      43.299  27.266  26.230  1.00  0.00     0.016 A 
ATOM     11  C   UNL A   1      41.683  25.518  26.690  1.00  0.00     0.016 A 
ATOM     12  C   UNL A   1      42.818  28.028  27.266  1.00  0.00     0.010 A 
ATOM     13  C   UNL A   1      41.139  26.325  27.695  1.00  0.00     0.010 A 
ATOM     14  C   UNL A   1      41.746  27.554  28.021  1.00  0.00    -0.014 A 
BRANCH  14  15
ATOM     15  C   UNL A   1      41.396  28.327  29.227  1.00  0.00     0.031 A 
ATOM     16  C   UNL A   1      40.185  29.206  29.190  1.00  0.00     0.074 A 
ATOM     17  C   UNL A   1      42.052  28.083  30.375  1.00  0.00     0.049 A 
ATOM     18  N   UNL A   1      39.683  29.960  30.130  1.00  0.00    -0.248 NA
ATOM     19  C   UNL A   1      39.420  29.224  27.931  1.00  0.00     0.031 C 
ATOM     20  C   UNL A   1      43.147  27.123  30.524  1.00  0.00     0.029 A 
ATOM     21  N   UNL A   1      41.875  28.580  31.637  1.00  0.00    -0.354 N 
ATOM     22  C   UNL A   1      38.559  30.553  29.573  1.00  0.00     0.074 A 
ATOM     23  C   UNL A   1      38.459  30.091  28.208  1.00  0.00     0.031 C 
ATOM     24  C   UNL A   1      43.533  27.087  31.808  1.00  0.00     0.029 A 
ATOM     25  C   UNL A   1      42.763  28.073  32.554  1.00  0.00     0.049 A 
ATOM     26  H   UNL A   1      41.178  29.237  31.866  1.00  0.00     0.167 HD
ATOM     27  C   UNL A   1      37.690  31.409  30.158  1.00  0.00     0.037 A 
ATOM     28  C   UNL A   1      42.953  28.402  33.844  1.00  0.00     0.037 A 
ATOM     29  C   UNL A   1      37.824  31.856  31.519  1.00  0.00     0.049 A 
ATOM     30  C   UNL A   1      42.057  29.456  34.431  1.00  0.00     0.074 A 
ATOM     31  C   UNL A   1      37.063  32.781  32.208  1.00  0.00     0.029 A 
ATOM     32  N   UNL A   1      38.797  31.398  32.398  1.00  0.00    -0.354 N 
ATOM     33  N   UNL A   1      41.037  30.072  33.878  1.00  0.00    -0.248 NA
ATOM     34  C   UNL A   1      42.336  29.870  35.809  1.00  0.00     0.031 C 
ATOM     35  C   UNL A   1      37.607  32.917  33.490  1.00  0.00     0.029 A 
ATOM     36  C   UNL A   1      38.671  32.036  33.619  1.00  0.00     0.049 A 
ATOM     37  H   UNL A   1      39.478  30.720  32.183  1.00  0.00     0.167 HD
ATOM     38  C   UNL A   1      40.539  30.930  34.847  1.00  0.00     0.074 A 
ATOM     39  C   UNL A   1      41.359  30.738  36.029  1.00  0.00     0.031 C 
ATOM     40  C   UNL A   1      39.504  31.803  34.773  1.00  0.00     0.037 A 
BRANCH  27  41
ATOM     41  C   UNL A   1      36.586  31.952  29.300  1.00  0.00     0.057 A 
ATOM     42  C   UNL A   1      36.613  33.254  28.783  1.00  0.00     0.134 A 
ATOM     43  C   UNL A   1      35.454  31.173  29.028  1.00  0.00     0.134 A 
ATOM     44  F   UNL A   1      37.654  34.064  29.031  1.00  0.00    -0.206 F 
ATOM     45  C   UNL A   1      35.540  33.772  28.053  1.00  0.00     0.040 A 
ATOM     46  C   UNL A   1      34.386  31.672  28.279  1.00  0.00     0.040 A 
ATOM     47  F   UNL A   1      35.360  29.921  29.498  1.00  0.00    -0.206 F 
ATOM     48  C   UNL A   1      34.423  32.978  27.797  1.00  0.00     0.006 A 
ENDBRANCH  27  41
BRANCH  28  49
ATOM     49  C   UNL A   1      44.053  27.783  34.629  1.00  0.00     0.057 A 
ATOM     50  C   UNL A   1      43.880  26.571  35.307  1.00  0.00     0.134 A 
ATOM     51  C   UNL A   1      45.304  28.404  34.743  1.00  0.00     0.134 A 
ATOM     52  F   UNL A   1      42.704  25.929  35.252  1.00  0.00    -0.206 F 
ATOM     53  C   UNL A   1      44.897  26.014  36.085  1.00  0.00     0.040 A 
ATOM     54  C   UNL A   1      46.341  27.844  35.491  1.00  0.00     0.040 A 
ATOM     55  F   UNL A   1      45.545  29.566  34.115  1.00  0.00    -0.206 F 
ATOM     56  C   UNL A   1      46.135  26.650  36.176  1.00  0.00     0.006 A 
ENDBRANCH  28  49
BRANCH  40  57
ATOM     57  C   UNL A   1      39.184  32.575  36.017  1.00  0.00     0.057 A 
ATOM     58  C   UNL A   1      39.714  33.849  36.252  1.00  0.00     0.134 A 
ATOM     59  C   UNL A   1      38.301  32.049  36.968  1.00  0.00     0.134 A 
ATOM     60  F   UNL A   1      40.577  34.398  35.386  1.00  0.00    -0.206 F 
ATOM     61  C   UNL A   1      39.392  34.566  37.406  1.00  0.00     0.040 A 
ATOM     62  C   UNL A   1      37.949  32.768  38.108  1.00  0.00     0.040 A 
ATOM     63  F   UNL A   1      37.755  30.835  36.793  1.00  0.00    -0.206 F 
ATOM     64  C   UNL A   1      38.500  34.028  38.332  1.00  0.00     0.006 A 
ENDBRANCH  40  57
ENDBRANCH  14  15
ENDBRANCH   7   9
ENDBRANCH   6   7
ENDBRANCH   5   6
ENDBRANCH   4   5
ENDBRANCH   3   4
ENDBRANCH   2   3
ENDBRANCH   1   2
BRANCH   1  65
ATOM     65  O   UNL A   1      38.052  22.821  25.748  1.00  0.00    -0.376 OA
BRANCH  65  66
ATOM     66  C   UNL A   1      37.817  21.587  25.094  1.00  0.00     0.202 C 
BRANCH  66  67
ATOM     67  C   UNL A   1      36.454  20.934  25.434  1.00  0.00     0.261 C 
BRANCH  67  68
ATOM     68  O   UNL A   1      35.559  21.569  26.383  1.00  0.00    -0.463 OA
BRANCH  68  69
ATOM     69  C   UNL A   1      34.228  21.581  26.087  1.00  0.00     0.310 C 
ATOM     70  O   UNL A   1      33.412  20.819  26.600  1.00  0.00    -0.252 OA
BRANCH  69  71
ATOM     71  C   UNL A   1      33.778  22.739  25.196  1.00  0.00     0.119 C 
ATOM     72  C   UNL A   1      32.786  23.952  25.405  1.00  0.00     0.100 C 
ATOM     73  C   UNL A   1      33.626  22.411  23.688  1.00  0.00     0.027 C 
ATOM     74  C   UNL A   1      32.339  24.224  23.927  1.00  0.00     0.025 C 
ATOM     75  C   UNL A   1      32.209  22.001  23.375  1.00  0.00    -0.027 C 
ATOM     76  C   UNL A   1      33.581  23.840  23.121  1.00  0.00     0.017 C 
ATOM     77  C   UNL A   1      31.442  23.094  23.486  1.00  0.00    -0.027 C 
BRANCH  72  78
ATOM     78  C   UNL A   1      31.578  24.379  26.282  1.00  0.00     0.229 C 
ATOM     79  O   UNL A   1      31.332  23.680  27.283  1.00  0.00    -0.274 OA
ATOM     80  N   UNL A   1      30.903  25.558  26.257  1.00  0.00    -0.323 N 
ATOM     81  H   UNL A   1      30.399  25.758  27.078  1.00  0.00     0.170 HD
BRANCH  80  82
ATOM     82  C   UNL A   1      30.805  26.528  25.269  1.00  0.00     0.084 A 
ATOM     83  C   UNL A   1      29.705  26.487  24.405  1.00  0.00     0.030 A 
ATOM     84  C   UNL A   1      31.728  27.540  25.141  1.00  0.00     0.149 A 
ATOM     85  C   UNL A   1      29.383  27.605  23.631  1.00  0.00     0.002 A 
ATOM     86  C   UNL A   1      31.378  28.676  24.404  1.00  0.00     0.049 A 
ATOM     87  C   UNL A   1      30.185  28.735  23.691  1.00  0.00     0.004 A 
BRANCH  84  88
ATOM     88  O   UNL A   1      32.947  27.553  25.725  1.00  0.00    -0.433 OA
BRANCH  88  89
ATOM     89  C   UNL A   1      33.418  28.625  26.531  1.00  0.00     0.542 C 
ATOM     90  F   UNL A   1      32.575  28.801  27.575  1.00  0.00    -0.167 F 
ATOM     91  F   UNL A   1      34.660  28.389  27.009  1.00  0.00    -0.167 F 
ENDBRANCH  88  89
ENDBRANCH  84  88
ENDBRANCH  80  82
ENDBRANCH  72  78
ENDBRANCH  69  71
ENDBRANCH  68  69
ENDBRANCH  67  68
ENDBRANCH  66  67
ENDBRANCH  65  66
ENDBRANCH   1  65
TORSDOF 21
ENDMDL
MODEL 3
REMARK VINA RESULT:     -10.8      1.546      6.512
REMARK SMILES O=C(OCCOCCOCCOC(=O)[C@@H]1[C@H](C(=O)Nc2ccccc2OC(F)F)[C@@H]2C=C[C@H]1C2)c1ccc(-c2c3nc(c(-c4c(F)cccc4F)c4ccc([nH]4)c(-c4c(F)cccc4F)c4nc(c(-c5c(F)cccc5F)c5ccc2[nH]5)C=C4)C=C3)cc1
REMARK SMILES IDX 8 1 7 2 6 3 5 4 4 5 3 6 2 7 1 8 35 9 36 10 88 11 37 12 87 13
REMARK SMILES IDX 38 14 39 15 40 16 81 17 41 18 86 19 80 20 82 21 42 22 85 23
REMARK SMILES IDX 79 24 78 25 43 27 69 28 52 29 68 30 53 31 56 32 67 33 83 34
REMARK SMILES IDX 54 35 55 36 66 38 84 39 57 40 44 41 45 42 50 43 46 44 47 45
REMARK SMILES IDX 49 46 51 47 48 48 70 49 71 50 76 51 72 52 73 53 75 54 77 55
REMARK SMILES IDX 74 56 58 57 59 58 64 59 60 60 61 61 63 62 65 63 62 64 9 65
REMARK SMILES IDX 10 66 11 67 12 68 13 69 14 70 15 71 16 72 33 73 30 74 32 75
REMARK SMILES IDX 34 76 31 77 17 78 18 79 19 80 20 82 21 83 25 84 22 85 24 86
REMARK SMILES IDX 23 87 26 88 27 89 28 90 29 91
REMARK H PARENT 82 26 56 37 19 81
REMARK Flexibility Score: inf
ROOT
ATOM      1  C   UNL A   1      39.367  21.549  26.264  1.00  0.00     0.188 C 
ENDROOT
BRANCH   1   2
ATOM      2  C   UNL A   1      40.485  21.761  27.286  1.00  0.00     0.188 C 
BRANCH   2   3
ATOM      3  O   UNL A   1      41.522  20.823  27.034  1.00  0.00    -0.376 OA
BRANCH   3   4
ATOM      4  C   UNL A   1      42.355  20.962  25.890  1.00  0.00     0.202 C 
BRANCH   4   5
ATOM      5  C   UNL A   1      43.374  22.107  25.789  1.00  0.00     0.261 C 
BRANCH   5   6
ATOM      6  O   UNL A   1      42.781  23.234  25.129  1.00  0.00    -0.460 OA
BRANCH   6   7
ATOM      7  C   UNL A   1      43.483  24.395  25.069  1.00  0.00     0.338 C 
ATOM      8  O   UNL A   1      44.575  24.594  24.593  1.00  0.00    -0.246 OA
BRANCH   7   9
ATOM      9  C   UNL A   1      42.651  25.322  25.859  1.00  0.00     0.060 A 
ATOM     10  C   UNL A   1      43.229  26.558  26.161  1.00  0.00     0.016 A 
ATOM     11  C   UNL A   1      41.456  24.930  26.453  1.00  0.00     0.016 A 
ATOM     12  C   UNL A   1      42.721  27.339  27.170  1.00  0.00     0.010 A 
ATOM     13  C   UNL A   1      40.892  25.762  27.427  1.00  0.00     0.010 A 
ATOM     14  C   UNL A   1      41.558  26.937  27.825  1.00  0.00    -0.014 A 
BRANCH  14  15
ATOM     15  C   UNL A   1      41.168  27.717  29.014  1.00  0.00     0.031 A 
ATOM     16  C   UNL A   1      42.028  27.637  30.238  1.00  0.00     0.074 A 
ATOM     17  C   UNL A   1      40.173  28.616  28.913  1.00  0.00     0.049 A 
ATOM     18  N   UNL A   1      41.888  28.243  31.386  1.00  0.00    -0.248 NA
ATOM     19  C   UNL A   1      43.220  26.776  30.152  1.00  0.00     0.031 C 
ATOM     20  C   UNL A   1      39.388  28.859  27.701  1.00  0.00     0.029 A 
ATOM     21  N   UNL A   1      39.677  29.516  29.814  1.00  0.00    -0.354 N 
ATOM     22  C   UNL A   1      42.959  27.824  32.162  1.00  0.00     0.074 A 
ATOM     23  C   UNL A   1      43.732  26.898  31.367  1.00  0.00     0.031 C 
ATOM     24  C   UNL A   1      38.521  29.856  27.928  1.00  0.00     0.029 A 
ATOM     25  C   UNL A   1      38.640  30.269  29.319  1.00  0.00     0.049 A 
ATOM     26  H   UNL A   1      40.029  29.616  30.728  1.00  0.00     0.167 HD
ATOM     27  C   UNL A   1      43.264  28.187  33.429  1.00  0.00     0.037 A 
ATOM     28  C   UNL A   1      37.853  31.165  29.941  1.00  0.00     0.037 A 
ATOM     29  C   UNL A   1      42.467  29.106  34.197  1.00  0.00     0.049 A 
ATOM     30  C   UNL A   1      38.132  31.449  31.390  1.00  0.00     0.074 A 
ATOM     31  C   UNL A   1      42.617  29.496  35.514  1.00  0.00     0.029 A 
ATOM     32  N   UNL A   1      41.359  29.781  33.699  1.00  0.00    -0.354 N 
ATOM     33  N   UNL A   1      39.105  30.995  32.146  1.00  0.00    -0.248 NA
ATOM     34  C   UNL A   1      37.208  32.357  32.076  1.00  0.00     0.031 C 
ATOM     35  C   UNL A   1      41.570  30.371  35.826  1.00  0.00     0.029 A 
ATOM     36  C   UNL A   1      40.801  30.571  34.689  1.00  0.00     0.049 A 
ATOM     37  H   UNL A   1      41.020  29.707  32.778  1.00  0.00     0.167 HD
ATOM     38  C   UNL A   1      38.923  31.577  33.392  1.00  0.00     0.074 A 
ATOM     39  C   UNL A   1      37.758  32.434  33.280  1.00  0.00     0.031 C 
ATOM     40  C   UNL A   1      39.646  31.419  34.529  1.00  0.00     0.037 A 
BRANCH  27  41
ATOM     41  C   UNL A   1      44.456  27.529  34.059  1.00  0.00     0.057 A 
ATOM     42  C   UNL A   1      44.369  26.294  34.715  1.00  0.00     0.134 A 
ATOM     43  C   UNL A   1      45.703  28.167  34.048  1.00  0.00     0.134 A 
ATOM     44  F   UNL A   1      43.198  25.643  34.788  1.00  0.00    -0.206 F 
ATOM     45  C   UNL A   1      45.471  25.733  35.365  1.00  0.00     0.040 A 
ATOM     46  C   UNL A   1      46.818  27.604  34.674  1.00  0.00     0.040 A 
ATOM     47  F   UNL A   1      45.856  29.354  33.444  1.00  0.00    -0.206 F 
ATOM     48  C   UNL A   1      46.701  26.389  35.343  1.00  0.00     0.006 A 
ENDBRANCH  27  41
BRANCH  28  49
ATOM     49  C   UNL A   1      36.713  31.797  29.225  1.00  0.00     0.057 A 
ATOM     50  C   UNL A   1      35.532  31.095  28.959  1.00  0.00     0.134 A 
ATOM     51  C   UNL A   1      36.787  33.119  28.764  1.00  0.00     0.134 A 
ATOM     52  F   UNL A   1      35.399  29.823  29.360  1.00  0.00    -0.206 F 
ATOM     53  C   UNL A   1      34.481  31.673  28.244  1.00  0.00     0.040 A 
ATOM     54  C   UNL A   1      35.733  33.721  28.075  1.00  0.00     0.040 A 
ATOM     55  F   UNL A   1      37.887  33.855  28.988  1.00  0.00    -0.206 F 
ATOM     56  C   UNL A   1      34.578  32.992  27.802  1.00  0.00     0.006 A 
ENDBRANCH  28  49
BRANCH  40  57
ATOM     57  C   UNL A   1      39.215  32.223  35.717  1.00  0.00     0.057 A 
ATOM     58  C   UNL A   1      39.652  33.538  35.917  1.00  0.00     0.134 A 
ATOM     59  C   UNL A   1      38.316  31.685  36.646  1.00  0.00     0.134 A 
ATOM     60  F   UNL A   1      40.525  34.102  35.069  1.00  0.00    -0.206 F 
ATOM     61  C   UNL A   1      39.226  34.283  37.017  1.00  0.00     0.040 A 
ATOM     62  C   UNL A   1      37.861  32.431  37.731  1.00  0.00     0.040 A 
ATOM     63  F   UNL A   1      37.856  30.433  36.502  1.00  0.00    -0.206 F 
ATOM     64  C   UNL A   1      38.321  33.731  37.922  1.00  0.00     0.006 A 
ENDBRANCH  40  57
ENDBRANCH  14  15
ENDBRANCH   7   9
ENDBRANCH   6   7
ENDBRANCH   5   6
ENDBRANCH   4   5
ENDBRANCH   3   4
ENDBRANCH   2   3
ENDBRANCH   1   2
BRANCH   1  65
ATOM     65  O   UNL A   1      38.596  22.737  26.098  1.00  0.00    -0.376 OA
BRANCH  65  66
ATOM     66  C   UNL A   1      37.354  22.577  25.436  1.00  0.00     0.202 C 
BRANCH  66  67
ATOM     67  C   UNL A   1      36.821  21.123  25.418  1.00  0.00     0.261 C 
BRANCH  67  68
ATOM     68  O   UNL A   1      35.407  20.863  25.611  1.00  0.00    -0.463 OA
BRANCH  68  69
ATOM     69  C   UNL A   1      34.655  21.845  26.183  1.00  0.00     0.310 C 
ATOM     70  O   UNL A   1      34.590  22.030  27.395  1.00  0.00    -0.252 OA
BRANCH  69  71
ATOM     71  C   UNL A   1      34.030  22.832  25.197  1.00  0.00     0.119 C 
ATOM     72  C   UNL A   1      32.963  23.990  25.344  1.00  0.00     0.100 C 
ATOM     73  C   UNL A   1      33.765  22.284  23.770  1.00  0.00     0.027 C 
ATOM     74  C   UNL A   1      32.360  24.020  23.897  1.00  0.00     0.025 C 
ATOM     75  C   UNL A   1      32.365  21.737  23.664  1.00  0.00    -0.027 C 
ATOM     76  C   UNL A   1      33.549  23.613  23.025  1.00  0.00     0.017 C 
ATOM     77  C   UNL A   1      31.523  22.779  23.707  1.00  0.00    -0.027 C 
BRANCH  72  78
ATOM     78  C   UNL A   1      31.812  24.452  26.276  1.00  0.00     0.229 C 
ATOM     79  O   UNL A   1      31.596  23.763  27.292  1.00  0.00    -0.274 OA
ATOM     80  N   UNL A   1      31.167  25.648  26.279  1.00  0.00    -0.323 N 
ATOM     81  H   UNL A   1      30.709  25.864  27.123  1.00  0.00     0.170 HD
BRANCH  80  82
ATOM     82  C   UNL A   1      31.046  26.617  25.292  1.00  0.00     0.084 A 
ATOM     83  C   UNL A   1      29.890  26.621  24.503  1.00  0.00     0.030 A 
ATOM     84  C   UNL A   1      32.003  27.586  25.095  1.00  0.00     0.149 A 
ATOM     85  C   UNL A   1      29.567  27.748  23.745  1.00  0.00     0.002 A 
ATOM     86  C   UNL A   1      31.655  28.732  24.374  1.00  0.00     0.049 A 
ATOM     87  C   UNL A   1      30.421  28.841  23.742  1.00  0.00     0.004 A 
BRANCH  84  88
ATOM     88  O   UNL A   1      33.257  27.546  25.596  1.00  0.00    -0.433 OA
BRANCH  88  89
ATOM     89  C   UNL A   1      33.628  28.153  26.828  1.00  0.00     0.542 C 
ATOM     90  F   UNL A   1      34.835  28.748  26.684  1.00  0.00    -0.167 F 
ATOM     91  F   UNL A   1      32.728  29.080  27.224  1.00  0.00    -0.167 F 
ENDBRANCH  88  89
ENDBRANCH  84  88
ENDBRANCH  80  82
ENDBRANCH  72  78
ENDBRANCH  69  71
ENDBRANCH  68  69
ENDBRANCH  67  68
ENDBRANCH  66  67
ENDBRANCH  65  66
ENDBRANCH   1  65
TORSDOF 21
ENDMDL
