MODEL 1
REMARK VINA RESULT:     -10.6      0.000      0.000
REMARK SMILES COc1ccc(CSc2ncccc2C(=O)OCCOCCOCCOC(=O)c2ccc(-c3c4nc(c(-c5c(F)cccc5F)c5ccc([nH]5)c(-c5c(F)cccc5F)c5nc(c(-c6c(F)cccc6F)c6ccc3[nH]6)C=C5)C=C4)cc2)cc1
REMARK SMILES IDX 21 1 20 2 19 3 18 4 17 5 15 6 16 7 14 8 9 9 10 10 11 11
REMARK SMILES IDX 13 12 12 13 8 14 7 15 6 16 3 17 4 18 84 19 5 20 83 21 2 22
REMARK SMILES IDX 1 23 22 24 23 25 24 26 25 27 26 28 27 29 28 30 29 31 30 32
REMARK SMILES IDX 82 33 31 34 81 35 32 36 33 37 34 38 75 39 35 40 80 41 74 42
REMARK SMILES IDX 76 43 36 44 79 45 73 46 72 47 37 49 63 50 46 51 62 52 47 53
REMARK SMILES IDX 50 54 61 55 77 56 48 57 49 58 60 60 78 61 51 62 38 63 39 64
REMARK SMILES IDX 44 65 40 66 41 67 43 68 45 69 42 70 64 71 65 72 70 73 66 74
REMARK SMILES IDX 67 75 69 76 71 77 68 78 52 79 53 80 58 81 54 82 55 83 57 84
REMARK SMILES IDX 59 85 56 86
REMARK H PARENT 76 48 50 59
REMARK Flexibility Score: inf
ROOT
ATOM      1  C   UNL A   1      39.428  21.884  25.889  1.00  0.00     0.188 C 
ENDROOT
BRANCH   1   2
ATOM      2  O   UNL A   1      38.050  21.704  26.135  1.00  0.00    -0.376 OA
BRANCH   2   3
ATOM      3  C   UNL A   1      37.205  21.461  25.023  1.00  0.00     0.202 C 
BRANCH   3   4
ATOM      4  C   UNL A   1      35.669  21.580  25.122  1.00  0.00     0.261 C 
BRANCH   4   5
ATOM      5  O   UNL A   1      35.128  22.851  25.510  1.00  0.00    -0.460 OA
BRANCH   5   6
ATOM      6  C   UNL A   1      34.195  23.428  24.714  1.00  0.00     0.340 C 
ATOM      7  O   UNL A   1      34.359  23.848  23.583  1.00  0.00    -0.246 OA
BRANCH   6   8
ATOM      8  C   UNL A   1      32.901  23.415  25.429  1.00  0.00     0.092 A 
ATOM      9  C   UNL A   1      32.447  24.511  26.169  1.00  0.00     0.111 A 
ATOM     10  N   UNL A   1      31.253  24.487  26.815  1.00  0.00    -0.249 NA
ATOM     11  C   UNL A   1      30.487  23.380  26.715  1.00  0.00     0.112 A 
ATOM     12  C   UNL A   1      32.067  22.291  25.314  1.00  0.00     0.020 A 
ATOM     13  C   UNL A   1      30.835  22.277  25.961  1.00  0.00     0.021 A 
BRANCH   9  14
ATOM     14  S   UNL A   1      33.171  26.143  26.050  1.00  0.00    -0.101 SA
BRANCH  14  15
ATOM     15  C   UNL A   1      31.735  27.218  26.301  1.00  0.00     0.112 C 
BRANCH  15  16
ATOM     16  C   UNL A   1      31.085  27.757  25.053  1.00  0.00    -0.037 A 
ATOM     17  C   UNL A   1      29.793  28.727  22.750  1.00  0.00     0.118 A 
ATOM     18  C   UNL A   1      30.751  29.507  23.399  1.00  0.00     0.047 A 
ATOM     19  C   UNL A   1      29.496  27.456  23.235  1.00  0.00     0.047 A 
ATOM     20  C   UNL A   1      31.382  29.033  24.554  1.00  0.00     0.008 A 
ATOM     21  C   UNL A   1      30.135  26.976  24.380  1.00  0.00     0.008 A 
BRANCH  17  22
ATOM     22  O   UNL A   1      29.242  29.265  21.618  1.00  0.00    -0.497 OA
ATOM     23  C   UNL A   1      28.239  30.246  21.865  1.00  0.00     0.278 C 
ENDBRANCH  17  22
ENDBRANCH  15  16
ENDBRANCH  14  15
ENDBRANCH   9  14
ENDBRANCH   6   8
ENDBRANCH   5   6
ENDBRANCH   4   5
ENDBRANCH   3   4
ENDBRANCH   2   3
ENDBRANCH   1   2
BRANCH   1  24
ATOM     24  C   UNL A   1      40.323  21.078  26.856  1.00  0.00     0.188 C 
BRANCH  24  25
ATOM     25  O   UNL A   1      41.038  19.945  26.382  1.00  0.00    -0.376 OA
BRANCH  25  26
ATOM     26  C   UNL A   1      42.296  20.142  25.751  1.00  0.00     0.202 C 
BRANCH  26  27
ATOM     27  C   UNL A   1      43.065  21.469  25.919  1.00  0.00     0.261 C 
BRANCH  27  28
ATOM     28  O   UNL A   1      42.661  22.565  25.079  1.00  0.00    -0.460 OA
BRANCH  28  29
ATOM     29  C   UNL A   1      43.468  23.653  25.088  1.00  0.00     0.338 C 
ATOM     30  O   UNL A   1      44.420  23.877  24.350  1.00  0.00    -0.246 OA
BRANCH  29  31
ATOM     31  C   UNL A   1      42.940  24.652  26.040  1.00  0.00     0.060 A 
ATOM     32  C   UNL A   1      43.432  25.965  25.995  1.00  0.00     0.016 A 
ATOM     33  C   UNL A   1      41.994  24.290  26.999  1.00  0.00     0.016 A 
ATOM     34  C   UNL A   1      42.974  26.922  26.903  1.00  0.00     0.010 A 
ATOM     35  C   UNL A   1      41.559  25.242  27.927  1.00  0.00     0.010 A 
ATOM     36  C   UNL A   1      42.054  26.559  27.893  1.00  0.00    -0.014 A 
BRANCH  36  37
ATOM     37  C   UNL A   1      41.699  27.511  28.974  1.00  0.00     0.031 A 
ATOM     38  C   UNL A   1      42.474  27.478  30.261  1.00  0.00     0.074 A 
ATOM     39  C   UNL A   1      40.685  28.383  28.825  1.00  0.00     0.049 A 
ATOM     40  N   UNL A   1      42.263  28.130  31.376  1.00  0.00    -0.248 NA
ATOM     41  C   UNL A   1      43.641  26.584  30.293  1.00  0.00     0.031 C 
ATOM     42  C   UNL A   1      39.885  28.548  27.614  1.00  0.00     0.029 A 
ATOM     43  N   UNL A   1      40.145  29.280  29.713  1.00  0.00    -0.354 N 
ATOM     44  C   UNL A   1      43.262  27.716  32.247  1.00  0.00     0.074 A 
ATOM     45  C   UNL A   1      44.066  26.742  31.539  1.00  0.00     0.031 C 
ATOM     46  C   UNL A   1      38.943  29.479  27.841  1.00  0.00     0.029 A 
ATOM     47  C   UNL A   1      39.044  29.940  29.225  1.00  0.00     0.049 A 
ATOM     48  H   UNL A   1      40.513  29.437  30.613  1.00  0.00     0.167 HD
ATOM     49  C   UNL A   1      43.489  28.113  33.523  1.00  0.00     0.037 A 
ATOM     50  C   UNL A   1      38.192  30.786  29.838  1.00  0.00     0.037 A 
ATOM     51  C   UNL A   1      42.683  29.073  34.230  1.00  0.00     0.049 A 
ATOM     52  C   UNL A   1      38.405  31.136  31.290  1.00  0.00     0.074 A 
ATOM     53  C   UNL A   1      42.844  29.550  35.519  1.00  0.00     0.029 A 
ATOM     54  N   UNL A   1      41.553  29.691  33.715  1.00  0.00    -0.354 N 
ATOM     55  N   UNL A   1      39.362  30.758  32.102  1.00  0.00    -0.248 NA
ATOM     56  C   UNL A   1      37.410  32.023  31.913  1.00  0.00     0.031 C 
ATOM     57  C   UNL A   1      41.777  30.408  35.805  1.00  0.00     0.029 A 
ATOM     58  C   UNL A   1      40.987  30.516  34.673  1.00  0.00     0.049 A 
ATOM     59  H   UNL A   1      41.206  29.563  32.802  1.00  0.00     0.167 HD
ATOM     60  C   UNL A   1      39.104  31.383  33.317  1.00  0.00     0.074 A 
ATOM     61  C   UNL A   1      37.905  32.174  33.133  1.00  0.00     0.031 C 
ATOM     62  C   UNL A   1      39.797  31.307  34.480  1.00  0.00     0.037 A 
BRANCH  49  63
ATOM     63  C   UNL A   1      44.638  27.476  34.250  1.00  0.00     0.057 A 
ATOM     64  C   UNL A   1      45.913  28.055  34.279  1.00  0.00     0.134 A 
ATOM     65  C   UNL A   1      44.456  26.281  34.958  1.00  0.00     0.134 A 
ATOM     66  F   UNL A   1      46.158  29.193  33.612  1.00  0.00    -0.206 F 
ATOM     67  C   UNL A   1      46.971  27.455  34.963  1.00  0.00     0.040 A 
ATOM     68  C   UNL A   1      45.499  25.686  35.670  1.00  0.00     0.040 A 
ATOM     69  F   UNL A   1      43.258  25.676  34.979  1.00  0.00    -0.206 F 
ATOM     70  C   UNL A   1      46.764  26.270  35.667  1.00  0.00     0.006 A 
ENDBRANCH  49  63
BRANCH  50  71
ATOM     71  C   UNL A   1      37.029  31.341  29.097  1.00  0.00     0.057 A 
ATOM     72  C   UNL A   1      37.024  32.666  28.644  1.00  0.00     0.134 A 
ATOM     73  C   UNL A   1      35.883  30.573  28.855  1.00  0.00     0.134 A 
ATOM     74  F   UNL A   1      38.078  33.462  28.872  1.00  0.00    -0.206 F 
ATOM     75  C   UNL A   1      35.916  33.211  27.991  1.00  0.00     0.040 A 
ATOM     76  C   UNL A   1      34.780  31.097  28.178  1.00  0.00     0.040 A 
ATOM     77  F   UNL A   1      35.821  29.299  29.268  1.00  0.00    -0.206 F 
ATOM     78  C   UNL A   1      34.792  32.423  27.751  1.00  0.00     0.006 A 
ENDBRANCH  50  71
BRANCH  62  79
ATOM     79  C   UNL A   1      39.304  32.125  35.641  1.00  0.00     0.057 A 
ATOM     80  C   UNL A   1      39.702  33.454  35.834  1.00  0.00     0.134 A 
ATOM     81  C   UNL A   1      38.374  31.593  36.544  1.00  0.00     0.134 A 
ATOM     82  F   UNL A   1      40.599  34.021  35.015  1.00  0.00    -0.206 F 
ATOM     83  C   UNL A   1      39.206  34.218  36.893  1.00  0.00     0.040 A 
ATOM     84  C   UNL A   1      37.848  32.355  37.588  1.00  0.00     0.040 A 
ATOM     85  F   UNL A   1      37.941  30.330  36.413  1.00  0.00    -0.206 F 
ATOM     86  C   UNL A   1      38.268  33.672  37.768  1.00  0.00     0.006 A 
ENDBRANCH  62  79
ENDBRANCH  36  37
ENDBRANCH  29  31
ENDBRANCH  28  29
ENDBRANCH  27  28
ENDBRANCH  26  27
ENDBRANCH  25  26
ENDBRANCH  24  25
ENDBRANCH   1  24
TORSDOF 21
ENDMDL
MODEL 2
REMARK VINA RESULT:     -10.5      3.702      8.691
REMARK SMILES COc1ccc(CSc2ncccc2C(=O)OCCOCCOCCOC(=O)c2ccc(-c3c4nc(c(-c5c(F)cccc5F)c5ccc([nH]5)c(-c5c(F)cccc5F)c5nc(c(-c6c(F)cccc6F)c6ccc3[nH]6)C=C5)C=C4)cc2)cc1
REMARK SMILES IDX 21 1 20 2 19 3 18 4 17 5 15 6 16 7 14 8 9 9 10 10 11 11
REMARK SMILES IDX 13 12 12 13 8 14 7 15 6 16 3 17 4 18 84 19 5 20 83 21 2 22
REMARK SMILES IDX 1 23 22 24 23 25 24 26 25 27 26 28 27 29 28 30 29 31 30 32
REMARK SMILES IDX 82 33 31 34 81 35 32 36 33 37 34 38 75 39 35 40 80 41 74 42
REMARK SMILES IDX 76 43 36 44 79 45 73 46 72 47 37 49 63 50 46 51 62 52 47 53
REMARK SMILES IDX 50 54 61 55 77 56 48 57 49 58 60 60 78 61 51 62 38 63 39 64
REMARK SMILES IDX 44 65 40 66 41 67 43 68 45 69 42 70 64 71 65 72 70 73 66 74
REMARK SMILES IDX 67 75 69 76 71 77 68 78 52 79 53 80 58 81 54 82 55 83 57 84
REMARK SMILES IDX 59 85 56 86
REMARK H PARENT 76 48 50 59
REMARK Flexibility Score: inf
ROOT
ATOM      1  C   UNL A   1      34.385  31.895  28.194  1.00  0.00     0.188 C 
ENDROOT
BRANCH   1   2
ATOM      2  O   UNL A   1      33.037  31.755  27.799  1.00  0.00    -0.376 OA
BRANCH   2   3
ATOM      3  C   UNL A   1      32.742  30.834  26.763  1.00  0.00     0.202 C 
BRANCH   3   4
ATOM      4  C   UNL A   1      33.445  29.463  26.662  1.00  0.00     0.261 C 
BRANCH   4   5
ATOM      5  O   UNL A   1      32.770  28.427  25.935  1.00  0.00    -0.460 OA
BRANCH   5   6
ATOM      6  C   UNL A   1      32.164  27.435  26.633  1.00  0.00     0.340 C 
ATOM      7  O   UNL A   1      31.471  27.560  27.626  1.00  0.00    -0.246 OA
BRANCH   6   8
ATOM      8  C   UNL A   1      32.434  26.152  25.949  1.00  0.00     0.092 A 
ATOM      9  C   UNL A   1      31.424  25.414  25.325  1.00  0.00     0.111 A 
ATOM     10  N   UNL A   1      31.689  24.241  24.694  1.00  0.00    -0.249 NA
ATOM     11  C   UNL A   1      32.965  23.800  24.657  1.00  0.00     0.112 A 
ATOM     12  C   UNL A   1      33.757  25.688  25.863  1.00  0.00     0.020 A 
ATOM     13  C   UNL A   1      34.027  24.496  25.199  1.00  0.00     0.021 A 
BRANCH   9  14
ATOM     14  S   UNL A   1      29.800  26.075  24.967  1.00  0.00    -0.101 SA
BRANCH  14  15
ATOM     15  C   UNL A   1      30.087  26.983  23.427  1.00  0.00     0.112 C 
BRANCH  15  16
ATOM     16  C   UNL A   1      29.472  28.356  23.343  1.00  0.00    -0.037 A 
ATOM     17  C   UNL A   1      28.246  30.884  23.218  1.00  0.00     0.118 A 
ATOM     18  C   UNL A   1      29.568  30.766  23.645  1.00  0.00     0.047 A 
ATOM     19  C   UNL A   1      27.541  29.746  22.832  1.00  0.00     0.047 A 
ATOM     20  C   UNL A   1      30.175  29.508  23.724  1.00  0.00     0.008 A 
ATOM     21  C   UNL A   1      28.150  28.491  22.899  1.00  0.00     0.008 A 
BRANCH  17  22
ATOM     22  O   UNL A   1      27.743  32.156  23.156  1.00  0.00    -0.497 OA
ATOM     23  C   UNL A   1      28.728  33.166  22.956  1.00  0.00     0.278 C 
ENDBRANCH  17  22
ENDBRANCH  15  16
ENDBRANCH  14  15
ENDBRANCH   9  14
ENDBRANCH   6   8
ENDBRANCH   5   6
ENDBRANCH   4   5
ENDBRANCH   3   4
ENDBRANCH   2   3
ENDBRANCH   1   2
BRANCH   1  24
ATOM     24  C   UNL A   1      34.560  32.812  29.425  1.00  0.00     0.188 C 
BRANCH  24  25
ATOM     25  O   UNL A   1      34.772  34.205  29.245  1.00  0.00    -0.376 OA
BRANCH  25  26
ATOM     26  C   UNL A   1      33.694  35.011  28.788  1.00  0.00     0.202 C 
BRANCH  26  27
ATOM     27  C   UNL A   1      32.941  35.946  29.756  1.00  0.00     0.261 C 
BRANCH  27  28
ATOM     28  O   UNL A   1      32.374  35.344  30.933  1.00  0.00    -0.460 OA
BRANCH  28  29
ATOM     29  C   UNL A   1      32.769  35.864  32.120  1.00  0.00     0.338 C 
ATOM     30  O   UNL A   1      32.207  36.736  32.772  1.00  0.00    -0.246 OA
BRANCH  29  31
ATOM     31  C   UNL A   1      33.932  35.108  32.629  1.00  0.00     0.060 A 
ATOM     32  C   UNL A   1      35.218  35.645  32.471  1.00  0.00     0.016 A 
ATOM     33  C   UNL A   1      33.762  33.858  33.225  1.00  0.00     0.016 A 
ATOM     34  C   UNL A   1      36.337  34.939  32.915  1.00  0.00     0.010 A 
ATOM     35  C   UNL A   1      34.887  33.138  33.641  1.00  0.00     0.010 A 
ATOM     36  C   UNL A   1      36.181  33.667  33.478  1.00  0.00    -0.014 A 
BRANCH  36  37
ATOM     37  C   UNL A   1      37.367  32.830  33.784  1.00  0.00     0.031 A 
ATOM     38  C   UNL A   1      38.135  33.087  35.051  1.00  0.00     0.074 A 
ATOM     39  C   UNL A   1      37.774  31.866  32.939  1.00  0.00     0.049 A 
ATOM     40  N   UNL A   1      39.262  32.564  35.461  1.00  0.00    -0.248 NA
ATOM     41  C   UNL A   1      37.553  34.071  35.975  1.00  0.00     0.031 C 
ATOM     42  C   UNL A   1      37.094  31.487  31.702  1.00  0.00     0.029 A 
ATOM     43  N   UNL A   1      38.873  31.045  32.988  1.00  0.00    -0.354 N 
ATOM     44  C   UNL A   1      39.531  33.163  36.684  1.00  0.00     0.074 A 
ATOM     45  C   UNL A   1      38.461  34.105  36.939  1.00  0.00     0.031 C 
ATOM     46  C   UNL A   1      37.802  30.516  31.100  1.00  0.00     0.029 A 
ATOM     47  C   UNL A   1      39.006  30.240  31.882  1.00  0.00     0.049 A 
ATOM     48  H   UNL A   1      39.503  31.032  33.744  1.00  0.00     0.167 HD
ATOM     49  C   UNL A   1      40.577  32.948  37.519  1.00  0.00     0.037 A 
ATOM     50  C   UNL A   1      40.006  29.410  31.524  1.00  0.00     0.037 A 
ATOM     51  C   UNL A   1      41.645  32.020  37.259  1.00  0.00     0.049 A 
ATOM     52  C   UNL A   1      41.209  29.262  32.421  1.00  0.00     0.074 A 
ATOM     53  C   UNL A   1      42.739  31.721  38.053  1.00  0.00     0.029 A 
ATOM     54  N   UNL A   1      41.765  31.252  36.111  1.00  0.00    -0.354 N 
ATOM     55  N   UNL A   1      41.448  29.816  33.586  1.00  0.00    -0.248 NA
ATOM     56  C   UNL A   1      42.286  28.380  31.948  1.00  0.00     0.031 C 
ATOM     57  C   UNL A   1      43.552  30.820  37.358  1.00  0.00     0.029 A 
ATOM     58  C   UNL A   1      42.933  30.508  36.159  1.00  0.00     0.049 A 
ATOM     59  H   UNL A   1      41.116  31.236  35.371  1.00  0.00     0.167 HD
ATOM     60  C   UNL A   1      42.683  29.327  33.996  1.00  0.00     0.074 A 
ATOM     61  C   UNL A   1      43.140  28.423  32.961  1.00  0.00     0.031 C 
ATOM     62  C   UNL A   1      43.378  29.604  35.127  1.00  0.00     0.037 A 
BRANCH  49  63
ATOM     63  C   UNL A   1      40.633  33.763  38.779  1.00  0.00     0.057 A 
ATOM     64  C   UNL A   1      40.004  33.351  39.960  1.00  0.00     0.134 A 
ATOM     65  C   UNL A   1      41.355  34.963  38.817  1.00  0.00     0.134 A 
ATOM     66  F   UNL A   1      39.287  32.218  39.990  1.00  0.00    -0.206 F 
ATOM     67  C   UNL A   1      40.068  34.116  41.126  1.00  0.00     0.040 A 
ATOM     68  C   UNL A   1      41.451  35.722  39.984  1.00  0.00     0.040 A 
ATOM     69  F   UNL A   1      41.988  35.413  37.723  1.00  0.00    -0.206 F 
ATOM     70  C   UNL A   1      40.799  35.302  41.142  1.00  0.00     0.006 A 
ENDBRANCH  49  63
BRANCH  50  71
ATOM     71  C   UNL A   1      39.938  28.673  30.235  1.00  0.00     0.057 A 
ATOM     72  C   UNL A   1      40.503  29.201  29.067  1.00  0.00     0.134 A 
ATOM     73  C   UNL A   1      39.277  27.443  30.131  1.00  0.00     0.134 A 
ATOM     74  F   UNL A   1      41.122  30.390  29.094  1.00  0.00    -0.206 F 
ATOM     75  C   UNL A   1      40.400  28.540  27.842  1.00  0.00     0.040 A 
ATOM     76  C   UNL A   1      39.193  26.757  28.918  1.00  0.00     0.040 A 
ATOM     77  F   UNL A   1      38.709  26.885  31.210  1.00  0.00    -0.206 F 
ATOM     78  C   UNL A   1      39.748  27.311  27.766  1.00  0.00     0.006 A 
ENDBRANCH  50  71
BRANCH  62  79
ATOM     79  C   UNL A   1      44.689  28.898  35.333  1.00  0.00     0.057 A 
ATOM     80  C   UNL A   1      44.768  27.644  35.949  1.00  0.00     0.134 A 
ATOM     81  C   UNL A   1      45.882  29.457  34.853  1.00  0.00     0.134 A 
ATOM     82  F   UNL A   1      43.668  27.057  36.443  1.00  0.00    -0.206 F 
ATOM     83  C   UNL A   1      45.987  26.978  36.097  1.00  0.00     0.040 A 
ATOM     84  C   UNL A   1      47.102  28.790  34.968  1.00  0.00     0.040 A 
ATOM     85  F   UNL A   1      45.878  30.652  34.243  1.00  0.00    -0.206 F 
ATOM     86  C   UNL A   1      47.158  27.547  35.596  1.00  0.00     0.006 A 
ENDBRANCH  62  79
ENDBRANCH  36  37
ENDBRANCH  29  31
ENDBRANCH  28  29
ENDBRANCH  27  28
ENDBRANCH  26  27
ENDBRANCH  25  26
ENDBRANCH  24  25
ENDBRANCH   1  24
TORSDOF 21
ENDMDL
MODEL 3
REMARK VINA RESULT:     -10.5      3.831      7.768
REMARK SMILES COc1ccc(CSc2ncccc2C(=O)OCCOCCOCCOC(=O)c2ccc(-c3c4nc(c(-c5c(F)cccc5F)c5ccc([nH]5)c(-c5c(F)cccc5F)c5nc(c(-c6c(F)cccc6F)c6ccc3[nH]6)C=C5)C=C4)cc2)cc1
REMARK SMILES IDX 21 1 20 2 19 3 18 4 17 5 15 6 16 7 14 8 9 9 10 10 11 11
REMARK SMILES IDX 13 12 12 13 8 14 7 15 6 16 3 17 4 18 84 19 5 20 83 21 2 22
REMARK SMILES IDX 1 23 22 24 23 25 24 26 25 27 26 28 27 29 28 30 29 31 30 32
REMARK SMILES IDX 82 33 31 34 81 35 32 36 33 37 34 38 75 39 35 40 80 41 74 42
REMARK SMILES IDX 76 43 36 44 79 45 73 46 72 47 37 49 63 50 46 51 62 52 47 53
REMARK SMILES IDX 50 54 61 55 77 56 48 57 49 58 60 60 78 61 51 62 38 63 39 64
REMARK SMILES IDX 44 65 40 66 41 67 43 68 45 69 42 70 64 71 65 72 70 73 66 74
REMARK SMILES IDX 67 75 69 76 71 77 68 78 52 79 53 80 58 81 54 82 55 83 57 84
REMARK SMILES IDX 59 85 56 86
REMARK H PARENT 76 48 50 59
REMARK Flexibility Score: inf
ROOT
ATOM      1  C   UNL A   1      32.603  22.776  26.203  1.00  0.00     0.188 C 
ENDROOT
BRANCH   1   2
ATOM      2  O   UNL A   1      33.065  23.646  25.192  1.00  0.00    -0.376 OA
BRANCH   2   3
ATOM      3  C   UNL A   1      32.499  23.519  23.899  1.00  0.00     0.202 C 
BRANCH   3   4
ATOM      4  C   UNL A   1      30.973  23.547  23.668  1.00  0.00     0.261 C 
BRANCH   4   5
ATOM      5  O   UNL A   1      30.359  24.827  23.458  1.00  0.00    -0.460 OA
BRANCH   5   6
ATOM      6  C   UNL A   1      30.145  25.627  24.532  1.00  0.00     0.340 C 
ATOM      7  O   UNL A   1      30.087  25.282  25.699  1.00  0.00    -0.246 OA
BRANCH   6   8
ATOM      8  C   UNL A   1      30.050  27.024  24.059  1.00  0.00     0.092 A 
ATOM      9  C   UNL A   1      31.143  27.896  24.088  1.00  0.00     0.111 A 
ATOM     10  N   UNL A   1      31.043  29.175  23.643  1.00  0.00    -0.249 NA
ATOM     11  C   UNL A   1      29.860  29.595  23.144  1.00  0.00     0.112 A 
ATOM     12  C   UNL A   1      28.843  27.478  23.501  1.00  0.00     0.020 A 
ATOM     13  C   UNL A   1      28.750  28.783  23.028  1.00  0.00     0.021 A 
BRANCH   9  14
ATOM     14  S   UNL A   1      32.827  27.352  24.348  1.00  0.00    -0.101 SA
BRANCH  14  15
ATOM     15  C   UNL A   1      32.998  27.477  26.147  1.00  0.00     0.112 C 
BRANCH  15  16
ATOM     16  C   UNL A   1      33.447  28.812  26.678  1.00  0.00    -0.037 A 
ATOM     17  C   UNL A   1      34.367  31.295  27.630  1.00  0.00     0.118 A 
ATOM     18  C   UNL A   1      33.052  31.157  27.186  1.00  0.00     0.047 A 
ATOM     19  C   UNL A   1      35.217  30.192  27.621  1.00  0.00     0.047 A 
ATOM     20  C   UNL A   1      32.597  29.927  26.696  1.00  0.00     0.008 A 
ATOM     21  C   UNL A   1      34.760  28.960  27.145  1.00  0.00     0.008 A 
BRANCH  17  22
ATOM     22  O   UNL A   1      34.716  32.529  28.108  1.00  0.00    -0.497 OA
ATOM     23  C   UNL A   1      33.639  33.460  28.168  1.00  0.00     0.278 C 
ENDBRANCH  17  22
ENDBRANCH  15  16
ENDBRANCH  14  15
ENDBRANCH   9  14
ENDBRANCH   6   8
ENDBRANCH   5   6
ENDBRANCH   4   5
ENDBRANCH   3   4
ENDBRANCH   2   3
ENDBRANCH   1   2
BRANCH   1  24
ATOM     24  C   UNL A   1      33.029  21.309  25.976  1.00  0.00     0.188 C 
BRANCH  24  25
ATOM     25  O   UNL A   1      34.394  20.938  26.115  1.00  0.00    -0.376 OA
BRANCH  25  26
ATOM     26  C   UNL A   1      35.110  20.510  24.964  1.00  0.00     0.202 C 
BRANCH  26  27
ATOM     27  C   UNL A   1      36.645  20.357  25.000  1.00  0.00     0.261 C 
BRANCH  27  28
ATOM     28  O   UNL A   1      37.391  21.428  25.603  1.00  0.00    -0.460 OA
BRANCH  28  29
ATOM     29  C   UNL A   1      38.669  21.145  25.952  1.00  0.00     0.338 C 
ATOM     30  O   UNL A   1      39.277  20.100  25.758  1.00  0.00    -0.246 OA
BRANCH  29  31
ATOM     31  C   UNL A   1      39.317  22.361  26.486  1.00  0.00     0.060 A 
ATOM     32  C   UNL A   1      38.867  23.619  26.058  1.00  0.00     0.016 A 
ATOM     33  C   UNL A   1      40.389  22.265  27.373  1.00  0.00     0.016 A 
ATOM     34  C   UNL A   1      39.481  24.784  26.522  1.00  0.00     0.010 A 
ATOM     35  C   UNL A   1      41.023  23.432  27.813  1.00  0.00     0.010 A 
ATOM     36  C   UNL A   1      40.582  24.697  27.381  1.00  0.00    -0.014 A 
BRANCH  36  37
ATOM     37  C   UNL A   1      41.356  25.911  27.735  1.00  0.00     0.031 A 
ATOM     38  C   UNL A   1      40.684  27.003  28.520  1.00  0.00     0.074 A 
ATOM     39  C   UNL A   1      42.636  26.056  27.348  1.00  0.00     0.049 A 
ATOM     40  N   UNL A   1      41.127  28.194  28.835  1.00  0.00    -0.248 NA
ATOM     41  C   UNL A   1      39.329  26.712  29.008  1.00  0.00     0.031 C 
ATOM     42  C   UNL A   1      43.417  25.056  26.623  1.00  0.00     0.029 A 
ATOM     43  N   UNL A   1      43.496  27.116  27.495  1.00  0.00    -0.354 N 
ATOM     44  C   UNL A   1      40.100  28.799  29.548  1.00  0.00     0.074 A 
ATOM     45  C   UNL A   1      39.006  27.853  29.600  1.00  0.00     0.031 C 
ATOM     46  C   UNL A   1      44.638  25.557  26.374  1.00  0.00     0.029 A 
ATOM     47  C   UNL A   1      44.709  26.928  26.878  1.00  0.00     0.049 A 
ATOM     48  H   UNL A   1      43.267  27.931  27.996  1.00  0.00     0.167 HD
ATOM     49  C   UNL A   1      40.073  30.033  30.108  1.00  0.00     0.037 A 
ATOM     50  C   UNL A   1      45.740  27.779  26.704  1.00  0.00     0.037 A 
ATOM     51  C   UNL A   1      41.158  30.976  30.046  1.00  0.00     0.049 A 
ATOM     52  C   UNL A   1      45.647  29.182  27.249  1.00  0.00     0.074 A 
ATOM     53  C   UNL A   1      41.229  32.244  30.597  1.00  0.00     0.029 A 
ATOM     54  N   UNL A   1      42.355  30.764  29.379  1.00  0.00    -0.354 N 
ATOM     55  N   UNL A   1      44.683  29.742  27.940  1.00  0.00    -0.248 NA
ATOM     56  C   UNL A   1      46.785  30.076  26.981  1.00  0.00     0.031 C 
ATOM     57  C   UNL A   1      42.443  32.822  30.212  1.00  0.00     0.029 A 
ATOM     58  C   UNL A   1      43.155  31.891  29.474  1.00  0.00     0.049 A 
ATOM     59  H   UNL A   1      42.600  29.935  28.909  1.00  0.00     0.167 HD
ATOM     60  C   UNL A   1      45.109  31.037  28.213  1.00  0.00     0.074 A 
ATOM     61  C   UNL A   1      46.424  31.178  27.624  1.00  0.00     0.031 C 
ATOM     62  C   UNL A   1      44.467  32.021  28.890  1.00  0.00     0.037 A 
BRANCH  49  63
ATOM     63  C   UNL A   1      38.810  30.446  30.807  1.00  0.00     0.057 A 
ATOM     64  C   UNL A   1      37.797  31.159  30.153  1.00  0.00     0.134 A 
ATOM     65  C   UNL A   1      38.592  30.097  32.146  1.00  0.00     0.134 A 
ATOM     66  F   UNL A   1      37.947  31.535  28.875  1.00  0.00    -0.206 F 
ATOM     67  C   UNL A   1      36.626  31.533  30.813  1.00  0.00     0.040 A 
ATOM     68  C   UNL A   1      37.412  30.440  32.809  1.00  0.00     0.040 A 
ATOM     69  F   UNL A   1      39.517  29.407  32.831  1.00  0.00    -0.206 F 
ATOM     70  C   UNL A   1      36.428  31.167  32.143  1.00  0.00     0.006 A 
ENDBRANCH  49  63
BRANCH  50  71
ATOM     71  C   UNL A   1      46.944  27.348  25.948  1.00  0.00     0.057 A 
ATOM     72  C   UNL A   1      48.048  26.785  26.601  1.00  0.00     0.134 A 
ATOM     73  C   UNL A   1      47.037  27.518  24.560  1.00  0.00     0.134 A 
ATOM     74  F   UNL A   1      48.034  26.625  27.932  1.00  0.00    -0.206 F 
ATOM     75  C   UNL A   1      49.203  26.424  25.906  1.00  0.00     0.040 A 
ATOM     76  C   UNL A   1      48.174  27.133  23.849  1.00  0.00     0.040 A 
ATOM     77  F   UNL A   1      46.017  28.056  23.874  1.00  0.00    -0.206 F 
ATOM     78  C   UNL A   1      49.266  26.592  24.524  1.00  0.00     0.006 A 
ENDBRANCH  50  71
BRANCH  62  79
ATOM     79  C   UNL A   1      45.186  33.330  29.068  1.00  0.00     0.057 A 
ATOM     80  C   UNL A   1      45.033  34.389  28.165  1.00  0.00     0.134 A 
ATOM     81  C   UNL A   1      45.995  33.551  30.191  1.00  0.00     0.134 A 
ATOM     82  F   UNL A   1      44.284  34.241  27.063  1.00  0.00    -0.206 F 
ATOM     83  C   UNL A   1      45.673  35.614  28.363  1.00  0.00     0.040 A 
ATOM     84  C   UNL A   1      46.616  34.780  30.415  1.00  0.00     0.040 A 
ATOM     85  F   UNL A   1      46.177  32.583  31.102  1.00  0.00    -0.206 F 
ATOM     86  C   UNL A   1      46.460  35.817  29.496  1.00  0.00     0.006 A 
ENDBRANCH  62  79
ENDBRANCH  36  37
ENDBRANCH  29  31
ENDBRANCH  28  29
ENDBRANCH  27  28
ENDBRANCH  26  27
ENDBRANCH  25  26
ENDBRANCH  24  25
ENDBRANCH   1  24
TORSDOF 21
ENDMDL
