MODEL 1
REMARK VINA RESULT:     -10.4      0.000      0.000
REMARK SMILES Cc1cc(CS(=O)(=O)NC[C@@H]2CC[C@H](C(=O)OCCOCCOCCOC(=O)c3ccc(-c4c5nc(c(-c6c(F)cccc6F)c6ccc([nH]6)c(-c6c(F)cccc6F)c6nc(c(-c7c(F)cccc7F)c7ccc4[nH]7)C=C6)C=C5)cc3)O2)no1
REMARK SMILES IDX 20 1 19 2 18 3 17 4 15 5 16 6 14 7 11 8 12 9 83 10 13 11
REMARK SMILES IDX 10 12 9 13 6 15 7 16 8 17 5 18 4 19 1 20 2 21 3 22 85 23
REMARK SMILES IDX 84 24 21 25 22 26 23 27 24 28 25 29 26 30 27 31 28 32 29 33
REMARK SMILES IDX 30 34 82 35 31 36 81 37 32 38 33 39 34 40 75 41 35 42 80 43
REMARK SMILES IDX 74 44 76 45 36 46 79 47 73 48 72 49 37 51 63 52 46 53 62 54
REMARK SMILES IDX 47 55 50 56 61 57 77 58 48 59 49 60 60 62 78 63 51 64 38 65
REMARK SMILES IDX 39 66 44 67 40 68 41 69 43 70 45 71 42 72 64 73 65 74 70 75
REMARK SMILES IDX 66 76 67 77 69 78 71 79 68 80 52 81 53 82 58 83 54 84 55 85
REMARK SMILES IDX 57 86 59 87 56 88
REMARK H PARENT 9 14 76 50 50 61
REMARK Flexibility Score: inf
ROOT
ATOM      1  O   UNL A   1      39.840  21.472  27.120  1.00  0.00    -0.376 OA
ENDROOT
BRANCH   1   2
ATOM      2  C   UNL A   1      39.300  21.655  25.812  1.00  0.00     0.202 C 
BRANCH   2   3
ATOM      3  C   UNL A   1      37.785  21.455  25.648  1.00  0.00     0.261 C 
BRANCH   3   4
ATOM      4  O   UNL A   1      37.039  22.665  25.397  1.00  0.00    -0.461 OA
BRANCH   4   5
ATOM      5  C   UNL A   1      35.683  22.570  25.529  1.00  0.00     0.335 C 
ATOM      6  O   UNL A   1      35.040  23.101  26.430  1.00  0.00    -0.249 OA
BRANCH   5   7
ATOM      7  C   UNL A   1      35.006  21.764  24.403  1.00  0.00     0.228 C 
ATOM      8  C   UNL A   1      32.697  21.865  23.967  1.00  0.00     0.134 C 
ATOM      9  C   UNL A   1      32.959  20.822  25.039  1.00  0.00     0.037 C 
ATOM     10  O   UNL A   1      33.960  22.557  23.811  1.00  0.00    -0.362 OA
ATOM     11  C   UNL A   1      34.381  20.431  24.764  1.00  0.00     0.047 C 
BRANCH   8  12
ATOM     12  C   UNL A   1      31.619  22.884  24.346  1.00  0.00     0.130 C 
BRANCH  12  13
ATOM     13  N   UNL A   1      30.836  22.614  25.567  1.00  0.00    -0.212 NA
ATOM     14  H   UNL A   1      29.920  22.309  25.238  1.00  0.00     0.141 HD
BRANCH  13  15
ATOM     15  S   UNL A   1      30.523  23.713  26.784  1.00  0.00     0.217 S 
ATOM     16  O   UNL A   1      31.709  23.863  27.592  1.00  0.00    -0.212 OA
ATOM     17  O   UNL A   1      29.317  23.188  27.399  1.00  0.00    -0.212 OA
BRANCH  15  18
ATOM     18  C   UNL A   1      30.060  25.267  26.004  1.00  0.00     0.213 C 
BRANCH  18  19
ATOM     19  C   UNL A   1      31.063  26.354  26.047  1.00  0.00     0.100 A 
ATOM     20  C   UNL A   1      33.797  28.637  25.144  1.00  0.00     0.091 C 
ATOM     21  C   UNL A   1      32.665  27.803  25.584  1.00  0.00     0.133 A 
ATOM     22  C   UNL A   1      32.010  26.717  25.055  1.00  0.00     0.073 A 
ATOM     23  O   UNL A   1      32.111  28.112  26.786  1.00  0.00    -0.361 OA
ATOM     24  N   UNL A   1      31.089  27.224  27.065  1.00  0.00    -0.084 NA
ENDBRANCH  18  19
ENDBRANCH  15  18
ENDBRANCH  13  15
ENDBRANCH  12  13
ENDBRANCH   8  12
ENDBRANCH   5   7
ENDBRANCH   4   5
ENDBRANCH   3   4
ENDBRANCH   2   3
ENDBRANCH   1   2
BRANCH   1  25
ATOM     25  C   UNL A   1      41.143  20.904  27.207  1.00  0.00     0.188 C 
BRANCH  25  26
ATOM     26  C   UNL A   1      41.451  19.763  26.238  1.00  0.00     0.188 C 
BRANCH  26  27
ATOM     27  O   UNL A   1      42.435  20.044  25.256  1.00  0.00    -0.376 OA
BRANCH  27  28
ATOM     28  C   UNL A   1      43.652  20.643  25.713  1.00  0.00     0.202 C 
BRANCH  28  29
ATOM     29  C   UNL A   1      44.286  21.735  24.817  1.00  0.00     0.261 C 
BRANCH  29  30
ATOM     30  O   UNL A   1      43.580  22.997  24.750  1.00  0.00    -0.460 OA
BRANCH  30  31
ATOM     31  C   UNL A   1      44.285  24.119  25.027  1.00  0.00     0.338 C 
ATOM     32  O   UNL A   1      45.277  24.506  24.430  1.00  0.00    -0.246 OA
BRANCH  31  33
ATOM     33  C   UNL A   1      43.516  24.966  25.985  1.00  0.00     0.060 A 
ATOM     34  C   UNL A   1      43.949  26.288  26.173  1.00  0.00     0.016 A 
ATOM     35  C   UNL A   1      42.364  24.525  26.645  1.00  0.00     0.016 A 
ATOM     36  C   UNL A   1      43.274  27.144  27.049  1.00  0.00     0.010 A 
ATOM     37  C   UNL A   1      41.697  25.381  27.540  1.00  0.00     0.010 A 
ATOM     38  C   UNL A   1      42.169  26.686  27.776  1.00  0.00    -0.014 A 
BRANCH  38  39
ATOM     39  C   UNL A   1      41.651  27.505  28.911  1.00  0.00     0.031 A 
ATOM     40  C   UNL A   1      42.371  27.436  30.236  1.00  0.00     0.074 A 
ATOM     41  C   UNL A   1      40.616  28.356  28.771  1.00  0.00     0.049 A 
ATOM     42  N   UNL A   1      42.120  28.065  31.358  1.00  0.00    -0.248 NA
ATOM     43  C   UNL A   1      43.535  26.538  30.301  1.00  0.00     0.031 C 
ATOM     44  C   UNL A   1      39.852  28.572  27.545  1.00  0.00     0.029 A 
ATOM     45  N   UNL A   1      40.031  29.206  29.684  1.00  0.00    -0.354 N 
ATOM     46  C   UNL A   1      43.097  27.645  32.254  1.00  0.00     0.074 A 
ATOM     47  C   UNL A   1      43.918  26.678  31.561  1.00  0.00     0.031 C 
ATOM     48  C   UNL A   1      38.897  29.490  27.781  1.00  0.00     0.029 A 
ATOM     49  C   UNL A   1      38.961  29.909  29.181  1.00  0.00     0.049 A 
ATOM     50  H   UNL A   1      40.349  29.302  30.610  1.00  0.00     0.167 HD
ATOM     51  C   UNL A   1      43.307  28.038  33.534  1.00  0.00     0.037 A 
ATOM     52  C   UNL A   1      38.122  30.778  29.784  1.00  0.00     0.037 A 
ATOM     53  C   UNL A   1      42.496  28.997  34.241  1.00  0.00     0.049 A 
ATOM     54  C   UNL A   1      38.321  31.127  31.240  1.00  0.00     0.074 A 
ATOM     55  C   UNL A   1      42.636  29.449  35.542  1.00  0.00     0.029 A 
ATOM     56  N   UNL A   1      41.393  29.645  33.710  1.00  0.00    -0.354 N 
ATOM     57  N   UNL A   1      39.260  30.738  32.068  1.00  0.00    -0.248 NA
ATOM     58  C   UNL A   1      37.340  32.044  31.843  1.00  0.00     0.031 C 
ATOM     59  C   UNL A   1      41.587  30.333  35.815  1.00  0.00     0.029 A 
ATOM     60  C   UNL A   1      40.830  30.477  34.665  1.00  0.00     0.049 A 
ATOM     61  H   UNL A   1      41.060  29.532  32.790  1.00  0.00     0.167 HD
ATOM     62  C   UNL A   1      39.004  31.389  33.271  1.00  0.00     0.074 A 
ATOM     63  C   UNL A   1      37.836  32.215  33.059  1.00  0.00     0.031 C 
ATOM     64  C   UNL A   1      39.675  31.308  34.447  1.00  0.00     0.037 A 
BRANCH  51  65
ATOM     65  C   UNL A   1      44.460  27.420  34.270  1.00  0.00     0.057 A 
ATOM     66  C   UNL A   1      45.724  28.024  34.302  1.00  0.00     0.134 A 
ATOM     67  C   UNL A   1      44.291  26.238  35.003  1.00  0.00     0.134 A 
ATOM     68  F   UNL A   1      45.958  29.150  33.610  1.00  0.00    -0.206 F 
ATOM     69  C   UNL A   1      46.781  27.468  35.025  1.00  0.00     0.040 A 
ATOM     70  C   UNL A   1      45.331  25.687  35.751  1.00  0.00     0.040 A 
ATOM     71  F   UNL A   1      43.105  25.611  35.019  1.00  0.00    -0.206 F 
ATOM     72  C   UNL A   1      46.583  26.301  35.761  1.00  0.00     0.006 A 
ENDBRANCH  51  65
BRANCH  52  73
ATOM     73  C   UNL A   1      36.982  31.378  29.035  1.00  0.00     0.057 A 
ATOM     74  C   UNL A   1      37.012  32.711  28.603  1.00  0.00     0.134 A 
ATOM     75  C   UNL A   1      35.801  30.660  28.811  1.00  0.00     0.134 A 
ATOM     76  F   UNL A   1      38.100  33.467  28.818  1.00  0.00    -0.206 F 
ATOM     77  C   UNL A   1      35.901  33.316  28.009  1.00  0.00     0.040 A 
ATOM     78  C   UNL A   1      34.695  31.242  28.188  1.00  0.00     0.040 A 
ATOM     79  F   UNL A   1      35.700  29.383  29.205  1.00  0.00    -0.206 F 
ATOM     80  C   UNL A   1      34.739  32.578  27.797  1.00  0.00     0.006 A 
ENDBRANCH  52  73
BRANCH  64  81
ATOM     81  C   UNL A   1      39.191  32.168  35.583  1.00  0.00     0.057 A 
ATOM     82  C   UNL A   1      39.602  33.499  35.737  1.00  0.00     0.134 A 
ATOM     83  C   UNL A   1      38.290  31.661  36.529  1.00  0.00     0.134 A 
ATOM     84  F   UNL A   1      40.470  34.047  34.874  1.00  0.00    -0.206 F 
ATOM     85  C   UNL A   1      39.167  34.280  36.811  1.00  0.00     0.040 A 
ATOM     86  C   UNL A   1      37.822  32.442  37.588  1.00  0.00     0.040 A 
ATOM     87  F   UNL A   1      37.841  30.400  36.436  1.00  0.00    -0.206 F 
ATOM     88  C   UNL A   1      38.270  33.752  37.737  1.00  0.00     0.006 A 
ENDBRANCH  64  81
ENDBRANCH  38  39
ENDBRANCH  31  33
ENDBRANCH  30  31
ENDBRANCH  29  30
ENDBRANCH  28  29
ENDBRANCH  27  28
ENDBRANCH  26  27
ENDBRANCH  25  26
ENDBRANCH   1  25
TORSDOF 22
ENDMDL
MODEL 2
REMARK VINA RESULT:     -10.1      1.521      3.148
REMARK SMILES Cc1cc(CS(=O)(=O)NC[C@@H]2CC[C@H](C(=O)OCCOCCOCCOC(=O)c3ccc(-c4c5nc(c(-c6c(F)cccc6F)c6ccc([nH]6)c(-c6c(F)cccc6F)c6nc(c(-c7c(F)cccc7F)c7ccc4[nH]7)C=C6)C=C5)cc3)O2)no1
REMARK SMILES IDX 20 1 19 2 18 3 17 4 15 5 16 6 14 7 11 8 12 9 83 10 13 11
REMARK SMILES IDX 10 12 9 13 6 15 7 16 8 17 5 18 4 19 1 20 2 21 3 22 85 23
REMARK SMILES IDX 84 24 21 25 22 26 23 27 24 28 25 29 26 30 27 31 28 32 29 33
REMARK SMILES IDX 30 34 82 35 31 36 81 37 32 38 33 39 34 40 75 41 35 42 80 43
REMARK SMILES IDX 74 44 76 45 36 46 79 47 73 48 72 49 37 51 63 52 46 53 62 54
REMARK SMILES IDX 47 55 50 56 61 57 77 58 48 59 49 60 60 62 78 63 51 64 38 65
REMARK SMILES IDX 39 66 44 67 40 68 41 69 43 70 45 71 42 72 64 73 65 74 70 75
REMARK SMILES IDX 66 76 67 77 69 78 71 79 68 80 52 81 53 82 58 83 54 84 55 85
REMARK SMILES IDX 57 86 59 87 56 88
REMARK H PARENT 9 14 76 50 50 61
REMARK Flexibility Score: inf
ROOT
ATOM      1  O   UNL A   1      41.100  21.801  27.407  1.00  0.00    -0.376 OA
ENDROOT
BRANCH   1   2
ATOM      2  C   UNL A   1      40.049  21.233  26.627  1.00  0.00     0.202 C 
BRANCH   2   3
ATOM      3  C   UNL A   1      38.961  22.194  26.120  1.00  0.00     0.261 C 
BRANCH   3   4
ATOM      4  O   UNL A   1      37.610  21.707  26.265  1.00  0.00    -0.461 OA
BRANCH   4   5
ATOM      5  C   UNL A   1      36.854  21.694  25.128  1.00  0.00     0.335 C 
ATOM      6  O   UNL A   1      36.233  20.713  24.725  1.00  0.00    -0.249 OA
BRANCH   5   7
ATOM      7  C   UNL A   1      36.802  23.051  24.401  1.00  0.00     0.228 C 
ATOM      8  C   UNL A   1      34.822  24.294  24.147  1.00  0.00     0.134 C 
ATOM      9  C   UNL A   1      34.933  23.290  23.012  1.00  0.00     0.037 C 
ATOM     10  O   UNL A   1      35.870  23.917  25.074  1.00  0.00    -0.362 OA
ATOM     11  C   UNL A   1      36.413  23.057  22.936  1.00  0.00     0.047 C 
BRANCH   8  12
ATOM     12  C   UNL A   1      33.478  24.254  24.878  1.00  0.00     0.130 C 
BRANCH  12  13
ATOM     13  N   UNL A   1      32.503  23.236  24.441  1.00  0.00    -0.212 NA
ATOM     14  H   UNL A   1      31.607  23.721  24.400  1.00  0.00     0.141 HD
BRANCH  13  15
ATOM     15  S   UNL A   1      32.186  21.794  25.220  1.00  0.00     0.217 S 
ATOM     16  O   UNL A   1      30.829  21.817  25.708  1.00  0.00    -0.212 OA
ATOM     17  O   UNL A   1      33.274  21.690  26.176  1.00  0.00    -0.212 OA
BRANCH  15  18
ATOM     18  C   UNL A   1      32.431  20.469  24.027  1.00  0.00     0.213 C 
BRANCH  18  19
ATOM     19  C   UNL A   1      32.571  19.101  24.574  1.00  0.00     0.100 A 
ATOM     20  C   UNL A   1      33.089  15.475  24.852  1.00  0.00     0.091 C 
ATOM     21  C   UNL A   1      32.908  16.937  24.855  1.00  0.00     0.133 A 
ATOM     22  C   UNL A   1      32.857  17.900  23.878  1.00  0.00     0.073 A 
ATOM     23  O   UNL A   1      32.724  17.525  26.067  1.00  0.00    -0.361 OA
ATOM     24  N   UNL A   1      32.541  18.885  25.896  1.00  0.00    -0.084 NA
ENDBRANCH  18  19
ENDBRANCH  15  18
ENDBRANCH  13  15
ENDBRANCH  12  13
ENDBRANCH   8  12
ENDBRANCH   5   7
ENDBRANCH   4   5
ENDBRANCH   3   4
ENDBRANCH   2   3
ENDBRANCH   1   2
BRANCH   1  25
ATOM     25  C   UNL A   1      42.395  21.229  27.259  1.00  0.00     0.188 C 
BRANCH  25  26
ATOM     26  C   UNL A   1      42.521  20.086  26.252  1.00  0.00     0.188 C 
BRANCH  26  27
ATOM     27  O   UNL A   1      43.108  20.430  25.008  1.00  0.00    -0.376 OA
BRANCH  27  28
ATOM     28  C   UNL A   1      44.461  20.893  25.037  1.00  0.00     0.202 C 
BRANCH  28  29
ATOM     29  C   UNL A   1      44.782  22.200  24.272  1.00  0.00     0.261 C 
BRANCH  29  30
ATOM     30  O   UNL A   1      44.013  23.367  24.650  1.00  0.00    -0.460 OA
BRANCH  30  31
ATOM     31  C   UNL A   1      44.702  24.464  25.043  1.00  0.00     0.338 C 
ATOM     32  O   UNL A   1      45.727  24.886  24.533  1.00  0.00    -0.246 OA
BRANCH  31  33
ATOM     33  C   UNL A   1      43.878  25.247  26.011  1.00  0.00     0.060 A 
ATOM     34  C   UNL A   1      44.211  26.597  26.201  1.00  0.00     0.016 A 
ATOM     35  C   UNL A   1      42.770  24.716  26.680  1.00  0.00     0.016 A 
ATOM     36  C   UNL A   1      43.481  27.397  27.086  1.00  0.00     0.010 A 
ATOM     37  C   UNL A   1      42.048  25.517  27.584  1.00  0.00     0.010 A 
ATOM     38  C   UNL A   1      42.421  26.853  27.821  1.00  0.00    -0.014 A 
BRANCH  38  39
ATOM     39  C   UNL A   1      41.852  27.626  28.964  1.00  0.00     0.031 A 
ATOM     40  C   UNL A   1      42.541  27.543  30.304  1.00  0.00     0.074 A 
ATOM     41  C   UNL A   1      40.796  28.451  28.820  1.00  0.00     0.049 A 
ATOM     42  N   UNL A   1      42.246  28.135  31.435  1.00  0.00    -0.248 NA
ATOM     43  C   UNL A   1      43.730  26.677  30.375  1.00  0.00     0.031 C 
ATOM     44  C   UNL A   1      40.055  28.677  27.582  1.00  0.00     0.029 A 
ATOM     45  N   UNL A   1      40.164  29.259  29.740  1.00  0.00    -0.354 N 
ATOM     46  C   UNL A   1      43.212  27.719  32.344  1.00  0.00     0.074 A 
ATOM     47  C   UNL A   1      44.078  26.794  31.646  1.00  0.00     0.031 C 
ATOM     48  C   UNL A   1      39.068  29.561  27.818  1.00  0.00     0.029 A 
ATOM     49  C   UNL A   1      39.086  29.944  29.229  1.00  0.00     0.049 A 
ATOM     50  H   UNL A   1      40.457  29.340  30.676  1.00  0.00     0.167 HD
ATOM     51  C   UNL A   1      43.380  28.084  33.638  1.00  0.00     0.037 A 
ATOM     52  C   UNL A   1      38.208  30.772  29.833  1.00  0.00     0.037 A 
ATOM     53  C   UNL A   1      42.525  28.999  34.350  1.00  0.00     0.049 A 
ATOM     54  C   UNL A   1      38.362  31.088  31.303  1.00  0.00     0.074 A 
ATOM     55  C   UNL A   1      42.620  29.421  35.665  1.00  0.00     0.029 A 
ATOM     56  N   UNL A   1      41.417  29.629  33.808  1.00  0.00    -0.354 N 
ATOM     57  N   UNL A   1      39.292  30.704  32.143  1.00  0.00    -0.248 NA
ATOM     58  C   UNL A   1      37.340  31.960  31.905  1.00  0.00     0.031 C 
ATOM     59  C   UNL A   1      41.540  30.267  35.934  1.00  0.00     0.029 A 
ATOM     60  C   UNL A   1      40.807  30.420  34.770  1.00  0.00     0.049 A 
ATOM     61  H   UNL A   1      41.108  29.532  32.878  1.00  0.00     0.167 HD
ATOM     62  C   UNL A   1      38.989  31.316  33.356  1.00  0.00     0.074 A 
ATOM     63  C   UNL A   1      37.802  32.113  33.137  1.00  0.00     0.031 C 
ATOM     64  C   UNL A   1      39.633  31.222  34.545  1.00  0.00     0.037 A 
BRANCH  51  65
ATOM     65  C   UNL A   1      44.533  27.480  34.386  1.00  0.00     0.057 A 
ATOM     66  C   UNL A   1      45.765  28.139  34.500  1.00  0.00     0.134 A 
ATOM     67  C   UNL A   1      44.393  26.253  35.048  1.00  0.00     0.134 A 
ATOM     68  F   UNL A   1      45.971  29.310  33.879  1.00  0.00    -0.206 F 
ATOM     69  C   UNL A   1      46.819  27.592  35.235  1.00  0.00     0.040 A 
ATOM     70  C   UNL A   1      45.430  25.710  35.808  1.00  0.00     0.040 A 
ATOM     71  F   UNL A   1      43.239  25.573  34.984  1.00  0.00    -0.206 F 
ATOM     72  C   UNL A   1      46.649  26.379  35.900  1.00  0.00     0.006 A 
ENDBRANCH  51  65
BRANCH  52  73
ATOM     73  C   UNL A   1      37.069  31.359  29.073  1.00  0.00     0.057 A 
ATOM     74  C   UNL A   1      37.092  32.690  28.633  1.00  0.00     0.134 A 
ATOM     75  C   UNL A   1      35.896  30.630  28.843  1.00  0.00     0.134 A 
ATOM     76  F   UNL A   1      38.172  33.455  28.853  1.00  0.00    -0.206 F 
ATOM     77  C   UNL A   1      35.981  33.282  28.027  1.00  0.00     0.040 A 
ATOM     78  C   UNL A   1      34.790  31.200  28.208  1.00  0.00     0.040 A 
ATOM     79  F   UNL A   1      35.802  29.354  29.244  1.00  0.00    -0.206 F 
ATOM     80  C   UNL A   1      34.826  32.534  27.810  1.00  0.00     0.006 A 
ENDBRANCH  52  73
BRANCH  64  81
ATOM     81  C   UNL A   1      39.098  32.038  35.691  1.00  0.00     0.057 A 
ATOM     82  C   UNL A   1      38.222  31.502  36.644  1.00  0.00     0.134 A 
ATOM     83  C   UNL A   1      39.476  33.379  35.849  1.00  0.00     0.134 A 
ATOM     84  F   UNL A   1      37.810  30.229  36.549  1.00  0.00    -0.206 F 
ATOM     85  C   UNL A   1      37.711  32.277  37.688  1.00  0.00     0.040 A 
ATOM     86  C   UNL A   1      38.998  34.155  36.908  1.00  0.00     0.040 A 
ATOM     87  F   UNL A   1      40.324  33.956  34.984  1.00  0.00    -0.206 F 
ATOM     88  C   UNL A   1      38.104  33.607  37.824  1.00  0.00     0.006 A 
ENDBRANCH  64  81
ENDBRANCH  38  39
ENDBRANCH  31  33
ENDBRANCH  30  31
ENDBRANCH  29  30
ENDBRANCH  28  29
ENDBRANCH  27  28
ENDBRANCH  26  27
ENDBRANCH  25  26
ENDBRANCH   1  25
TORSDOF 22
ENDMDL
MODEL 3
REMARK VINA RESULT:     -10.0      1.001      6.105
REMARK SMILES Cc1cc(CS(=O)(=O)NC[C@@H]2CC[C@H](C(=O)OCCOCCOCCOC(=O)c3ccc(-c4c5nc(c(-c6c(F)cccc6F)c6ccc([nH]6)c(-c6c(F)cccc6F)c6nc(c(-c7c(F)cccc7F)c7ccc4[nH]7)C=C6)C=C5)cc3)O2)no1
REMARK SMILES IDX 20 1 19 2 18 3 17 4 15 5 16 6 14 7 11 8 12 9 83 10 13 11
REMARK SMILES IDX 10 12 9 13 6 15 7 16 8 17 5 18 4 19 1 20 2 21 3 22 85 23
REMARK SMILES IDX 84 24 21 25 22 26 23 27 24 28 25 29 26 30 27 31 28 32 29 33
REMARK SMILES IDX 30 34 82 35 31 36 81 37 32 38 33 39 34 40 75 41 35 42 80 43
REMARK SMILES IDX 74 44 76 45 36 46 79 47 73 48 72 49 37 51 63 52 46 53 62 54
REMARK SMILES IDX 47 55 50 56 61 57 77 58 48 59 49 60 60 62 78 63 51 64 38 65
REMARK SMILES IDX 39 66 44 67 40 68 41 69 43 70 45 71 42 72 64 73 65 74 70 75
REMARK SMILES IDX 66 76 67 77 69 78 71 79 68 80 52 81 53 82 58 83 54 84 55 85
REMARK SMILES IDX 57 86 59 87 56 88
REMARK H PARENT 9 14 76 50 50 61
REMARK Flexibility Score: inf
ROOT
ATOM      1  O   UNL A   1      40.633  20.150  27.188  1.00  0.00    -0.376 OA
ENDROOT
BRANCH   1   2
ATOM      2  C   UNL A   1      40.327  21.538  27.059  1.00  0.00     0.202 C 
BRANCH   2   3
ATOM      3  C   UNL A   1      39.511  21.960  25.826  1.00  0.00     0.261 C 
BRANCH   3   4
ATOM      4  O   UNL A   1      38.100  21.667  25.906  1.00  0.00    -0.461 OA
BRANCH   4   5
ATOM      5  C   UNL A   1      37.257  22.680  25.548  1.00  0.00     0.335 C 
ATOM      6  O   UNL A   1      37.509  23.872  25.701  1.00  0.00    -0.249 OA
BRANCH   5   7
ATOM      7  C   UNL A   1      35.956  22.196  24.879  1.00  0.00     0.228 C 
ATOM      8  C   UNL A   1      33.838  22.443  25.871  1.00  0.00     0.134 C 
ATOM      9  C   UNL A   1      34.477  21.158  26.368  1.00  0.00     0.037 C 
ATOM     10  O   UNL A   1      34.898  23.131  25.163  1.00  0.00    -0.362 OA
ATOM     11  C   UNL A   1      35.430  20.825  25.259  1.00  0.00     0.047 C 
BRANCH   8  12
ATOM     12  C   UNL A   1      33.323  23.351  26.991  1.00  0.00     0.130 C 
BRANCH  12  13
ATOM     13  N   UNL A   1      31.946  23.117  27.468  1.00  0.00    -0.212 NA
ATOM     14  H   UNL A   1      31.946  22.166  27.836  1.00  0.00     0.141 HD
BRANCH  13  15
ATOM     15  S   UNL A   1      30.562  23.231  26.541  1.00  0.00     0.217 S 
ATOM     16  O   UNL A   1      29.435  23.453  27.414  1.00  0.00    -0.212 OA
ATOM     17  O   UNL A   1      30.602  22.021  25.741  1.00  0.00    -0.212 OA
BRANCH  15  18
ATOM     18  C   UNL A   1      30.788  24.603  25.399  1.00  0.00     0.213 C 
BRANCH  18  19
ATOM     19  C   UNL A   1      31.552  25.766  25.903  1.00  0.00     0.100 A 
ATOM     20  C   UNL A   1      34.016  28.474  26.206  1.00  0.00     0.091 C 
ATOM     21  C   UNL A   1      32.960  27.448  26.160  1.00  0.00     0.133 A 
ATOM     22  C   UNL A   1      32.655  26.422  25.300  1.00  0.00     0.073 A 
ATOM     23  O   UNL A   1      32.064  27.450  27.183  1.00  0.00    -0.361 OA
ATOM     24  N   UNL A   1      31.164  26.415  27.009  1.00  0.00    -0.084 NA
ENDBRANCH  18  19
ENDBRANCH  15  18
ENDBRANCH  13  15
ENDBRANCH  12  13
ENDBRANCH   8  12
ENDBRANCH   5   7
ENDBRANCH   4   5
ENDBRANCH   3   4
ENDBRANCH   2   3
ENDBRANCH   1   2
BRANCH   1  25
ATOM     25  C   UNL A   1      42.006  19.803  27.334  1.00  0.00     0.188 C 
BRANCH  25  26
ATOM     26  C   UNL A   1      42.667  19.134  26.129  1.00  0.00     0.188 C 
BRANCH  26  27
ATOM     27  O   UNL A   1      43.102  20.013  25.104  1.00  0.00    -0.376 OA
BRANCH  27  28
ATOM     28  C   UNL A   1      43.896  21.133  25.508  1.00  0.00     0.202 C 
BRANCH  28  29
ATOM     29  C   UNL A   1      43.870  22.388  24.600  1.00  0.00     0.261 C 
BRANCH  29  30
ATOM     30  O   UNL A   1      43.205  23.554  25.142  1.00  0.00    -0.460 OA
BRANCH  30  31
ATOM     31  C   UNL A   1      43.966  24.648  25.380  1.00  0.00     0.338 C 
ATOM     32  O   UNL A   1      44.902  25.030  24.696  1.00  0.00    -0.246 OA
BRANCH  31  33
ATOM     33  C   UNL A   1      43.322  25.480  26.438  1.00  0.00     0.060 A 
ATOM     34  C   UNL A   1      43.771  26.802  26.585  1.00  0.00     0.016 A 
ATOM     35  C   UNL A   1      42.266  25.025  27.235  1.00  0.00     0.016 A 
ATOM     36  C   UNL A   1      43.211  27.645  27.550  1.00  0.00     0.010 A 
ATOM     37  C   UNL A   1      41.716  25.869  28.218  1.00  0.00     0.010 A 
ATOM     38  C   UNL A   1      42.209  27.173  28.408  1.00  0.00    -0.014 A 
BRANCH  38  39
ATOM     39  C   UNL A   1      41.838  27.976  29.609  1.00  0.00     0.031 A 
ATOM     40  C   UNL A   1      40.636  28.885  29.524  1.00  0.00     0.074 A 
ATOM     41  C   UNL A   1      42.490  27.860  30.783  1.00  0.00     0.049 A 
ATOM     42  N   UNL A   1      40.111  29.665  30.437  1.00  0.00    -0.248 NA
ATOM     43  C   UNL A   1      39.929  28.914  28.234  1.00  0.00     0.031 C 
ATOM     44  C   UNL A   1      43.635  26.990  31.037  1.00  0.00     0.029 A 
ATOM     45  N   UNL A   1      42.270  28.484  31.991  1.00  0.00    -0.354 N 
ATOM     46  C   UNL A   1      39.012  30.267  29.834  1.00  0.00     0.074 A 
ATOM     47  C   UNL A   1      38.970  29.796  28.467  1.00  0.00     0.031 C 
ATOM     48  C   UNL A   1      44.020  27.137  32.318  1.00  0.00     0.029 A 
ATOM     49  C   UNL A   1      43.169  28.132  32.970  1.00  0.00     0.049 A 
ATOM     50  H   UNL A   1      41.537  29.124  32.140  1.00  0.00     0.167 HD
ATOM     51  C   UNL A   1      38.106  31.122  30.369  1.00  0.00     0.037 A 
ATOM     52  C   UNL A   1      43.300  28.572  34.240  1.00  0.00     0.037 A 
ATOM     53  C   UNL A   1      38.136  31.604  31.726  1.00  0.00     0.049 A 
ATOM     54  C   UNL A   1      42.332  29.598  34.782  1.00  0.00     0.074 A 
ATOM     55  C   UNL A   1      37.260  32.476  32.350  1.00  0.00     0.029 A 
ATOM     56  N   UNL A   1      39.093  31.261  32.666  1.00  0.00    -0.354 N 
ATOM     57  N   UNL A   1      41.288  30.142  34.207  1.00  0.00    -0.248 NA
ATOM     58  C   UNL A   1      42.565  30.066  36.158  1.00  0.00     0.031 C 
ATOM     59  C   UNL A   1      37.715  32.700  33.652  1.00  0.00     0.029 A 
ATOM     60  C   UNL A   1      38.840  31.922  33.859  1.00  0.00     0.049 A 
ATOM     61  H   UNL A   1      39.841  30.639  32.512  1.00  0.00     0.167 HD
ATOM     62  C   UNL A   1      40.721  30.983  35.160  1.00  0.00     0.074 A 
ATOM     63  C   UNL A   1      41.524  30.861  36.357  1.00  0.00     0.031 C 
ATOM     64  C   UNL A   1      39.635  31.788  35.052  1.00  0.00     0.037 A 
BRANCH  51  65
ATOM     65  C   UNL A   1      37.000  31.609  29.478  1.00  0.00     0.057 A 
ATOM     66  C   UNL A   1      37.042  32.872  28.873  1.00  0.00     0.134 A 
ATOM     67  C   UNL A   1      35.910  30.782  29.175  1.00  0.00     0.134 A 
ATOM     68  F   UNL A   1      38.050  33.718  29.133  1.00  0.00    -0.206 F 
ATOM     69  C   UNL A   1      36.032  33.301  28.010  1.00  0.00     0.040 A 
ATOM     70  C   UNL A   1      34.909  31.189  28.292  1.00  0.00     0.040 A 
ATOM     71  F   UNL A   1      35.811  29.559  29.716  1.00  0.00    -0.206 F 
ATOM     72  C   UNL A   1      34.967  32.454  27.709  1.00  0.00     0.006 A 
ENDBRANCH  51  65
BRANCH  52  73
ATOM     73  C   UNL A   1      44.406  28.077  35.106  1.00  0.00     0.057 A 
ATOM     74  C   UNL A   1      45.669  28.683  35.097  1.00  0.00     0.134 A 
ATOM     75  C   UNL A   1      44.252  26.932  35.898  1.00  0.00     0.134 A 
ATOM     76  F   UNL A   1      45.895  29.763  34.333  1.00  0.00    -0.206 F 
ATOM     77  C   UNL A   1      46.745  28.151  35.814  1.00  0.00     0.040 A 
ATOM     78  C   UNL A   1      45.310  26.409  36.645  1.00  0.00     0.040 A 
ATOM     79  F   UNL A   1      43.073  26.296  35.946  1.00  0.00    -0.206 F 
ATOM     80  C   UNL A   1      46.564  27.012  36.594  1.00  0.00     0.006 A 
ENDBRANCH  52  73
BRANCH  64  81
ATOM     81  C   UNL A   1      39.221  32.563  36.274  1.00  0.00     0.057 A 
ATOM     82  C   UNL A   1      38.327  32.044  37.220  1.00  0.00     0.134 A 
ATOM     83  C   UNL A   1      39.737  33.844  36.514  1.00  0.00     0.134 A 
ATOM     84  F   UNL A   1      37.787  30.828  37.049  1.00  0.00    -0.206 F 
ATOM     85  C   UNL A   1      37.931  32.784  38.337  1.00  0.00     0.040 A 
ATOM     86  C   UNL A   1      39.374  34.581  37.644  1.00  0.00     0.040 A 
ATOM     87  F   UNL A   1      40.610  34.399  35.660  1.00  0.00    -0.206 F 
ATOM     88  C   UNL A   1      38.459  34.055  38.553  1.00  0.00     0.006 A 
ENDBRANCH  64  81
ENDBRANCH  38  39
ENDBRANCH  31  33
ENDBRANCH  30  31
ENDBRANCH  29  30
ENDBRANCH  28  29
ENDBRANCH  27  28
ENDBRANCH  26  27
ENDBRANCH  25  26
ENDBRANCH   1  25
TORSDOF 22
ENDMDL
