MODEL 1
REMARK VINA RESULT:     -10.4      0.000      0.000
REMARK SMILES CCc1cccc2c3c([nH]c12)[C@](CC)(CC(=O)OCCOCCOCCOC(=O)c1ccc(-c2c4nc(c(-c5c(F)cccc5F)c5ccc([nH]5)c(-c5c(F)cccc5F)c5nc(c(-c6c(F)cccc6F)c6ccc2[nH]6)C=C5)C=C4)cc1)OCC3
REMARK SMILES IDX 22 1 21 2 20 3 19 4 18 5 16 6 17 7 15 8 12 9 3 10 4 11 11 12
REMARK SMILES IDX 5 13 7 14 10 15 6 16 8 17 9 18 86 20 85 21 84 22 2 23 1 24
REMARK SMILES IDX 13 25 14 26 23 27 24 28 25 29 26 30 27 31 28 32 29 33 30 34
REMARK SMILES IDX 31 35 83 36 32 37 82 38 33 39 34 40 35 41 76 42 36 43 81 44
REMARK SMILES IDX 75 45 77 46 37 47 80 48 74 49 73 50 38 52 64 53 47 54 63 55
REMARK SMILES IDX 48 56 51 57 62 58 78 59 49 60 50 61 61 63 79 64 52 65 39 66
REMARK SMILES IDX 40 67 45 68 41 69 42 70 44 71 46 72 43 73 65 74 66 75 71 76
REMARK SMILES IDX 67 77 68 78 70 79 72 80 69 81 53 82 54 83 59 84 55 85 56 86
REMARK SMILES IDX 58 87 60 88 57 89
REMARK H PARENT 10 19 77 51 51 62
REMARK Flexibility Score: inf
ROOT
ATOM      1  C   UNL A   1      31.424  28.942  24.890  1.00  0.00     0.188 C 
ENDROOT
BRANCH   1   2
ATOM      2  O   UNL A   1      31.281  28.737  23.488  1.00  0.00    -0.376 OA
BRANCH   2   3
ATOM      3  C   UNL A   1      30.257  27.877  23.024  1.00  0.00     0.202 C 
BRANCH   3   4
ATOM      4  C   UNL A   1      29.625  26.989  24.114  1.00  0.00     0.261 C 
BRANCH   4   5
ATOM      5  O   UNL A   1      30.159  25.644  24.276  1.00  0.00    -0.463 OA
BRANCH   5   6
ATOM      6  C   UNL A   1      30.713  25.359  25.479  1.00  0.00     0.309 C 
ATOM      7  O   UNL A   1      30.128  25.581  26.531  1.00  0.00    -0.252 OA
BRANCH   6   8
ATOM      8  C   UNL A   1      32.177  24.982  25.479  1.00  0.00     0.164 C 
BRANCH   8   9
ATOM      9  C   UNL A   1      33.147  24.645  24.337  1.00  0.00     0.118 C 
ATOM     10  C   UNL A   1      37.863  23.305  25.788  1.00  0.00    -0.024 A 
ATOM     11  C   UNL A   1      38.486  22.040  25.861  1.00  0.00     0.006 A 
ATOM     12  C   UNL A   1      36.562  23.306  25.210  1.00  0.00     0.049 A 
ATOM     13  C   UNL A   1      37.882  20.880  25.381  1.00  0.00     0.001 A 
ATOM     14  C   UNL A   1      35.920  22.147  24.765  1.00  0.00     0.003 A 
ATOM     15  N   UNL A   1      35.650  24.337  25.026  1.00  0.00    -0.356 N 
ATOM     16  C   UNL A   1      36.609  20.922  24.816  1.00  0.00     0.010 A 
ATOM     17  C   UNL A   1      34.617  22.521  24.340  1.00  0.00    -0.014 A 
ATOM     18  C   UNL A   1      34.411  23.850  24.649  1.00  0.00     0.052 A 
ATOM     19  H   UNL A   1      35.858  25.291  25.148  1.00  0.00     0.166 HD
ATOM     20  C   UNL A   1      33.591  21.732  23.618  1.00  0.00     0.066 C 
ATOM     21  C   UNL A   1      32.282  22.524  23.513  1.00  0.00     0.166 C 
ATOM     22  O   UNL A   1      32.466  23.933  23.279  1.00  0.00    -0.368 OA
BRANCH  10  23
ATOM     23  C   UNL A   1      38.503  24.541  26.391  1.00  0.00     0.034 C 
ATOM     24  C   UNL A   1      39.222  24.375  27.731  1.00  0.00     0.009 C 
ENDBRANCH  10  23
BRANCH   9  25
ATOM     25  C   UNL A   1      33.616  26.028  23.745  1.00  0.00     0.039 C 
ATOM     26  C   UNL A   1      33.429  26.227  22.244  1.00  0.00     0.007 C 
ENDBRANCH   9  25
ENDBRANCH   8   9
ENDBRANCH   6   8
ENDBRANCH   5   6
ENDBRANCH   4   5
ENDBRANCH   3   4
ENDBRANCH   2   3
ENDBRANCH   1   2
BRANCH   1  27
ATOM     27  C   UNL A   1      31.686  30.359  25.444  1.00  0.00     0.188 C 
BRANCH  27  28
ATOM     28  O   UNL A   1      32.511  30.439  26.599  1.00  0.00    -0.376 OA
BRANCH  28  29
ATOM     29  C   UNL A   1      33.797  29.836  26.466  1.00  0.00     0.202 C 
BRANCH  29  30
ATOM     30  C   UNL A   1      34.436  29.334  27.777  1.00  0.00     0.261 C 
BRANCH  30  31
ATOM     31  O   UNL A   1      35.879  29.309  27.643  1.00  0.00    -0.460 OA
BRANCH  31  32
ATOM     32  C   UNL A   1      36.584  29.446  28.802  1.00  0.00     0.338 C 
ATOM     33  O   UNL A   1      36.129  29.484  29.915  1.00  0.00    -0.246 OA
BRANCH  32  34
ATOM     34  C   UNL A   1      38.010  29.133  28.481  1.00  0.00     0.060 A 
ATOM     35  C   UNL A   1      38.697  29.510  27.332  1.00  0.00     0.016 A 
ATOM     36  C   UNL A   1      38.641  28.280  29.380  1.00  0.00     0.016 A 
ATOM     37  C   UNL A   1      39.994  28.990  27.098  1.00  0.00     0.010 A 
ATOM     38  C   UNL A   1      39.906  27.741  29.138  1.00  0.00     0.010 A 
ATOM     39  C   UNL A   1      40.598  28.066  27.979  1.00  0.00    -0.014 A 
BRANCH  39  40
ATOM     40  C   UNL A   1      42.046  27.758  27.924  1.00  0.00     0.031 A 
ATOM     41  C   UNL A   1      42.297  26.554  27.112  1.00  0.00     0.074 A 
ATOM     42  C   UNL A   1      43.182  28.358  28.363  1.00  0.00     0.049 A 
ATOM     43  N   UNL A   1      42.538  25.399  27.623  1.00  0.00    -0.248 NA
ATOM     44  C   UNL A   1      42.203  26.578  25.653  1.00  0.00     0.031 C 
ATOM     45  C   UNL A   1      43.381  29.574  29.129  1.00  0.00     0.029 A 
ATOM     46  N   UNL A   1      44.486  27.956  28.158  1.00  0.00    -0.354 N 
ATOM     47  C   UNL A   1      42.807  24.558  26.567  1.00  0.00     0.074 A 
ATOM     48  C   UNL A   1      42.470  25.297  25.371  1.00  0.00     0.031 C 
ATOM     49  C   UNL A   1      44.673  29.969  29.105  1.00  0.00     0.029 A 
ATOM     50  C   UNL A   1      45.448  28.884  28.542  1.00  0.00     0.049 A 
ATOM     51  H   UNL A   1      44.719  27.081  27.771  1.00  0.00     0.167 HD
ATOM     52  C   UNL A   1      43.464  23.390  26.792  1.00  0.00     0.037 A 
ATOM     53  C   UNL A   1      46.793  28.755  28.639  1.00  0.00     0.037 A 
ATOM     54  C   UNL A   1      43.511  23.065  28.204  1.00  0.00     0.049 A 
ATOM     55  C   UNL A   1      47.051  27.336  28.960  1.00  0.00     0.074 A 
ATOM     56  C   UNL A   1      42.561  22.958  29.207  1.00  0.00     0.029 A 
ATOM     57  N   UNL A   1      44.712  23.170  28.866  1.00  0.00    -0.354 N 
ATOM     58  N   UNL A   1      46.772  26.790  30.113  1.00  0.00    -0.248 NA
ATOM     59  C   UNL A   1      47.263  26.409  27.863  1.00  0.00     0.031 C 
ATOM     60  C   UNL A   1      43.176  23.524  30.366  1.00  0.00     0.029 A 
ATOM     61  C   UNL A   1      44.474  23.890  30.011  1.00  0.00     0.049 A 
ATOM     62  H   UNL A   1      45.577  22.801  28.574  1.00  0.00     0.167 HD
ATOM     63  C   UNL A   1      46.315  25.523  29.789  1.00  0.00     0.074 A 
ATOM     64  C   UNL A   1      46.762  25.303  28.416  1.00  0.00     0.031 C 
ATOM     65  C   UNL A   1      45.385  24.875  30.553  1.00  0.00     0.037 A 
BRANCH  52  66
ATOM     66  C   UNL A   1      44.325  22.704  25.777  1.00  0.00     0.057 A 
ATOM     67  C   UNL A   1      45.467  23.282  25.193  1.00  0.00     0.134 A 
ATOM     68  C   UNL A   1      44.165  21.326  25.568  1.00  0.00     0.134 A 
ATOM     69  F   UNL A   1      45.803  24.564  25.396  1.00  0.00    -0.206 F 
ATOM     70  C   UNL A   1      46.386  22.540  24.448  1.00  0.00     0.040 A 
ATOM     71  C   UNL A   1      45.106  20.563  24.872  1.00  0.00     0.040 A 
ATOM     72  F   UNL A   1      43.127  20.664  26.102  1.00  0.00    -0.206 F 
ATOM     73  C   UNL A   1      46.222  21.170  24.310  1.00  0.00     0.006 A 
ENDBRANCH  52  66
BRANCH  53  74
ATOM     74  C   UNL A   1      47.844  29.792  28.579  1.00  0.00     0.057 A 
ATOM     75  C   UNL A   1      48.051  30.528  27.398  1.00  0.00     0.134 A 
ATOM     76  C   UNL A   1      48.827  29.932  29.568  1.00  0.00     0.134 A 
ATOM     77  F   UNL A   1      47.209  30.408  26.360  1.00  0.00    -0.206 F 
ATOM     78  C   UNL A   1      49.168  31.349  27.206  1.00  0.00     0.040 A 
ATOM     79  C   UNL A   1      49.954  30.749  29.389  1.00  0.00     0.040 A 
ATOM     80  F   UNL A   1      48.750  29.241  30.713  1.00  0.00    -0.206 F 
ATOM     81  C   UNL A   1      50.132  31.452  28.201  1.00  0.00     0.006 A 
ENDBRANCH  53  74
BRANCH  65  82
ATOM     82  C   UNL A   1      45.099  25.384  31.942  1.00  0.00     0.057 A 
ATOM     83  C   UNL A   1      44.106  26.362  32.103  1.00  0.00     0.134 A 
ATOM     84  C   UNL A   1      45.843  25.058  33.086  1.00  0.00     0.134 A 
ATOM     85  F   UNL A   1      43.379  26.767  31.049  1.00  0.00    -0.206 F 
ATOM     86  C   UNL A   1      43.860  26.979  33.333  1.00  0.00     0.040 A 
ATOM     87  C   UNL A   1      45.585  25.645  34.331  1.00  0.00     0.040 A 
ATOM     88  F   UNL A   1      46.875  24.206  33.026  1.00  0.00    -0.206 F 
ATOM     89  C   UNL A   1      44.594  26.613  34.457  1.00  0.00     0.006 A 
ENDBRANCH  65  82
ENDBRANCH  39  40
ENDBRANCH  32  34
ENDBRANCH  31  32
ENDBRANCH  30  31
ENDBRANCH  29  30
ENDBRANCH  28  29
ENDBRANCH  27  28
ENDBRANCH   1  27
TORSDOF 20
ENDMDL
MODEL 2
REMARK VINA RESULT:      -9.8      2.347      6.547
REMARK SMILES CCc1cccc2c3c([nH]c12)[C@](CC)(CC(=O)OCCOCCOCCOC(=O)c1ccc(-c2c4nc(c(-c5c(F)cccc5F)c5ccc([nH]5)c(-c5c(F)cccc5F)c5nc(c(-c6c(F)cccc6F)c6ccc2[nH]6)C=C5)C=C4)cc1)OCC3
REMARK SMILES IDX 22 1 21 2 20 3 19 4 18 5 16 6 17 7 15 8 12 9 3 10 4 11 11 12
REMARK SMILES IDX 5 13 7 14 10 15 6 16 8 17 9 18 86 20 85 21 84 22 2 23 1 24
REMARK SMILES IDX 13 25 14 26 23 27 24 28 25 29 26 30 27 31 28 32 29 33 30 34
REMARK SMILES IDX 31 35 83 36 32 37 82 38 33 39 34 40 35 41 76 42 36 43 81 44
REMARK SMILES IDX 75 45 77 46 37 47 80 48 74 49 73 50 38 52 64 53 47 54 63 55
REMARK SMILES IDX 48 56 51 57 62 58 78 59 49 60 50 61 61 63 79 64 52 65 39 66
REMARK SMILES IDX 40 67 45 68 41 69 42 70 44 71 46 72 43 73 65 74 66 75 71 76
REMARK SMILES IDX 67 77 68 78 70 79 72 80 69 81 53 82 54 83 59 84 55 85 56 86
REMARK SMILES IDX 58 87 60 88 57 89
REMARK H PARENT 10 19 77 51 51 62
REMARK Flexibility Score: inf
ROOT
ATOM      1  C   UNL A   1      31.830  28.275  25.753  1.00  0.00     0.188 C 
ENDROOT
BRANCH   1   2
ATOM      2  O   UNL A   1      31.453  28.907  24.533  1.00  0.00    -0.376 OA
BRANCH   2   3
ATOM      3  C   UNL A   1      30.423  28.328  23.754  1.00  0.00     0.202 C 
BRANCH   3   4
ATOM      4  C   UNL A   1      30.917  27.400  22.628  1.00  0.00     0.261 C 
BRANCH   4   5
ATOM      5  O   UNL A   1      32.351  27.166  22.533  1.00  0.00    -0.463 OA
BRANCH   5   6
ATOM      6  C   UNL A   1      32.732  25.930  22.129  1.00  0.00     0.309 C 
ATOM      7  O   UNL A   1      33.394  25.755  21.114  1.00  0.00    -0.252 OA
BRANCH   6   8
ATOM      8  C   UNL A   1      32.103  24.757  22.847  1.00  0.00     0.164 C 
BRANCH   8   9
ATOM      9  C   UNL A   1      32.341  24.167  24.245  1.00  0.00     0.118 C 
ATOM     10  C   UNL A   1      33.662  19.228  24.344  1.00  0.00    -0.024 A 
ATOM     11  C   UNL A   1      34.913  18.607  24.546  1.00  0.00     0.006 A 
ATOM     12  C   UNL A   1      33.653  20.642  24.512  1.00  0.00     0.049 A 
ATOM     13  C   UNL A   1      36.053  19.322  24.907  1.00  0.00     0.001 A 
ATOM     14  C   UNL A   1      34.796  21.383  24.828  1.00  0.00     0.003 A 
ATOM     15  N   UNL A   1      32.635  21.571  24.346  1.00  0.00    -0.356 N 
ATOM     16  C   UNL A   1      36.004  20.706  25.067  1.00  0.00     0.010 A 
ATOM     17  C   UNL A   1      34.425  22.755  24.823  1.00  0.00    -0.014 A 
ATOM     18  C   UNL A   1      33.125  22.865  24.375  1.00  0.00     0.052 A 
ATOM     19  H   UNL A   1      31.686  21.340  24.225  1.00  0.00     0.166 HD
ATOM     20  C   UNL A   1      35.190  23.945  25.264  1.00  0.00     0.066 C 
ATOM     21  C   UNL A   1      34.424  25.230  24.923  1.00  0.00     0.166 C 
ATOM     22  O   UNL A   1      32.998  25.128  25.102  1.00  0.00    -0.368 OA
BRANCH  10  23
ATOM     23  C   UNL A   1      32.453  18.442  23.871  1.00  0.00     0.034 C 
ATOM     24  C   UNL A   1      32.382  18.094  22.383  1.00  0.00     0.009 C 
ENDBRANCH  10  23
BRANCH   9  25
ATOM     25  C   UNL A   1      30.912  23.898  24.851  1.00  0.00     0.039 C 
ATOM     26  C   UNL A   1      30.739  24.174  26.341  1.00  0.00     0.007 C 
ENDBRANCH   9  25
ENDBRANCH   8   9
ENDBRANCH   6   8
ENDBRANCH   5   6
ENDBRANCH   4   5
ENDBRANCH   3   4
ENDBRANCH   2   3
ENDBRANCH   1   2
BRANCH   1  27
ATOM     27  C   UNL A   1      31.782  29.061  27.081  1.00  0.00     0.188 C 
BRANCH  27  28
ATOM     28  O   UNL A   1      32.256  30.401  27.035  1.00  0.00    -0.376 OA
BRANCH  28  29
ATOM     29  C   UNL A   1      33.650  30.558  27.296  1.00  0.00     0.202 C 
BRANCH  29  30
ATOM     30  C   UNL A   1      34.102  31.986  27.664  1.00  0.00     0.261 C 
BRANCH  30  31
ATOM     31  O   UNL A   1      34.282  32.091  29.098  1.00  0.00    -0.460 OA
BRANCH  31  32
ATOM     32  C   UNL A   1      35.427  32.709  29.508  1.00  0.00     0.338 C 
ATOM     33  O   UNL A   1      35.511  33.804  30.001  1.00  0.00    -0.246 OA
BRANCH  32  34
ATOM     34  C   UNL A   1      36.477  31.650  29.612  1.00  0.00     0.060 A 
ATOM     35  C   UNL A   1      36.282  30.336  30.018  1.00  0.00     0.016 A 
ATOM     36  C   UNL A   1      37.778  32.091  29.394  1.00  0.00     0.016 A 
ATOM     37  C   UNL A   1      37.407  29.501  30.229  1.00  0.00     0.010 A 
ATOM     38  C   UNL A   1      38.891  31.281  29.631  1.00  0.00     0.010 A 
ATOM     39  C   UNL A   1      38.729  29.977  30.076  1.00  0.00    -0.014 A 
BRANCH  39  40
ATOM     40  C   UNL A   1      39.889  29.061  29.984  1.00  0.00     0.031 A 
ATOM     41  C   UNL A   1      40.453  28.790  31.318  1.00  0.00     0.074 A 
ATOM     42  C   UNL A   1      40.491  28.356  28.991  1.00  0.00     0.049 A 
ATOM     43  N   UNL A   1      41.519  29.357  31.759  1.00  0.00    -0.248 NA
ATOM     44  C   UNL A   1      39.780  27.910  32.273  1.00  0.00     0.031 C 
ATOM     45  C   UNL A   1      40.211  28.286  27.570  1.00  0.00     0.029 A 
ATOM     46  N   UNL A   1      41.548  27.475  29.099  1.00  0.00    -0.354 N 
ATOM     47  C   UNL A   1      41.779  28.790  32.986  1.00  0.00     0.074 A 
ATOM     48  C   UNL A   1      40.617  27.995  33.314  1.00  0.00     0.031 C 
ATOM     49  C   UNL A   1      40.855  27.251  26.988  1.00  0.00     0.029 A 
ATOM     50  C   UNL A   1      41.810  26.740  27.948  1.00  0.00     0.049 A 
ATOM     51  H   UNL A   1      42.075  27.374  29.924  1.00  0.00     0.167 HD
ATOM     52  C   UNL A   1      43.023  28.895  33.523  1.00  0.00     0.037 A 
ATOM     53  C   UNL A   1      42.855  25.929  27.653  1.00  0.00     0.037 A 
ATOM     54  C   UNL A   1      43.825  29.882  32.827  1.00  0.00     0.049 A 
ATOM     55  C   UNL A   1      44.014  26.455  28.403  1.00  0.00     0.074 A 
ATOM     56  C   UNL A   1      43.643  31.211  32.481  1.00  0.00     0.029 A 
ATOM     57  N   UNL A   1      44.859  29.449  32.030  1.00  0.00    -0.354 N 
ATOM     58  N   UNL A   1      44.618  27.576  28.114  1.00  0.00    -0.248 NA
ATOM     59  C   UNL A   1      44.269  25.932  29.733  1.00  0.00     0.031 C 
ATOM     60  C   UNL A   1      44.199  31.337  31.171  1.00  0.00     0.029 A 
ATOM     61  C   UNL A   1      44.729  30.095  30.824  1.00  0.00     0.049 A 
ATOM     62  H   UNL A   1      45.558  28.801  32.276  1.00  0.00     0.167 HD
ATOM     63  C   UNL A   1      44.930  28.124  29.348  1.00  0.00     0.074 A 
ATOM     64  C   UNL A   1      44.812  27.015  30.291  1.00  0.00     0.031 C 
ATOM     65  C   UNL A   1      44.988  29.475  29.541  1.00  0.00     0.037 A 
BRANCH  52  66
ATOM     66  C   UNL A   1      43.614  27.896  34.468  1.00  0.00     0.057 A 
ATOM     67  C   UNL A   1      43.859  28.149  35.830  1.00  0.00     0.134 A 
ATOM     68  C   UNL A   1      43.701  26.552  34.072  1.00  0.00     0.134 A 
ATOM     69  F   UNL A   1      43.710  29.367  36.369  1.00  0.00    -0.206 F 
ATOM     70  C   UNL A   1      44.171  27.134  36.737  1.00  0.00     0.040 A 
ATOM     71  C   UNL A   1      43.957  25.523  34.982  1.00  0.00     0.040 A 
ATOM     72  F   UNL A   1      43.459  26.191  32.803  1.00  0.00    -0.206 F 
ATOM     73  C   UNL A   1      44.193  25.812  36.319  1.00  0.00     0.006 A 
ENDBRANCH  52  66
BRANCH  53  74
ATOM     74  C   UNL A   1      42.933  24.810  26.691  1.00  0.00     0.057 A 
ATOM     75  C   UNL A   1      42.444  23.537  27.038  1.00  0.00     0.134 A 
ATOM     76  C   UNL A   1      43.694  24.874  25.515  1.00  0.00     0.134 A 
ATOM     77  F   UNL A   1      41.768  23.352  28.183  1.00  0.00    -0.206 F 
ATOM     78  C   UNL A   1      42.698  22.396  26.269  1.00  0.00     0.040 A 
ATOM     79  C   UNL A   1      43.959  23.737  24.736  1.00  0.00     0.040 A 
ATOM     80  F   UNL A   1      44.245  26.028  25.118  1.00  0.00    -0.206 F 
ATOM     81  C   UNL A   1      43.469  22.492  25.118  1.00  0.00     0.006 A 
ENDBRANCH  53  74
BRANCH  65  82
ATOM     82  C   UNL A   1      45.052  30.384  28.341  1.00  0.00     0.057 A 
ATOM     83  C   UNL A   1      46.301  30.891  27.954  1.00  0.00     0.134 A 
ATOM     84  C   UNL A   1      43.936  30.881  27.651  1.00  0.00     0.134 A 
ATOM     85  F   UNL A   1      47.416  30.503  28.594  1.00  0.00    -0.206 F 
ATOM     86  C   UNL A   1      46.438  31.835  26.932  1.00  0.00     0.040 A 
ATOM     87  C   UNL A   1      44.062  31.803  26.604  1.00  0.00     0.040 A 
ATOM     88  F   UNL A   1      42.690  30.536  28.001  1.00  0.00    -0.206 F 
ATOM     89  C   UNL A   1      45.315  32.288  26.245  1.00  0.00     0.006 A 
ENDBRANCH  65  82
ENDBRANCH  39  40
ENDBRANCH  32  34
ENDBRANCH  31  32
ENDBRANCH  30  31
ENDBRANCH  29  30
ENDBRANCH  28  29
ENDBRANCH  27  28
ENDBRANCH   1  27
TORSDOF 20
ENDMDL
MODEL 3
REMARK VINA RESULT:      -9.7      2.410      6.199
REMARK SMILES CCc1cccc2c3c([nH]c12)[C@](CC)(CC(=O)OCCOCCOCCOC(=O)c1ccc(-c2c4nc(c(-c5c(F)cccc5F)c5ccc([nH]5)c(-c5c(F)cccc5F)c5nc(c(-c6c(F)cccc6F)c6ccc2[nH]6)C=C5)C=C4)cc1)OCC3
REMARK SMILES IDX 22 1 21 2 20 3 19 4 18 5 16 6 17 7 15 8 12 9 3 10 4 11 11 12
REMARK SMILES IDX 5 13 7 14 10 15 6 16 8 17 9 18 86 20 85 21 84 22 2 23 1 24
REMARK SMILES IDX 13 25 14 26 23 27 24 28 25 29 26 30 27 31 28 32 29 33 30 34
REMARK SMILES IDX 31 35 83 36 32 37 82 38 33 39 34 40 35 41 76 42 36 43 81 44
REMARK SMILES IDX 75 45 77 46 37 47 80 48 74 49 73 50 38 52 64 53 47 54 63 55
REMARK SMILES IDX 48 56 51 57 62 58 78 59 49 60 50 61 61 63 79 64 52 65 39 66
REMARK SMILES IDX 40 67 45 68 41 69 42 70 44 71 46 72 43 73 65 74 66 75 71 76
REMARK SMILES IDX 67 77 68 78 70 79 72 80 69 81 53 82 54 83 59 84 55 85 56 86
REMARK SMILES IDX 58 87 60 88 57 89
REMARK H PARENT 10 19 77 51 51 62
REMARK Flexibility Score: inf
ROOT
ATOM      1  C   UNL A   1      30.849  26.635  25.793  1.00  0.00     0.188 C 
ENDROOT
BRANCH   1   2
ATOM      2  O   UNL A   1      31.609  25.461  25.522  1.00  0.00    -0.376 OA
BRANCH   2   3
ATOM      3  C   UNL A   1      30.943  24.318  25.018  1.00  0.00     0.202 C 
BRANCH   3   4
ATOM      4  C   UNL A   1      30.900  23.123  25.989  1.00  0.00     0.261 C 
BRANCH   4   5
ATOM      5  O   UNL A   1      32.103  22.311  26.109  1.00  0.00    -0.463 OA
BRANCH   5   6
ATOM      6  C   UNL A   1      32.840  22.491  27.231  1.00  0.00     0.309 C 
ATOM      7  O   UNL A   1      32.353  22.393  28.350  1.00  0.00    -0.252 OA
BRANCH   6   8
ATOM      8  C   UNL A   1      34.230  23.058  27.046  1.00  0.00     0.164 C 
BRANCH   8   9
ATOM      9  C   UNL A   1      35.157  23.115  25.823  1.00  0.00     0.118 C 
ATOM     10  C   UNL A   1      40.126  23.729  26.864  1.00  0.00    -0.024 A 
ATOM     11  C   UNL A   1      41.195  22.807  26.857  1.00  0.00     0.006 A 
ATOM     12  C   UNL A   1      38.883  23.219  26.391  1.00  0.00     0.049 A 
ATOM     13  C   UNL A   1      41.052  21.499  26.400  1.00  0.00     0.001 A 
ATOM     14  C   UNL A   1      38.708  21.897  25.971  1.00  0.00     0.003 A 
ATOM     15  N   UNL A   1      37.630  23.811  26.305  1.00  0.00    -0.356 N 
ATOM     16  C   UNL A   1      39.820  21.037  25.939  1.00  0.00     0.010 A 
ATOM     17  C   UNL A   1      37.332  21.730  25.660  1.00  0.00    -0.014 A 
ATOM     18  C   UNL A   1      36.652  22.877  26.015  1.00  0.00     0.052 A 
ATOM     19  H   UNL A   1      37.460  24.772  26.432  1.00  0.00     0.166 HD
ATOM     20  C   UNL A   1      36.638  20.597  25.004  1.00  0.00     0.066 C 
ATOM     21  C   UNL A   1      35.120  20.816  25.021  1.00  0.00     0.166 C 
ATOM     22  O   UNL A   1      34.722  22.184  24.807  1.00  0.00    -0.368 OA
BRANCH  10  23
ATOM     23  C   UNL A   1      40.282  25.122  27.443  1.00  0.00     0.034 C 
ATOM     24  C   UNL A   1      39.082  25.710  28.187  1.00  0.00     0.009 C 
ENDBRANCH  10  23
BRANCH   9  25
ATOM     25  C   UNL A   1      35.002  24.565  25.228  1.00  0.00     0.039 C 
ATOM     26  C   UNL A   1      34.467  24.666  23.803  1.00  0.00     0.007 C 
ENDBRANCH   9  25
ENDBRANCH   8   9
ENDBRANCH   6   8
ENDBRANCH   5   6
ENDBRANCH   4   5
ENDBRANCH   3   4
ENDBRANCH   2   3
ENDBRANCH   1   2
BRANCH   1  27
ATOM     27  C   UNL A   1      31.238  27.979  25.140  1.00  0.00     0.188 C 
BRANCH  27  28
ATOM     28  O   UNL A   1      31.479  29.062  26.028  1.00  0.00    -0.376 OA
BRANCH  28  29
ATOM     29  C   UNL A   1      32.824  29.536  26.054  1.00  0.00     0.202 C 
BRANCH  29  30
ATOM     30  C   UNL A   1      33.115  30.661  27.067  1.00  0.00     0.261 C 
BRANCH  30  31
ATOM     31  O   UNL A   1      34.543  30.900  27.141  1.00  0.00    -0.460 OA
BRANCH  31  32
ATOM     32  C   UNL A   1      34.976  31.561  28.252  1.00  0.00     0.338 C 
ATOM     33  O   UNL A   1      34.292  32.161  29.039  1.00  0.00    -0.246 OA
BRANCH  32  34
ATOM     34  C   UNL A   1      36.361  31.072  28.535  1.00  0.00     0.060 A 
ATOM     35  C   UNL A   1      37.357  31.767  29.210  1.00  0.00     0.016 A 
ATOM     36  C   UNL A   1      36.685  29.856  27.943  1.00  0.00     0.016 A 
ATOM     37  C   UNL A   1      38.670  31.236  29.247  1.00  0.00     0.010 A 
ATOM     38  C   UNL A   1      37.985  29.344  27.951  1.00  0.00     0.010 A 
ATOM     39  C   UNL A   1      39.009  30.037  28.582  1.00  0.00    -0.014 A 
BRANCH  39  40
ATOM     40  C   UNL A   1      40.270  29.312  28.862  1.00  0.00     0.031 A 
ATOM     41  C   UNL A   1      40.443  29.094  30.309  1.00  0.00     0.074 A 
ATOM     42  C   UNL A   1      41.242  28.733  28.110  1.00  0.00     0.049 A 
ATOM     43  N   UNL A   1      41.228  29.806  31.037  1.00  0.00    -0.248 NA
ATOM     44  C   UNL A   1      39.658  28.097  31.036  1.00  0.00     0.031 C 
ATOM     45  C   UNL A   1      41.415  28.658  26.672  1.00  0.00     0.029 A 
ATOM     46  N   UNL A   1      42.340  28.021  28.548  1.00  0.00    -0.354 N 
ATOM     47  C   UNL A   1      41.192  29.253  32.298  1.00  0.00     0.074 A 
ATOM     48  C   UNL A   1      40.122  28.282  32.278  1.00  0.00     0.031 C 
ATOM     49  C   UNL A   1      42.355  27.749  26.332  1.00  0.00     0.029 A 
ATOM     50  C   UNL A   1      43.045  27.366  27.545  1.00  0.00     0.049 A 
ATOM     51  H   UNL A   1      42.605  27.981  29.496  1.00  0.00     0.167 HD
ATOM     52  C   UNL A   1      42.187  29.533  33.180  1.00  0.00     0.037 A 
ATOM     53  C   UNL A   1      44.242  26.731  27.594  1.00  0.00     0.037 A 
ATOM     54  C   UNL A   1      42.999  30.649  32.736  1.00  0.00     0.049 A 
ATOM     55  C   UNL A   1      45.028  27.409  28.646  1.00  0.00     0.074 A 
ATOM     56  C   UNL A   1      42.726  31.943  32.324  1.00  0.00     0.029 A 
ATOM     57  N   UNL A   1      44.277  30.400  32.295  1.00  0.00    -0.354 N 
ATOM     58  N   UNL A   1      45.511  28.616  28.528  1.00  0.00    -0.248 NA
ATOM     59  C   UNL A   1      44.950  26.896  30.002  1.00  0.00     0.031 C 
ATOM     60  C   UNL A   1      43.623  32.187  31.239  1.00  0.00     0.029 A 
ATOM     61  C   UNL A   1      44.418  31.050  31.093  1.00  0.00     0.049 A 
ATOM     62  H   UNL A   1      44.961  29.860  32.753  1.00  0.00     0.167 HD
ATOM     63  C   UNL A   1      45.351  29.172  29.787  1.00  0.00     0.074 A 
ATOM     64  C   UNL A   1      45.127  28.034  30.674  1.00  0.00     0.031 C 
ATOM     65  C   UNL A   1      45.141  30.511  29.961  1.00  0.00     0.037 A 
BRANCH  52  66
ATOM     66  C   UNL A   1      42.613  28.612  34.280  1.00  0.00     0.057 A 
ATOM     67  C   UNL A   1      43.120  27.316  34.070  1.00  0.00     0.134 A 
ATOM     68  C   UNL A   1      42.773  29.126  35.576  1.00  0.00     0.134 A 
ATOM     69  F   UNL A   1      43.132  26.740  32.861  1.00  0.00    -0.206 F 
ATOM     70  C   UNL A   1      43.740  26.580  35.082  1.00  0.00     0.040 A 
ATOM     71  C   UNL A   1      43.441  28.421  36.580  1.00  0.00     0.040 A 
ATOM     72  F   UNL A   1      42.353  30.364  35.882  1.00  0.00    -0.206 F 
ATOM     73  C   UNL A   1      43.928  27.144  36.335  1.00  0.00     0.006 A 
ENDBRANCH  52  66
BRANCH  53  74
ATOM     74  C   UNL A   1      44.776  25.663  26.723  1.00  0.00     0.057 A 
ATOM     75  C   UNL A   1      44.664  24.313  27.103  1.00  0.00     0.134 A 
ATOM     76  C   UNL A   1      45.615  25.925  25.631  1.00  0.00     0.134 A 
ATOM     77  F   UNL A   1      43.947  23.962  28.182  1.00  0.00    -0.206 F 
ATOM     78  C   UNL A   1      45.348  23.285  26.444  1.00  0.00     0.040 A 
ATOM     79  C   UNL A   1      46.308  24.905  24.962  1.00  0.00     0.040 A 
ATOM     80  F   UNL A   1      45.826  27.181  25.216  1.00  0.00    -0.206 F 
ATOM     81  C   UNL A   1      46.184  23.582  25.375  1.00  0.00     0.006 A 
ENDBRANCH  53  74
BRANCH  65  82
ATOM     82  C   UNL A   1      45.420  31.450  28.816  1.00  0.00     0.057 A 
ATOM     83  C   UNL A   1      44.401  31.684  27.881  1.00  0.00     0.134 A 
ATOM     84  C   UNL A   1      46.673  32.011  28.525  1.00  0.00     0.134 A 
ATOM     85  F   UNL A   1      43.184  31.144  28.059  1.00  0.00    -0.206 F 
ATOM     86  C   UNL A   1      44.609  32.440  26.724  1.00  0.00     0.040 A 
ATOM     87  C   UNL A   1      46.887  32.797  27.386  1.00  0.00     0.040 A 
ATOM     88  F   UNL A   1      47.739  31.773  29.300  1.00  0.00    -0.206 F 
ATOM     89  C   UNL A   1      45.855  33.009  26.478  1.00  0.00     0.006 A 
ENDBRANCH  65  82
ENDBRANCH  39  40
ENDBRANCH  32  34
ENDBRANCH  31  32
ENDBRANCH  30  31
ENDBRANCH  29  30
ENDBRANCH  28  29
ENDBRANCH  27  28
ENDBRANCH   1  27
TORSDOF 20
ENDMDL
