MODEL 1
REMARK VINA RESULT:      -9.7      0.000      0.000
REMARK SMILES CC(C)[C@H](NC(=O)OCc1ccccc1)C(=O)NCC(=O)OCCOCCOCCOC(=O)c1ccc(-c2c3nc(c(-c4c(F)cccc4F)c4ccc([nH]4)c(-c4c(F)cccc4F)c4nc(c(-c5c(F)cccc5F)c5ccc2[nH]5)C=C4)C=C3)cc1
REMARK SMILES IDX 24 1 23 2 22 3 20 4 21 5 19 6 18 7 16 8 17 9 4 11 2 12 1 13
REMARK SMILES IDX 3 14 5 15 6 16 7 18 8 19 9 20 10 21 11 22 15 23 12 24 14 25
REMARK SMILES IDX 13 26 25 27 26 28 27 29 28 30 29 31 30 32 31 33 32 34 33 35
REMARK SMILES IDX 34 36 35 37 87 38 36 39 86 40 37 41 38 42 39 43 80 44 40 45
REMARK SMILES IDX 85 46 79 47 81 48 41 49 84 50 78 51 77 52 42 54 68 55 51 56
REMARK SMILES IDX 67 57 52 58 55 59 66 60 82 61 53 62 54 63 65 65 83 66 56 67
REMARK SMILES IDX 43 68 44 69 49 70 45 71 46 72 48 73 50 74 47 75 69 76 70 77
REMARK SMILES IDX 75 78 71 79 72 80 74 81 76 82 73 83 57 84 58 85 63 86 59 87
REMARK SMILES IDX 60 88 62 89 64 90 61 91
REMARK H PARENT 18 10 5 17 81 53 55 64
REMARK Flexibility Score: inf
ROOT
ATOM      1  C   UNL A   1      38.992  21.879  26.121  1.00  0.00     0.202 C 
ENDROOT
BRANCH   1   2
ATOM      2  C   UNL A   1      37.655  21.951  25.364  1.00  0.00     0.261 C 
BRANCH   2   3
ATOM      3  O   UNL A   1      36.637  22.659  26.100  1.00  0.00    -0.462 OA
BRANCH   3   4
ATOM      4  C   UNL A   1      35.374  22.188  25.966  1.00  0.00     0.325 C 
ATOM      5  O   UNL A   1      34.491  22.284  26.812  1.00  0.00    -0.250 OA
BRANCH   4   6
ATOM      6  C   UNL A   1      35.063  21.704  24.557  1.00  0.00     0.238 C 
BRANCH   6   7
ATOM      7  N   UNL A   1      33.702  21.377  24.162  1.00  0.00    -0.343 N 
ATOM      8  C   UNL A   1      32.840  22.100  23.387  1.00  0.00     0.243 C 
ATOM      9  O   UNL A   1      32.032  21.466  22.702  1.00  0.00    -0.273 OA
ATOM     10  H   UNL A   1      33.355  20.519  24.499  1.00  0.00     0.164 HD
BRANCH   8  11
ATOM     11  C   UNL A   1      32.927  23.644  23.290  1.00  0.00     0.177 C 
BRANCH  11  12
ATOM     12  C   UNL A   1      32.177  24.467  24.368  1.00  0.00     0.015 C 
ATOM     13  C   UNL A   1      31.022  23.766  25.083  1.00  0.00     0.010 C 
ATOM     14  C   UNL A   1      33.138  25.029  25.420  1.00  0.00     0.010 C 
ENDBRANCH  11  12
BRANCH  11  15
ATOM     15  N   UNL A   1      32.608  24.107  21.938  1.00  0.00    -0.309 N 
ATOM     16  C   UNL A   1      33.130  25.175  21.284  1.00  0.00     0.408 C 
ATOM     17  H   UNL A   1      31.937  23.581  21.445  1.00  0.00     0.167 HD
ATOM     18  O   UNL A   1      32.840  25.378  20.110  1.00  0.00    -0.225 OA
BRANCH  16  19
ATOM     19  O   UNL A   1      33.939  25.940  22.045  1.00  0.00    -0.445 OA
BRANCH  19  20
ATOM     20  C   UNL A   1      33.704  27.350  21.946  1.00  0.00     0.270 C 
BRANCH  20  21
ATOM     21  C   UNL A   1      32.944  27.927  23.120  1.00  0.00    -0.011 A 
ATOM     22  C   UNL A   1      31.545  28.003  23.158  1.00  0.00     0.007 A 
ATOM     23  C   UNL A   1      33.670  28.345  24.246  1.00  0.00     0.007 A 
ATOM     24  C   UNL A   1      30.889  28.483  24.293  1.00  0.00     0.000 A 
ATOM     25  C   UNL A   1      33.013  28.828  25.379  1.00  0.00     0.000 A 
ATOM     26  C   UNL A   1      31.623  28.894  25.403  1.00  0.00     0.000 A 
ENDBRANCH  20  21
ENDBRANCH  19  20
ENDBRANCH  16  19
ENDBRANCH  11  15
ENDBRANCH   8  11
ENDBRANCH   6   7
ENDBRANCH   4   6
ENDBRANCH   3   4
ENDBRANCH   2   3
ENDBRANCH   1   2
BRANCH   1  27
ATOM     27  O   UNL A   1      39.831  20.737  25.921  1.00  0.00    -0.376 OA
BRANCH  27  28
ATOM     28  C   UNL A   1      40.801  20.426  26.910  1.00  0.00     0.188 C 
BRANCH  28  29
ATOM     29  C   UNL A   1      42.266  20.319  26.472  1.00  0.00     0.188 C 
BRANCH  29  30
ATOM     30  O   UNL A   1      42.611  21.120  25.368  1.00  0.00    -0.376 OA
BRANCH  30  31
ATOM     31  C   UNL A   1      43.287  22.356  25.591  1.00  0.00     0.202 C 
BRANCH  31  32
ATOM     32  C   UNL A   1      42.888  23.292  26.755  1.00  0.00     0.261 C 
BRANCH  32  33
ATOM     33  O   UNL A   1      43.328  24.660  26.688  1.00  0.00    -0.460 OA
BRANCH  33  34
ATOM     34  C   UNL A   1      42.488  25.567  26.130  1.00  0.00     0.338 C 
ATOM     35  O   UNL A   1      42.021  25.538  25.007  1.00  0.00    -0.246 OA
BRANCH  34  36
ATOM     36  C   UNL A   1      42.001  26.434  27.236  1.00  0.00     0.060 A 
ATOM     37  C   UNL A   1      42.577  27.705  27.402  1.00  0.00     0.016 A 
ATOM     38  C   UNL A   1      40.928  26.040  28.037  1.00  0.00     0.016 A 
ATOM     39  C   UNL A   1      42.093  28.577  28.382  1.00  0.00     0.010 A 
ATOM     40  C   UNL A   1      40.467  26.899  29.038  1.00  0.00     0.010 A 
ATOM     41  C   UNL A   1      41.062  28.158  29.233  1.00  0.00    -0.014 A 
BRANCH  41  42
ATOM     42  C   UNL A   1      40.758  28.902  30.480  1.00  0.00     0.031 A 
ATOM     43  C   UNL A   1      39.645  29.911  30.429  1.00  0.00     0.074 A 
ATOM     44  C   UNL A   1      41.471  28.740  31.608  1.00  0.00     0.049 A 
ATOM     45  N   UNL A   1      39.305  30.823  31.299  1.00  0.00    -0.248 NA
ATOM     46  C   UNL A   1      38.812  29.891  29.214  1.00  0.00     0.031 C 
ATOM     47  C   UNL A   1      42.534  27.760  31.810  1.00  0.00     0.029 A 
ATOM     48  N   UNL A   1      41.420  29.434  32.794  1.00  0.00    -0.354 N 
ATOM     49  C   UNL A   1      38.237  31.503  30.727  1.00  0.00     0.074 A 
ATOM     50  C   UNL A   1      37.994  30.907  29.433  1.00  0.00     0.031 C 
ATOM     51  C   UNL A   1      43.059  27.936  33.037  1.00  0.00     0.029 A 
ATOM     52  C   UNL A   1      42.400  29.071  33.684  1.00  0.00     0.049 A 
ATOM     53  H   UNL A   1      40.745  30.125  32.985  1.00  0.00     0.167 HD
ATOM     54  C   UNL A   1      37.527  32.537  31.233  1.00  0.00     0.037 A 
ATOM     55  C   UNL A   1      42.752  29.624  34.863  1.00  0.00     0.037 A 
ATOM     56  C   UNL A   1      37.774  33.131  32.517  1.00  0.00     0.049 A 
ATOM     57  C   UNL A   1      42.001  30.829  35.375  1.00  0.00     0.074 A 
ATOM     58  C   UNL A   1      37.102  34.175  33.127  1.00  0.00     0.029 A 
ATOM     59  N   UNL A   1      38.782  32.738  33.385  1.00  0.00    -0.354 N 
ATOM     60  N   UNL A   1      40.989  31.464  34.835  1.00  0.00    -0.248 NA
ATOM     61  C   UNL A   1      42.448  31.400  36.656  1.00  0.00     0.031 C 
ATOM     62  C   UNL A   1      37.735  34.448  34.343  1.00  0.00     0.029 A 
ATOM     63  C   UNL A   1      38.765  33.536  34.515  1.00  0.00     0.049 A 
ATOM     64  H   UNL A   1      39.415  32.003  33.221  1.00  0.00     0.167 HD
ATOM     65  C   UNL A   1      40.656  32.481  35.723  1.00  0.00     0.074 A 
ATOM     66  C   UNL A   1      41.576  32.383  36.837  1.00  0.00     0.031 C 
ATOM     67  C   UNL A   1      39.672  33.409  35.627  1.00  0.00     0.037 A 
BRANCH  54  68
ATOM     68  C   UNL A   1      36.448  33.117  30.369  1.00  0.00     0.057 A 
ATOM     69  C   UNL A   1      36.732  33.983  29.305  1.00  0.00     0.134 A 
ATOM     70  C   UNL A   1      35.105  32.796  30.603  1.00  0.00     0.134 A 
ATOM     71  F   UNL A   1      37.997  34.347  29.044  1.00  0.00    -0.206 F 
ATOM     72  C   UNL A   1      35.716  34.530  28.520  1.00  0.00     0.040 A 
ATOM     73  C   UNL A   1      34.083  33.315  29.807  1.00  0.00     0.040 A 
ATOM     74  F   UNL A   1      34.765  31.973  31.606  1.00  0.00    -0.206 F 
ATOM     75  C   UNL A   1      34.387  34.189  28.766  1.00  0.00     0.006 A 
ENDBRANCH  54  68
BRANCH  55  76
ATOM     76  C   UNL A   1      43.894  29.067  35.635  1.00  0.00     0.057 A 
ATOM     77  C   UNL A   1      45.199  29.534  35.438  1.00  0.00     0.134 A 
ATOM     78  C   UNL A   1      43.711  28.043  36.572  1.00  0.00     0.134 A 
ATOM     79  F   UNL A   1      45.442  30.494  34.533  1.00  0.00    -0.206 F 
ATOM     80  C   UNL A   1      46.282  28.997  36.137  1.00  0.00     0.040 A 
ATOM     81  C   UNL A   1      44.781  27.513  37.296  1.00  0.00     0.040 A 
ATOM     82  F   UNL A   1      42.487  27.548  36.804  1.00  0.00    -0.206 F 
ATOM     83  C   UNL A   1      46.072  27.987  37.074  1.00  0.00     0.006 A 
ENDBRANCH  55  76
BRANCH  67  84
ATOM     84  C   UNL A   1      39.486  34.360  36.774  1.00  0.00     0.057 A 
ATOM     85  C   UNL A   1      38.809  33.991  37.943  1.00  0.00     0.134 A 
ATOM     86  C   UNL A   1      40.078  35.629  36.741  1.00  0.00     0.134 A 
ATOM     87  F   UNL A   1      38.213  32.793  38.034  1.00  0.00    -0.206 F 
ATOM     88  C   UNL A   1      38.726  34.855  39.037  1.00  0.00     0.040 A 
ATOM     89  C   UNL A   1      40.023  36.491  37.837  1.00  0.00     0.040 A 
ATOM     90  F   UNL A   1      40.750  36.039  35.654  1.00  0.00    -0.206 F 
ATOM     91  C   UNL A   1      39.344  36.104  38.990  1.00  0.00     0.006 A 
ENDBRANCH  67  84
ENDBRANCH  41  42
ENDBRANCH  34  36
ENDBRANCH  33  34
ENDBRANCH  32  33
ENDBRANCH  31  32
ENDBRANCH  30  31
ENDBRANCH  29  30
ENDBRANCH  28  29
ENDBRANCH  27  28
ENDBRANCH   1  27
TORSDOF 24
ENDMDL
MODEL 2
REMARK VINA RESULT:      -9.4      5.379      9.248
REMARK SMILES CC(C)[C@H](NC(=O)OCc1ccccc1)C(=O)NCC(=O)OCCOCCOCCOC(=O)c1ccc(-c2c3nc(c(-c4c(F)cccc4F)c4ccc([nH]4)c(-c4c(F)cccc4F)c4nc(c(-c5c(F)cccc5F)c5ccc2[nH]5)C=C4)C=C3)cc1
REMARK SMILES IDX 24 1 23 2 22 3 20 4 21 5 19 6 18 7 16 8 17 9 4 11 2 12 1 13
REMARK SMILES IDX 3 14 5 15 6 16 7 18 8 19 9 20 10 21 11 22 15 23 12 24 14 25
REMARK SMILES IDX 13 26 25 27 26 28 27 29 28 30 29 31 30 32 31 33 32 34 33 35
REMARK SMILES IDX 34 36 35 37 87 38 36 39 86 40 37 41 38 42 39 43 80 44 40 45
REMARK SMILES IDX 85 46 79 47 81 48 41 49 84 50 78 51 77 52 42 54 68 55 51 56
REMARK SMILES IDX 67 57 52 58 55 59 66 60 82 61 53 62 54 63 65 65 83 66 56 67
REMARK SMILES IDX 43 68 44 69 49 70 45 71 46 72 48 73 50 74 47 75 69 76 70 77
REMARK SMILES IDX 75 78 71 79 72 80 74 81 76 82 73 83 57 84 58 85 63 86 59 87
REMARK SMILES IDX 60 88 62 89 64 90 61 91
REMARK H PARENT 18 10 5 17 81 53 55 64
REMARK Flexibility Score: inf
ROOT
ATOM      1  C   UNL A   1      38.187  22.173  25.833  1.00  0.00     0.202 C 
ENDROOT
BRANCH   1   2
ATOM      2  C   UNL A   1      36.874  21.502  25.397  1.00  0.00     0.261 C 
BRANCH   2   3
ATOM      3  O   UNL A   1      35.815  21.674  26.361  1.00  0.00    -0.462 OA
BRANCH   3   4
ATOM      4  C   UNL A   1      34.593  21.227  25.984  1.00  0.00     0.325 C 
ATOM      5  O   UNL A   1      33.644  21.043  26.739  1.00  0.00    -0.250 OA
BRANCH   4   6
ATOM      6  C   UNL A   1      34.417  21.172  24.473  1.00  0.00     0.238 C 
BRANCH   6   7
ATOM      7  N   UNL A   1      33.095  21.237  23.872  1.00  0.00    -0.343 N 
ATOM      8  C   UNL A   1      32.375  22.340  23.506  1.00  0.00     0.243 C 
ATOM      9  O   UNL A   1      31.615  22.222  22.540  1.00  0.00    -0.273 OA
ATOM     10  H   UNL A   1      32.659  20.370  23.705  1.00  0.00     0.164 HD
BRANCH   8  11
ATOM     11  C   UNL A   1      32.566  23.709  24.206  1.00  0.00     0.177 C 
BRANCH  11  12
ATOM     12  C   UNL A   1      33.813  24.540  23.813  1.00  0.00     0.015 C 
ATOM     13  C   UNL A   1      33.639  25.533  22.664  1.00  0.00     0.010 C 
ATOM     14  C   UNL A   1      34.401  25.279  25.018  1.00  0.00     0.010 C 
ENDBRANCH  11  12
BRANCH  11  15
ATOM     15  N   UNL A   1      32.438  23.581  25.659  1.00  0.00    -0.309 N 
ATOM     16  C   UNL A   1      31.374  23.923  26.430  1.00  0.00     0.408 C 
ATOM     17  H   UNL A   1      33.213  23.202  26.133  1.00  0.00     0.167 HD
ATOM     18  O   UNL A   1      31.374  23.658  27.627  1.00  0.00    -0.225 OA
BRANCH  16  19
ATOM     19  O   UNL A   1      30.394  24.561  25.758  1.00  0.00    -0.445 OA
BRANCH  19  20
ATOM     20  C   UNL A   1      30.277  25.959  26.046  1.00  0.00     0.270 C 
BRANCH  20  21
ATOM     21  C   UNL A   1      30.677  26.856  24.897  1.00  0.00    -0.011 A 
ATOM     22  C   UNL A   1      30.108  26.758  23.619  1.00  0.00     0.007 A 
ATOM     23  C   UNL A   1      31.614  27.874  25.137  1.00  0.00     0.007 A 
ATOM     24  C   UNL A   1      30.464  27.654  22.610  1.00  0.00     0.000 A 
ATOM     25  C   UNL A   1      31.973  28.766  24.126  1.00  0.00     0.000 A 
ATOM     26  C   UNL A   1      31.396  28.658  22.864  1.00  0.00     0.000 A 
ENDBRANCH  20  21
ENDBRANCH  19  20
ENDBRANCH  16  19
ENDBRANCH  11  15
ENDBRANCH   8  11
ENDBRANCH   6   7
ENDBRANCH   4   6
ENDBRANCH   3   4
ENDBRANCH   2   3
ENDBRANCH   1   2
BRANCH   1  27
ATOM     27  O   UNL A   1      39.413  21.457  25.659  1.00  0.00    -0.376 OA
BRANCH  27  28
ATOM     28  C   UNL A   1      40.467  21.677  26.584  1.00  0.00     0.188 C 
BRANCH  28  29
ATOM     29  C   UNL A   1      41.383  20.498  26.926  1.00  0.00     0.188 C 
BRANCH  29  30
ATOM     30  O   UNL A   1      41.121  19.319  26.205  1.00  0.00    -0.376 OA
BRANCH  30  31
ATOM     31  C   UNL A   1      42.202  18.639  25.571  1.00  0.00     0.202 C 
BRANCH  31  32
ATOM     32  C   UNL A   1      43.666  18.862  26.016  1.00  0.00     0.261 C 
BRANCH  32  33
ATOM     33  O   UNL A   1      44.706  18.429  25.123  1.00  0.00    -0.460 OA
BRANCH  33  34
ATOM     34  C   UNL A   1      44.967  19.198  24.037  1.00  0.00     0.338 C 
ATOM     35  O   UNL A   1      45.013  18.836  22.876  1.00  0.00    -0.246 OA
BRANCH  34  36
ATOM     36  C   UNL A   1      44.885  20.613  24.487  1.00  0.00     0.060 A 
ATOM     37  C   UNL A   1      44.263  21.554  23.649  1.00  0.00     0.016 A 
ATOM     38  C   UNL A   1      45.328  20.989  25.756  1.00  0.00     0.016 A 
ATOM     39  C   UNL A   1      44.098  22.876  24.072  1.00  0.00     0.010 A 
ATOM     40  C   UNL A   1      45.194  22.318  26.165  1.00  0.00     0.010 A 
ATOM     41  C   UNL A   1      44.604  23.273  25.317  1.00  0.00    -0.014 A 
BRANCH  41  42
ATOM     42  C   UNL A   1      44.755  24.710  25.652  1.00  0.00     0.031 A 
ATOM     43  C   UNL A   1      46.129  25.307  25.530  1.00  0.00     0.074 A 
ATOM     44  C   UNL A   1      43.732  25.457  26.103  1.00  0.00     0.049 A 
ATOM     45  N   UNL A   1      46.576  26.463  25.939  1.00  0.00    -0.248 NA
ATOM     46  C   UNL A   1      47.140  24.467  24.864  1.00  0.00     0.031 C 
ATOM     47  C   UNL A   1      42.344  25.021  26.213  1.00  0.00     0.029 A 
ATOM     48  N   UNL A   1      43.723  26.744  26.585  1.00  0.00    -0.354 N 
ATOM     49  C   UNL A   1      47.925  26.481  25.605  1.00  0.00     0.074 A 
ATOM     50  C   UNL A   1      48.225  25.216  24.971  1.00  0.00     0.031 C 
ATOM     51  C   UNL A   1      41.620  26.014  26.762  1.00  0.00     0.029 A 
ATOM     52  C   UNL A   1      42.505  27.134  27.084  1.00  0.00     0.049 A 
ATOM     53  H   UNL A   1      44.515  27.330  26.573  1.00  0.00     0.167 HD
ATOM     54  C   UNL A   1      48.833  27.460  25.815  1.00  0.00     0.037 A 
ATOM     55  C   UNL A   1      42.158  28.247  27.762  1.00  0.00     0.037 A 
ATOM     56  C   UNL A   1      48.534  28.713  26.450  1.00  0.00     0.049 A 
ATOM     57  C   UNL A   1      43.204  29.295  28.060  1.00  0.00     0.074 A 
ATOM     58  C   UNL A   1      49.382  29.777  26.698  1.00  0.00     0.029 A 
ATOM     59  N   UNL A   1      47.288  29.065  26.948  1.00  0.00    -0.354 N 
ATOM     60  N   UNL A   1      44.475  29.310  27.738  1.00  0.00    -0.248 NA
ATOM     61  C   UNL A   1      42.769  30.474  28.825  1.00  0.00     0.031 C 
ATOM     62  C   UNL A   1      48.662  30.754  27.392  1.00  0.00     0.029 A 
ATOM     63  C   UNL A   1      47.351  30.321  27.524  1.00  0.00     0.049 A 
ATOM     64  H   UNL A   1      46.480  28.505  26.899  1.00  0.00     0.167 HD
ATOM     65  C   UNL A   1      44.980  30.510  28.224  1.00  0.00     0.074 A 
ATOM     66  C   UNL A   1      43.881  31.197  28.869  1.00  0.00     0.031 C 
ATOM     67  C   UNL A   1      46.241  31.002  28.140  1.00  0.00     0.037 A 
BRANCH  54  68
ATOM     68  C   UNL A   1      50.245  27.188  25.394  1.00  0.00     0.057 A 
ATOM     69  C   UNL A   1      51.205  26.691  26.286  1.00  0.00     0.134 A 
ATOM     70  C   UNL A   1      50.649  27.422  24.073  1.00  0.00     0.134 A 
ATOM     71  F   UNL A   1      50.888  26.467  27.570  1.00  0.00    -0.206 F 
ATOM     72  C   UNL A   1      52.521  26.459  25.884  1.00  0.00     0.040 A 
ATOM     73  C   UNL A   1      51.954  27.167  23.653  1.00  0.00     0.040 A 
ATOM     74  F   UNL A   1      49.779  27.899  23.170  1.00  0.00    -0.206 F 
ATOM     75  C   UNL A   1      52.897  26.691  24.561  1.00  0.00     0.006 A 
ENDBRANCH  54  68
BRANCH  55  76
ATOM     76  C   UNL A   1      40.763  28.423  28.242  1.00  0.00     0.057 A 
ATOM     77  C   UNL A   1      39.771  28.955  27.409  1.00  0.00     0.134 A 
ATOM     78  C   UNL A   1      40.391  28.082  29.547  1.00  0.00     0.134 A 
ATOM     79  F   UNL A   1      40.072  29.329  26.156  1.00  0.00    -0.206 F 
ATOM     80  C   UNL A   1      38.464  29.152  27.860  1.00  0.00     0.040 A 
ATOM     81  C   UNL A   1      39.082  28.249  30.005  1.00  0.00     0.040 A 
ATOM     82  F   UNL A   1      41.294  27.571  30.398  1.00  0.00    -0.206 F 
ATOM     83  C   UNL A   1      38.116  28.791  29.160  1.00  0.00     0.006 A 
ENDBRANCH  55  76
BRANCH  67  84
ATOM     84  C   UNL A   1      46.502  32.371  28.698  1.00  0.00     0.057 A 
ATOM     85  C   UNL A   1      46.955  32.566  30.008  1.00  0.00     0.134 A 
ATOM     86  C   UNL A   1      46.391  33.500  27.875  1.00  0.00     0.134 A 
ATOM     87  F   UNL A   1      47.074  31.528  30.848  1.00  0.00    -0.206 F 
ATOM     88  C   UNL A   1      47.283  33.838  30.481  1.00  0.00     0.040 A 
ATOM     89  C   UNL A   1      46.740  34.772  28.329  1.00  0.00     0.040 A 
ATOM     90  F   UNL A   1      45.974  33.380  26.605  1.00  0.00    -0.206 F 
ATOM     91  C   UNL A   1      47.187  34.944  29.637  1.00  0.00     0.006 A 
ENDBRANCH  67  84
ENDBRANCH  41  42
ENDBRANCH  34  36
ENDBRANCH  33  34
ENDBRANCH  32  33
ENDBRANCH  31  32
ENDBRANCH  30  31
ENDBRANCH  29  30
ENDBRANCH  28  29
ENDBRANCH  27  28
ENDBRANCH   1  27
TORSDOF 24
ENDMDL
MODEL 3
REMARK VINA RESULT:      -9.1      5.356     10.690
REMARK SMILES CC(C)[C@H](NC(=O)OCc1ccccc1)C(=O)NCC(=O)OCCOCCOCCOC(=O)c1ccc(-c2c3nc(c(-c4c(F)cccc4F)c4ccc([nH]4)c(-c4c(F)cccc4F)c4nc(c(-c5c(F)cccc5F)c5ccc2[nH]5)C=C4)C=C3)cc1
REMARK SMILES IDX 24 1 23 2 22 3 20 4 21 5 19 6 18 7 16 8 17 9 4 11 2 12 1 13
REMARK SMILES IDX 3 14 5 15 6 16 7 18 8 19 9 20 10 21 11 22 15 23 12 24 14 25
REMARK SMILES IDX 13 26 25 27 26 28 27 29 28 30 29 31 30 32 31 33 32 34 33 35
REMARK SMILES IDX 34 36 35 37 87 38 36 39 86 40 37 41 38 42 39 43 80 44 40 45
REMARK SMILES IDX 85 46 79 47 81 48 41 49 84 50 78 51 77 52 42 54 68 55 51 56
REMARK SMILES IDX 67 57 52 58 55 59 66 60 82 61 53 62 54 63 65 65 83 66 56 67
REMARK SMILES IDX 43 68 44 69 49 70 45 71 46 72 48 73 50 74 47 75 69 76 70 77
REMARK SMILES IDX 75 78 71 79 72 80 74 81 76 82 73 83 57 84 58 85 63 86 59 87
REMARK SMILES IDX 60 88 62 89 64 90 61 91
REMARK H PARENT 18 10 5 17 81 53 55 64
REMARK Flexibility Score: inf
ROOT
ATOM      1  C   UNL A   1      35.185  31.330  28.193  1.00  0.00     0.202 C 
ENDROOT
BRANCH   1   2
ATOM      2  C   UNL A   1      34.864  29.886  27.776  1.00  0.00     0.261 C 
BRANCH   2   3
ATOM      3  O   UNL A   1      33.478  29.703  27.423  1.00  0.00    -0.462 OA
BRANCH   3   4
ATOM      4  C   UNL A   1      33.244  29.063  26.253  1.00  0.00     0.325 C 
ATOM      5  O   UNL A   1      33.166  29.605  25.155  1.00  0.00    -0.250 OA
BRANCH   4   6
ATOM      6  C   UNL A   1      33.299  27.547  26.379  1.00  0.00     0.238 C 
BRANCH   6   7
ATOM      7  N   UNL A   1      32.112  26.781  26.720  1.00  0.00    -0.343 N 
ATOM      8  C   UNL A   1      31.659  25.615  26.170  1.00  0.00     0.243 C 
ATOM      9  O   UNL A   1      31.041  24.845  26.911  1.00  0.00    -0.273 OA
ATOM     10  H   UNL A   1      31.559  27.152  27.445  1.00  0.00     0.164 HD
BRANCH   8  11
ATOM     11  C   UNL A   1      31.985  25.222  24.707  1.00  0.00     0.177 C 
BRANCH  11  12
ATOM     12  C   UNL A   1      31.126  25.867  23.590  1.00  0.00     0.015 C 
ATOM     13  C   UNL A   1      29.682  26.213  23.951  1.00  0.00     0.010 C 
ATOM     14  C   UNL A   1      31.801  27.114  23.009  1.00  0.00     0.010 C 
ENDBRANCH  11  12
BRANCH  11  15
ATOM     15  N   UNL A   1      32.062  23.767  24.557  1.00  0.00    -0.309 N 
ATOM     16  C   UNL A   1      33.127  23.032  24.145  1.00  0.00     0.408 C 
ATOM     17  H   UNL A   1      31.247  23.262  24.781  1.00  0.00     0.167 HD
ATOM     18  O   UNL A   1      33.074  21.808  24.169  1.00  0.00    -0.225 OA
BRANCH  16  19
ATOM     19  O   UNL A   1      34.171  23.774  23.721  1.00  0.00    -0.445 OA
BRANCH  19  20
ATOM     20  C   UNL A   1      35.306  23.019  23.279  1.00  0.00     0.270 C 
BRANCH  20  21
ATOM     21  C   UNL A   1      36.378  22.853  24.332  1.00  0.00    -0.011 A 
ATOM     22  C   UNL A   1      37.153  21.690  24.454  1.00  0.00     0.007 A 
ATOM     23  C   UNL A   1      36.654  23.935  25.182  1.00  0.00     0.007 A 
ATOM     24  C   UNL A   1      38.176  21.613  25.400  1.00  0.00     0.000 A 
ATOM     25  C   UNL A   1      37.675  23.855  26.131  1.00  0.00     0.000 A 
ATOM     26  C   UNL A   1      38.437  22.695  26.238  1.00  0.00     0.000 A 
ENDBRANCH  20  21
ENDBRANCH  19  20
ENDBRANCH  16  19
ENDBRANCH  11  15
ENDBRANCH   8  11
ENDBRANCH   6   7
ENDBRANCH   4   6
ENDBRANCH   3   4
ENDBRANCH   2   3
ENDBRANCH   1   2
BRANCH   1  27
ATOM     27  O   UNL A   1      34.162  32.323  28.066  1.00  0.00    -0.376 OA
BRANCH  27  28
ATOM     28  C   UNL A   1      34.494  33.678  28.329  1.00  0.00     0.188 C 
BRANCH  28  29
ATOM     29  C   UNL A   1      34.336  34.194  29.763  1.00  0.00     0.188 C 
BRANCH  29  30
ATOM     30  O   UNL A   1      35.434  33.940  30.605  1.00  0.00    -0.376 OA
BRANCH  30  31
ATOM     31  C   UNL A   1      35.212  33.302  31.861  1.00  0.00     0.202 C 
BRANCH  31  32
ATOM     32  C   UNL A   1      35.670  31.848  32.117  1.00  0.00     0.261 C 
BRANCH  32  33
ATOM     33  O   UNL A   1      36.933  31.441  31.562  1.00  0.00    -0.460 OA
BRANCH  33  34
ATOM     34  C   UNL A   1      37.102  30.126  31.274  1.00  0.00     0.338 C 
ATOM     35  O   UNL A   1      36.248  29.259  31.283  1.00  0.00    -0.246 OA
BRANCH  34  36
ATOM     36  C   UNL A   1      38.445  29.995  30.652  1.00  0.00     0.060 A 
ATOM     37  C   UNL A   1      38.567  30.165  29.261  1.00  0.00     0.016 A 
ATOM     38  C   UNL A   1      39.584  29.803  31.436  1.00  0.00     0.016 A 
ATOM     39  C   UNL A   1      39.824  30.125  28.652  1.00  0.00     0.010 A 
ATOM     40  C   UNL A   1      40.836  29.730  30.823  1.00  0.00     0.010 A 
ATOM     41  C   UNL A   1      40.961  29.864  29.428  1.00  0.00    -0.014 A 
BRANCH  41  42
ATOM     42  C   UNL A   1      42.243  29.479  28.789  1.00  0.00     0.031 A 
ATOM     43  C   UNL A   1      42.395  28.050  28.350  1.00  0.00     0.074 A 
ATOM     44  C   UNL A   1      43.266  30.341  28.648  1.00  0.00     0.049 A 
ATOM     45  N   UNL A   1      43.460  27.408  27.952  1.00  0.00    -0.248 NA
ATOM     46  C   UNL A   1      41.170  27.233  28.382  1.00  0.00     0.031 C 
ATOM     47  C   UNL A   1      43.232  31.763  28.976  1.00  0.00     0.029 A 
ATOM     48  N   UNL A   1      44.552  30.123  28.214  1.00  0.00    -0.354 N 
ATOM     49  C   UNL A   1      43.041  26.105  27.711  1.00  0.00     0.074 A 
ATOM     50  C   UNL A   1      41.629  26.046  28.019  1.00  0.00     0.031 C 
ATOM     51  C   UNL A   1      44.454  32.286  28.763  1.00  0.00     0.029 A 
ATOM     52  C   UNL A   1      45.364  31.224  28.330  1.00  0.00     0.049 A 
ATOM     53  H   UNL A   1      44.861  29.259  27.855  1.00  0.00     0.167 HD
ATOM     54  C   UNL A   1      43.770  25.051  27.280  1.00  0.00     0.037 A 
ATOM     55  C   UNL A   1      46.695  31.347  28.151  1.00  0.00     0.037 A 
ATOM     56  C   UNL A   1      45.173  25.111  26.980  1.00  0.00     0.049 A 
ATOM     57  C   UNL A   1      47.507  30.140  27.748  1.00  0.00     0.074 A 
ATOM     58  C   UNL A   1      45.999  24.100  26.523  1.00  0.00     0.029 A 
ATOM     59  N   UNL A   1      45.959  26.244  27.118  1.00  0.00    -0.354 N 
ATOM     60  N   UNL A   1      47.106  28.913  27.516  1.00  0.00    -0.248 NA
ATOM     61  C   UNL A   1      48.958  30.332  27.592  1.00  0.00     0.031 C 
ATOM     62  C   UNL A   1      47.299  24.609  26.433  1.00  0.00     0.029 A 
ATOM     63  C   UNL A   1      47.268  25.951  26.779  1.00  0.00     0.049 A 
ATOM     64  H   UNL A   1      45.635  27.125  27.414  1.00  0.00     0.167 HD
ATOM     65  C   UNL A   1      48.243  28.200  27.152  1.00  0.00     0.074 A 
ATOM     66  C   UNL A   1      49.353  29.129  27.197  1.00  0.00     0.031 C 
ATOM     67  C   UNL A   1      48.357  26.894  26.805  1.00  0.00     0.037 A 
BRANCH  54  68
ATOM     68  C   UNL A   1      43.064  23.734  27.154  1.00  0.00     0.057 A 
ATOM     69  C   UNL A   1      42.710  22.970  28.274  1.00  0.00     0.134 A 
ATOM     70  C   UNL A   1      42.728  23.228  25.892  1.00  0.00     0.134 A 
ATOM     71  F   UNL A   1      43.023  23.389  29.510  1.00  0.00    -0.206 F 
ATOM     72  C   UNL A   1      42.069  21.738  28.142  1.00  0.00     0.040 A 
ATOM     73  C   UNL A   1      42.062  22.010  25.749  1.00  0.00     0.040 A 
ATOM     74  F   UNL A   1      43.039  23.909  24.779  1.00  0.00    -0.206 F 
ATOM     75  C   UNL A   1      41.737  21.258  26.875  1.00  0.00     0.006 A 
ENDBRANCH  54  68
BRANCH  55  76
ATOM     76  C   UNL A   1      47.360  32.656  28.383  1.00  0.00     0.057 A 
ATOM     77  C   UNL A   1      47.892  32.987  29.634  1.00  0.00     0.134 A 
ATOM     78  C   UNL A   1      47.462  33.612  27.366  1.00  0.00     0.134 A 
ATOM     79  F   UNL A   1      47.800  32.124  30.657  1.00  0.00    -0.206 F 
ATOM     80  C   UNL A   1      48.493  34.226  29.870  1.00  0.00     0.040 A 
ATOM     81  C   UNL A   1      48.082  34.846  27.580  1.00  0.00     0.040 A 
ATOM     82  F   UNL A   1      46.968  33.359  26.145  1.00  0.00    -0.206 F 
ATOM     83  C   UNL A   1      48.594  35.157  28.837  1.00  0.00     0.006 A 
ENDBRANCH  55  76
BRANCH  67  84
ATOM     84  C   UNL A   1      49.707  26.391  26.385  1.00  0.00     0.057 A 
ATOM     85  C   UNL A   1      50.212  26.603  25.097  1.00  0.00     0.134 A 
ATOM     86  C   UNL A   1      50.550  25.772  27.318  1.00  0.00     0.134 A 
ATOM     87  F   UNL A   1      49.452  27.183  24.155  1.00  0.00    -0.206 F 
ATOM     88  C   UNL A   1      51.507  26.212  24.750  1.00  0.00     0.040 A 
ATOM     89  C   UNL A   1      51.854  25.399  26.990  1.00  0.00     0.040 A 
ATOM     90  F   UNL A   1      50.131  25.550  28.573  1.00  0.00    -0.206 F 
ATOM     91  C   UNL A   1      52.336  25.619  25.702  1.00  0.00     0.006 A 
ENDBRANCH  67  84
ENDBRANCH  41  42
ENDBRANCH  34  36
ENDBRANCH  33  34
ENDBRANCH  32  33
ENDBRANCH  31  32
ENDBRANCH  30  31
ENDBRANCH  29  30
ENDBRANCH  28  29
ENDBRANCH  27  28
ENDBRANCH   1  27
TORSDOF 24
ENDMDL
