MODEL 1
REMARK VINA RESULT:     -10.7      0.000      0.000
REMARK SMILES CC(C)(C)N(CC(=O)OCCOCCOCCOC(=O)c1ccc(-c2c3nc(c(-c4c(F)cccc4F)c4ccc([nH]4)c(-c4c(F)cccc4F)c4nc(c(-c5c(F)cccc5F)c5ccc2[nH]5)C=C4)C=C3)cc1)C(=O)c1cc2ccccc2o1
REMARK SMILES IDX 13 1 12 2 11 3 10 4 9 5 7 6 8 7 6 8 5 9 2 10 1 11 3 12 4 13
REMARK SMILES IDX 75 14 76 15 77 16 78 17 85 18 79 19 84 20 80 21 83 22 81 23
REMARK SMILES IDX 82 24 14 25 15 26 16 27 17 28 18 29 19 30 20 31 21 32 22 33
REMARK SMILES IDX 74 34 23 35 73 36 24 37 25 38 26 39 67 40 27 41 72 42 66 43
REMARK SMILES IDX 68 44 28 45 71 46 65 47 64 48 29 50 55 51 38 52 54 53 39 54
REMARK SMILES IDX 42 55 53 56 69 57 40 58 41 59 52 61 70 62 43 63 30 64 31 65
REMARK SMILES IDX 36 66 32 67 33 68 35 69 37 70 34 71 56 72 57 73 62 74 58 75
REMARK SMILES IDX 59 76 61 77 63 78 60 79 44 80 45 81 50 82 46 83 47 84 49 85
REMARK SMILES IDX 51 86 48 87
REMARK H PARENT 68 49 42 60
REMARK Flexibility Score: inf
ROOT
ATOM      1  C   UNL A   1      38.958  21.826  25.887  1.00  0.00     0.188 C 
ENDROOT
BRANCH   1   2
ATOM      2  O   UNL A   1      37.636  21.465  25.498  1.00  0.00    -0.376 OA
BRANCH   2   3
ATOM      3  C   UNL A   1      36.604  22.422  25.720  1.00  0.00     0.202 C 
BRANCH   3   4
ATOM      4  C   UNL A   1      36.457  23.476  24.616  1.00  0.00     0.261 C 
BRANCH   4   5
ATOM      5  O   UNL A   1      35.743  22.982  23.458  1.00  0.00    -0.462 OA
BRANCH   5   6
ATOM      6  C   UNL A   1      34.536  23.544  23.181  1.00  0.00     0.325 C 
ATOM      7  O   UNL A   1      33.963  23.454  22.100  1.00  0.00    -0.250 OA
BRANCH   6   8
ATOM      8  C   UNL A   1      33.864  24.204  24.402  1.00  0.00     0.243 C 
BRANCH   8   9
ATOM      9  N   UNL A   1      32.517  23.775  24.809  1.00  0.00    -0.320 N 
BRANCH   9  10
ATOM     10  C   UNL A   1      32.300  22.587  25.686  1.00  0.00     0.036 C 
ATOM     11  C   UNL A   1      32.993  21.307  25.179  1.00  0.00     0.034 C 
ATOM     12  C   UNL A   1      30.800  22.252  25.852  1.00  0.00     0.034 C 
ATOM     13  C   UNL A   1      32.879  22.917  27.078  1.00  0.00     0.034 C 
ENDBRANCH   9  10
BRANCH   9  14
ATOM     14  C   UNL A   1      31.411  24.416  24.265  1.00  0.00     0.290 C 
ATOM     15  O   UNL A   1      30.898  24.019  23.221  1.00  0.00    -0.265 OA
BRANCH  14  16
ATOM     16  C   UNL A   1      30.821  25.536  24.972  1.00  0.00     0.192 A 
ATOM     17  C   UNL A   1      31.017  25.882  26.296  1.00  0.00     0.065 A 
ATOM     18  O   UNL A   1      30.554  26.674  24.249  1.00  0.00    -0.451 OA
ATOM     19  C   UNL A   1      31.262  27.275  26.306  1.00  0.00     0.021 A 
ATOM     20  C   UNL A   1      30.936  27.724  25.034  1.00  0.00     0.135 A 
ATOM     21  C   UNL A   1      31.857  28.163  27.218  1.00  0.00     0.012 A 
ATOM     22  C   UNL A   1      31.121  29.035  24.605  1.00  0.00     0.048 A 
ATOM     23  C   UNL A   1      32.142  29.462  26.782  1.00  0.00     0.001 A 
ATOM     24  C   UNL A   1      31.772  29.890  25.502  1.00  0.00     0.004 A 
ENDBRANCH  14  16
ENDBRANCH   9  14
ENDBRANCH   8   9
ENDBRANCH   6   8
ENDBRANCH   5   6
ENDBRANCH   4   5
ENDBRANCH   3   4
ENDBRANCH   2   3
ENDBRANCH   1   2
BRANCH   1  25
ATOM     25  C   UNL A   1      39.959  20.690  26.111  1.00  0.00     0.188 C 
BRANCH  25  26
ATOM     26  O   UNL A   1      40.432  20.649  27.453  1.00  0.00    -0.376 OA
BRANCH  26  27
ATOM     27  C   UNL A   1      41.781  20.194  27.556  1.00  0.00     0.202 C 
BRANCH  27  28
ATOM     28  C   UNL A   1      42.557  20.696  26.344  1.00  0.00     0.261 C 
BRANCH  28  29
ATOM     29  O   UNL A   1      43.163  21.975  26.631  1.00  0.00    -0.460 OA
BRANCH  29  30
ATOM     30  C   UNL A   1      42.899  22.960  25.753  1.00  0.00     0.338 C 
ATOM     31  O   UNL A   1      43.008  22.915  24.534  1.00  0.00    -0.246 OA
BRANCH  30  32
ATOM     32  C   UNL A   1      42.431  24.163  26.464  1.00  0.00     0.060 A 
ATOM     33  C   UNL A   1      42.941  25.426  26.159  1.00  0.00     0.016 A 
ATOM     34  C   UNL A   1      41.578  24.001  27.553  1.00  0.00     0.016 A 
ATOM     35  C   UNL A   1      42.717  26.500  27.023  1.00  0.00     0.010 A 
ATOM     36  C   UNL A   1      41.264  25.103  28.352  1.00  0.00     0.010 A 
ATOM     37  C   UNL A   1      41.872  26.353  28.130  1.00  0.00    -0.014 A 
BRANCH  37  38
ATOM     38  C   UNL A   1      41.646  27.453  29.108  1.00  0.00     0.031 A 
ATOM     39  C   UNL A   1      42.494  27.518  30.351  1.00  0.00     0.074 A 
ATOM     40  C   UNL A   1      40.671  28.367  28.933  1.00  0.00     0.049 A 
ATOM     41  N   UNL A   1      42.260  28.123  31.486  1.00  0.00    -0.248 NA
ATOM     42  C   UNL A   1      43.771  26.784  30.312  1.00  0.00     0.031 C 
ATOM     43  C   UNL A   1      39.822  28.500  27.750  1.00  0.00     0.029 A 
ATOM     44  N   UNL A   1      40.215  29.347  29.782  1.00  0.00    -0.354 N 
ATOM     45  C   UNL A   1      43.317  27.781  32.321  1.00  0.00     0.074 A 
ATOM     46  C   UNL A   1      44.205  26.932  31.556  1.00  0.00     0.031 C 
ATOM     47  C   UNL A   1      38.949  29.499  27.946  1.00  0.00     0.029 A 
ATOM     48  C   UNL A   1      39.107  30.005  29.305  1.00  0.00     0.049 A 
ATOM     49  H   UNL A   1      40.639  29.557  30.646  1.00  0.00     0.167 HD
ATOM     50  C   UNL A   1      43.516  28.135  33.613  1.00  0.00     0.037 A 
ATOM     51  C   UNL A   1      38.261  30.858  29.914  1.00  0.00     0.037 A 
ATOM     52  C   UNL A   1      42.664  29.033  34.348  1.00  0.00     0.049 A 
ATOM     53  C   UNL A   1      38.466  31.198  31.362  1.00  0.00     0.074 A 
ATOM     54  C   UNL A   1      42.784  29.459  35.659  1.00  0.00     0.029 A 
ATOM     55  N   UNL A   1      41.545  29.660  33.824  1.00  0.00    -0.354 N 
ATOM     56  N   UNL A   1      39.404  30.791  32.182  1.00  0.00    -0.248 NA
ATOM     57  C   UNL A   1      37.475  32.091  31.978  1.00  0.00     0.031 C 
ATOM     58  C   UNL A   1      41.722  30.326  35.937  1.00  0.00     0.029 A 
ATOM     59  C   UNL A   1      40.961  30.465  34.788  1.00  0.00     0.049 A 
ATOM     60  H   UNL A   1      41.213  29.548  32.904  1.00  0.00     0.167 HD
ATOM     61  C   UNL A   1      39.123  31.385  33.405  1.00  0.00     0.074 A 
ATOM     62  C   UNL A   1      37.937  32.194  33.217  1.00  0.00     0.031 C 
ATOM     63  C   UNL A   1      39.786  31.268  34.581  1.00  0.00     0.037 A 
BRANCH  50  64
ATOM     64  C   UNL A   1      44.678  27.521  34.335  1.00  0.00     0.057 A 
ATOM     65  C   UNL A   1      44.620  26.240  34.895  1.00  0.00     0.134 A 
ATOM     66  C   UNL A   1      45.896  28.210  34.418  1.00  0.00     0.134 A 
ATOM     67  F   UNL A   1      43.479  25.536  34.862  1.00  0.00    -0.206 F 
ATOM     68  C   UNL A   1      45.729  25.669  35.520  1.00  0.00     0.040 A 
ATOM     69  C   UNL A   1      47.018  27.641  35.022  1.00  0.00     0.040 A 
ATOM     70  F   UNL A   1      46.018  29.442  33.899  1.00  0.00    -0.206 F 
ATOM     71  C   UNL A   1      46.935  26.366  35.578  1.00  0.00     0.006 A 
ENDBRANCH  50  64
BRANCH  51  72
ATOM     72  C   UNL A   1      37.089  31.386  29.172  1.00  0.00     0.057 A 
ATOM     73  C   UNL A   1      37.073  32.697  28.685  1.00  0.00     0.134 A 
ATOM     74  C   UNL A   1      35.961  30.592  28.931  1.00  0.00     0.134 A 
ATOM     75  F   UNL A   1      38.113  33.513  28.909  1.00  0.00    -0.206 F 
ATOM     76  C   UNL A   1      35.975  33.201  27.987  1.00  0.00     0.040 A 
ATOM     77  C   UNL A   1      34.867  31.075  28.212  1.00  0.00     0.040 A 
ATOM     78  F   UNL A   1      35.915  29.328  29.376  1.00  0.00    -0.206 F 
ATOM     79  C   UNL A   1      34.872  32.386  27.742  1.00  0.00     0.006 A 
ENDBRANCH  51  72
BRANCH  63  80
ATOM     80  C   UNL A   1      39.263  32.060  35.740  1.00  0.00     0.057 A 
ATOM     81  C   UNL A   1      38.363  31.511  36.661  1.00  0.00     0.134 A 
ATOM     82  C   UNL A   1      39.686  33.378  35.950  1.00  0.00     0.134 A 
ATOM     83  F   UNL A   1      37.909  30.258  36.504  1.00  0.00    -0.206 F 
ATOM     84  C   UNL A   1      37.886  32.254  37.742  1.00  0.00     0.040 A 
ATOM     85  C   UNL A   1      39.232  34.124  37.038  1.00  0.00     0.040 A 
ATOM     86  F   UNL A   1      40.553  33.957  35.106  1.00  0.00    -0.206 F 
ATOM     87  C   UNL A   1      38.325  33.563  37.935  1.00  0.00     0.006 A 
ENDBRANCH  63  80
ENDBRANCH  37  38
ENDBRANCH  30  32
ENDBRANCH  29  30
ENDBRANCH  28  29
ENDBRANCH  27  28
ENDBRANCH  26  27
ENDBRANCH  25  26
ENDBRANCH   1  25
TORSDOF 21
ENDMDL
MODEL 2
REMARK VINA RESULT:     -10.7      1.269      2.288
REMARK SMILES CC(C)(C)N(CC(=O)OCCOCCOCCOC(=O)c1ccc(-c2c3nc(c(-c4c(F)cccc4F)c4ccc([nH]4)c(-c4c(F)cccc4F)c4nc(c(-c5c(F)cccc5F)c5ccc2[nH]5)C=C4)C=C3)cc1)C(=O)c1cc2ccccc2o1
REMARK SMILES IDX 13 1 12 2 11 3 10 4 9 5 7 6 8 7 6 8 5 9 2 10 1 11 3 12 4 13
REMARK SMILES IDX 75 14 76 15 77 16 78 17 85 18 79 19 84 20 80 21 83 22 81 23
REMARK SMILES IDX 82 24 14 25 15 26 16 27 17 28 18 29 19 30 20 31 21 32 22 33
REMARK SMILES IDX 74 34 23 35 73 36 24 37 25 38 26 39 67 40 27 41 72 42 66 43
REMARK SMILES IDX 68 44 28 45 71 46 65 47 64 48 29 50 55 51 38 52 54 53 39 54
REMARK SMILES IDX 42 55 53 56 69 57 40 58 41 59 52 61 70 62 43 63 30 64 31 65
REMARK SMILES IDX 36 66 32 67 33 68 35 69 37 70 34 71 56 72 57 73 62 74 58 75
REMARK SMILES IDX 59 76 61 77 63 78 60 79 44 80 45 81 50 82 46 83 47 84 49 85
REMARK SMILES IDX 51 86 48 87
REMARK H PARENT 68 49 42 60
REMARK Flexibility Score: inf
ROOT
ATOM      1  C   UNL A   1      38.462  22.163  25.864  1.00  0.00     0.188 C 
ENDROOT
BRANCH   1   2
ATOM      2  O   UNL A   1      37.246  21.456  25.634  1.00  0.00    -0.376 OA
BRANCH   2   3
ATOM      3  C   UNL A   1      36.030  22.190  25.749  1.00  0.00     0.202 C 
BRANCH   3   4
ATOM      4  C   UNL A   1      36.206  23.709  25.868  1.00  0.00     0.261 C 
BRANCH   4   5
ATOM      5  O   UNL A   1      35.376  24.445  24.938  1.00  0.00    -0.462 OA
BRANCH   5   6
ATOM      6  C   UNL A   1      34.150  24.842  25.372  1.00  0.00     0.325 C 
ATOM      7  O   UNL A   1      33.624  24.453  26.410  1.00  0.00    -0.250 OA
BRANCH   6   8
ATOM      8  C   UNL A   1      33.513  25.948  24.506  1.00  0.00     0.243 C 
BRANCH   8   9
ATOM      9  N   UNL A   1      32.470  26.810  25.082  1.00  0.00    -0.320 N 
BRANCH   9  10
ATOM     10  C   UNL A   1      32.802  28.052  25.840  1.00  0.00     0.036 C 
ATOM     11  C   UNL A   1      31.807  28.372  26.972  1.00  0.00     0.034 C 
ATOM     12  C   UNL A   1      32.856  29.296  24.924  1.00  0.00     0.034 C 
ATOM     13  C   UNL A   1      34.194  27.857  26.476  1.00  0.00     0.034 C 
ENDBRANCH   9  10
BRANCH   9  14
ATOM     14  C   UNL A   1      31.145  26.395  25.027  1.00  0.00     0.290 C 
ATOM     15  O   UNL A   1      30.634  25.781  25.961  1.00  0.00    -0.265 OA
BRANCH  14  16
ATOM     16  C   UNL A   1      30.340  26.741  23.872  1.00  0.00     0.192 A 
ATOM     17  C   UNL A   1      28.960  26.793  23.803  1.00  0.00     0.065 A 
ATOM     18  O   UNL A   1      30.865  27.646  22.980  1.00  0.00    -0.451 OA
ATOM     19  C   UNL A   1      28.644  28.011  23.156  1.00  0.00     0.021 A 
ATOM     20  C   UNL A   1      29.842  28.486  22.640  1.00  0.00     0.135 A 
ATOM     21  C   UNL A   1      27.496  28.817  23.082  1.00  0.00     0.012 A 
ATOM     22  C   UNL A   1      29.977  29.714  22.001  1.00  0.00     0.048 A 
ATOM     23  C   UNL A   1      27.624  30.097  22.530  1.00  0.00     0.001 A 
ATOM     24  C   UNL A   1      28.840  30.531  21.992  1.00  0.00     0.004 A 
ENDBRANCH  14  16
ENDBRANCH   9  14
ENDBRANCH   8   9
ENDBRANCH   6   8
ENDBRANCH   5   6
ENDBRANCH   4   5
ENDBRANCH   3   4
ENDBRANCH   2   3
ENDBRANCH   1   2
BRANCH   1  25
ATOM     25  C   UNL A   1      39.752  21.341  25.921  1.00  0.00     0.188 C 
BRANCH  25  26
ATOM     26  O   UNL A   1      39.987  20.801  27.216  1.00  0.00    -0.376 OA
BRANCH  26  27
ATOM     27  C   UNL A   1      41.361  20.492  27.451  1.00  0.00     0.202 C 
BRANCH  27  28
ATOM     28  C   UNL A   1      42.168  20.901  26.224  1.00  0.00     0.261 C 
BRANCH  28  29
ATOM     29  O   UNL A   1      42.986  22.053  26.521  1.00  0.00    -0.460 OA
BRANCH  29  30
ATOM     30  C   UNL A   1      42.880  23.084  25.664  1.00  0.00     0.338 C 
ATOM     31  O   UNL A   1      43.121  23.078  24.464  1.00  0.00    -0.246 OA
BRANCH  30  32
ATOM     32  C   UNL A   1      42.407  24.287  26.373  1.00  0.00     0.060 A 
ATOM     33  C   UNL A   1      42.947  25.546  26.099  1.00  0.00     0.016 A 
ATOM     34  C   UNL A   1      41.515  24.128  27.430  1.00  0.00     0.016 A 
ATOM     35  C   UNL A   1      42.710  26.613  26.967  1.00  0.00     0.010 A 
ATOM     36  C   UNL A   1      41.191  25.226  28.230  1.00  0.00     0.010 A 
ATOM     37  C   UNL A   1      41.826  26.468  28.043  1.00  0.00    -0.014 A 
BRANCH  37  38
ATOM     38  C   UNL A   1      41.584  27.562  29.025  1.00  0.00     0.031 A 
ATOM     39  C   UNL A   1      42.437  27.639  30.264  1.00  0.00     0.074 A 
ATOM     40  C   UNL A   1      40.591  28.457  28.857  1.00  0.00     0.049 A 
ATOM     41  N   UNL A   1      42.196  28.237  31.402  1.00  0.00    -0.248 NA
ATOM     42  C   UNL A   1      43.727  26.930  30.217  1.00  0.00     0.031 C 
ATOM     43  C   UNL A   1      39.734  28.578  27.678  1.00  0.00     0.029 A 
ATOM     44  N   UNL A   1      40.120  29.427  29.711  1.00  0.00    -0.354 N 
ATOM     45  C   UNL A   1      43.264  27.913  32.231  1.00  0.00     0.074 A 
ATOM     46  C   UNL A   1      44.164  27.082  31.459  1.00  0.00     0.031 C 
ATOM     47  C   UNL A   1      38.843  29.559  27.881  1.00  0.00     0.029 A 
ATOM     48  C   UNL A   1      38.998  30.064  29.240  1.00  0.00     0.049 A 
ATOM     49  H   UNL A   1      40.545  29.642  30.573  1.00  0.00     0.167 HD
ATOM     50  C   UNL A   1      43.462  28.266  33.523  1.00  0.00     0.037 A 
ATOM     51  C   UNL A   1      38.139  30.900  29.855  1.00  0.00     0.037 A 
ATOM     52  C   UNL A   1      42.597  29.146  34.264  1.00  0.00     0.049 A 
ATOM     53  C   UNL A   1      38.345  31.240  31.304  1.00  0.00     0.074 A 
ATOM     54  C   UNL A   1      42.716  29.572  35.576  1.00  0.00     0.029 A 
ATOM     55  N   UNL A   1      41.464  29.754  33.747  1.00  0.00    -0.354 N 
ATOM     56  N   UNL A   1      39.294  30.848  32.118  1.00  0.00    -0.248 NA
ATOM     57  C   UNL A   1      37.341  32.113  31.927  1.00  0.00     0.031 C 
ATOM     58  C   UNL A   1      41.639  30.417  35.861  1.00  0.00     0.029 A 
ATOM     59  C   UNL A   1      40.870  30.545  34.716  1.00  0.00     0.049 A 
ATOM     60  H   UNL A   1      41.130  29.639  32.829  1.00  0.00     0.167 HD
ATOM     61  C   UNL A   1      39.009  31.434  33.344  1.00  0.00     0.074 A 
ATOM     62  C   UNL A   1      37.806  32.221  33.164  1.00  0.00     0.031 C 
ATOM     63  C   UNL A   1      39.679  31.327  34.516  1.00  0.00     0.037 A 
BRANCH  50  64
ATOM     64  C   UNL A   1      44.639  27.673  34.237  1.00  0.00     0.057 A 
ATOM     65  C   UNL A   1      44.598  26.401  34.820  1.00  0.00     0.134 A 
ATOM     66  C   UNL A   1      45.853  28.371  34.290  1.00  0.00     0.134 A 
ATOM     67  F   UNL A   1      43.461  25.690  34.817  1.00  0.00    -0.206 F 
ATOM     68  C   UNL A   1      45.721  25.848  35.438  1.00  0.00     0.040 A 
ATOM     69  C   UNL A   1      46.988  27.820  34.887  1.00  0.00     0.040 A 
ATOM     70  F   UNL A   1      45.960  29.594  33.748  1.00  0.00    -0.206 F 
ATOM     71  C   UNL A   1      46.922  26.554  35.466  1.00  0.00     0.006 A 
ENDBRANCH  50  64
BRANCH  51  72
ATOM     72  C   UNL A   1      36.955  31.408  29.121  1.00  0.00     0.057 A 
ATOM     73  C   UNL A   1      35.840  30.595  28.896  1.00  0.00     0.134 A 
ATOM     74  C   UNL A   1      36.909  32.720  28.630  1.00  0.00     0.134 A 
ATOM     75  F   UNL A   1      35.837  29.322  29.317  1.00  0.00    -0.206 F 
ATOM     76  C   UNL A   1      34.722  31.066  28.205  1.00  0.00     0.040 A 
ATOM     77  C   UNL A   1      35.787  33.211  27.962  1.00  0.00     0.040 A 
ATOM     78  F   UNL A   1      37.948  33.547  28.812  1.00  0.00    -0.206 F 
ATOM     79  C   UNL A   1      34.691  32.380  27.744  1.00  0.00     0.006 A 
ENDBRANCH  51  72
BRANCH  63  80
ATOM     80  C   UNL A   1      39.147  32.106  35.680  1.00  0.00     0.057 A 
ATOM     81  C   UNL A   1      38.283  31.529  36.619  1.00  0.00     0.134 A 
ATOM     82  C   UNL A   1      39.524  33.440  35.876  1.00  0.00     0.134 A 
ATOM     83  F   UNL A   1      37.874  30.260  36.477  1.00  0.00    -0.206 F 
ATOM     84  C   UNL A   1      37.798  32.260  37.704  1.00  0.00     0.040 A 
ATOM     85  C   UNL A   1      39.062  34.175  36.968  1.00  0.00     0.040 A 
ATOM     86  F   UNL A   1      40.354  34.046  35.014  1.00  0.00    -0.206 F 
ATOM     87  C   UNL A   1      38.191  33.586  37.883  1.00  0.00     0.006 A 
ENDBRANCH  63  80
ENDBRANCH  37  38
ENDBRANCH  30  32
ENDBRANCH  29  30
ENDBRANCH  28  29
ENDBRANCH  27  28
ENDBRANCH  26  27
ENDBRANCH  25  26
ENDBRANCH   1  25
TORSDOF 21
ENDMDL
MODEL 3
REMARK VINA RESULT:     -10.5      1.514      3.804
REMARK SMILES CC(C)(C)N(CC(=O)OCCOCCOCCOC(=O)c1ccc(-c2c3nc(c(-c4c(F)cccc4F)c4ccc([nH]4)c(-c4c(F)cccc4F)c4nc(c(-c5c(F)cccc5F)c5ccc2[nH]5)C=C4)C=C3)cc1)C(=O)c1cc2ccccc2o1
REMARK SMILES IDX 13 1 12 2 11 3 10 4 9 5 7 6 8 7 6 8 5 9 2 10 1 11 3 12 4 13
REMARK SMILES IDX 75 14 76 15 77 16 78 17 85 18 79 19 84 20 80 21 83 22 81 23
REMARK SMILES IDX 82 24 14 25 15 26 16 27 17 28 18 29 19 30 20 31 21 32 22 33
REMARK SMILES IDX 74 34 23 35 73 36 24 37 25 38 26 39 67 40 27 41 72 42 66 43
REMARK SMILES IDX 68 44 28 45 71 46 65 47 64 48 29 50 55 51 38 52 54 53 39 54
REMARK SMILES IDX 42 55 53 56 69 57 40 58 41 59 52 61 70 62 43 63 30 64 31 65
REMARK SMILES IDX 36 66 32 67 33 68 35 69 37 70 34 71 56 72 57 73 62 74 58 75
REMARK SMILES IDX 59 76 61 77 63 78 60 79 44 80 45 81 50 82 46 83 47 84 49 85
REMARK SMILES IDX 51 86 48 87
REMARK H PARENT 68 49 42 60
REMARK Flexibility Score: inf
ROOT
ATOM      1  C   UNL A   1      37.898  19.943  25.041  1.00  0.00     0.188 C 
ENDROOT
BRANCH   1   2
ATOM      2  O   UNL A   1      37.787  21.353  25.209  1.00  0.00    -0.376 OA
BRANCH   2   3
ATOM      3  C   UNL A   1      37.417  22.122  24.068  1.00  0.00     0.202 C 
BRANCH   3   4
ATOM      4  C   UNL A   1      35.996  22.696  24.114  1.00  0.00     0.261 C 
BRANCH   4   5
ATOM      5  O   UNL A   1      35.834  23.712  25.132  1.00  0.00    -0.462 OA
BRANCH   5   6
ATOM      6  C   UNL A   1      34.711  24.478  25.078  1.00  0.00     0.325 C 
ATOM      7  O   UNL A   1      34.438  25.241  24.157  1.00  0.00    -0.250 OA
BRANCH   6   8
ATOM      8  C   UNL A   1      33.718  24.206  26.226  1.00  0.00     0.243 C 
BRANCH   8   9
ATOM      9  N   UNL A   1      32.705  23.150  26.074  1.00  0.00    -0.320 N 
BRANCH   9  10
ATOM     10  C   UNL A   1      31.299  23.457  25.682  1.00  0.00     0.036 C 
ATOM     11  C   UNL A   1      30.248  22.615  26.432  1.00  0.00     0.034 C 
ATOM     12  C   UNL A   1      31.054  23.239  24.171  1.00  0.00     0.034 C 
ATOM     13  C   UNL A   1      31.032  24.942  26.007  1.00  0.00     0.034 C 
ENDBRANCH   9  10
BRANCH   9  14
ATOM     14  C   UNL A   1      33.032  21.845  26.424  1.00  0.00     0.290 C 
ATOM     15  O   UNL A   1      33.345  21.557  27.577  1.00  0.00    -0.265 OA
BRANCH  14  16
ATOM     16  C   UNL A   1      32.947  20.800  25.422  1.00  0.00     0.192 A 
ATOM     17  C   UNL A   1      33.951  20.381  24.569  1.00  0.00     0.065 A 
ATOM     18  O   UNL A   1      32.109  19.742  25.678  1.00  0.00    -0.451 OA
ATOM     19  C   UNL A   1      33.948  18.967  24.622  1.00  0.00     0.021 A 
ATOM     20  C   UNL A   1      32.782  18.618  25.289  1.00  0.00     0.135 A 
ATOM     21  C   UNL A   1      34.881  17.968  24.300  1.00  0.00     0.012 A 
ATOM     22  C   UNL A   1      32.445  17.311  25.626  1.00  0.00     0.048 A 
ATOM     23  C   UNL A   1      34.613  16.658  24.712  1.00  0.00     0.001 A 
ATOM     24  C   UNL A   1      33.413  16.337  25.355  1.00  0.00     0.004 A 
ENDBRANCH  14  16
ENDBRANCH   9  14
ENDBRANCH   8   9
ENDBRANCH   6   8
ENDBRANCH   5   6
ENDBRANCH   4   5
ENDBRANCH   3   4
ENDBRANCH   2   3
ENDBRANCH   1   2
BRANCH   1  25
ATOM     25  C   UNL A   1      39.177  19.273  25.550  1.00  0.00     0.188 C 
BRANCH  25  26
ATOM     26  O   UNL A   1      40.046  20.197  26.195  1.00  0.00    -0.376 OA
BRANCH  26  27
ATOM     27  C   UNL A   1      41.367  19.687  26.377  1.00  0.00     0.202 C 
BRANCH  27  28
ATOM     28  C   UNL A   1      42.361  20.825  26.175  1.00  0.00     0.261 C 
BRANCH  28  29
ATOM     29  O   UNL A   1      41.671  22.031  25.783  1.00  0.00    -0.460 OA
BRANCH  29  30
ATOM     30  C   UNL A   1      42.453  23.080  25.471  1.00  0.00     0.338 C 
ATOM     31  O   UNL A   1      43.394  23.096  24.689  1.00  0.00    -0.246 OA
BRANCH  30  32
ATOM     32  C   UNL A   1      42.020  24.276  26.217  1.00  0.00     0.060 A 
ATOM     33  C   UNL A   1      42.527  25.540  25.911  1.00  0.00     0.016 A 
ATOM     34  C   UNL A   1      41.206  24.103  27.334  1.00  0.00     0.016 A 
ATOM     35  C   UNL A   1      42.342  26.602  26.799  1.00  0.00     0.010 A 
ATOM     36  C   UNL A   1      40.929  25.195  28.159  1.00  0.00     0.010 A 
ATOM     37  C   UNL A   1      41.537  26.444  27.934  1.00  0.00    -0.014 A 
BRANCH  37  38
ATOM     38  C   UNL A   1      41.354  27.532  28.935  1.00  0.00     0.031 A 
ATOM     39  C   UNL A   1      42.218  27.547  30.169  1.00  0.00     0.074 A 
ATOM     40  C   UNL A   1      40.404  28.476  28.790  1.00  0.00     0.049 A 
ATOM     41  N   UNL A   1      42.014  28.137  31.319  1.00  0.00    -0.248 NA
ATOM     42  C   UNL A   1      43.472  26.778  30.101  1.00  0.00     0.031 C 
ATOM     43  C   UNL A   1      39.547  28.657  27.619  1.00  0.00     0.029 A 
ATOM     44  N   UNL A   1      39.987  29.453  29.662  1.00  0.00    -0.354 N 
ATOM     45  C   UNL A   1      43.070  27.748  32.134  1.00  0.00     0.074 A 
ATOM     46  C   UNL A   1      43.924  26.889  31.342  1.00  0.00     0.031 C 
ATOM     47  C   UNL A   1      38.705  29.677  27.844  1.00  0.00     0.029 A 
ATOM     48  C   UNL A   1      38.893  30.151  29.211  1.00  0.00     0.049 A 
ATOM     49  H   UNL A   1      40.426  29.633  30.525  1.00  0.00     0.167 HD
ATOM     50  C   UNL A   1      43.294  28.070  33.430  1.00  0.00     0.037 A 
ATOM     51  C   UNL A   1      38.080  31.017  29.846  1.00  0.00     0.037 A 
ATOM     52  C   UNL A   1      42.477  28.978  34.192  1.00  0.00     0.049 A 
ATOM     53  C   UNL A   1      38.311  31.322  31.298  1.00  0.00     0.074 A 
ATOM     54  C   UNL A   1      42.625  29.375  35.510  1.00  0.00     0.029 A 
ATOM     55  N   UNL A   1      41.371  29.648  33.694  1.00  0.00    -0.354 N 
ATOM     56  N   UNL A   1      39.245  30.872  32.099  1.00  0.00    -0.248 NA
ATOM     57  C   UNL A   1      37.354  32.232  31.943  1.00  0.00     0.031 C 
ATOM     58  C   UNL A   1      41.591  30.267  35.817  1.00  0.00     0.029 A 
ATOM     59  C   UNL A   1      40.822  30.450  34.680  1.00  0.00     0.049 A 
ATOM     60  H   UNL A   1      41.026  29.564  32.776  1.00  0.00     0.167 HD
ATOM     61  C   UNL A   1      38.996  31.451  33.336  1.00  0.00     0.074 A 
ATOM     62  C   UNL A   1      37.832  32.297  33.177  1.00  0.00     0.031 C 
ATOM     63  C   UNL A   1      39.668  31.291  34.502  1.00  0.00     0.037 A 
BRANCH  50  64
ATOM     64  C   UNL A   1      44.446  27.409  34.126  1.00  0.00     0.057 A 
ATOM     65  C   UNL A   1      45.707  28.009  34.220  1.00  0.00     0.134 A 
ATOM     66  C   UNL A   1      44.267  26.173  34.761  1.00  0.00     0.134 A 
ATOM     67  F   UNL A   1      45.946  29.184  33.620  1.00  0.00    -0.206 F 
ATOM     68  C   UNL A   1      46.752  27.397  34.914  1.00  0.00     0.040 A 
ATOM     69  C   UNL A   1      45.298  25.562  35.476  1.00  0.00     0.040 A 
ATOM     70  F   UNL A   1      43.081  25.547  34.711  1.00  0.00    -0.206 F 
ATOM     71  C   UNL A   1      46.547  26.174  35.552  1.00  0.00     0.006 A 
ENDBRANCH  50  64
BRANCH  51  72
ATOM     72  C   UNL A   1      36.916  31.593  29.128  1.00  0.00     0.057 A 
ATOM     73  C   UNL A   1      35.751  30.848  28.923  1.00  0.00     0.134 A 
ATOM     74  C   UNL A   1      36.941  32.904  28.635  1.00  0.00     0.134 A 
ATOM     75  F   UNL A   1      35.679  29.578  29.349  1.00  0.00    -0.206 F 
ATOM     76  C   UNL A   1      34.652  31.383  28.249  1.00  0.00     0.040 A 
ATOM     77  C   UNL A   1      35.840  33.460  27.982  1.00  0.00     0.040 A 
ATOM     78  F   UNL A   1      38.030  33.668  28.797  1.00  0.00    -0.206 F 
ATOM     79  C   UNL A   1      34.693  32.696  27.785  1.00  0.00     0.006 A 
ENDBRANCH  51  72
BRANCH  63  80
ATOM     80  C   UNL A   1      39.182  32.075  35.682  1.00  0.00     0.057 A 
ATOM     81  C   UNL A   1      39.579  33.400  35.901  1.00  0.00     0.134 A 
ATOM     82  C   UNL A   1      38.285  31.506  36.594  1.00  0.00     0.134 A 
ATOM     83  F   UNL A   1      40.448  33.995  35.070  1.00  0.00    -0.206 F 
ATOM     84  C   UNL A   1      39.115  34.125  36.999  1.00  0.00     0.040 A 
ATOM     85  C   UNL A   1      37.798  32.227  37.684  1.00  0.00     0.040 A 
ATOM     86  F   UNL A   1      37.862  30.243  36.434  1.00  0.00    -0.206 F 
ATOM     87  C   UNL A   1      38.218  33.539  37.892  1.00  0.00     0.006 A 
ENDBRANCH  63  80
ENDBRANCH  37  38
ENDBRANCH  30  32
ENDBRANCH  29  30
ENDBRANCH  28  29
ENDBRANCH  27  28
ENDBRANCH  26  27
ENDBRANCH  25  26
ENDBRANCH   1  25
TORSDOF 21
ENDMDL
