MODEL 1
REMARK VINA RESULT:     -11.3      0.000      0.000
REMARK SMILES CN(C(=O)C[C@@H]1SC(=O)N(c2ccccc2)C1=O)c1ccccc1C(=O)OCCOCCOCCOC(=O)c1ccc(-c2c3nc(c(-c4c(F)cccc4F)c4ccc([nH]4)c(-c4c(F)cccc4F)c4nc(c(-c5c(F)cccc5F)c5ccc2[nH]5)C=C4)C=C3)cc1
REMARK SMILES IDX 30 1 29 2 28 3 27 4 25 5 26 6 24 7 19 8 20 9 21 10 23 11
REMARK SMILES IDX 22 12 2 13 1 14 3 15 4 16 5 17 6 18 7 19 17 20 8 21 10 22
REMARK SMILES IDX 18 23 9 24 11 25 12 26 16 27 13 28 15 29 14 30 31 31 32 32
REMARK SMILES IDX 33 33 34 34 35 35 36 36 37 37 38 38 39 39 40 40 92 41 41 42
REMARK SMILES IDX 91 43 42 44 43 45 44 46 85 47 45 48 90 49 84 50 86 51 46 52
REMARK SMILES IDX 89 53 83 54 82 55 47 57 73 58 56 59 72 60 57 61 60 62 71 63
REMARK SMILES IDX 87 64 58 65 59 66 70 68 88 69 61 70 48 71 49 72 54 73 50 74
REMARK SMILES IDX 51 75 53 76 55 77 52 78 74 79 75 80 80 81 76 82 77 83 79 84
REMARK SMILES IDX 81 85 78 86 62 87 63 88 68 89 64 90 65 91 67 92 69 93 66 94
REMARK H PARENT 86 56 60 67
REMARK Flexibility Score: inf
ROOT
ATOM      1  O   UNL A   1      34.029  31.306  28.251  1.00  0.00    -0.376 OA
ENDROOT
BRANCH   1   2
ATOM      2  C   UNL A   1      33.805  30.381  27.184  1.00  0.00     0.202 C 
BRANCH   2   3
ATOM      3  C   UNL A   1      32.343  29.974  27.040  1.00  0.00     0.261 C 
BRANCH   3   4
ATOM      4  O   UNL A   1      31.967  30.039  25.649  1.00  0.00    -0.460 OA
BRANCH   4   5
ATOM      5  C   UNL A   1      30.999  30.930  25.363  1.00  0.00     0.340 C 
ATOM      6  O   UNL A   1      30.908  32.056  25.829  1.00  0.00    -0.246 OA
BRANCH   5   7
ATOM      7  C   UNL A   1      30.107  30.460  24.279  1.00  0.00     0.083 A 
ATOM      8  C   UNL A   1      30.140  29.232  23.579  1.00  0.00     0.058 A 
ATOM      9  C   UNL A   1      28.969  28.931  22.837  1.00  0.00     0.027 A 
ATOM     10  C   UNL A   1      27.924  29.837  22.633  1.00  0.00     0.002 A 
ATOM     11  C   UNL A   1      29.063  31.391  24.034  1.00  0.00     0.018 A 
ATOM     12  C   UNL A   1      27.996  31.095  23.194  1.00  0.00     0.001 A 
BRANCH   8  13
ATOM     13  N   UNL A   1      31.221  28.241  23.534  1.00  0.00    -0.315 N 
ATOM     14  C   UNL A   1      32.395  28.484  22.713  1.00  0.00     0.153 C 
BRANCH  13  15
ATOM     15  C   UNL A   1      31.015  26.992  24.152  1.00  0.00     0.228 C 
ATOM     16  O   UNL A   1      31.020  25.926  23.529  1.00  0.00    -0.274 OA
BRANCH  15  17
ATOM     17  C   UNL A   1      30.798  26.884  25.655  1.00  0.00     0.125 C 
BRANCH  17  18
ATOM     18  C   UNL A   1      31.939  26.192  26.401  1.00  0.00     0.156 C 
ATOM     19  S   UNL A   1      33.550  26.603  25.696  1.00  0.00    -0.050 SA
ATOM     20  C   UNL A   1      31.873  24.681  26.419  1.00  0.00     0.248 C 
ATOM     21  C   UNL A   1      33.980  24.918  25.435  1.00  0.00     0.293 C 
ATOM     22  N   UNL A   1      32.907  24.104  25.699  1.00  0.00    -0.240 N 
ATOM     23  O   UNL A   1      31.041  24.092  27.105  1.00  0.00    -0.273 OA
ATOM     24  O   UNL A   1      35.112  24.646  25.068  1.00  0.00    -0.261 OA
BRANCH  22  25
ATOM     25  C   UNL A   1      32.901  22.704  25.442  1.00  0.00     0.053 A 
ATOM     26  C   UNL A   1      33.522  21.826  26.350  1.00  0.00     0.027 A 
ATOM     27  C   UNL A   1      32.285  22.162  24.310  1.00  0.00     0.027 A 
ATOM     28  C   UNL A   1      33.535  20.447  26.130  1.00  0.00     0.002 A 
ATOM     29  C   UNL A   1      32.355  20.789  24.059  1.00  0.00     0.002 A 
ATOM     30  C   UNL A   1      32.968  19.931  24.972  1.00  0.00     0.000 A 
ENDBRANCH  22  25
ENDBRANCH  17  18
ENDBRANCH  15  17
ENDBRANCH  13  15
ENDBRANCH   8  13
ENDBRANCH   5   7
ENDBRANCH   4   5
ENDBRANCH   3   4
ENDBRANCH   2   3
ENDBRANCH   1   2
BRANCH   1  31
ATOM     31  C   UNL A   1      33.690  32.676  28.009  1.00  0.00     0.188 C 
BRANCH  31  32
ATOM     32  C   UNL A   1      34.860  33.673  27.910  1.00  0.00     0.188 C 
BRANCH  32  33
ATOM     33  O   UNL A   1      35.000  34.674  28.907  1.00  0.00    -0.376 OA
BRANCH  33  34
ATOM     34  C   UNL A   1      33.988  34.844  29.887  1.00  0.00     0.202 C 
BRANCH  34  35
ATOM     35  C   UNL A   1      34.505  34.402  31.256  1.00  0.00     0.261 C 
BRANCH  35  36
ATOM     36  O   UNL A   1      35.734  33.657  31.136  1.00  0.00    -0.460 OA
BRANCH  36  37
ATOM     37  C   UNL A   1      35.606  32.386  31.579  1.00  0.00     0.338 C 
ATOM     38  O   UNL A   1      34.751  31.945  32.323  1.00  0.00    -0.246 OA
BRANCH  37  39
ATOM     39  C   UNL A   1      36.683  31.510  31.135  1.00  0.00     0.060 A 
ATOM     40  C   UNL A   1      37.547  30.958  32.089  1.00  0.00     0.016 A 
ATOM     41  C   UNL A   1      37.002  31.517  29.778  1.00  0.00     0.016 A 
ATOM     42  C   UNL A   1      38.769  30.432  31.680  1.00  0.00     0.010 A 
ATOM     43  C   UNL A   1      38.222  30.993  29.374  1.00  0.00     0.010 A 
ATOM     44  C   UNL A   1      39.118  30.474  30.323  1.00  0.00    -0.014 A 
BRANCH  44  45
ATOM     45  C   UNL A   1      40.423  29.971  29.857  1.00  0.00     0.031 A 
ATOM     46  C   UNL A   1      41.569  30.921  29.672  1.00  0.00     0.074 A 
ATOM     47  C   UNL A   1      40.515  28.676  29.514  1.00  0.00     0.049 A 
ATOM     48  N   UNL A   1      42.705  30.730  29.057  1.00  0.00    -0.248 NA
ATOM     49  C   UNL A   1      41.408  32.267  30.244  1.00  0.00     0.031 C 
ATOM     50  C   UNL A   1      39.452  27.684  29.688  1.00  0.00     0.029 A 
ATOM     51  N   UNL A   1      41.530  27.983  28.915  1.00  0.00    -0.354 N 
ATOM     52  C   UNL A   1      43.384  31.940  29.135  1.00  0.00     0.074 A 
ATOM     53  C   UNL A   1      42.532  32.859  29.860  1.00  0.00     0.031 C 
ATOM     54  C   UNL A   1      39.861  26.512  29.181  1.00  0.00     0.029 A 
ATOM     55  C   UNL A   1      41.186  26.692  28.599  1.00  0.00     0.049 A 
ATOM     56  H   UNL A   1      42.416  28.370  28.728  1.00  0.00     0.167 HD
ATOM     57  C   UNL A   1      44.603  32.246  28.629  1.00  0.00     0.037 A 
ATOM     58  C   UNL A   1      41.850  25.777  27.873  1.00  0.00     0.037 A 
ATOM     59  C   UNL A   1      45.427  31.303  27.915  1.00  0.00     0.049 A 
ATOM     60  C   UNL A   1      43.185  26.154  27.301  1.00  0.00     0.074 A 
ATOM     61  C   UNL A   1      46.686  31.487  27.370  1.00  0.00     0.029 A 
ATOM     62  N   UNL A   1      45.063  29.989  27.645  1.00  0.00    -0.354 N 
ATOM     63  N   UNL A   1      43.823  27.299  27.374  1.00  0.00    -0.248 NA
ATOM     64  C   UNL A   1      43.894  25.115  26.548  1.00  0.00     0.031 C 
ATOM     65  C   UNL A   1      47.067  30.297  26.739  1.00  0.00     0.029 A 
ATOM     66  C   UNL A   1      46.069  29.355  26.935  1.00  0.00     0.049 A 
ATOM     67  H   UNL A   1      44.216  29.571  27.919  1.00  0.00     0.167 HD
ATOM     68  C   UNL A   1      45.027  27.105  26.713  1.00  0.00     0.074 A 
ATOM     69  C   UNL A   1      45.028  25.730  26.252  1.00  0.00     0.031 C 
ATOM     70  C   UNL A   1      46.044  27.979  26.508  1.00  0.00     0.037 A 
BRANCH  57  71
ATOM     71  C   UNL A   1      45.103  33.653  28.793  1.00  0.00     0.057 A 
ATOM     72  C   UNL A   1      45.920  34.036  29.864  1.00  0.00     0.134 A 
ATOM     73  C   UNL A   1      44.798  34.633  27.837  1.00  0.00     0.134 A 
ATOM     74  F   UNL A   1      46.243  33.153  30.822  1.00  0.00    -0.206 F 
ATOM     75  C   UNL A   1      46.404  35.341  29.987  1.00  0.00     0.040 A 
ATOM     76  C   UNL A   1      45.295  35.935  27.936  1.00  0.00     0.040 A 
ATOM     77  F   UNL A   1      44.022  34.337  26.783  1.00  0.00    -0.206 F 
ATOM     78  C   UNL A   1      46.097  36.293  29.016  1.00  0.00     0.006 A 
ENDBRANCH  57  71
BRANCH  58  79
ATOM     79  C   UNL A   1      41.261  24.436  27.648  1.00  0.00     0.057 A 
ATOM     80  C   UNL A   1      40.264  24.242  26.687  1.00  0.00     0.134 A 
ATOM     81  C   UNL A   1      41.682  23.316  28.376  1.00  0.00     0.134 A 
ATOM     82  F   UNL A   1      39.812  25.279  25.965  1.00  0.00    -0.206 F 
ATOM     83  C   UNL A   1      39.689  22.989  26.472  1.00  0.00     0.040 A 
ATOM     84  C   UNL A   1      41.136  22.052  28.152  1.00  0.00     0.040 A 
ATOM     85  F   UNL A   1      42.647  23.431  29.301  1.00  0.00    -0.206 F 
ATOM     86  C   UNL A   1      40.129  21.888  27.203  1.00  0.00     0.006 A 
ENDBRANCH  58  79
BRANCH  70  87
ATOM     87  C   UNL A   1      47.260  27.437  25.818  1.00  0.00     0.057 A 
ATOM     88  C   UNL A   1      47.418  27.499  24.429  1.00  0.00     0.134 A 
ATOM     89  C   UNL A   1      48.282  26.838  26.564  1.00  0.00     0.134 A 
ATOM     90  F   UNL A   1      46.465  28.045  23.658  1.00  0.00    -0.206 F 
ATOM     91  C   UNL A   1      48.535  26.949  23.801  1.00  0.00     0.040 A 
ATOM     92  C   UNL A   1      49.417  26.311  25.950  1.00  0.00     0.040 A 
ATOM     93  F   UNL A   1      48.193  26.755  27.900  1.00  0.00    -0.206 F 
ATOM     94  C   UNL A   1      49.541  26.355  24.563  1.00  0.00     0.006 A 
ENDBRANCH  70  87
ENDBRANCH  44  45
ENDBRANCH  37  39
ENDBRANCH  36  37
ENDBRANCH  35  36
ENDBRANCH  34  35
ENDBRANCH  33  34
ENDBRANCH  32  33
ENDBRANCH  31  32
ENDBRANCH   1  31
TORSDOF 22
ENDMDL
MODEL 2
REMARK VINA RESULT:     -11.0      1.958      6.487
REMARK SMILES CN(C(=O)C[C@@H]1SC(=O)N(c2ccccc2)C1=O)c1ccccc1C(=O)OCCOCCOCCOC(=O)c1ccc(-c2c3nc(c(-c4c(F)cccc4F)c4ccc([nH]4)c(-c4c(F)cccc4F)c4nc(c(-c5c(F)cccc5F)c5ccc2[nH]5)C=C4)C=C3)cc1
REMARK SMILES IDX 30 1 29 2 28 3 27 4 25 5 26 6 24 7 19 8 20 9 21 10 23 11
REMARK SMILES IDX 22 12 2 13 1 14 3 15 4 16 5 17 6 18 7 19 17 20 8 21 10 22
REMARK SMILES IDX 18 23 9 24 11 25 12 26 16 27 13 28 15 29 14 30 31 31 32 32
REMARK SMILES IDX 33 33 34 34 35 35 36 36 37 37 38 38 39 39 40 40 92 41 41 42
REMARK SMILES IDX 91 43 42 44 43 45 44 46 85 47 45 48 90 49 84 50 86 51 46 52
REMARK SMILES IDX 89 53 83 54 82 55 47 57 73 58 56 59 72 60 57 61 60 62 71 63
REMARK SMILES IDX 87 64 58 65 59 66 70 68 88 69 61 70 48 71 49 72 54 73 50 74
REMARK SMILES IDX 51 75 53 76 55 77 52 78 74 79 75 80 80 81 76 82 77 83 79 84
REMARK SMILES IDX 81 85 78 86 62 87 63 88 68 89 64 90 65 91 67 92 69 93 66 94
REMARK H PARENT 86 56 60 67
REMARK Flexibility Score: inf
ROOT
ATOM      1  O   UNL A   1      33.804  30.595  26.842  1.00  0.00    -0.376 OA
ENDROOT
BRANCH   1   2
ATOM      2  C   UNL A   1      33.646  29.258  27.320  1.00  0.00     0.202 C 
BRANCH   2   3
ATOM      3  C   UNL A   1      32.308  28.637  26.935  1.00  0.00     0.261 C 
BRANCH   3   4
ATOM      4  O   UNL A   1      32.541  27.516  26.058  1.00  0.00    -0.460 OA
BRANCH   4   5
ATOM      5  C   UNL A   1      32.615  27.823  24.749  1.00  0.00     0.340 C 
ATOM      6  O   UNL A   1      33.646  27.987  24.114  1.00  0.00    -0.246 OA
BRANCH   5   7
ATOM      7  C   UNL A   1      31.289  27.798  24.092  1.00  0.00     0.083 A 
ATOM      8  C   UNL A   1      30.299  26.788  24.138  1.00  0.00     0.058 A 
ATOM      9  C   UNL A   1      29.014  27.185  23.688  1.00  0.00     0.027 A 
ATOM     10  C   UNL A   1      28.754  28.407  23.061  1.00  0.00     0.002 A 
ATOM     11  C   UNL A   1      31.028  29.019  23.416  1.00  0.00     0.018 A 
ATOM     12  C   UNL A   1      29.780  29.310  22.877  1.00  0.00     0.001 A 
BRANCH   8  13
ATOM     13  N   UNL A   1      30.438  25.402  24.596  1.00  0.00    -0.315 N 
ATOM     14  C   UNL A   1      30.161  25.065  25.982  1.00  0.00     0.153 C 
BRANCH  13  15
ATOM     15  C   UNL A   1      31.009  24.457  23.721  1.00  0.00     0.228 C 
ATOM     16  O   UNL A   1      30.335  23.646  23.078  1.00  0.00    -0.274 OA
BRANCH  15  17
ATOM     17  C   UNL A   1      32.513  24.401  23.496  1.00  0.00     0.125 C 
BRANCH  17  18
ATOM     18  C   UNL A   1      33.119  23.009  23.676  1.00  0.00     0.156 C 
ATOM     19  S   UNL A   1      32.467  22.177  25.140  1.00  0.00    -0.050 SA
ATOM     20  C   UNL A   1      34.624  22.976  23.824  1.00  0.00     0.248 C 
ATOM     21  C   UNL A   1      34.063  21.910  25.827  1.00  0.00     0.293 C 
ATOM     22  N   UNL A   1      35.017  22.563  25.086  1.00  0.00    -0.240 N 
ATOM     23  O   UNL A   1      35.358  23.193  22.862  1.00  0.00    -0.273 OA
ATOM     24  O   UNL A   1      34.169  21.220  26.828  1.00  0.00    -0.261 OA
BRANCH  22  25
ATOM     25  C   UNL A   1      36.384  22.654  25.473  1.00  0.00     0.053 A 
ATOM     26  C   UNL A   1      37.234  21.546  25.296  1.00  0.00     0.027 A 
ATOM     27  C   UNL A   1      36.923  23.823  26.019  1.00  0.00     0.027 A 
ATOM     28  C   UNL A   1      38.580  21.601  25.663  1.00  0.00     0.002 A 
ATOM     29  C   UNL A   1      38.253  23.855  26.443  1.00  0.00     0.002 A 
ATOM     30  C   UNL A   1      39.084  22.750  26.256  1.00  0.00     0.000 A 
ENDBRANCH  22  25
ENDBRANCH  17  18
ENDBRANCH  15  17
ENDBRANCH  13  15
ENDBRANCH   8  13
ENDBRANCH   5   7
ENDBRANCH   4   5
ENDBRANCH   3   4
ENDBRANCH   2   3
ENDBRANCH   1   2
BRANCH   1  31
ATOM     31  C   UNL A   1      34.012  31.618  27.822  1.00  0.00     0.188 C 
BRANCH  31  32
ATOM     32  C   UNL A   1      35.449  32.148  27.978  1.00  0.00     0.188 C 
BRANCH  32  33
ATOM     33  O   UNL A   1      35.800  32.857  29.157  1.00  0.00    -0.376 OA
BRANCH  33  34
ATOM     34  C   UNL A   1      34.906  32.887  30.257  1.00  0.00     0.202 C 
BRANCH  34  35
ATOM     35  C   UNL A   1      35.534  32.189  31.463  1.00  0.00     0.261 C 
BRANCH  35  36
ATOM     36  O   UNL A   1      36.822  31.630  31.131  1.00  0.00    -0.460 OA
BRANCH  36  37
ATOM     37  C   UNL A   1      36.920  30.328  31.484  1.00  0.00     0.338 C 
ATOM     38  O   UNL A   1      36.274  29.741  32.331  1.00  0.00    -0.246 OA
BRANCH  37  39
ATOM     39  C   UNL A   1      37.983  29.620  30.782  1.00  0.00     0.060 A 
ATOM     40  C   UNL A   1      38.958  28.945  31.529  1.00  0.00     0.016 A 
ATOM     41  C   UNL A   1      38.169  29.909  29.431  1.00  0.00     0.016 A 
ATOM     42  C   UNL A   1      40.154  28.581  30.919  1.00  0.00     0.010 A 
ATOM     43  C   UNL A   1      39.365  29.546  28.826  1.00  0.00     0.010 A 
ATOM     44  C   UNL A   1      40.368  28.906  29.572  1.00  0.00    -0.014 A 
BRANCH  44  45
ATOM     45  C   UNL A   1      41.642  28.581  28.904  1.00  0.00     0.031 A 
ATOM     46  C   UNL A   1      41.890  27.192  28.398  1.00  0.00     0.074 A 
ATOM     47  C   UNL A   1      42.591  29.530  28.861  1.00  0.00     0.049 A 
ATOM     48  N   UNL A   1      43.009  26.646  28.004  1.00  0.00    -0.248 NA
ATOM     49  C   UNL A   1      40.725  26.295  28.338  1.00  0.00     0.031 C 
ATOM     50  C   UNL A   1      42.418  30.913  29.311  1.00  0.00     0.029 A 
ATOM     51  N   UNL A   1      43.896  29.467  28.456  1.00  0.00    -0.354 N 
ATOM     52  C   UNL A   1      42.695  25.331  27.683  1.00  0.00     0.074 A 
ATOM     53  C   UNL A   1      41.278  25.162  27.925  1.00  0.00     0.031 C 
ATOM     54  C   UNL A   1      43.583  31.564  29.182  1.00  0.00     0.029 A 
ATOM     55  C   UNL A   1      44.590  30.626  28.697  1.00  0.00     0.049 A 
ATOM     56  H   UNL A   1      44.296  28.672  28.035  1.00  0.00     0.167 HD
ATOM     57  C   UNL A   1      43.529  24.359  27.240  1.00  0.00     0.037 A 
ATOM     58  C   UNL A   1      45.904  30.882  28.587  1.00  0.00     0.037 A 
ATOM     59  C   UNL A   1      44.937  24.566  27.006  1.00  0.00     0.049 A 
ATOM     60  C   UNL A   1      46.808  29.778  28.122  1.00  0.00     0.074 A 
ATOM     61  C   UNL A   1      45.881  23.666  26.542  1.00  0.00     0.029 A 
ATOM     62  N   UNL A   1      45.601  25.766  27.225  1.00  0.00    -0.354 N 
ATOM     63  N   UNL A   1      46.509  28.535  27.820  1.00  0.00    -0.248 NA
ATOM     64  C   UNL A   1      48.229  30.109  27.979  1.00  0.00     0.031 C 
ATOM     65  C   UNL A   1      47.123  24.312  26.516  1.00  0.00     0.029 A 
ATOM     66  C   UNL A   1      46.944  25.628  26.914  1.00  0.00     0.049 A 
ATOM     67  H   UNL A   1      45.180  26.593  27.552  1.00  0.00     0.167 HD
ATOM     68  C   UNL A   1      47.697  27.948  27.412  1.00  0.00     0.074 A 
ATOM     69  C   UNL A   1      48.717  28.975  27.500  1.00  0.00     0.031 C 
ATOM     70  C   UNL A   1      47.928  26.678  26.997  1.00  0.00     0.037 A 
BRANCH  57  71
ATOM     71  C   UNL A   1      42.959  22.987  27.016  1.00  0.00     0.057 A 
ATOM     72  C   UNL A   1      42.769  22.457  25.733  1.00  0.00     0.134 A 
ATOM     73  C   UNL A   1      42.637  22.164  28.105  1.00  0.00     0.134 A 
ATOM     74  F   UNL A   1      43.045  23.193  24.646  1.00  0.00    -0.206 F 
ATOM     75  C   UNL A   1      42.267  21.167  25.541  1.00  0.00     0.040 A 
ATOM     76  C   UNL A   1      42.158  20.864  27.925  1.00  0.00     0.040 A 
ATOM     77  F   UNL A   1      42.796  22.605  29.362  1.00  0.00    -0.206 F 
ATOM     78  C   UNL A   1      41.968  20.364  26.640  1.00  0.00     0.006 A 
ENDBRANCH  57  71
BRANCH  58  79
ATOM     79  C   UNL A   1      46.433  32.224  28.927  1.00  0.00     0.057 A 
ATOM     80  C   UNL A   1      46.538  33.221  27.952  1.00  0.00     0.134 A 
ATOM     81  C   UNL A   1      46.835  32.548  30.228  1.00  0.00     0.134 A 
ATOM     82  F   UNL A   1      46.178  32.967  26.684  1.00  0.00    -0.206 F 
ATOM     83  C   UNL A   1      47.047  34.486  28.251  1.00  0.00     0.040 A 
ATOM     84  C   UNL A   1      47.320  33.817  30.548  1.00  0.00     0.040 A 
ATOM     85  F   UNL A   1      46.745  31.641  31.213  1.00  0.00    -0.206 F 
ATOM     86  C   UNL A   1      47.434  34.787  29.555  1.00  0.00     0.006 A 
ENDBRANCH  58  79
BRANCH  70  87
ATOM     87  C   UNL A   1      49.322  26.368  26.541  1.00  0.00     0.057 A 
ATOM     88  C   UNL A   1      49.739  26.581  25.221  1.00  0.00     0.134 A 
ATOM     89  C   UNL A   1      50.256  25.841  27.441  1.00  0.00     0.134 A 
ATOM     90  F   UNL A   1      48.885  27.067  24.307  1.00  0.00    -0.206 F 
ATOM     91  C   UNL A   1      51.026  26.244  24.803  1.00  0.00     0.040 A 
ATOM     92  C   UNL A   1      51.554  25.527  27.043  1.00  0.00     0.040 A 
ATOM     93  F   UNL A   1      49.920  25.621  28.722  1.00  0.00    -0.206 F 
ATOM     94  C   UNL A   1      51.939  25.718  25.717  1.00  0.00     0.006 A 
ENDBRANCH  70  87
ENDBRANCH  44  45
ENDBRANCH  37  39
ENDBRANCH  36  37
ENDBRANCH  35  36
ENDBRANCH  34  35
ENDBRANCH  33  34
ENDBRANCH  32  33
ENDBRANCH  31  32
ENDBRANCH   1  31
TORSDOF 22
ENDMDL
MODEL 3
REMARK VINA RESULT:     -10.9      4.167     10.105
REMARK SMILES CN(C(=O)C[C@@H]1SC(=O)N(c2ccccc2)C1=O)c1ccccc1C(=O)OCCOCCOCCOC(=O)c1ccc(-c2c3nc(c(-c4c(F)cccc4F)c4ccc([nH]4)c(-c4c(F)cccc4F)c4nc(c(-c5c(F)cccc5F)c5ccc2[nH]5)C=C4)C=C3)cc1
REMARK SMILES IDX 30 1 29 2 28 3 27 4 25 5 26 6 24 7 19 8 20 9 21 10 23 11
REMARK SMILES IDX 22 12 2 13 1 14 3 15 4 16 5 17 6 18 7 19 17 20 8 21 10 22
REMARK SMILES IDX 18 23 9 24 11 25 12 26 16 27 13 28 15 29 14 30 31 31 32 32
REMARK SMILES IDX 33 33 34 34 35 35 36 36 37 37 38 38 39 39 40 40 92 41 41 42
REMARK SMILES IDX 91 43 42 44 43 45 44 46 85 47 45 48 90 49 84 50 86 51 46 52
REMARK SMILES IDX 89 53 83 54 82 55 47 57 73 58 56 59 72 60 57 61 60 62 71 63
REMARK SMILES IDX 87 64 58 65 59 66 70 68 88 69 61 70 48 71 49 72 54 73 50 74
REMARK SMILES IDX 51 75 53 76 55 77 52 78 74 79 75 80 80 81 76 82 77 83 79 84
REMARK SMILES IDX 81 85 78 86 62 87 63 88 68 89 64 90 65 91 67 92 69 93 66 94
REMARK H PARENT 86 56 60 67
REMARK Flexibility Score: inf
ROOT
ATOM      1  O   UNL A   1      39.520  20.531  25.980  1.00  0.00    -0.376 OA
ENDROOT
BRANCH   1   2
ATOM      2  C   UNL A   1      38.359  19.986  25.349  1.00  0.00     0.202 C 
BRANCH   2   3
ATOM      3  C   UNL A   1      37.467  21.047  24.714  1.00  0.00     0.261 C 
BRANCH   3   4
ATOM      4  O   UNL A   1      36.393  21.369  25.620  1.00  0.00    -0.460 OA
BRANCH   4   5
ATOM      5  C   UNL A   1      35.189  20.877  25.273  1.00  0.00     0.340 C 
ATOM      6  O   UNL A   1      34.993  19.824  24.685  1.00  0.00    -0.246 OA
BRANCH   5   7
ATOM      7  C   UNL A   1      34.075  21.684  25.819  1.00  0.00     0.083 A 
ATOM      8  C   UNL A   1      32.903  22.130  25.164  1.00  0.00     0.058 A 
ATOM      9  C   UNL A   1      31.874  22.594  26.023  1.00  0.00     0.027 A 
ATOM     10  C   UNL A   1      32.039  22.791  27.397  1.00  0.00     0.002 A 
ATOM     11  C   UNL A   1      34.250  21.927  27.207  1.00  0.00     0.018 A 
ATOM     12  C   UNL A   1      33.253  22.504  27.985  1.00  0.00     0.001 A 
BRANCH   8  13
ATOM     13  N   UNL A   1      32.625  22.163  23.725  1.00  0.00    -0.315 N 
ATOM     14  C   UNL A   1      32.243  20.945  23.031  1.00  0.00     0.153 C 
BRANCH  13  15
ATOM     15  C   UNL A   1      32.906  23.344  23.012  1.00  0.00     0.228 C 
ATOM     16  O   UNL A   1      34.019  23.593  22.538  1.00  0.00    -0.274 OA
BRANCH  15  17
ATOM     17  C   UNL A   1      31.826  24.387  22.757  1.00  0.00     0.125 C 
BRANCH  17  18
ATOM     18  C   UNL A   1      32.266  25.823  23.041  1.00  0.00     0.156 C 
ATOM     19  S   UNL A   1      32.550  26.103  24.803  1.00  0.00    -0.050 SA
ATOM     20  C   UNL A   1      31.289  26.893  22.610  1.00  0.00     0.248 C 
ATOM     21  C   UNL A   1      31.425  27.452  24.876  1.00  0.00     0.293 C 
ATOM     22  N   UNL A   1      30.745  27.572  23.688  1.00  0.00    -0.240 N 
ATOM     23  O   UNL A   1      31.125  27.157  21.420  1.00  0.00    -0.273 OA
ATOM     24  O   UNL A   1      31.355  28.110  25.901  1.00  0.00    -0.261 OA
BRANCH  22  25
ATOM     25  C   UNL A   1      29.666  28.479  23.490  1.00  0.00     0.053 A 
ATOM     26  C   UNL A   1      29.891  29.864  23.593  1.00  0.00     0.027 A 
ATOM     27  C   UNL A   1      28.375  28.037  23.182  1.00  0.00     0.027 A 
ATOM     28  C   UNL A   1      28.856  30.782  23.404  1.00  0.00     0.002 A 
ATOM     29  C   UNL A   1      27.329  28.954  23.056  1.00  0.00     0.002 A 
ATOM     30  C   UNL A   1      27.570  30.324  23.155  1.00  0.00     0.000 A 
ENDBRANCH  22  25
ENDBRANCH  17  18
ENDBRANCH  15  17
ENDBRANCH  13  15
ENDBRANCH   8  13
ENDBRANCH   5   7
ENDBRANCH   4   5
ENDBRANCH   3   4
ENDBRANCH   2   3
ENDBRANCH   1   2
BRANCH   1  31
ATOM     31  C   UNL A   1      40.695  19.714  26.000  1.00  0.00     0.188 C 
BRANCH  31  32
ATOM     32  C   UNL A   1      42.039  20.435  26.215  1.00  0.00     0.188 C 
BRANCH  32  33
ATOM     33  O   UNL A   1      43.175  20.015  25.474  1.00  0.00    -0.376 OA
BRANCH  33  34
ATOM     34  C   UNL A   1      44.283  20.887  25.323  1.00  0.00     0.202 C 
BRANCH  34  35
ATOM     35  C   UNL A   1      44.290  21.925  26.445  1.00  0.00     0.261 C 
BRANCH  35  36
ATOM     36  O   UNL A   1      44.453  23.259  25.922  1.00  0.00    -0.460 OA
BRANCH  36  37
ATOM     37  C   UNL A   1      43.311  23.740  25.382  1.00  0.00     0.338 C 
ATOM     38  O   UNL A   1      42.787  23.401  24.338  1.00  0.00    -0.246 OA
BRANCH  37  39
ATOM     39  C   UNL A   1      42.726  24.832  26.150  1.00  0.00     0.060 A 
ATOM     40  C   UNL A   1      43.304  26.105  26.072  1.00  0.00     0.016 A 
ATOM     41  C   UNL A   1      41.829  24.500  27.164  1.00  0.00     0.016 A 
ATOM     42  C   UNL A   1      43.006  27.052  27.045  1.00  0.00     0.010 A 
ATOM     43  C   UNL A   1      41.534  25.447  28.135  1.00  0.00     0.010 A 
ATOM     44  C   UNL A   1      42.138  26.713  28.093  1.00  0.00    -0.014 A 
BRANCH  44  45
ATOM     45  C   UNL A   1      41.835  27.673  29.171  1.00  0.00     0.031 A 
ATOM     46  C   UNL A   1      42.590  27.611  30.465  1.00  0.00     0.074 A 
ATOM     47  C   UNL A   1      40.808  28.520  28.990  1.00  0.00     0.049 A 
ATOM     48  N   UNL A   1      42.322  28.192  31.604  1.00  0.00    -0.248 NA
ATOM     49  C   UNL A   1      43.799  26.772  30.483  1.00  0.00     0.031 C 
ATOM     50  C   UNL A   1      40.041  28.658  27.751  1.00  0.00     0.029 A 
ATOM     51  N   UNL A   1      40.211  29.393  29.857  1.00  0.00    -0.354 N 
ATOM     52  C   UNL A   1      43.307  27.765  32.486  1.00  0.00     0.074 A 
ATOM     53  C   UNL A   1      44.181  26.876  31.749  1.00  0.00     0.031 C 
ATOM     54  C   UNL A   1      39.054  29.546  27.945  1.00  0.00     0.029 A 
ATOM     55  C   UNL A   1      39.090  29.988  29.334  1.00  0.00     0.049 A 
ATOM     56  H   UNL A   1      40.549  29.576  30.764  1.00  0.00     0.167 HD
ATOM     57  C   UNL A   1      43.448  28.083  33.795  1.00  0.00     0.037 A 
ATOM     58  C   UNL A   1      38.168  30.762  29.930  1.00  0.00     0.037 A 
ATOM     59  C   UNL A   1      42.560  28.977  34.496  1.00  0.00     0.049 A 
ATOM     60  C   UNL A   1      38.335  31.074  31.388  1.00  0.00     0.074 A 
ATOM     61  C   UNL A   1      42.608  29.391  35.816  1.00  0.00     0.029 A 
ATOM     62  N   UNL A   1      41.454  29.594  33.924  1.00  0.00    -0.354 N 
ATOM     63  N   UNL A   1      39.265  30.668  32.220  1.00  0.00    -0.248 NA
ATOM     64  C   UNL A   1      37.328  31.953  31.991  1.00  0.00     0.031 C 
ATOM     65  C   UNL A   1      41.511  30.228  36.051  1.00  0.00     0.029 A 
ATOM     66  C   UNL A   1      40.808  30.377  34.865  1.00  0.00     0.049 A 
ATOM     67  H   UNL A   1      41.172  29.490  32.987  1.00  0.00     0.167 HD
ATOM     68  C   UNL A   1      38.980  31.274  33.434  1.00  0.00     0.074 A 
ATOM     69  C   UNL A   1      37.793  32.080  33.224  1.00  0.00     0.031 C 
ATOM     70  C   UNL A   1      39.638  31.181  34.616  1.00  0.00     0.037 A 
BRANCH  57  71
ATOM     71  C   UNL A   1      44.570  27.442  34.561  1.00  0.00     0.057 A 
ATOM     72  C   UNL A   1      45.762  28.119  34.849  1.00  0.00     0.134 A 
ATOM     73  C   UNL A   1      44.437  26.137  35.058  1.00  0.00     0.134 A 
ATOM     74  F   UNL A   1      45.962  29.366  34.395  1.00  0.00    -0.206 F 
ATOM     75  C   UNL A   1      46.784  27.520  35.590  1.00  0.00     0.040 A 
ATOM     76  C   UNL A   1      45.442  25.537  35.821  1.00  0.00     0.040 A 
ATOM     77  F   UNL A   1      43.322  25.429  34.823  1.00  0.00    -0.206 F 
ATOM     78  C   UNL A   1      46.621  26.227  36.085  1.00  0.00     0.006 A 
ENDBRANCH  57  71
BRANCH  58  79
ATOM     79  C   UNL A   1      37.018  31.281  29.153  1.00  0.00     0.057 A 
ATOM     80  C   UNL A   1      36.997  32.604  28.698  1.00  0.00     0.134 A 
ATOM     81  C   UNL A   1      35.918  30.473  28.837  1.00  0.00     0.134 A 
ATOM     82  F   UNL A   1      38.016  33.430  28.979  1.00  0.00    -0.206 F 
ATOM     83  C   UNL A   1      35.915  33.112  27.978  1.00  0.00     0.040 A 
ATOM     84  C   UNL A   1      34.843  30.960  28.094  1.00  0.00     0.040 A 
ATOM     85  F   UNL A   1      35.884  29.190  29.230  1.00  0.00    -0.206 F 
ATOM     86  C   UNL A   1      34.836  32.287  27.670  1.00  0.00     0.006 A 
ENDBRANCH  58  79
BRANCH  70  87
ATOM     87  C   UNL A   1      39.121  32.032  35.736  1.00  0.00     0.057 A 
ATOM     88  C   UNL A   1      39.462  33.383  35.864  1.00  0.00     0.134 A 
ATOM     89  C   UNL A   1      38.274  31.479  36.705  1.00  0.00     0.134 A 
ATOM     90  F   UNL A   1      40.284  33.965  34.978  1.00  0.00    -0.206 F 
ATOM     91  C   UNL A   1      39.008  34.148  36.939  1.00  0.00     0.040 A 
ATOM     92  C   UNL A   1      37.790  32.241  37.768  1.00  0.00     0.040 A 
ATOM     93  F   UNL A   1      37.904  30.192  36.634  1.00  0.00    -0.206 F 
ATOM     94  C   UNL A   1      38.167  33.577  37.894  1.00  0.00     0.006 A 
ENDBRANCH  70  87
ENDBRANCH  44  45
ENDBRANCH  37  39
ENDBRANCH  36  37
ENDBRANCH  35  36
ENDBRANCH  34  35
ENDBRANCH  33  34
ENDBRANCH  32  33
ENDBRANCH  31  32
ENDBRANCH   1  31
TORSDOF 22
ENDMDL
