MODEL 1
REMARK VINA RESULT:     -10.4      0.000      0.000
REMARK SMILES O=C(CC1(CC(=O)OCCOCCOCCOC(=O)c2ccc(-c3c4nc(c(-c5c(F)cccc5F)c5ccc([nH]5)c(-c5c(F)cccc5F)c5nc(c(-c6c(F)cccc6F)c6ccc3[nH]6)C=C5)C=C4)cc2)CCCC1)NNc1ccc([N+](=O)[O-])cc1
REMARK SMILES IDX 10 1 9 2 8 3 6 4 7 5 5 6 4 7 74 8 77 9 75 10 76 11 3 12 2 13
REMARK SMILES IDX 1 14 78 15 79 17 80 19 81 20 88 21 82 22 87 23 83 24 84 25
REMARK SMILES IDX 85 26 86 27 11 28 12 29 13 30 14 31 15 32 16 33 17 34 18 35
REMARK SMILES IDX 19 36 20 37 21 38 73 39 22 40 72 41 23 42 24 43 25 44 66 45
REMARK SMILES IDX 26 46 71 47 65 48 67 49 27 50 70 51 64 52 63 53 28 55 54 56
REMARK SMILES IDX 37 57 53 58 38 59 41 60 52 61 68 62 39 63 40 64 51 66 69 67
REMARK SMILES IDX 42 68 29 69 30 70 35 71 31 72 32 73 34 74 36 75 33 76 55 77
REMARK SMILES IDX 56 78 61 79 57 80 58 81 60 82 62 83 59 84 43 85 44 86 49 87
REMARK SMILES IDX 45 88 46 89 48 90 50 91 47 92
REMARK H PARENT 78 16 79 18 67 54 41 65
REMARK Flexibility Score: inf
ROOT
ATOM      1  C   UNL A   1      34.779  21.875  26.752  1.00  0.00     0.202 C 
ENDROOT
BRANCH   1   2
ATOM      2  C   UNL A   1      33.467  22.231  27.463  1.00  0.00     0.261 C 
BRANCH   2   3
ATOM      3  O   UNL A   1      32.345  22.266  26.547  1.00  0.00    -0.463 OA
BRANCH   3   4
ATOM      4  C   UNL A   1      31.752  23.487  26.446  1.00  0.00     0.306 C 
ATOM      5  O   UNL A   1      30.947  23.936  27.255  1.00  0.00    -0.252 OA
BRANCH   4   6
ATOM      6  C   UNL A   1      32.289  24.324  25.303  1.00  0.00     0.130 C 
BRANCH   6   7
ATOM      7  C   UNL A   1      31.426  24.512  24.021  1.00  0.00    -0.010 C 
ATOM      8  C   UNL A   1      32.244  25.350  23.003  1.00  0.00     0.008 C 
ATOM      9  C   UNL A   1      30.218  25.452  24.213  1.00  0.00     0.008 C 
ATOM     10  C   UNL A   1      32.102  26.800  23.460  1.00  0.00     0.001 C 
ATOM     11  C   UNL A   1      30.780  26.870  24.216  1.00  0.00     0.001 C 
BRANCH   7  12
ATOM     12  C   UNL A   1      31.106  23.129  23.391  1.00  0.00     0.109 C 
BRANCH  12  13
ATOM     13  C   UNL A   1      32.308  22.275  23.038  1.00  0.00     0.238 C 
ATOM     14  O   UNL A   1      33.105  22.585  22.155  1.00  0.00    -0.273 OA
ATOM     15  N   UNL A   1      32.364  21.111  23.779  1.00  0.00    -0.270 N 
ATOM     16  H   UNL A   1      31.663  20.900  24.437  1.00  0.00     0.191 HD
BRANCH  15  17
ATOM     17  N   UNL A   1      33.429  20.249  23.577  1.00  0.00    -0.299 N 
ATOM     18  H   UNL A   1      34.219  20.515  23.054  1.00  0.00     0.188 HD
BRANCH  17  19
ATOM     19  C   UNL A   1      33.323  18.984  24.153  1.00  0.00     0.055 A 
ATOM     20  C   UNL A   1      32.777  18.851  25.436  1.00  0.00     0.034 A 
ATOM     21  C   UNL A   1      33.659  17.823  23.442  1.00  0.00     0.034 A 
ATOM     22  C   UNL A   1      32.545  17.586  25.990  1.00  0.00     0.088 A 
ATOM     23  C   UNL A   1      33.457  16.554  23.989  1.00  0.00     0.088 A 
ATOM     24  C   UNL A   1      32.885  16.441  25.260  1.00  0.00     0.269 A 
BRANCH  24  25
ATOM     25  N   UNL A   1      32.621  15.112  25.822  1.00  0.00     0.062 N 
ATOM     26  O   UNL A   1      33.276  14.158  25.377  1.00  0.00    -0.258 OA
ATOM     27  O   UNL A   1      31.772  15.024  26.720  1.00  0.00    -0.258 OA
ENDBRANCH  24  25
ENDBRANCH  17  19
ENDBRANCH  15  17
ENDBRANCH  12  13
ENDBRANCH   7  12
ENDBRANCH   6   7
ENDBRANCH   4   6
ENDBRANCH   3   4
ENDBRANCH   2   3
ENDBRANCH   1   2
BRANCH   1  28
ATOM     28  O   UNL A   1      35.610  22.974  26.357  1.00  0.00    -0.376 OA
BRANCH  28  29
ATOM     29  C   UNL A   1      35.891  23.103  24.970  1.00  0.00     0.188 C 
BRANCH  29  30
ATOM     30  C   UNL A   1      36.391  21.841  24.265  1.00  0.00     0.188 C 
BRANCH  30  31
ATOM     31  O   UNL A   1      37.636  21.334  24.751  1.00  0.00    -0.376 OA
BRANCH  31  32
ATOM     32  C   UNL A   1      37.596  19.916  25.002  1.00  0.00     0.202 C 
BRANCH  32  33
ATOM     33  C   UNL A   1      38.911  19.404  25.597  1.00  0.00     0.261 C 
BRANCH  33  34
ATOM     34  O   UNL A   1      39.828  20.498  25.744  1.00  0.00    -0.460 OA
BRANCH  34  35
ATOM     35  C   UNL A   1      40.494  20.522  26.929  1.00  0.00     0.338 C 
ATOM     36  O   UNL A   1      40.948  19.578  27.534  1.00  0.00    -0.246 OA
BRANCH  35  37
ATOM     37  C   UNL A   1      40.788  21.931  27.283  1.00  0.00     0.060 A 
ATOM     38  C   UNL A   1      40.080  22.929  26.596  1.00  0.00     0.016 A 
ATOM     39  C   UNL A   1      41.686  22.274  28.297  1.00  0.00     0.016 A 
ATOM     40  C   UNL A   1      40.292  24.270  26.897  1.00  0.00     0.010 A 
ATOM     41  C   UNL A   1      41.900  23.618  28.598  1.00  0.00     0.010 A 
ATOM     42  C   UNL A   1      41.229  24.619  27.876  1.00  0.00    -0.014 A 
BRANCH  42  43
ATOM     43  C   UNL A   1      41.665  26.025  28.010  1.00  0.00     0.031 A 
ATOM     44  C   UNL A   1      43.011  26.396  27.460  1.00  0.00     0.074 A 
ATOM     45  C   UNL A   1      40.882  26.942  28.602  1.00  0.00     0.049 A 
ATOM     46  N   UNL A   1      43.661  27.527  27.543  1.00  0.00    -0.248 NA
ATOM     47  C   UNL A   1      43.727  25.341  26.722  1.00  0.00     0.031 C 
ATOM     48  C   UNL A   1      39.540  26.699  29.129  1.00  0.00     0.029 A 
ATOM     49  N   UNL A   1      41.115  28.266  28.868  1.00  0.00    -0.354 N 
ATOM     50  C   UNL A   1      44.866  27.313  26.887  1.00  0.00     0.074 A 
ATOM     51  C   UNL A   1      44.873  25.939  26.438  1.00  0.00     0.031 C 
ATOM     52  C   UNL A   1      39.073  27.838  29.671  1.00  0.00     0.029 A 
ATOM     53  C   UNL A   1      40.098  28.874  29.561  1.00  0.00     0.049 A 
ATOM     54  H   UNL A   1      41.934  28.736  28.590  1.00  0.00     0.167 HD
ATOM     55  C   UNL A   1      45.875  28.189  26.674  1.00  0.00     0.037 A 
ATOM     56  C   UNL A   1      40.024  30.118  30.071  1.00  0.00     0.037 A 
ATOM     57  C   UNL A   1      45.853  29.555  27.122  1.00  0.00     0.049 A 
ATOM     58  C   UNL A   1      41.185  31.057  29.877  1.00  0.00     0.074 A 
ATOM     59  C   UNL A   1      46.814  30.534  26.953  1.00  0.00     0.029 A 
ATOM     60  N   UNL A   1      44.811  30.131  27.834  1.00  0.00    -0.354 N 
ATOM     61  N   UNL A   1      42.320  30.852  29.250  1.00  0.00    -0.248 NA
ATOM     62  C   UNL A   1      41.057  32.400  30.460  1.00  0.00     0.031 C 
ATOM     63  C   UNL A   1      46.374  31.691  27.605  1.00  0.00     0.029 A 
ATOM     64  C   UNL A   1      45.114  31.448  28.131  1.00  0.00     0.049 A 
ATOM     65  H   UNL A   1      43.979  29.671  28.091  1.00  0.00     0.167 HD
ATOM     66  C   UNL A   1      43.025  32.047  29.336  1.00  0.00     0.074 A 
ATOM     67  C   UNL A   1      42.186  32.973  30.067  1.00  0.00     0.031 C 
ATOM     68  C   UNL A   1      44.254  32.353  28.851  1.00  0.00     0.037 A 
BRANCH  55  69
ATOM     69  C   UNL A   1      47.089  27.681  25.954  1.00  0.00     0.057 A 
ATOM     70  C   UNL A   1      48.206  27.182  26.637  1.00  0.00     0.134 A 
ATOM     71  C   UNL A   1      47.138  27.686  24.554  1.00  0.00     0.134 A 
ATOM     72  F   UNL A   1      48.233  27.170  27.979  1.00  0.00    -0.206 F 
ATOM     73  C   UNL A   1      49.337  26.729  25.957  1.00  0.00     0.040 A 
ATOM     74  C   UNL A   1      48.252  27.209  23.861  1.00  0.00     0.040 A 
ATOM     75  F   UNL A   1      46.105  28.152  23.837  1.00  0.00    -0.206 F 
ATOM     76  C   UNL A   1      49.359  26.736  24.562  1.00  0.00     0.006 A 
ENDBRANCH  55  69
BRANCH  56  77
ATOM     77  C   UNL A   1      38.817  30.544  30.827  1.00  0.00     0.057 A 
ATOM     78  C   UNL A   1      38.725  30.359  32.211  1.00  0.00     0.134 A 
ATOM     79  C   UNL A   1      37.721  31.130  30.181  1.00  0.00     0.134 A 
ATOM     80  F   UNL A   1      39.732  29.782  32.883  1.00  0.00    -0.206 F 
ATOM     81  C   UNL A   1      37.581  30.725  32.924  1.00  0.00     0.040 A 
ATOM     82  C   UNL A   1      36.582  31.525  30.886  1.00  0.00     0.040 A 
ATOM     83  F   UNL A   1      37.746  31.338  28.857  1.00  0.00    -0.206 F 
ATOM     84  C   UNL A   1      36.507  31.316  32.261  1.00  0.00     0.006 A 
ENDBRANCH  56  77
BRANCH  68  85
ATOM     85  C   UNL A   1      44.743  33.757  29.056  1.00  0.00     0.057 A 
ATOM     86  C   UNL A   1      45.534  34.114  30.155  1.00  0.00     0.134 A 
ATOM     87  C   UNL A   1      44.459  34.751  28.112  1.00  0.00     0.134 A 
ATOM     88  F   UNL A   1      45.834  33.211  31.100  1.00  0.00    -0.206 F 
ATOM     89  C   UNL A   1      46.004  35.419  30.319  1.00  0.00     0.040 A 
ATOM     90  C   UNL A   1      44.947  36.051  28.250  1.00  0.00     0.040 A 
ATOM     91  F   UNL A   1      43.717  34.471  27.029  1.00  0.00    -0.206 F 
ATOM     92  C   UNL A   1      45.716  36.388  29.361  1.00  0.00     0.006 A 
ENDBRANCH  68  85
ENDBRANCH  42  43
ENDBRANCH  35  37
ENDBRANCH  34  35
ENDBRANCH  33  34
ENDBRANCH  32  33
ENDBRANCH  31  32
ENDBRANCH  30  31
ENDBRANCH  29  30
ENDBRANCH  28  29
ENDBRANCH   1  28
TORSDOF 23
ENDMDL
MODEL 2
REMARK VINA RESULT:     -10.2      1.825      6.004
REMARK SMILES O=C(CC1(CC(=O)OCCOCCOCCOC(=O)c2ccc(-c3c4nc(c(-c5c(F)cccc5F)c5ccc([nH]5)c(-c5c(F)cccc5F)c5nc(c(-c6c(F)cccc6F)c6ccc3[nH]6)C=C5)C=C4)cc2)CCCC1)NNc1ccc([N+](=O)[O-])cc1
REMARK SMILES IDX 10 1 9 2 8 3 6 4 7 5 5 6 4 7 74 8 77 9 75 10 76 11 3 12 2 13
REMARK SMILES IDX 1 14 78 15 79 17 80 19 81 20 88 21 82 22 87 23 83 24 84 25
REMARK SMILES IDX 85 26 86 27 11 28 12 29 13 30 14 31 15 32 16 33 17 34 18 35
REMARK SMILES IDX 19 36 20 37 21 38 73 39 22 40 72 41 23 42 24 43 25 44 66 45
REMARK SMILES IDX 26 46 71 47 65 48 67 49 27 50 70 51 64 52 63 53 28 55 54 56
REMARK SMILES IDX 37 57 53 58 38 59 41 60 52 61 68 62 39 63 40 64 51 66 69 67
REMARK SMILES IDX 42 68 29 69 30 70 35 71 31 72 32 73 34 74 36 75 33 76 55 77
REMARK SMILES IDX 56 78 61 79 57 80 58 81 60 82 62 83 59 84 43 85 44 86 49 87
REMARK SMILES IDX 45 88 46 89 48 90 50 91 47 92
REMARK H PARENT 78 16 79 18 67 54 41 65
REMARK Flexibility Score: inf
ROOT
ATOM      1  C   UNL A   1      34.305  22.812  27.278  1.00  0.00     0.202 C 
ENDROOT
BRANCH   1   2
ATOM      2  C   UNL A   1      32.857  22.345  27.475  1.00  0.00     0.261 C 
BRANCH   2   3
ATOM      3  O   UNL A   1      31.932  23.458  27.542  1.00  0.00    -0.463 OA
BRANCH   3   4
ATOM      4  C   UNL A   1      31.218  23.654  26.400  1.00  0.00     0.306 C 
ATOM      5  O   UNL A   1      30.452  22.831  25.911  1.00  0.00    -0.252 OA
BRANCH   4   6
ATOM      6  C   UNL A   1      31.341  25.059  25.848  1.00  0.00     0.130 C 
BRANCH   6   7
ATOM      7  C   UNL A   1      31.999  25.278  24.453  1.00  0.00    -0.010 C 
ATOM      8  C   UNL A   1      32.479  26.752  24.369  1.00  0.00     0.008 C 
ATOM      9  C   UNL A   1      30.997  25.268  23.281  1.00  0.00     0.008 C 
ATOM     10  C   UNL A   1      31.229  27.570  24.045  1.00  0.00     0.001 C 
ATOM     11  C   UNL A   1      30.286  26.618  23.318  1.00  0.00     0.001 C 
BRANCH   7  12
ATOM     12  C   UNL A   1      33.228  24.341  24.294  1.00  0.00     0.109 C 
BRANCH  12  13
ATOM     13  C   UNL A   1      33.097  23.262  23.238  1.00  0.00     0.238 C 
ATOM     14  O   UNL A   1      33.554  23.385  22.104  1.00  0.00    -0.273 OA
ATOM     15  N   UNL A   1      32.373  22.173  23.684  1.00  0.00    -0.270 N 
ATOM     16  H   UNL A   1      31.990  22.161  24.591  1.00  0.00     0.191 HD
BRANCH  15  17
ATOM     17  N   UNL A   1      32.198  21.100  22.827  1.00  0.00    -0.299 N 
ATOM     18  H   UNL A   1      31.953  21.226  21.882  1.00  0.00     0.188 HD
BRANCH  17  19
ATOM     19  C   UNL A   1      32.386  19.831  23.373  1.00  0.00     0.055 A 
ATOM     20  C   UNL A   1      32.459  18.717  22.527  1.00  0.00     0.034 A 
ATOM     21  C   UNL A   1      32.603  19.647  24.746  1.00  0.00     0.034 A 
ATOM     22  C   UNL A   1      32.770  17.450  23.034  1.00  0.00     0.088 A 
ATOM     23  C   UNL A   1      32.890  18.385  25.272  1.00  0.00     0.088 A 
ATOM     24  C   UNL A   1      32.986  17.291  24.407  1.00  0.00     0.269 A 
BRANCH  24  25
ATOM     25  N   UNL A   1      33.338  15.971  24.943  1.00  0.00     0.062 N 
ATOM     26  O   UNL A   1      34.534  15.644  24.929  1.00  0.00    -0.258 OA
ATOM     27  O   UNL A   1      32.422  15.269  25.394  1.00  0.00    -0.258 OA
ENDBRANCH  24  25
ENDBRANCH  17  19
ENDBRANCH  15  17
ENDBRANCH  12  13
ENDBRANCH   7  12
ENDBRANCH   6   7
ENDBRANCH   4   6
ENDBRANCH   3   4
ENDBRANCH   2   3
ENDBRANCH   1   2
BRANCH   1  28
ATOM     28  O   UNL A   1      35.158  21.946  26.519  1.00  0.00    -0.376 OA
BRANCH  28  29
ATOM     29  C   UNL A   1      36.198  22.561  25.771  1.00  0.00     0.188 C 
BRANCH  29  30
ATOM     30  C   UNL A   1      37.467  21.728  25.576  1.00  0.00     0.188 C 
BRANCH  30  31
ATOM     31  O   UNL A   1      37.390  20.749  24.538  1.00  0.00    -0.376 OA
BRANCH  31  32
ATOM     32  C   UNL A   1      38.121  19.548  24.855  1.00  0.00     0.202 C 
BRANCH  32  33
ATOM     33  C   UNL A   1      39.258  19.815  25.845  1.00  0.00     0.261 C 
BRANCH  33  34
ATOM     34  O   UNL A   1      40.514  19.507  25.225  1.00  0.00    -0.460 OA
BRANCH  34  35
ATOM     35  C   UNL A   1      41.569  19.455  26.081  1.00  0.00     0.338 C 
ATOM     36  O   UNL A   1      42.330  18.530  26.251  1.00  0.00    -0.246 OA
BRANCH  35  37
ATOM     37  C   UNL A   1      41.800  20.809  26.639  1.00  0.00     0.060 A 
ATOM     38  C   UNL A   1      42.063  21.844  25.730  1.00  0.00     0.016 A 
ATOM     39  C   UNL A   1      41.703  21.079  28.007  1.00  0.00     0.016 A 
ATOM     40  C   UNL A   1      42.264  23.142  26.185  1.00  0.00     0.010 A 
ATOM     41  C   UNL A   1      41.905  22.380  28.465  1.00  0.00     0.010 A 
ATOM     42  C   UNL A   1      42.220  23.407  27.559  1.00  0.00    -0.014 A 
BRANCH  42  43
ATOM     43  C   UNL A   1      42.702  24.705  28.074  1.00  0.00     0.031 A 
ATOM     44  C   UNL A   1      41.681  25.771  28.350  1.00  0.00     0.074 A 
ATOM     45  C   UNL A   1      44.009  24.926  28.292  1.00  0.00     0.049 A 
ATOM     46  N   UNL A   1      41.853  27.018  28.702  1.00  0.00    -0.248 NA
ATOM     47  C   UNL A   1      40.269  25.378  28.195  1.00  0.00     0.031 C 
ATOM     48  C   UNL A   1      45.077  23.947  28.101  1.00  0.00     0.029 A 
ATOM     49  N   UNL A   1      44.658  26.058  28.712  1.00  0.00    -0.354 N 
ATOM     50  C   UNL A   1      40.578  27.559  28.793  1.00  0.00     0.074 A 
ATOM     51  C   UNL A   1      39.643  26.519  28.431  1.00  0.00     0.031 C 
ATOM     52  C   UNL A   1      46.255  24.527  28.391  1.00  0.00     0.029 A 
ATOM     53  C   UNL A   1      46.023  25.925  28.748  1.00  0.00     0.049 A 
ATOM     54  H   UNL A   1      44.189  26.886  28.962  1.00  0.00     0.167 HD
ATOM     55  C   UNL A   1      40.220  28.813  29.155  1.00  0.00     0.037 A 
ATOM     56  C   UNL A   1      46.973  26.843  29.013  1.00  0.00     0.037 A 
ATOM     57  C   UNL A   1      41.161  29.837  29.519  1.00  0.00     0.049 A 
ATOM     58  C   UNL A   1      46.555  28.250  29.350  1.00  0.00     0.074 A 
ATOM     59  C   UNL A   1      40.912  31.139  29.911  1.00  0.00     0.029 A 
ATOM     60  N   UNL A   1      42.539  29.670  29.530  1.00  0.00    -0.354 N 
ATOM     61  N   UNL A   1      45.347  28.755  29.441  1.00  0.00    -0.248 NA
ATOM     62  C   UNL A   1      47.630  29.214  29.622  1.00  0.00     0.031 C 
ATOM     63  C   UNL A   1      42.141  31.774  30.114  1.00  0.00     0.029 A 
ATOM     64  C   UNL A   1      43.155  30.852  29.903  1.00  0.00     0.049 A 
ATOM     65  H   UNL A   1      43.009  28.834  29.305  1.00  0.00     0.167 HD
ATOM     66  C   UNL A   1      45.516  30.084  29.811  1.00  0.00     0.074 A 
ATOM     67  C   UNL A   1      46.942  30.302  29.936  1.00  0.00     0.031 C 
ATOM     68  C   UNL A   1      44.578  31.038  30.031  1.00  0.00     0.037 A 
BRANCH  55  69
ATOM     69  C   UNL A   1      38.758  29.145  29.140  1.00  0.00     0.057 A 
ATOM     70  C   UNL A   1      37.960  29.049  30.288  1.00  0.00     0.134 A 
ATOM     71  C   UNL A   1      38.138  29.573  27.958  1.00  0.00     0.134 A 
ATOM     72  F   UNL A   1      38.486  28.623  31.447  1.00  0.00    -0.206 F 
ATOM     73  C   UNL A   1      36.596  29.342  30.257  1.00  0.00     0.040 A 
ATOM     74  C   UNL A   1      36.781  29.896  27.922  1.00  0.00     0.040 A 
ATOM     75  F   UNL A   1      38.841  29.684  26.822  1.00  0.00    -0.206 F 
ATOM     76  C   UNL A   1      36.004  29.775  29.071  1.00  0.00     0.006 A 
ENDBRANCH  55  69
BRANCH  56  77
ATOM     77  C   UNL A   1      48.410  26.468  28.954  1.00  0.00     0.057 A 
ATOM     78  C   UNL A   1      49.083  25.994  30.086  1.00  0.00     0.134 A 
ATOM     79  C   UNL A   1      49.149  26.591  27.770  1.00  0.00     0.134 A 
ATOM     80  F   UNL A   1      48.437  25.875  31.254  1.00  0.00    -0.206 F 
ATOM     81  C   UNL A   1      50.441  25.671  30.049  1.00  0.00     0.040 A 
ATOM     82  C   UNL A   1      50.500  26.247  27.712  1.00  0.00     0.040 A 
ATOM     83  F   UNL A   1      48.563  27.036  26.650  1.00  0.00    -0.206 F 
ATOM     84  C   UNL A   1      51.152  25.793  28.856  1.00  0.00     0.006 A 
ENDBRANCH  56  77
BRANCH  68  85
ATOM     85  C   UNL A   1      45.061  32.389  30.473  1.00  0.00     0.057 A 
ATOM     86  C   UNL A   1      45.287  33.430  29.565  1.00  0.00     0.134 A 
ATOM     87  C   UNL A   1      45.255  32.661  31.833  1.00  0.00     0.134 A 
ATOM     88  F   UNL A   1      45.129  33.231  28.248  1.00  0.00    -0.206 F 
ATOM     89  C   UNL A   1      45.711  34.690  29.994  1.00  0.00     0.040 A 
ATOM     90  C   UNL A   1      45.651  33.923  32.276  1.00  0.00     0.040 A 
ATOM     91  F   UNL A   1      45.044  31.710  32.756  1.00  0.00    -0.206 F 
ATOM     92  C   UNL A   1      45.887  34.939  31.353  1.00  0.00     0.006 A 
ENDBRANCH  68  85
ENDBRANCH  42  43
ENDBRANCH  35  37
ENDBRANCH  34  35
ENDBRANCH  33  34
ENDBRANCH  32  33
ENDBRANCH  31  32
ENDBRANCH  30  31
ENDBRANCH  29  30
ENDBRANCH  28  29
ENDBRANCH   1  28
TORSDOF 23
ENDMDL
MODEL 3
REMARK VINA RESULT:      -9.6      1.729      2.611
REMARK SMILES O=C(CC1(CC(=O)OCCOCCOCCOC(=O)c2ccc(-c3c4nc(c(-c5c(F)cccc5F)c5ccc([nH]5)c(-c5c(F)cccc5F)c5nc(c(-c6c(F)cccc6F)c6ccc3[nH]6)C=C5)C=C4)cc2)CCCC1)NNc1ccc([N+](=O)[O-])cc1
REMARK SMILES IDX 10 1 9 2 8 3 6 4 7 5 5 6 4 7 74 8 77 9 75 10 76 11 3 12 2 13
REMARK SMILES IDX 1 14 78 15 79 17 80 19 81 20 88 21 82 22 87 23 83 24 84 25
REMARK SMILES IDX 85 26 86 27 11 28 12 29 13 30 14 31 15 32 16 33 17 34 18 35
REMARK SMILES IDX 19 36 20 37 21 38 73 39 22 40 72 41 23 42 24 43 25 44 66 45
REMARK SMILES IDX 26 46 71 47 65 48 67 49 27 50 70 51 64 52 63 53 28 55 54 56
REMARK SMILES IDX 37 57 53 58 38 59 41 60 52 61 68 62 39 63 40 64 51 66 69 67
REMARK SMILES IDX 42 68 29 69 30 70 35 71 31 72 32 73 34 74 36 75 33 76 55 77
REMARK SMILES IDX 56 78 61 79 57 80 58 81 60 82 62 83 59 84 43 85 44 86 49 87
REMARK SMILES IDX 45 88 46 89 48 90 50 91 47 92
REMARK H PARENT 78 16 79 18 67 54 41 65
REMARK Flexibility Score: inf
ROOT
ATOM      1  C   UNL A   1      35.128  23.287  26.366  1.00  0.00     0.202 C 
ENDROOT
BRANCH   1   2
ATOM      2  C   UNL A   1      33.659  23.358  26.805  1.00  0.00     0.261 C 
BRANCH   2   3
ATOM      3  O   UNL A   1      33.078  24.660  26.551  1.00  0.00    -0.463 OA
BRANCH   3   4
ATOM      4  C   UNL A   1      31.717  24.665  26.540  1.00  0.00     0.306 C 
ATOM      5  O   UNL A   1      31.016  23.884  27.173  1.00  0.00    -0.252 OA
BRANCH   4   6
ATOM      6  C   UNL A   1      31.126  25.834  25.778  1.00  0.00     0.130 C 
BRANCH   6   7
ATOM      7  C   UNL A   1      31.556  26.081  24.302  1.00  0.00    -0.010 C 
ATOM      8  C   UNL A   1      31.973  27.569  24.160  1.00  0.00     0.008 C 
ATOM      9  C   UNL A   1      30.388  26.046  23.296  1.00  0.00     0.008 C 
ATOM     10  C   UNL A   1      30.666  28.350  24.040  1.00  0.00     0.001 C 
ATOM     11  C   UNL A   1      29.651  27.373  23.455  1.00  0.00     0.001 C 
BRANCH   7  12
ATOM     12  C   UNL A   1      32.774  25.183  23.948  1.00  0.00     0.109 C 
BRANCH  12  13
ATOM     13  C   UNL A   1      32.526  24.132  22.885  1.00  0.00     0.238 C 
ATOM     14  O   UNL A   1      32.626  24.368  21.683  1.00  0.00    -0.273 OA
ATOM     15  N   UNL A   1      32.133  22.922  23.422  1.00  0.00    -0.270 N 
ATOM     16  H   UNL A   1      32.023  22.815  24.395  1.00  0.00     0.191 HD
BRANCH  15  17
ATOM     17  N   UNL A   1      31.898  21.862  22.562  1.00  0.00    -0.299 N 
ATOM     18  H   UNL A   1      31.459  21.989  21.690  1.00  0.00     0.188 HD
BRANCH  17  19
ATOM     19  C   UNL A   1      32.315  20.604  22.996  1.00  0.00     0.055 A 
ATOM     20  C   UNL A   1      32.834  20.454  24.288  1.00  0.00     0.034 A 
ATOM     21  C   UNL A   1      32.137  19.459  22.206  1.00  0.00     0.034 A 
ATOM     22  C   UNL A   1      33.145  19.187  24.794  1.00  0.00     0.088 A 
ATOM     23  C   UNL A   1      32.465  18.189  22.686  1.00  0.00     0.088 A 
ATOM     24  C   UNL A   1      32.956  18.057  23.988  1.00  0.00     0.269 A 
BRANCH  24  25
ATOM     25  N   UNL A   1      33.255  16.723  24.520  1.00  0.00     0.062 N 
ATOM     26  O   UNL A   1      33.861  15.932  23.782  1.00  0.00    -0.258 OA
ATOM     27  O   UNL A   1      32.900  16.472  25.680  1.00  0.00    -0.258 OA
ENDBRANCH  24  25
ENDBRANCH  17  19
ENDBRANCH  15  17
ENDBRANCH  12  13
ENDBRANCH   7  12
ENDBRANCH   6   7
ENDBRANCH   4   6
ENDBRANCH   3   4
ENDBRANCH   2   3
ENDBRANCH   1   2
BRANCH   1  28
ATOM     28  O   UNL A   1      35.581  22.029  25.851  1.00  0.00    -0.376 OA
BRANCH  28  29
ATOM     29  C   UNL A   1      36.585  22.068  24.847  1.00  0.00     0.188 C 
BRANCH  29  30
ATOM     30  C   UNL A   1      37.804  21.174  25.081  1.00  0.00     0.188 C 
BRANCH  30  31
ATOM     31  O   UNL A   1      37.612  19.796  24.751  1.00  0.00    -0.376 OA
BRANCH  31  32
ATOM     32  C   UNL A   1      38.558  18.932  25.409  1.00  0.00     0.202 C 
BRANCH  32  33
ATOM     33  C   UNL A   1      39.764  19.708  25.945  1.00  0.00     0.261 C 
BRANCH  33  34
ATOM     34  O   UNL A   1      40.973  19.124  25.438  1.00  0.00    -0.460 OA
BRANCH  34  35
ATOM     35  C   UNL A   1      41.994  19.071  26.334  1.00  0.00     0.338 C 
ATOM     36  O   UNL A   1      42.552  18.083  26.752  1.00  0.00    -0.246 OA
BRANCH  35  37
ATOM     37  C   UNL A   1      42.493  20.447  26.572  1.00  0.00     0.060 A 
ATOM     38  C   UNL A   1      42.383  20.956  27.874  1.00  0.00     0.016 A 
ATOM     39  C   UNL A   1      43.106  21.202  25.568  1.00  0.00     0.016 A 
ATOM     40  C   UNL A   1      42.854  22.231  28.170  1.00  0.00     0.010 A 
ATOM     41  C   UNL A   1      43.577  22.480  25.863  1.00  0.00     0.010 A 
ATOM     42  C   UNL A   1      43.421  23.010  27.155  1.00  0.00    -0.014 A 
BRANCH  42  43
ATOM     43  C   UNL A   1      43.667  24.450  27.383  1.00  0.00     0.031 A 
ATOM     44  C   UNL A   1      45.076  24.949  27.248  1.00  0.00     0.074 A 
ATOM     45  C   UNL A   1      42.663  25.285  27.698  1.00  0.00     0.049 A 
ATOM     46  N   UNL A   1      45.566  26.135  27.496  1.00  0.00    -0.248 NA
ATOM     47  C   UNL A   1      46.072  23.971  26.776  1.00  0.00     0.031 C 
ATOM     48  C   UNL A   1      41.254  24.913  27.810  1.00  0.00     0.029 A 
ATOM     49  N   UNL A   1      42.685  26.623  27.995  1.00  0.00    -0.354 N 
ATOM     50  C   UNL A   1      46.925  26.040  27.230  1.00  0.00     0.074 A 
ATOM     51  C   UNL A   1      47.190  24.676  26.830  1.00  0.00     0.031 C 
ATOM     52  C   UNL A   1      40.545  25.999  28.167  1.00  0.00     0.029 A 
ATOM     53  C   UNL A   1      41.457  27.128  28.344  1.00  0.00     0.049 A 
ATOM     54  H   UNL A   1      43.503  27.169  27.961  1.00  0.00     0.167 HD
ATOM     55  C   UNL A   1      47.868  27.008  27.306  1.00  0.00     0.037 A 
ATOM     56  C   UNL A   1      41.122  28.356  28.783  1.00  0.00     0.037 A 
ATOM     57  C   UNL A   1      47.589  28.362  27.700  1.00  0.00     0.049 A 
ATOM     58  C   UNL A   1      42.198  29.400  28.923  1.00  0.00     0.074 A 
ATOM     59  C   UNL A   1      48.463  29.428  27.803  1.00  0.00     0.029 A 
ATOM     60  N   UNL A   1      46.335  28.833  28.061  1.00  0.00    -0.354 N 
ATOM     61  N   UNL A   1      43.481  29.307  28.662  1.00  0.00    -0.248 NA
ATOM     62  C   UNL A   1      41.781  30.721  29.414  1.00  0.00     0.031 C 
ATOM     63  C   UNL A   1      47.746  30.533  28.272  1.00  0.00     0.029 A 
ATOM     64  C   UNL A   1      46.415  30.170  28.407  1.00  0.00     0.049 A 
ATOM     65  H   UNL A   1      45.510  28.295  28.070  1.00  0.00     0.167 HD
ATOM     66  C   UNL A   1      44.017  30.562  28.928  1.00  0.00     0.074 A 
ATOM     67  C   UNL A   1      42.918  31.399  29.360  1.00  0.00     0.031 C 
ATOM     68  C   UNL A   1      45.301  30.985  28.823  1.00  0.00     0.037 A 
BRANCH  55  69
ATOM     69  C   UNL A   1      49.281  26.621  26.988  1.00  0.00     0.057 A 
ATOM     70  C   UNL A   1      50.144  26.087  27.954  1.00  0.00     0.134 A 
ATOM     71  C   UNL A   1      49.786  26.780  25.690  1.00  0.00     0.134 A 
ATOM     72  F   UNL A   1      49.730  25.930  29.221  1.00  0.00    -0.206 F 
ATOM     73  C   UNL A   1      51.463  25.748  27.650  1.00  0.00     0.040 A 
ATOM     74  C   UNL A   1      51.095  26.418  25.367  1.00  0.00     0.040 A 
ATOM     75  F   UNL A   1      49.016  27.288  24.717  1.00  0.00    -0.206 F 
ATOM     76  C   UNL A   1      51.939  25.907  26.349  1.00  0.00     0.006 A 
ENDBRANCH  55  69
BRANCH  56  77
ATOM     77  C   UNL A   1      39.712  28.661  29.140  1.00  0.00     0.057 A 
ATOM     78  C   UNL A   1      38.827  29.202  28.200  1.00  0.00     0.134 A 
ATOM     79  C   UNL A   1      39.221  28.437  30.432  1.00  0.00     0.134 A 
ATOM     80  F   UNL A   1      39.243  29.461  26.953  1.00  0.00    -0.206 F 
ATOM     81  C   UNL A   1      37.510  29.524  28.535  1.00  0.00     0.040 A 
ATOM     82  C   UNL A   1      37.899  28.729  30.774  1.00  0.00     0.040 A 
ATOM     83  F   UNL A   1      40.016  27.919  31.379  1.00  0.00    -0.206 F 
ATOM     84  C   UNL A   1      37.042  29.282  29.826  1.00  0.00     0.006 A 
ENDBRANCH  56  77
BRANCH  68  85
ATOM     85  C   UNL A   1      45.577  32.427  29.134  1.00  0.00     0.057 A 
ATOM     86  C   UNL A   1      45.462  33.430  28.164  1.00  0.00     0.134 A 
ATOM     87  C   UNL A   1      45.914  32.819  30.436  1.00  0.00     0.134 A 
ATOM     88  F   UNL A   1      45.153  33.120  26.897  1.00  0.00    -0.206 F 
ATOM     89  C   UNL A   1      45.696  34.772  28.475  1.00  0.00     0.040 A 
ATOM     90  C   UNL A   1      46.121  34.158  30.765  1.00  0.00     0.040 A 
ATOM     91  F   UNL A   1      46.027  31.907  31.414  1.00  0.00    -0.206 F 
ATOM     92  C   UNL A   1      46.020  35.138  29.780  1.00  0.00     0.006 A 
ENDBRANCH  68  85
ENDBRANCH  42  43
ENDBRANCH  35  37
ENDBRANCH  34  35
ENDBRANCH  33  34
ENDBRANCH  32  33
ENDBRANCH  31  32
ENDBRANCH  30  31
ENDBRANCH  29  30
ENDBRANCH  28  29
ENDBRANCH   1  28
TORSDOF 23
ENDMDL
