MODEL 1
REMARK VINA RESULT:     -10.2      0.000      0.000
REMARK SMILES CCN(C=O)[C@](C)(C(=O)OCCOCCOCCOC(=O)c1ccc(-c2c3nc(c(-c4c(F)cccc4F)c4ccc([nH]4)c(-c4c(F)cccc4F)c4nc(c(-c5c(F)cccc5F)c5ccc2[nH]5)C=C4)C=C3)cc1)c1cc(F)c(C)cc1F
REMARK SMILES IDX 14 1 13 2 12 3 11 4 10 5 8 6 9 7 6 8 7 9 3 10 2 11 1 12 4 13
REMARK SMILES IDX 5 14 76 15 77 16 83 17 78 18 82 19 84 20 79 21 80 22 81 23
REMARK SMILES IDX 15 24 16 25 17 26 18 27 19 28 20 29 21 30 22 31 23 32 75 33
REMARK SMILES IDX 24 34 74 35 25 36 26 37 27 38 68 39 28 40 73 41 67 42 69 43
REMARK SMILES IDX 29 44 72 45 66 46 65 47 30 49 56 50 39 51 55 52 40 53 43 54
REMARK SMILES IDX 54 55 70 56 41 57 42 58 53 60 71 61 44 62 31 63 32 64 37 65
REMARK SMILES IDX 33 66 34 67 36 68 38 69 35 70 57 71 58 72 63 73 59 74 60 75
REMARK SMILES IDX 62 76 64 77 61 78 45 79 46 80 51 81 47 82 48 83 50 84 52 85
REMARK SMILES IDX 49 86
REMARK H PARENT 69 48 43 59
REMARK Flexibility Score: inf
ROOT
ATOM      1  C   UNL A   1      38.820  22.214  26.314  1.00  0.00     0.188 C 
ENDROOT
BRANCH   1   2
ATOM      2  O   UNL A   1      37.573  21.814  25.806  1.00  0.00    -0.376 OA
BRANCH   2   3
ATOM      3  C   UNL A   1      37.292  22.083  24.445  1.00  0.00     0.202 C 
BRANCH   3   4
ATOM      4  C   UNL A   1      36.299  23.158  23.935  1.00  0.00     0.261 C 
BRANCH   4   5
ATOM      5  O   UNL A   1      34.972  23.250  24.483  1.00  0.00    -0.461 OA
BRANCH   5   6
ATOM      6  C   UNL A   1      34.004  23.799  23.700  1.00  0.00     0.336 C 
ATOM      7  O   UNL A   1      34.252  24.214  22.571  1.00  0.00    -0.249 OA
BRANCH   6   8
ATOM      8  C   UNL A   1      32.597  23.957  24.415  1.00  0.00     0.166 C 
ATOM      9  C   UNL A   1      31.376  23.879  23.449  1.00  0.00     0.053 C 
BRANCH   8  10
ATOM     10  N   UNL A   1      32.561  22.844  25.445  1.00  0.00    -0.326 N 
BRANCH  10  11
ATOM     11  C   UNL A   1      31.859  21.587  25.158  1.00  0.00     0.117 C 
ATOM     12  C   UNL A   1      32.798  20.410  24.901  1.00  0.00     0.027 C 
ENDBRANCH  10  11
BRANCH  10  13
ATOM     13  C   UNL A   1      32.901  23.065  26.775  1.00  0.00     0.341 C 
ATOM     14  O   UNL A   1      32.299  22.699  27.772  1.00  0.00    -0.279 OA
ENDBRANCH  10  13
ENDBRANCH   8  10
BRANCH   8  15
ATOM     15  C   UNL A   1      32.400  25.340  25.110  1.00  0.00     0.027 A 
ATOM     16  C   UNL A   1      33.481  26.249  25.163  1.00  0.00     0.049 A 
ATOM     17  C   UNL A   1      31.244  25.716  25.808  1.00  0.00     0.129 A 
ATOM     18  C   UNL A   1      33.401  27.436  25.897  1.00  0.00     0.126 A 
ATOM     19  C   UNL A   1      31.155  26.920  26.512  1.00  0.00     0.046 A 
ATOM     20  F   UNL A   1      30.177  24.919  25.879  1.00  0.00    -0.207 F 
ATOM     21  F   UNL A   1      34.472  28.240  25.944  1.00  0.00    -0.207 F 
ATOM     22  C   UNL A   1      32.247  27.782  26.593  1.00  0.00    -0.012 A 
ATOM     23  C   UNL A   1      32.177  29.049  27.388  1.00  0.00     0.047 C 
ENDBRANCH   8  15
ENDBRANCH   6   8
ENDBRANCH   5   6
ENDBRANCH   4   5
ENDBRANCH   3   4
ENDBRANCH   2   3
ENDBRANCH   1   2
BRANCH   1  24
ATOM     24  C   UNL A   1      39.962  21.306  25.844  1.00  0.00     0.188 C 
BRANCH  24  25
ATOM     25  O   UNL A   1      40.869  20.742  26.771  1.00  0.00    -0.376 OA
BRANCH  25  26
ATOM     26  C   UNL A   1      42.145  21.342  26.926  1.00  0.00     0.202 C 
BRANCH  26  27
ATOM     27  C   UNL A   1      43.032  21.648  25.701  1.00  0.00     0.261 C 
BRANCH  27  28
ATOM     28  O   UNL A   1      42.684  22.794  24.904  1.00  0.00    -0.460 OA
BRANCH  28  29
ATOM     29  C   UNL A   1      43.488  23.876  25.040  1.00  0.00     0.338 C 
ATOM     30  O   UNL A   1      44.548  24.086  24.459  1.00  0.00    -0.246 OA
BRANCH  29  31
ATOM     31  C   UNL A   1      42.816  24.909  25.863  1.00  0.00     0.060 A 
ATOM     32  C   UNL A   1      43.515  26.088  26.169  1.00  0.00     0.016 A 
ATOM     33  C   UNL A   1      41.539  24.699  26.384  1.00  0.00     0.016 A 
ATOM     34  C   UNL A   1      42.957  27.040  27.023  1.00  0.00     0.010 A 
ATOM     35  C   UNL A   1      40.995  25.637  27.272  1.00  0.00     0.010 A 
ATOM     36  C   UNL A   1      41.718  26.791  27.627  1.00  0.00    -0.014 A 
BRANCH  36  37
ATOM     37  C   UNL A   1      41.303  27.620  28.788  1.00  0.00     0.031 A 
ATOM     38  C   UNL A   1      42.128  27.552  30.045  1.00  0.00     0.074 A 
ATOM     39  C   UNL A   1      40.247  28.450  28.728  1.00  0.00     0.049 A 
ATOM     40  N   UNL A   1      41.967  28.180  31.180  1.00  0.00    -0.248 NA
ATOM     41  C   UNL A   1      43.277  26.632  30.021  1.00  0.00     0.031 C 
ATOM     42  C   UNL A   1      39.366  28.601  27.576  1.00  0.00     0.029 A 
ATOM     43  N   UNL A   1      39.751  29.336  29.652  1.00  0.00    -0.354 N 
ATOM     44  C   UNL A   1      42.970  27.705  32.018  1.00  0.00     0.074 A 
ATOM     45  C   UNL A   1      43.730  26.734  31.260  1.00  0.00     0.031 C 
ATOM     46  C   UNL A   1      38.467  29.566  27.840  1.00  0.00     0.029 A 
ATOM     47  C   UNL A   1      38.678  30.065  29.199  1.00  0.00     0.049 A 
ATOM     48  H   UNL A   1      40.128  29.438  30.556  1.00  0.00     0.167 HD
ATOM     49  C   UNL A   1      43.228  28.038  33.305  1.00  0.00     0.037 A 
ATOM     50  C   UNL A   1      37.949  31.019  29.815  1.00  0.00     0.037 A 
ATOM     51  C   UNL A   1      42.472  29.002  34.061  1.00  0.00     0.049 A 
ATOM     52  C   UNL A   1      38.257  31.371  31.250  1.00  0.00     0.074 A 
ATOM     53  C   UNL A   1      42.656  29.405  35.371  1.00  0.00     0.029 A 
ATOM     54  N   UNL A   1      41.381  29.707  33.575  1.00  0.00    -0.354 N 
ATOM     55  N   UNL A   1      39.216  30.928  32.028  1.00  0.00    -0.248 NA
ATOM     56  C   UNL A   1      37.363  32.342  31.903  1.00  0.00     0.031 C 
ATOM     57  C   UNL A   1      41.645  30.314  35.695  1.00  0.00     0.029 A 
ATOM     58  C   UNL A   1      40.867  30.526  34.568  1.00  0.00     0.049 A 
ATOM     59  H   UNL A   1      41.023  29.636  32.659  1.00  0.00     0.167 HD
ATOM     60  C   UNL A   1      39.041  31.562  33.253  1.00  0.00     0.074 A 
ATOM     61  C   UNL A   1      37.913  32.456  33.103  1.00  0.00     0.031 C 
ATOM     62  C   UNL A   1      39.741  31.410  34.405  1.00  0.00     0.037 A 
BRANCH  49  63
ATOM     63  C   UNL A   1      44.348  27.312  33.992  1.00  0.00     0.057 A 
ATOM     64  C   UNL A   1      45.655  27.814  34.025  1.00  0.00     0.134 A 
ATOM     65  C   UNL A   1      44.108  26.095  34.644  1.00  0.00     0.134 A 
ATOM     66  F   UNL A   1      45.957  28.966  33.405  1.00  0.00    -0.206 F 
ATOM     67  C   UNL A   1      46.688  27.119  34.657  1.00  0.00     0.040 A 
ATOM     68  C   UNL A   1      45.125  25.407  35.306  1.00  0.00     0.040 A 
ATOM     69  F   UNL A   1      42.879  25.557  34.653  1.00  0.00    -0.206 F 
ATOM     70  C   UNL A   1      46.422  25.916  35.306  1.00  0.00     0.006 A 
ENDBRANCH  49  63
BRANCH  50  71
ATOM     71  C   UNL A   1      36.844  31.712  29.098  1.00  0.00     0.057 A 
ATOM     72  C   UNL A   1      36.984  33.038  28.664  1.00  0.00     0.134 A 
ATOM     73  C   UNL A   1      35.610  31.093  28.868  1.00  0.00     0.134 A 
ATOM     74  F   UNL A   1      38.131  33.700  28.878  1.00  0.00    -0.206 F 
ATOM     75  C   UNL A   1      35.935  33.725  28.049  1.00  0.00     0.040 A 
ATOM     76  C   UNL A   1      34.565  31.756  28.222  1.00  0.00     0.040 A 
ATOM     77  F   UNL A   1      35.403  29.827  29.261  1.00  0.00    -0.206 F 
ATOM     78  C   UNL A   1      34.723  33.081  27.820  1.00  0.00     0.006 A 
ENDBRANCH  50  71
BRANCH  62  79
ATOM     79  C   UNL A   1      39.317  32.234  35.589  1.00  0.00     0.057 A 
ATOM     80  C   UNL A   1      38.473  31.722  36.585  1.00  0.00     0.134 A 
ATOM     81  C   UNL A   1      39.789  33.542  35.757  1.00  0.00     0.134 A 
ATOM     82  F   UNL A   1      37.977  30.479  36.483  1.00  0.00    -0.206 F 
ATOM     83  C   UNL A   1      38.092  32.491  37.687  1.00  0.00     0.040 A 
ATOM     84  C   UNL A   1      39.440  34.309  36.870  1.00  0.00     0.040 A 
ATOM     85  F   UNL A   1      40.611  34.092  34.849  1.00  0.00    -0.206 F 
ATOM     86  C   UNL A   1      38.583  33.787  37.835  1.00  0.00     0.006 A 
ENDBRANCH  62  79
ENDBRANCH  36  37
ENDBRANCH  29  31
ENDBRANCH  28  29
ENDBRANCH  27  28
ENDBRANCH  26  27
ENDBRANCH  25  26
ENDBRANCH  24  25
ENDBRANCH   1  24
TORSDOF 21
ENDMDL
MODEL 2
REMARK VINA RESULT:     -10.2      1.247      3.035
REMARK SMILES CCN(C=O)[C@](C)(C(=O)OCCOCCOCCOC(=O)c1ccc(-c2c3nc(c(-c4c(F)cccc4F)c4ccc([nH]4)c(-c4c(F)cccc4F)c4nc(c(-c5c(F)cccc5F)c5ccc2[nH]5)C=C4)C=C3)cc1)c1cc(F)c(C)cc1F
REMARK SMILES IDX 14 1 13 2 12 3 11 4 10 5 8 6 9 7 6 8 7 9 3 10 2 11 1 12 4 13
REMARK SMILES IDX 5 14 76 15 77 16 83 17 78 18 82 19 84 20 79 21 80 22 81 23
REMARK SMILES IDX 15 24 16 25 17 26 18 27 19 28 20 29 21 30 22 31 23 32 75 33
REMARK SMILES IDX 24 34 74 35 25 36 26 37 27 38 68 39 28 40 73 41 67 42 69 43
REMARK SMILES IDX 29 44 72 45 66 46 65 47 30 49 56 50 39 51 55 52 40 53 43 54
REMARK SMILES IDX 54 55 70 56 41 57 42 58 53 60 71 61 44 62 31 63 32 64 37 65
REMARK SMILES IDX 33 66 34 67 36 68 38 69 35 70 57 71 58 72 63 73 59 74 60 75
REMARK SMILES IDX 62 76 64 77 61 78 45 79 46 80 51 81 47 82 48 83 50 84 52 85
REMARK SMILES IDX 49 86
REMARK H PARENT 69 48 43 59
REMARK Flexibility Score: inf
ROOT
ATOM      1  C   UNL A   1      39.194  21.841  25.976  1.00  0.00     0.188 C 
ENDROOT
BRANCH   1   2
ATOM      2  O   UNL A   1      39.218  23.160  26.460  1.00  0.00    -0.376 OA
BRANCH   2   3
ATOM      3  C   UNL A   1      38.081  23.973  26.230  1.00  0.00     0.202 C 
BRANCH   3   4
ATOM      4  C   UNL A   1      36.701  23.459  25.750  1.00  0.00     0.261 C 
BRANCH   4   5
ATOM      5  O   UNL A   1      35.510  24.232  25.981  1.00  0.00    -0.461 OA
BRANCH   5   6
ATOM      6  C   UNL A   1      34.461  24.040  25.134  1.00  0.00     0.336 C 
ATOM      7  O   UNL A   1      34.446  24.534  24.010  1.00  0.00    -0.249 OA
BRANCH   6   8
ATOM      8  C   UNL A   1      33.245  23.245  25.771  1.00  0.00     0.166 C 
ATOM      9  C   UNL A   1      33.506  22.729  27.219  1.00  0.00     0.053 C 
BRANCH   8  10
ATOM     10  N   UNL A   1      32.084  24.222  25.732  1.00  0.00    -0.326 N 
BRANCH  10  11
ATOM     11  C   UNL A   1      32.321  25.652  25.503  1.00  0.00     0.117 C 
ATOM     12  C   UNL A   1      31.527  26.559  26.440  1.00  0.00     0.027 C 
ENDBRANCH  10  11
BRANCH  10  13
ATOM     13  C   UNL A   1      30.822  23.879  26.208  1.00  0.00     0.341 C 
ATOM     14  O   UNL A   1      30.534  23.435  27.308  1.00  0.00    -0.279 OA
ENDBRANCH  10  13
ENDBRANCH   8  10
BRANCH   8  15
ATOM     15  C   UNL A   1      32.876  21.940  25.000  1.00  0.00     0.027 A 
ATOM     16  C   UNL A   1      33.130  20.686  25.602  1.00  0.00     0.049 A 
ATOM     17  C   UNL A   1      32.412  21.908  23.679  1.00  0.00     0.129 A 
ATOM     18  C   UNL A   1      32.953  19.491  24.898  1.00  0.00     0.126 A 
ATOM     19  C   UNL A   1      32.203  20.710  22.990  1.00  0.00     0.046 A 
ATOM     20  F   UNL A   1      32.188  23.025  22.986  1.00  0.00    -0.207 F 
ATOM     21  F   UNL A   1      33.249  18.334  25.506  1.00  0.00    -0.207 F 
ATOM     22  C   UNL A   1      32.504  19.484  23.582  1.00  0.00    -0.012 A 
ATOM     23  C   UNL A   1      32.331  18.199  22.833  1.00  0.00     0.047 C 
ENDBRANCH   8  15
ENDBRANCH   6   8
ENDBRANCH   5   6
ENDBRANCH   4   5
ENDBRANCH   3   4
ENDBRANCH   2   3
ENDBRANCH   1   2
BRANCH   1  24
ATOM     24  C   UNL A   1      40.358  21.000  26.509  1.00  0.00     0.188 C 
BRANCH  24  25
ATOM     25  O   UNL A   1      41.434  20.634  25.668  1.00  0.00    -0.376 OA
BRANCH  25  26
ATOM     26  C   UNL A   1      42.747  21.025  26.034  1.00  0.00     0.202 C 
BRANCH  26  27
ATOM     27  C   UNL A   1      43.601  21.912  25.104  1.00  0.00     0.261 C 
BRANCH  27  28
ATOM     28  O   UNL A   1      43.072  23.203  24.753  1.00  0.00    -0.460 OA
BRANCH  28  29
ATOM     29  C   UNL A   1      43.832  24.269  25.103  1.00  0.00     0.338 C 
ATOM     30  O   UNL A   1      44.942  24.558  24.669  1.00  0.00    -0.246 OA
BRANCH  29  31
ATOM     31  C   UNL A   1      43.053  25.187  25.966  1.00  0.00     0.060 A 
ATOM     32  C   UNL A   1      43.466  26.525  26.073  1.00  0.00     0.016 A 
ATOM     33  C   UNL A   1      41.968  24.730  26.714  1.00  0.00     0.016 A 
ATOM     34  C   UNL A   1      42.820  27.396  26.952  1.00  0.00     0.010 A 
ATOM     35  C   UNL A   1      41.345  25.594  27.625  1.00  0.00     0.010 A 
ATOM     36  C   UNL A   1      41.795  26.919  27.777  1.00  0.00    -0.014 A 
BRANCH  36  37
ATOM     37  C   UNL A   1      41.366  27.737  28.940  1.00  0.00     0.031 A 
ATOM     38  C   UNL A   1      42.189  27.677  30.198  1.00  0.00     0.074 A 
ATOM     39  C   UNL A   1      40.298  28.552  28.880  1.00  0.00     0.049 A 
ATOM     40  N   UNL A   1      42.016  28.298  31.336  1.00  0.00    -0.248 NA
ATOM     41  C   UNL A   1      43.351  26.774  30.174  1.00  0.00     0.031 C 
ATOM     42  C   UNL A   1      39.417  28.696  27.727  1.00  0.00     0.029 A 
ATOM     43  N   UNL A   1      39.787  29.428  29.807  1.00  0.00    -0.354 N 
ATOM     44  C   UNL A   1      43.025  27.835  32.174  1.00  0.00     0.074 A 
ATOM     45  C   UNL A   1      43.799  26.878  31.415  1.00  0.00     0.031 C 
ATOM     46  C   UNL A   1      38.503  29.647  27.993  1.00  0.00     0.029 A 
ATOM     47  C   UNL A   1      38.704  30.144  29.354  1.00  0.00     0.049 A 
ATOM     48  H   UNL A   1      40.160  29.532  30.712  1.00  0.00     0.167 HD
ATOM     49  C   UNL A   1      43.275  28.167  33.462  1.00  0.00     0.037 A 
ATOM     50  C   UNL A   1      37.961  31.085  29.972  1.00  0.00     0.037 A 
ATOM     51  C   UNL A   1      42.503  29.117  34.220  1.00  0.00     0.049 A 
ATOM     52  C   UNL A   1      38.261  31.436  31.409  1.00  0.00     0.074 A 
ATOM     53  C   UNL A   1      42.679  29.518  35.532  1.00  0.00     0.029 A 
ATOM     54  N   UNL A   1      41.403  29.808  33.735  1.00  0.00    -0.354 N 
ATOM     55  N   UNL A   1      39.224  31.003  32.187  1.00  0.00    -0.248 NA
ATOM     56  C   UNL A   1      37.352  32.391  32.063  1.00  0.00     0.031 C 
ATOM     57  C   UNL A   1      41.654  30.412  35.858  1.00  0.00     0.029 A 
ATOM     58  C   UNL A   1      40.876  30.616  34.729  1.00  0.00     0.049 A 
ATOM     59  H   UNL A   1      41.049  29.736  32.818  1.00  0.00     0.167 HD
ATOM     60  C   UNL A   1      39.038  31.631  33.414  1.00  0.00     0.074 A 
ATOM     61  C   UNL A   1      37.897  32.509  33.265  1.00  0.00     0.031 C 
ATOM     62  C   UNL A   1      39.738  31.484  34.567  1.00  0.00     0.037 A 
BRANCH  49  63
ATOM     63  C   UNL A   1      44.404  27.454  34.149  1.00  0.00     0.057 A 
ATOM     64  C   UNL A   1      45.704  27.973  34.183  1.00  0.00     0.134 A 
ATOM     65  C   UNL A   1      44.178  26.234  34.801  1.00  0.00     0.134 A 
ATOM     66  F   UNL A   1      45.992  29.129  33.564  1.00  0.00    -0.206 F 
ATOM     67  C   UNL A   1      46.745  27.291  34.815  1.00  0.00     0.040 A 
ATOM     68  C   UNL A   1      45.204  25.559  35.463  1.00  0.00     0.040 A 
ATOM     69  F   UNL A   1      42.956  25.681  34.810  1.00  0.00    -0.206 F 
ATOM     70  C   UNL A   1      46.495  26.084  35.464  1.00  0.00     0.006 A 
ENDBRANCH  49  63
BRANCH  50  71
ATOM     71  C   UNL A   1      36.847  31.765  29.255  1.00  0.00     0.057 A 
ATOM     72  C   UNL A   1      35.616  31.124  29.061  1.00  0.00     0.134 A 
ATOM     73  C   UNL A   1      36.994  33.045  28.709  1.00  0.00     0.134 A 
ATOM     74  F   UNL A   1      35.419  29.885  29.534  1.00  0.00    -0.206 F 
ATOM     75  C   UNL A   1      34.583  31.720  28.334  1.00  0.00     0.040 A 
ATOM     76  C   UNL A   1      35.956  33.668  28.011  1.00  0.00     0.040 A 
ATOM     77  F   UNL A   1      38.146  33.716  28.853  1.00  0.00    -0.206 F 
ATOM     78  C   UNL A   1      34.751  33.001  27.813  1.00  0.00     0.006 A 
ENDBRANCH  50  71
BRANCH  62  79
ATOM     79  C   UNL A   1      39.299  32.298  35.753  1.00  0.00     0.057 A 
ATOM     80  C   UNL A   1      39.800  33.584  35.997  1.00  0.00     0.134 A 
ATOM     81  C   UNL A   1      38.334  31.806  36.642  1.00  0.00     0.134 A 
ATOM     82  F   UNL A   1      40.734  34.114  35.192  1.00  0.00    -0.206 F 
ATOM     83  C   UNL A   1      39.379  34.337  37.096  1.00  0.00     0.040 A 
ATOM     84  C   UNL A   1      37.882  32.562  37.725  1.00  0.00     0.040 A 
ATOM     85  F   UNL A   1      37.800  30.587  36.462  1.00  0.00    -0.206 F 
ATOM     86  C   UNL A   1      38.411  33.828  37.959  1.00  0.00     0.006 A 
ENDBRANCH  62  79
ENDBRANCH  36  37
ENDBRANCH  29  31
ENDBRANCH  28  29
ENDBRANCH  27  28
ENDBRANCH  26  27
ENDBRANCH  25  26
ENDBRANCH  24  25
ENDBRANCH   1  24
TORSDOF 21
ENDMDL
MODEL 3
REMARK VINA RESULT:     -10.1      1.037      1.829
REMARK SMILES CCN(C=O)[C@](C)(C(=O)OCCOCCOCCOC(=O)c1ccc(-c2c3nc(c(-c4c(F)cccc4F)c4ccc([nH]4)c(-c4c(F)cccc4F)c4nc(c(-c5c(F)cccc5F)c5ccc2[nH]5)C=C4)C=C3)cc1)c1cc(F)c(C)cc1F
REMARK SMILES IDX 14 1 13 2 12 3 11 4 10 5 8 6 9 7 6 8 7 9 3 10 2 11 1 12 4 13
REMARK SMILES IDX 5 14 76 15 77 16 83 17 78 18 82 19 84 20 79 21 80 22 81 23
REMARK SMILES IDX 15 24 16 25 17 26 18 27 19 28 20 29 21 30 22 31 23 32 75 33
REMARK SMILES IDX 24 34 74 35 25 36 26 37 27 38 68 39 28 40 73 41 67 42 69 43
REMARK SMILES IDX 29 44 72 45 66 46 65 47 30 49 56 50 39 51 55 52 40 53 43 54
REMARK SMILES IDX 54 55 70 56 41 57 42 58 53 60 71 61 44 62 31 63 32 64 37 65
REMARK SMILES IDX 33 66 34 67 36 68 38 69 35 70 57 71 58 72 63 73 59 74 60 75
REMARK SMILES IDX 62 76 64 77 61 78 45 79 46 80 51 81 47 82 48 83 50 84 52 85
REMARK SMILES IDX 49 86
REMARK H PARENT 69 48 43 59
REMARK Flexibility Score: inf
ROOT
ATOM      1  C   UNL A   1      40.277  21.474  26.897  1.00  0.00     0.188 C 
ENDROOT
BRANCH   1   2
ATOM      2  O   UNL A   1      39.563  21.798  25.731  1.00  0.00    -0.376 OA
BRANCH   2   3
ATOM      3  C   UNL A   1      38.149  21.815  25.801  1.00  0.00     0.202 C 
BRANCH   3   4
ATOM      4  C   UNL A   1      37.207  22.296  24.669  1.00  0.00     0.261 C 
BRANCH   4   5
ATOM      5  O   UNL A   1      36.467  23.523  24.803  1.00  0.00    -0.461 OA
BRANCH   5   6
ATOM      6  C   UNL A   1      35.312  23.486  25.524  1.00  0.00     0.336 C 
ATOM      7  O   UNL A   1      35.306  23.155  26.706  1.00  0.00    -0.249 OA
BRANCH   6   8
ATOM      8  C   UNL A   1      34.004  23.781  24.677  1.00  0.00     0.166 C 
ATOM      9  C   UNL A   1      34.210  23.703  23.133  1.00  0.00     0.053 C 
BRANCH   8  10
ATOM     10  N   UNL A   1      32.996  22.752  25.154  1.00  0.00    -0.326 N 
BRANCH  10  11
ATOM     11  C   UNL A   1      32.181  23.006  26.348  1.00  0.00     0.117 C 
ATOM     12  C   UNL A   1      30.687  22.792  26.123  1.00  0.00     0.027 C 
ENDBRANCH  10  11
BRANCH  10  13
ATOM     13  C   UNL A   1      33.015  21.440  24.693  1.00  0.00     0.341 C 
ATOM     14  O   UNL A   1      32.473  20.990  23.696  1.00  0.00    -0.279 OA
ENDBRANCH  10  13
ENDBRANCH   8  10
BRANCH   8  15
ATOM     15  C   UNL A   1      33.439  25.221  24.877  1.00  0.00     0.027 A 
ATOM     16  C   UNL A   1      34.109  26.112  25.748  1.00  0.00     0.049 A 
ATOM     17  C   UNL A   1      32.226  25.676  24.343  1.00  0.00     0.129 A 
ATOM     18  C   UNL A   1      33.567  27.359  26.073  1.00  0.00     0.126 A 
ATOM     19  C   UNL A   1      31.705  26.938  24.643  1.00  0.00     0.046 A 
ATOM     20  F   UNL A   1      31.475  24.907  23.554  1.00  0.00    -0.207 F 
ATOM     21  F   UNL A   1      34.226  28.145  26.935  1.00  0.00    -0.207 F 
ATOM     22  C   UNL A   1      32.354  27.784  25.540  1.00  0.00    -0.012 A 
ATOM     23  C   UNL A   1      31.775  29.116  25.906  1.00  0.00     0.047 C 
ENDBRANCH   8  15
ENDBRANCH   6   8
ENDBRANCH   5   6
ENDBRANCH   4   5
ENDBRANCH   3   4
ENDBRANCH   2   3
ENDBRANCH   1   2
BRANCH   1  24
ATOM     24  C   UNL A   1      41.127  20.210  26.732  1.00  0.00     0.188 C 
BRANCH  24  25
ATOM     25  O   UNL A   1      41.980  20.050  25.617  1.00  0.00    -0.376 OA
BRANCH  25  26
ATOM     26  C   UNL A   1      43.359  20.347  25.767  1.00  0.00     0.202 C 
BRANCH  26  27
ATOM     27  C   UNL A   1      43.951  21.666  25.226  1.00  0.00     0.261 C 
BRANCH  27  28
ATOM     28  O   UNL A   1      44.222  22.708  26.181  1.00  0.00    -0.460 OA
BRANCH  28  29
ATOM     29  C   UNL A   1      44.299  23.964  25.680  1.00  0.00     0.338 C 
ATOM     30  O   UNL A   1      44.838  24.309  24.633  1.00  0.00    -0.246 OA
BRANCH  29  31
ATOM     31  C   UNL A   1      43.455  24.883  26.479  1.00  0.00     0.060 A 
ATOM     32  C   UNL A   1      43.804  26.243  26.534  1.00  0.00     0.016 A 
ATOM     33  C   UNL A   1      42.372  24.410  27.219  1.00  0.00     0.016 A 
ATOM     34  C   UNL A   1      43.096  27.122  27.354  1.00  0.00     0.010 A 
ATOM     35  C   UNL A   1      41.685  25.285  28.072  1.00  0.00     0.010 A 
ATOM     36  C   UNL A   1      42.070  26.635  28.174  1.00  0.00    -0.014 A 
BRANCH  36  37
ATOM     37  C   UNL A   1      41.572  27.484  29.286  1.00  0.00     0.031 A 
ATOM     38  C   UNL A   1      42.347  27.498  30.576  1.00  0.00     0.074 A 
ATOM     39  C   UNL A   1      40.485  28.264  29.153  1.00  0.00     0.049 A 
ATOM     40  N   UNL A   1      42.112  28.157  31.681  1.00  0.00    -0.248 NA
ATOM     41  C   UNL A   1      43.535  26.630  30.632  1.00  0.00     0.031 C 
ATOM     42  C   UNL A   1      39.646  28.336  27.963  1.00  0.00     0.029 A 
ATOM     43  N   UNL A   1      39.912  29.159  30.024  1.00  0.00    -0.354 N 
ATOM     44  C   UNL A   1      43.099  27.757  32.574  1.00  0.00     0.074 A 
ATOM     45  C   UNL A   1      43.930  26.795  31.884  1.00  0.00     0.031 C 
ATOM     46  C   UNL A   1      38.696  29.268  28.155  1.00  0.00     0.029 A 
ATOM     47  C   UNL A   1      38.828  29.823  29.502  1.00  0.00     0.049 A 
ATOM     48  H   UNL A   1      40.247  29.309  30.937  1.00  0.00     0.167 HD
ATOM     49  C   UNL A   1      43.289  28.146  33.857  1.00  0.00     0.037 A 
ATOM     50  C   UNL A   1      38.035  30.764  30.053  1.00  0.00     0.037 A 
ATOM     51  C   UNL A   1      42.461  29.101  34.547  1.00  0.00     0.049 A 
ATOM     52  C   UNL A   1      38.267  31.180  31.486  1.00  0.00     0.074 A 
ATOM     53  C   UNL A   1      42.573  29.558  35.847  1.00  0.00     0.029 A 
ATOM     54  N   UNL A   1      41.361  29.739  33.993  1.00  0.00    -0.354 N 
ATOM     55  N   UNL A   1      39.212  30.807  32.317  1.00  0.00    -0.248 NA
ATOM     56  C   UNL A   1      37.306  32.131  32.066  1.00  0.00     0.031 C 
ATOM     57  C   UNL A   1      41.511  30.432  36.098  1.00  0.00     0.029 A 
ATOM     58  C   UNL A   1      40.772  30.569  34.933  1.00  0.00     0.049 A 
ATOM     59  H   UNL A   1      41.045  29.621  33.067  1.00  0.00     0.167 HD
ATOM     60  C   UNL A   1      38.959  31.476  33.509  1.00  0.00     0.074 A 
ATOM     61  C   UNL A   1      37.800  32.312  33.282  1.00  0.00     0.031 C 
ATOM     62  C   UNL A   1      39.617  31.395  34.693  1.00  0.00     0.037 A 
BRANCH  49  63
ATOM     63  C   UNL A   1      44.410  27.496  34.615  1.00  0.00     0.057 A 
ATOM     64  C   UNL A   1      45.695  28.050  34.671  1.00  0.00     0.134 A 
ATOM     65  C   UNL A   1      44.192  26.299  35.312  1.00  0.00     0.134 A 
ATOM     66  F   UNL A   1      45.975  29.185  34.011  1.00  0.00    -0.206 F 
ATOM     67  C   UNL A   1      46.729  27.425  35.369  1.00  0.00     0.040 A 
ATOM     68  C   UNL A   1      45.210  25.682  36.039  1.00  0.00     0.040 A 
ATOM     69  F   UNL A   1      42.985  25.715  35.303  1.00  0.00    -0.206 F 
ATOM     70  C   UNL A   1      46.486  26.241  36.062  1.00  0.00     0.006 A 
ENDBRANCH  49  63
BRANCH  50  71
ATOM     71  C   UNL A   1      36.931  31.382  29.268  1.00  0.00     0.057 A 
ATOM     72  C   UNL A   1      35.769  30.659  28.964  1.00  0.00     0.134 A 
ATOM     73  C   UNL A   1      37.022  32.685  28.764  1.00  0.00     0.134 A 
ATOM     74  F   UNL A   1      35.629  29.396  29.393  1.00  0.00    -0.206 F 
ATOM     75  C   UNL A   1      34.752  31.200  28.173  1.00  0.00     0.040 A 
ATOM     76  C   UNL A   1      35.997  33.251  28.002  1.00  0.00     0.040 A 
ATOM     77  F   UNL A   1      38.108  33.433  29.011  1.00  0.00    -0.206 F 
ATOM     78  C   UNL A   1      34.863  32.503  27.696  1.00  0.00     0.006 A 
ENDBRANCH  50  71
BRANCH  62  79
ATOM     79  C   UNL A   1      39.108  32.240  35.828  1.00  0.00     0.057 A 
ATOM     80  C   UNL A   1      39.489  33.580  35.984  1.00  0.00     0.134 A 
ATOM     81  C   UNL A   1      38.196  31.720  36.756  1.00  0.00     0.134 A 
ATOM     82  F   UNL A   1      40.367  34.141  35.137  1.00  0.00    -0.206 F 
ATOM     83  C   UNL A   1      39.004  34.361  37.035  1.00  0.00     0.040 A 
ATOM     84  C   UNL A   1      37.680  32.500  37.792  1.00  0.00     0.040 A 
ATOM     85  F   UNL A   1      37.777  30.448  36.660  1.00  0.00    -0.206 F 
ATOM     86  C   UNL A   1      38.090  33.823  37.939  1.00  0.00     0.006 A 
ENDBRANCH  62  79
ENDBRANCH  36  37
ENDBRANCH  29  31
ENDBRANCH  28  29
ENDBRANCH  27  28
ENDBRANCH  26  27
ENDBRANCH  25  26
ENDBRANCH  24  25
ENDBRANCH   1  24
TORSDOF 21
ENDMDL
