MODEL 1
REMARK VINA RESULT:     -11.1      0.000      0.000
REMARK SMILES O=C(COc1ccccc1/C=N\N1CC[NH+](Cc2ccc(Cl)cc2)CC1)OCCOCCOCCOC(=O)c1ccc(-c2c3nc(c(-c4c(F)cccc4F)c4ccc([nH]4)c(-c4c(F)cccc4F)c4nc(c(-c5c(F)cccc5F)c5ccc2[nH]5)C=C4)C=C3)cc1
REMARK SMILES IDX 29 1 28 2 27 3 2 4 1 5 3 6 4 7 5 8 6 9 10 10 7 11 9 12 8 13
REMARK SMILES IDX 11 14 12 15 13 16 14 17 26 18 15 19 25 20 16 21 17 23 18 24
REMARK SMILES IDX 19 25 24 26 20 27 23 28 21 29 22 30 30 31 31 32 32 33 33 34
REMARK SMILES IDX 34 35 35 36 36 37 37 38 38 39 39 40 40 41 92 42 41 43 91 44
REMARK SMILES IDX 42 45 43 46 44 47 85 48 45 49 90 50 84 51 86 52 46 53 89 54
REMARK SMILES IDX 83 55 82 56 47 58 73 59 56 60 72 61 57 62 60 63 71 64 87 65
REMARK SMILES IDX 58 66 59 67 70 69 88 70 61 71 48 72 49 73 54 74 50 75 51 76
REMARK SMILES IDX 53 77 55 78 52 79 74 80 75 81 80 82 76 83 77 84 79 85 81 86
REMARK SMILES IDX 78 87 62 88 63 89 68 90 64 91 65 92 67 93 69 94 66 95
REMARK H PARENT 16 22 86 57 60 68
REMARK Flexibility Score: inf
ROOT
ATOM      1  C   UNL A   1      33.717  33.452  28.346  1.00  0.00     0.202 C 
ENDROOT
BRANCH   1   2
ATOM      2  C   UNL A   1      34.362  32.108  28.033  1.00  0.00     0.261 C 
BRANCH   2   3
ATOM      3  O   UNL A   1      33.533  31.045  27.500  1.00  0.00    -0.461 OA
BRANCH   3   4
ATOM      4  C   UNL A   1      33.808  29.816  27.017  1.00  0.00     0.344 C 
ATOM      5  O   UNL A   1      34.695  29.136  27.535  1.00  0.00    -0.248 OA
BRANCH   4   6
ATOM      6  C   UNL A   1      33.165  29.339  25.730  1.00  0.00     0.352 C 
BRANCH   6   7
ATOM      7  O   UNL A   1      32.617  28.035  25.721  1.00  0.00    -0.481 OA
BRANCH   7   8
ATOM      8  C   UNL A   1      31.679  27.910  24.734  1.00  0.00     0.129 A 
ATOM      9  C   UNL A   1      31.787  28.775  23.647  1.00  0.00     0.047 A 
ATOM     10  C   UNL A   1      30.596  27.032  24.824  1.00  0.00     0.037 A 
ATOM     11  C   UNL A   1      30.813  28.748  22.651  1.00  0.00     0.004 A 
ATOM     12  C   UNL A   1      29.593  27.054  23.866  1.00  0.00     0.013 A 
ATOM     13  C   UNL A   1      29.716  27.890  22.761  1.00  0.00     0.001 A 
BRANCH  10  14
ATOM     14  C   UNL A   1      30.343  26.273  26.034  1.00  0.00     0.145 C 
ATOM     15  N   UNL A   1      30.794  25.159  26.499  1.00  0.00    -0.185 NA
BRANCH  15  16
ATOM     16  N   UNL A   1      31.703  24.337  25.970  1.00  0.00    -0.286 NA
ATOM     17  C   UNL A   1      31.096  23.306  25.128  1.00  0.00     0.200 C 
ATOM     18  C   UNL A   1      33.101  24.552  25.588  1.00  0.00     0.200 C 
ATOM     19  C   UNL A   1      31.172  23.723  23.653  1.00  0.00     0.286 C 
ATOM     20  C   UNL A   1      33.359  24.722  24.061  1.00  0.00     0.286 C 
ATOM     21  N   UNL A   1      32.526  23.942  23.127  1.00  0.00    -0.328 N 
ATOM     22  H   UNL A   1      32.425  24.538  22.305  1.00  0.00     0.348 HD
BRANCH  21  23
ATOM     23  C   UNL A   1      33.158  22.752  22.540  1.00  0.00     0.299 C 
BRANCH  23  24
ATOM     24  C   UNL A   1      33.051  21.480  23.348  1.00  0.00     0.006 A 
ATOM     25  C   UNL A   1      32.163  20.469  22.951  1.00  0.00     0.011 A 
ATOM     26  C   UNL A   1      33.909  21.244  24.431  1.00  0.00     0.011 A 
ATOM     27  C   UNL A   1      32.227  19.205  23.535  1.00  0.00     0.021 A 
ATOM     28  C   UNL A   1      33.990  19.973  25.000  1.00  0.00     0.021 A 
ATOM     29  C   UNL A   1      33.167  18.953  24.532  1.00  0.00     0.041 A 
ATOM     30  Cl  UNL A   1      33.331  17.362  25.164  1.00  0.00    -0.084 Cl
ENDBRANCH  23  24
ENDBRANCH  21  23
ENDBRANCH  15  16
ENDBRANCH  10  14
ENDBRANCH   7   8
ENDBRANCH   6   7
ENDBRANCH   4   6
ENDBRANCH   3   4
ENDBRANCH   2   3
ENDBRANCH   1   2
BRANCH   1  31
ATOM     31  O   UNL A   1      34.405  34.594  27.898  1.00  0.00    -0.376 OA
BRANCH  31  32
ATOM     32  C   UNL A   1      34.304  35.737  28.720  1.00  0.00     0.188 C 
BRANCH  32  33
ATOM     33  C   UNL A   1      32.925  35.900  29.395  1.00  0.00     0.188 C 
BRANCH  33  34
ATOM     34  O   UNL A   1      32.713  35.390  30.704  1.00  0.00    -0.376 OA
BRANCH  34  35
ATOM     35  C   UNL A   1      33.798  35.340  31.614  1.00  0.00     0.202 C 
BRANCH  35  36
ATOM     36  C   UNL A   1      34.059  34.031  32.383  1.00  0.00     0.261 C 
BRANCH  36  37
ATOM     37  O   UNL A   1      35.055  33.144  31.826  1.00  0.00    -0.460 OA
BRANCH  37  38
ATOM     38  C   UNL A   1      36.199  32.981  32.540  1.00  0.00     0.338 C 
ATOM     39  O   UNL A   1      36.417  33.388  33.674  1.00  0.00    -0.246 OA
BRANCH  38  40
ATOM     40  C   UNL A   1      37.135  32.060  31.837  1.00  0.00     0.060 A 
ATOM     41  C   UNL A   1      38.016  31.273  32.601  1.00  0.00     0.016 A 
ATOM     42  C   UNL A   1      37.177  31.979  30.445  1.00  0.00     0.016 A 
ATOM     43  C   UNL A   1      38.965  30.450  31.983  1.00  0.00     0.010 A 
ATOM     44  C   UNL A   1      38.150  31.176  29.825  1.00  0.00     0.010 A 
ATOM     45  C   UNL A   1      39.079  30.439  30.588  1.00  0.00    -0.014 A 
BRANCH  45  46
ATOM     46  C   UNL A   1      40.296  29.876  29.936  1.00  0.00     0.031 A 
ATOM     47  C   UNL A   1      41.475  30.794  29.723  1.00  0.00     0.074 A 
ATOM     48  C   UNL A   1      40.385  28.592  29.540  1.00  0.00     0.049 A 
ATOM     49  N   UNL A   1      42.601  30.579  29.090  1.00  0.00    -0.248 NA
ATOM     50  C   UNL A   1      41.357  32.143  30.299  1.00  0.00     0.031 C 
ATOM     51  C   UNL A   1      39.361  27.570  29.729  1.00  0.00     0.029 A 
ATOM     52  N   UNL A   1      41.396  27.936  28.874  1.00  0.00    -0.354 N 
ATOM     53  C   UNL A   1      43.315  31.769  29.178  1.00  0.00     0.074 A 
ATOM     54  C   UNL A   1      42.484  32.708  29.899  1.00  0.00     0.031 C 
ATOM     55  C   UNL A   1      39.784  26.421  29.170  1.00  0.00     0.029 A 
ATOM     56  C   UNL A   1      41.094  26.633  28.554  1.00  0.00     0.049 A 
ATOM     57  H   UNL A   1      42.255  28.360  28.648  1.00  0.00     0.167 HD
ATOM     58  C   UNL A   1      44.554  32.056  28.709  1.00  0.00     0.037 A 
ATOM     59  C   UNL A   1      41.781  25.728  27.825  1.00  0.00     0.037 A 
ATOM     60  C   UNL A   1      45.390  31.128  27.995  1.00  0.00     0.049 A 
ATOM     61  C   UNL A   1      43.122  26.096  27.235  1.00  0.00     0.074 A 
ATOM     62  C   UNL A   1      46.665  31.327  27.496  1.00  0.00     0.029 A 
ATOM     63  N   UNL A   1      45.031  29.830  27.668  1.00  0.00    -0.354 N 
ATOM     64  N   UNL A   1      43.794  27.218  27.337  1.00  0.00    -0.248 NA
ATOM     65  C   UNL A   1      43.801  25.068  26.429  1.00  0.00     0.031 C 
ATOM     66  C   UNL A   1      47.056  30.170  26.815  1.00  0.00     0.029 A 
ATOM     67  C   UNL A   1      46.051  29.227  26.948  1.00  0.00     0.049 A 
ATOM     68  H   UNL A   1      44.180  29.401  27.911  1.00  0.00     0.167 HD
ATOM     69  C   UNL A   1      44.985  27.016  26.644  1.00  0.00     0.074 A 
ATOM     70  C   UNL A   1      44.948  25.663  26.133  1.00  0.00     0.031 C 
ATOM     71  C   UNL A   1      46.017  27.874  26.454  1.00  0.00     0.037 A 
BRANCH  58  72
ATOM     72  C   UNL A   1      45.069  33.450  28.928  1.00  0.00     0.057 A 
ATOM     73  C   UNL A   1      45.846  33.790  30.043  1.00  0.00     0.134 A 
ATOM     74  C   UNL A   1      44.810  34.458  27.991  1.00  0.00     0.134 A 
ATOM     75  F   UNL A   1      46.120  32.875  30.986  1.00  0.00    -0.206 F 
ATOM     76  C   UNL A   1      46.321  35.089  30.233  1.00  0.00     0.040 A 
ATOM     77  C   UNL A   1      45.307  35.752  28.153  1.00  0.00     0.040 A 
ATOM     78  F   UNL A   1      44.079  34.200  26.896  1.00  0.00    -0.206 F 
ATOM     79  C   UNL A   1      46.058  36.073  29.282  1.00  0.00     0.006 A 
ENDBRANCH  58  72
BRANCH  59  80
ATOM     80  C   UNL A   1      41.211  24.375  27.580  1.00  0.00     0.057 A 
ATOM     81  C   UNL A   1      40.154  24.183  26.682  1.00  0.00     0.134 A 
ATOM     82  C   UNL A   1      41.676  23.250  28.273  1.00  0.00     0.134 A 
ATOM     83  F   UNL A   1      39.641  25.224  26.011  1.00  0.00    -0.206 F 
ATOM     84  C   UNL A   1      39.568  22.929  26.496  1.00  0.00     0.040 A 
ATOM     85  C   UNL A   1      41.119  21.985  28.075  1.00  0.00     0.040 A 
ATOM     86  F   UNL A   1      42.682  23.364  29.152  1.00  0.00    -0.206 F 
ATOM     87  C   UNL A   1      40.054  21.824  27.190  1.00  0.00     0.006 A 
ENDBRANCH  59  80
BRANCH  71  88
ATOM     88  C   UNL A   1      47.222  27.369  25.710  1.00  0.00     0.057 A 
ATOM     89  C   UNL A   1      48.276  26.707  26.353  1.00  0.00     0.134 A 
ATOM     90  C   UNL A   1      47.303  27.500  24.316  1.00  0.00     0.134 A 
ATOM     91  F   UNL A   1      48.270  26.553  27.686  1.00  0.00    -0.206 F 
ATOM     92  C   UNL A   1      49.374  26.216  25.642  1.00  0.00     0.040 A 
ATOM     93  C   UNL A   1      48.379  26.988  23.591  1.00  0.00     0.040 A 
ATOM     94  F   UNL A   1      46.324  28.113  23.631  1.00  0.00    -0.206 F 
ATOM     95  C   UNL A   1      49.424  26.349  24.255  1.00  0.00     0.006 A 
ENDBRANCH  71  88
ENDBRANCH  45  46
ENDBRANCH  38  40
ENDBRANCH  37  38
ENDBRANCH  36  37
ENDBRANCH  35  36
ENDBRANCH  34  35
ENDBRANCH  33  34
ENDBRANCH  32  33
ENDBRANCH  31  32
ENDBRANCH   1  31
TORSDOF 23
ENDMDL
MODEL 2
REMARK VINA RESULT:     -10.9      2.374      3.872
REMARK SMILES O=C(COc1ccccc1/C=N\N1CC[NH+](Cc2ccc(Cl)cc2)CC1)OCCOCCOCCOC(=O)c1ccc(-c2c3nc(c(-c4c(F)cccc4F)c4ccc([nH]4)c(-c4c(F)cccc4F)c4nc(c(-c5c(F)cccc5F)c5ccc2[nH]5)C=C4)C=C3)cc1
REMARK SMILES IDX 29 1 28 2 27 3 2 4 1 5 3 6 4 7 5 8 6 9 10 10 7 11 9 12 8 13
REMARK SMILES IDX 11 14 12 15 13 16 14 17 26 18 15 19 25 20 16 21 17 23 18 24
REMARK SMILES IDX 19 25 24 26 20 27 23 28 21 29 22 30 30 31 31 32 32 33 33 34
REMARK SMILES IDX 34 35 35 36 36 37 37 38 38 39 39 40 40 41 92 42 41 43 91 44
REMARK SMILES IDX 42 45 43 46 44 47 85 48 45 49 90 50 84 51 86 52 46 53 89 54
REMARK SMILES IDX 83 55 82 56 47 58 73 59 56 60 72 61 57 62 60 63 71 64 87 65
REMARK SMILES IDX 58 66 59 67 70 69 88 70 61 71 48 72 49 73 54 74 50 75 51 76
REMARK SMILES IDX 53 77 55 78 52 79 74 80 75 81 80 82 76 83 77 84 79 85 81 86
REMARK SMILES IDX 78 87 62 88 63 89 68 90 64 91 65 92 67 93 69 94 66 95
REMARK H PARENT 16 22 86 57 60 68
REMARK Flexibility Score: inf
ROOT
ATOM      1  C   UNL A   1      35.155  33.042  28.019  1.00  0.00     0.202 C 
ENDROOT
BRANCH   1   2
ATOM      2  C   UNL A   1      34.104  31.969  27.766  1.00  0.00     0.261 C 
BRANCH   2   3
ATOM      3  O   UNL A   1      34.333  30.635  28.286  1.00  0.00    -0.461 OA
BRANCH   3   4
ATOM      4  C   UNL A   1      35.160  29.634  27.922  1.00  0.00     0.344 C 
ATOM      5  O   UNL A   1      36.099  29.314  28.653  1.00  0.00    -0.248 OA
BRANCH   4   6
ATOM      6  C   UNL A   1      35.057  29.023  26.539  1.00  0.00     0.352 C 
BRANCH   6   7
ATOM      7  O   UNL A   1      33.787  28.555  26.126  1.00  0.00    -0.481 OA
BRANCH   7   8
ATOM      8  C   UNL A   1      33.870  27.936  24.910  1.00  0.00     0.129 A 
ATOM      9  C   UNL A   1      33.924  28.756  23.786  1.00  0.00     0.047 A 
ATOM     10  C   UNL A   1      33.812  26.548  24.761  1.00  0.00     0.037 A 
ATOM     11  C   UNL A   1      33.929  28.180  22.517  1.00  0.00     0.004 A 
ATOM     12  C   UNL A   1      33.749  25.980  23.497  1.00  0.00     0.013 A 
ATOM     13  C   UNL A   1      33.838  26.794  22.373  1.00  0.00     0.001 A 
BRANCH  10  14
ATOM     14  C   UNL A   1      33.546  25.681  25.894  1.00  0.00     0.145 C 
ATOM     15  N   UNL A   1      32.478  25.142  26.373  1.00  0.00    -0.185 NA
BRANCH  15  16
ATOM     16  N   UNL A   1      31.224  25.217  25.917  1.00  0.00    -0.286 NA
ATOM     17  C   UNL A   1      30.631  26.536  26.141  1.00  0.00     0.200 C 
ATOM     18  C   UNL A   1      30.552  24.535  24.810  1.00  0.00     0.200 C 
ATOM     19  C   UNL A   1      30.740  27.383  24.867  1.00  0.00     0.286 C 
ATOM     20  C   UNL A   1      30.350  25.387  23.521  1.00  0.00     0.286 C 
ATOM     21  N   UNL A   1      30.078  26.828  23.679  1.00  0.00    -0.328 N 
ATOM     22  H   UNL A   1      30.516  27.268  22.869  1.00  0.00     0.348 HD
BRANCH  21  23
ATOM     23  C   UNL A   1      28.679  27.241  23.505  1.00  0.00     0.299 C 
BRANCH  23  24
ATOM     24  C   UNL A   1      28.463  28.647  22.995  1.00  0.00     0.006 A 
ATOM     25  C   UNL A   1      27.407  29.422  23.497  1.00  0.00     0.011 A 
ATOM     26  C   UNL A   1      29.373  29.235  22.106  1.00  0.00     0.011 A 
ATOM     27  C   UNL A   1      27.341  30.787  23.223  1.00  0.00     0.021 A 
ATOM     28  C   UNL A   1      29.322  30.606  21.850  1.00  0.00     0.021 A 
ATOM     29  C   UNL A   1      28.321  31.379  22.430  1.00  0.00     0.041 A 
ATOM     30  Cl  UNL A   1      28.311  33.082  22.195  1.00  0.00    -0.084 Cl
ENDBRANCH  23  24
ENDBRANCH  21  23
ENDBRANCH  15  16
ENDBRANCH  10  14
ENDBRANCH   7   8
ENDBRANCH   6   7
ENDBRANCH   4   6
ENDBRANCH   3   4
ENDBRANCH   2   3
ENDBRANCH   1   2
BRANCH   1  31
ATOM     31  O   UNL A   1      34.688  34.367  28.094  1.00  0.00    -0.376 OA
BRANCH  31  32
ATOM     32  C   UNL A   1      33.376  34.531  28.588  1.00  0.00     0.188 C 
BRANCH  32  33
ATOM     33  C   UNL A   1      33.284  35.460  29.817  1.00  0.00     0.188 C 
BRANCH  33  34
ATOM     34  O   UNL A   1      32.886  34.931  31.075  1.00  0.00    -0.376 OA
BRANCH  34  35
ATOM     35  C   UNL A   1      33.767  35.031  32.180  1.00  0.00     0.202 C 
BRANCH  35  36
ATOM     36  C   UNL A   1      34.042  33.772  33.023  1.00  0.00     0.261 C 
BRANCH  36  37
ATOM     37  O   UNL A   1      34.898  32.772  32.427  1.00  0.00    -0.460 OA
BRANCH  37  38
ATOM     38  C   UNL A   1      36.029  32.449  33.107  1.00  0.00     0.338 C 
ATOM     39  O   UNL A   1      36.247  32.642  34.295  1.00  0.00    -0.246 OA
BRANCH  38  40
ATOM     40  C   UNL A   1      36.942  31.633  32.258  1.00  0.00     0.060 A 
ATOM     41  C   UNL A   1      37.604  30.533  32.834  1.00  0.00     0.016 A 
ATOM     42  C   UNL A   1      37.176  31.950  30.919  1.00  0.00     0.016 A 
ATOM     43  C   UNL A   1      38.530  29.785  32.096  1.00  0.00     0.010 A 
ATOM     44  C   UNL A   1      38.128  31.218  30.189  1.00  0.00     0.010 A 
ATOM     45  C   UNL A   1      38.843  30.158  30.783  1.00  0.00    -0.014 A 
BRANCH  45  46
ATOM     46  C   UNL A   1      40.068  29.623  30.122  1.00  0.00     0.031 A 
ATOM     47  C   UNL A   1      41.241  30.556  29.941  1.00  0.00     0.074 A 
ATOM     48  C   UNL A   1      40.168  28.352  29.689  1.00  0.00     0.049 A 
ATOM     49  N   UNL A   1      42.371  30.367  29.307  1.00  0.00    -0.248 NA
ATOM     50  C   UNL A   1      41.110  31.886  30.555  1.00  0.00     0.031 C 
ATOM     51  C   UNL A   1      39.151  27.317  29.843  1.00  0.00     0.029 A 
ATOM     52  N   UNL A   1      41.187  27.722  29.009  1.00  0.00    -0.354 N 
ATOM     53  C   UNL A   1      43.076  31.559  29.433  1.00  0.00     0.074 A 
ATOM     54  C   UNL A   1      42.235  32.471  30.177  1.00  0.00     0.031 C 
ATOM     55  C   UNL A   1      39.585  26.188  29.254  1.00  0.00     0.029 A 
ATOM     56  C   UNL A   1      40.896  26.427  28.651  1.00  0.00     0.049 A 
ATOM     57  H   UNL A   1      42.044  28.159  28.800  1.00  0.00     0.167 HD
ATOM     58  C   UNL A   1      44.314  31.869  28.979  1.00  0.00     0.037 A 
ATOM     59  C   UNL A   1      41.593  25.548  27.899  1.00  0.00     0.037 A 
ATOM     60  C   UNL A   1      45.160  30.968  28.241  1.00  0.00     0.049 A 
ATOM     61  C   UNL A   1      42.934  25.943  27.326  1.00  0.00     0.074 A 
ATOM     62  C   UNL A   1      46.437  31.191  27.755  1.00  0.00     0.029 A 
ATOM     63  N   UNL A   1      44.814  29.678  27.876  1.00  0.00    -0.354 N 
ATOM     64  N   UNL A   1      43.598  27.067  27.463  1.00  0.00    -0.248 NA
ATOM     65  C   UNL A   1      43.625  24.944  26.493  1.00  0.00     0.031 C 
ATOM     66  C   UNL A   1      46.839  30.058  27.043  1.00  0.00     0.029 A 
ATOM     67  C   UNL A   1      45.841  29.103  27.143  1.00  0.00     0.049 A 
ATOM     68  H   UNL A   1      43.964  29.235  28.102  1.00  0.00     0.167 HD
ATOM     69  C   UNL A   1      44.793  26.894  26.770  1.00  0.00     0.074 A 
ATOM     70  C   UNL A   1      44.768  25.556  26.220  1.00  0.00     0.031 C 
ATOM     71  C   UNL A   1      45.820  27.765  26.610  1.00  0.00     0.037 A 
BRANCH  58  72
ATOM     72  C   UNL A   1      44.818  33.260  29.240  1.00  0.00     0.057 A 
ATOM     73  C   UNL A   1      45.543  33.585  30.394  1.00  0.00     0.134 A 
ATOM     74  C   UNL A   1      44.601  34.281  28.307  1.00  0.00     0.134 A 
ATOM     75  F   UNL A   1      45.775  32.656  31.336  1.00  0.00    -0.206 F 
ATOM     76  C   UNL A   1      46.008  34.880  30.624  1.00  0.00     0.040 A 
ATOM     77  C   UNL A   1      45.089  35.572  28.509  1.00  0.00     0.040 A 
ATOM     78  F   UNL A   1      43.920  34.038  27.176  1.00  0.00    -0.206 F 
ATOM     79  C   UNL A   1      45.788  35.877  29.675  1.00  0.00     0.006 A 
ENDBRANCH  58  72
BRANCH  59  80
ATOM     80  C   UNL A   1      41.034  24.199  27.612  1.00  0.00     0.057 A 
ATOM     81  C   UNL A   1      41.528  23.056  28.252  1.00  0.00     0.134 A 
ATOM     82  C   UNL A   1      40.027  24.014  26.656  1.00  0.00     0.134 A 
ATOM     83  F   UNL A   1      42.516  23.161  29.153  1.00  0.00    -0.206 F 
ATOM     84  C   UNL A   1      41.057  21.779  27.940  1.00  0.00     0.040 A 
ATOM     85  C   UNL A   1      39.526  22.746  26.355  1.00  0.00     0.040 A 
ATOM     86  F   UNL A   1      39.513  25.065  26.002  1.00  0.00    -0.206 F 
ATOM     87  C   UNL A   1      40.049  21.622  26.992  1.00  0.00     0.006 A 
ENDBRANCH  59  80
BRANCH  71  88
ATOM     88  C   UNL A   1      47.032  27.291  25.857  1.00  0.00     0.057 A 
ATOM     89  C   UNL A   1      47.193  27.510  24.484  1.00  0.00     0.134 A 
ATOM     90  C   UNL A   1      48.082  26.652  26.532  1.00  0.00     0.134 A 
ATOM     91  F   UNL A   1      46.225  28.109  23.772  1.00  0.00    -0.206 F 
ATOM     92  C   UNL A   1      48.340  27.091  23.805  1.00  0.00     0.040 A 
ATOM     93  C   UNL A   1      49.245  26.255  25.872  1.00  0.00     0.040 A 
ATOM     94  F   UNL A   1      48.002  26.419  27.852  1.00  0.00    -0.206 F 
ATOM     95  C   UNL A   1      49.375  26.468  24.502  1.00  0.00     0.006 A 
ENDBRANCH  71  88
ENDBRANCH  45  46
ENDBRANCH  38  40
ENDBRANCH  37  38
ENDBRANCH  36  37
ENDBRANCH  35  36
ENDBRANCH  34  35
ENDBRANCH  33  34
ENDBRANCH  32  33
ENDBRANCH  31  32
ENDBRANCH   1  31
TORSDOF 23
ENDMDL
MODEL 3
REMARK VINA RESULT:     -10.7      1.094      2.089
REMARK SMILES O=C(COc1ccccc1/C=N\N1CC[NH+](Cc2ccc(Cl)cc2)CC1)OCCOCCOCCOC(=O)c1ccc(-c2c3nc(c(-c4c(F)cccc4F)c4ccc([nH]4)c(-c4c(F)cccc4F)c4nc(c(-c5c(F)cccc5F)c5ccc2[nH]5)C=C4)C=C3)cc1
REMARK SMILES IDX 29 1 28 2 27 3 2 4 1 5 3 6 4 7 5 8 6 9 10 10 7 11 9 12 8 13
REMARK SMILES IDX 11 14 12 15 13 16 14 17 26 18 15 19 25 20 16 21 17 23 18 24
REMARK SMILES IDX 19 25 24 26 20 27 23 28 21 29 22 30 30 31 31 32 32 33 33 34
REMARK SMILES IDX 34 35 35 36 36 37 37 38 38 39 39 40 40 41 92 42 41 43 91 44
REMARK SMILES IDX 42 45 43 46 44 47 85 48 45 49 90 50 84 51 86 52 46 53 89 54
REMARK SMILES IDX 83 55 82 56 47 58 73 59 56 60 72 61 57 62 60 63 71 64 87 65
REMARK SMILES IDX 58 66 59 67 70 69 88 70 61 71 48 72 49 73 54 74 50 75 51 76
REMARK SMILES IDX 53 77 55 78 52 79 74 80 75 81 80 82 76 83 77 84 79 85 81 86
REMARK SMILES IDX 78 87 62 88 63 89 68 90 64 91 65 92 67 93 69 94 66 95
REMARK H PARENT 16 22 86 57 60 68
REMARK Flexibility Score: inf
ROOT
ATOM      1  C   UNL A   1      35.038  33.452  28.046  1.00  0.00     0.202 C 
ENDROOT
BRANCH   1   2
ATOM      2  C   UNL A   1      34.036  32.314  27.912  1.00  0.00     0.261 C 
BRANCH   2   3
ATOM      3  O   UNL A   1      34.492  30.956  28.133  1.00  0.00    -0.461 OA
BRANCH   3   4
ATOM      4  C   UNL A   1      34.581  29.872  27.334  1.00  0.00     0.344 C 
ATOM      5  O   UNL A   1      35.668  29.313  27.175  1.00  0.00    -0.248 OA
BRANCH   4   6
ATOM      6  C   UNL A   1      33.399  29.449  26.486  1.00  0.00     0.352 C 
BRANCH   6   7
ATOM      7  O   UNL A   1      33.668  28.998  25.172  1.00  0.00    -0.481 OA
BRANCH   7   8
ATOM      8  C   UNL A   1      32.580  29.180  24.364  1.00  0.00     0.129 A 
ATOM      9  C   UNL A   1      31.421  29.664  24.966  1.00  0.00     0.047 A 
ATOM     10  C   UNL A   1      32.569  28.820  23.014  1.00  0.00     0.037 A 
ATOM     11  C   UNL A   1      30.258  29.793  24.208  1.00  0.00     0.004 A 
ATOM     12  C   UNL A   1      31.394  28.885  22.280  1.00  0.00     0.013 A 
ATOM     13  C   UNL A   1      30.245  29.402  22.868  1.00  0.00     0.001 A 
BRANCH  10  14
ATOM     14  C   UNL A   1      33.691  28.121  22.415  1.00  0.00     0.145 C 
ATOM     15  N   UNL A   1      34.021  26.879  22.322  1.00  0.00    -0.185 NA
BRANCH  15  16
ATOM     16  N   UNL A   1      33.367  25.802  22.766  1.00  0.00    -0.286 NA
ATOM     17  C   UNL A   1      33.996  25.220  23.951  1.00  0.00     0.200 C 
ATOM     18  C   UNL A   1      31.951  25.433  22.705  1.00  0.00     0.200 C 
ATOM     19  C   UNL A   1      33.280  25.707  25.217  1.00  0.00     0.286 C 
ATOM     20  C   UNL A   1      31.151  25.625  24.029  1.00  0.00     0.286 C 
ATOM     21  N   UNL A   1      31.851  25.375  25.303  1.00  0.00    -0.328 N 
ATOM     22  H   UNL A   1      31.438  26.034  25.962  1.00  0.00     0.348 HD
BRANCH  21  23
ATOM     23  C   UNL A   1      31.556  24.093  25.958  1.00  0.00     0.299 C 
BRANCH  23  24
ATOM     24  C   UNL A   1      32.629  23.034  25.854  1.00  0.00     0.006 A 
ATOM     25  C   UNL A   1      32.682  22.196  24.732  1.00  0.00     0.011 A 
ATOM     26  C   UNL A   1      33.648  22.949  26.814  1.00  0.00     0.011 A 
ATOM     27  C   UNL A   1      33.795  21.388  24.506  1.00  0.00     0.021 A 
ATOM     28  C   UNL A   1      34.773  22.160  26.578  1.00  0.00     0.021 A 
ATOM     29  C   UNL A   1      34.853  21.403  25.412  1.00  0.00     0.041 A 
ATOM     30  Cl  UNL A   1      36.278  20.504  25.071  1.00  0.00    -0.084 Cl
ENDBRANCH  23  24
ENDBRANCH  21  23
ENDBRANCH  15  16
ENDBRANCH  10  14
ENDBRANCH   7   8
ENDBRANCH   6   7
ENDBRANCH   4   6
ENDBRANCH   3   4
ENDBRANCH   2   3
ENDBRANCH   1   2
BRANCH   1  31
ATOM     31  O   UNL A   1      34.755  34.421  29.026  1.00  0.00    -0.376 OA
BRANCH  31  32
ATOM     32  C   UNL A   1      33.409  34.835  29.113  1.00  0.00     0.188 C 
BRANCH  32  33
ATOM     33  C   UNL A   1      33.090  35.660  30.379  1.00  0.00     0.188 C 
BRANCH  33  34
ATOM     34  O   UNL A   1      32.790  34.996  31.599  1.00  0.00    -0.376 OA
BRANCH  34  35
ATOM     35  C   UNL A   1      33.849  34.598  32.451  1.00  0.00     0.202 C 
BRANCH  35  36
ATOM     36  C   UNL A   1      34.401  33.165  32.327  1.00  0.00     0.261 C 
BRANCH  36  37
ATOM     37  O   UNL A   1      35.568  32.855  33.121  1.00  0.00    -0.460 OA
BRANCH  37  38
ATOM     38  C   UNL A   1      36.733  33.452  32.759  1.00  0.00     0.338 C 
ATOM     39  O   UNL A   1      37.123  34.560  33.101  1.00  0.00    -0.246 OA
BRANCH  38  40
ATOM     40  C   UNL A   1      37.607  32.501  32.016  1.00  0.00     0.060 A 
ATOM     41  C   UNL A   1      38.447  31.640  32.744  1.00  0.00     0.016 A 
ATOM     42  C   UNL A   1      37.632  32.465  30.621  1.00  0.00     0.016 A 
ATOM     43  C   UNL A   1      39.341  30.784  32.089  1.00  0.00     0.010 A 
ATOM     44  C   UNL A   1      38.551  31.628  29.965  1.00  0.00     0.010 A 
ATOM     45  C   UNL A   1      39.441  30.813  30.693  1.00  0.00    -0.014 A 
BRANCH  45  46
ATOM     46  C   UNL A   1      40.618  30.202  30.010  1.00  0.00     0.031 A 
ATOM     47  C   UNL A   1      41.816  31.080  29.741  1.00  0.00     0.074 A 
ATOM     48  C   UNL A   1      40.655  28.910  29.633  1.00  0.00     0.049 A 
ATOM     49  N   UNL A   1      42.912  30.820  29.074  1.00  0.00    -0.248 NA
ATOM     50  C   UNL A   1      41.759  32.441  30.298  1.00  0.00     0.031 C 
ATOM     51  C   UNL A   1      39.607  27.924  29.874  1.00  0.00     0.029 A 
ATOM     52  N   UNL A   1      41.621  28.212  28.945  1.00  0.00    -0.354 N 
ATOM     53  C   UNL A   1      43.665  31.989  29.117  1.00  0.00     0.074 A 
ATOM     54  C   UNL A   1      42.889  32.965  29.849  1.00  0.00     0.031 C 
ATOM     55  C   UNL A   1      39.976  26.753  29.322  1.00  0.00     0.029 A 
ATOM     56  C   UNL A   1      41.270  26.915  28.658  1.00  0.00     0.049 A 
ATOM     57  H   UNL A   1      42.485  28.606  28.682  1.00  0.00     0.167 HD
ATOM     58  C   UNL A   1      44.895  32.230  28.602  1.00  0.00     0.037 A 
ATOM     59  C   UNL A   1      41.903  25.977  27.921  1.00  0.00     0.037 A 
ATOM     60  C   UNL A   1      45.677  31.265  27.875  1.00  0.00     0.049 A 
ATOM     61  C   UNL A   1      43.234  26.294  27.280  1.00  0.00     0.074 A 
ATOM     62  C   UNL A   1      46.940  31.417  27.330  1.00  0.00     0.029 A 
ATOM     63  N   UNL A   1      45.269  29.974  27.583  1.00  0.00    -0.354 N 
ATOM     64  N   UNL A   1      43.943  27.396  27.339  1.00  0.00    -0.248 NA
ATOM     65  C   UNL A   1      43.853  25.232  26.469  1.00  0.00     0.031 C 
ATOM     66  C   UNL A   1      47.272  30.238  26.656  1.00  0.00     0.029 A 
ATOM     67  C   UNL A   1      46.244  29.328  26.839  1.00  0.00     0.049 A 
ATOM     68  H   UNL A   1      44.414  29.575  27.862  1.00  0.00     0.167 HD
ATOM     69  C   UNL A   1      45.102  27.146  26.610  1.00  0.00     0.074 A 
ATOM     70  C   UNL A   1      45.006  25.786  26.124  1.00  0.00     0.031 C 
ATOM     71  C   UNL A   1      46.153  27.969  26.370  1.00  0.00     0.037 A 
BRANCH  58  72
ATOM     72  C   UNL A   1      45.459  33.611  28.779  1.00  0.00     0.057 A 
ATOM     73  C   UNL A   1      46.248  33.957  29.884  1.00  0.00     0.134 A 
ATOM     74  C   UNL A   1      45.237  34.599  27.811  1.00  0.00     0.134 A 
ATOM     75  F   UNL A   1      46.489  33.061  30.854  1.00  0.00    -0.206 F 
ATOM     76  C   UNL A   1      46.769  35.243  30.035  1.00  0.00     0.040 A 
ATOM     77  C   UNL A   1      45.779  35.878  27.935  1.00  0.00     0.040 A 
ATOM     78  F   UNL A   1      44.496  34.334  26.724  1.00  0.00    -0.206 F 
ATOM     79  C   UNL A   1      46.541  36.206  29.054  1.00  0.00     0.006 A 
ENDBRANCH  58  72
BRANCH  59  80
ATOM     80  C   UNL A   1      41.284  24.638  27.719  1.00  0.00     0.057 A 
ATOM     81  C   UNL A   1      41.747  23.511  28.408  1.00  0.00     0.134 A 
ATOM     82  C   UNL A   1      40.248  24.445  26.797  1.00  0.00     0.134 A 
ATOM     83  F   UNL A   1      42.759  23.622  29.281  1.00  0.00    -0.206 F 
ATOM     84  C   UNL A   1      41.218  22.240  28.175  1.00  0.00     0.040 A 
ATOM     85  C   UNL A   1      39.689  23.185  26.575  1.00  0.00     0.040 A 
ATOM     86  F   UNL A   1      39.760  25.481  26.099  1.00  0.00    -0.206 F 
ATOM     87  C   UNL A   1      40.182  22.075  27.260  1.00  0.00     0.006 A 
ENDBRANCH  59  80
BRANCH  71  88
ATOM     88  C   UNL A   1      47.315  27.415  25.594  1.00  0.00     0.057 A 
ATOM     89  C   UNL A   1      47.412  27.536  24.202  1.00  0.00     0.134 A 
ATOM     90  C   UNL A   1      48.384  26.798  26.260  1.00  0.00     0.134 A 
ATOM     91  F   UNL A   1      46.422  28.109  23.498  1.00  0.00    -0.206 F 
ATOM     92  C   UNL A   1      48.514  27.044  23.499  1.00  0.00     0.040 A 
ATOM     93  C   UNL A   1      49.505  26.329  25.573  1.00  0.00     0.040 A 
ATOM     94  F   UNL A   1      48.366  26.658  27.594  1.00  0.00    -0.206 F 
ATOM     95  C   UNL A   1      49.569  26.445  24.186  1.00  0.00     0.006 A 
ENDBRANCH  71  88
ENDBRANCH  45  46
ENDBRANCH  38  40
ENDBRANCH  37  38
ENDBRANCH  36  37
ENDBRANCH  35  36
ENDBRANCH  34  35
ENDBRANCH  33  34
ENDBRANCH  32  33
ENDBRANCH  31  32
ENDBRANCH   1  31
TORSDOF 23
ENDMDL
