MODEL 1
REMARK VINA RESULT:     -10.3      0.000      0.000
REMARK SMILES Cc1csc2nc(C(=O)OCCOCCOCCOC(=O)c3ccc(-c4c5nc(c(-c6c(F)cccc6F)c6ccc([nH]6)c(-c6c(F)cccc6F)c6nc(c(-c7c(F)cccc7F)c7ccc4[nH]7)C=C6)C=C5)cc3)cn12
REMARK SMILES IDX 15 1 14 2 13 3 12 4 11 5 10 6 8 7 9 8 7 9 1 10 2 11 3 12
REMARK SMILES IDX 77 13 4 14 5 15 76 16 6 17 16 18 17 19 18 20 19 21 20 22
REMARK SMILES IDX 21 23 22 24 23 25 75 26 24 27 74 28 25 29 26 30 27 31 68 32
REMARK SMILES IDX 28 33 73 34 67 35 69 36 29 37 72 38 66 39 65 40 30 42 56 43
REMARK SMILES IDX 39 44 55 45 40 46 43 47 54 48 70 49 41 50 42 51 53 53 71 54
REMARK SMILES IDX 44 55 31 56 32 57 37 58 33 59 34 60 36 61 38 62 35 63 57 64
REMARK SMILES IDX 58 65 63 66 59 67 60 68 62 69 64 70 61 71 45 72 46 73 51 74
REMARK SMILES IDX 47 75 48 76 50 77 52 78 49 79
REMARK H PARENT 69 41 43 52
REMARK Flexibility Score: inf
ROOT
ATOM      1  C   UNL A   1      40.799  19.767  26.566  1.00  0.00     0.188 C 
ENDROOT
BRANCH   1   2
ATOM      2  C   UNL A   1      40.687  21.275  26.232  1.00  0.00     0.188 C 
BRANCH   2   3
ATOM      3  O   UNL A   1      39.706  22.090  26.858  1.00  0.00    -0.376 OA
BRANCH   3   4
ATOM      4  C   UNL A   1      38.665  22.674  26.085  1.00  0.00     0.202 C 
BRANCH   4   5
ATOM      5  C   UNL A   1      37.469  21.841  25.576  1.00  0.00     0.261 C 
BRANCH   5   6
ATOM      6  O   UNL A   1      36.254  22.550  25.296  1.00  0.00    -0.458 OA
BRANCH   6   7
ATOM      7  C   UNL A   1      36.153  23.120  24.060  1.00  0.00     0.358 C 
ATOM      8  O   UNL A   1      36.792  22.765  23.079  1.00  0.00    -0.244 OA
BRANCH   7   9
ATOM      9  C   UNL A   1      35.059  24.095  23.976  1.00  0.00     0.168 A 
ATOM     10  C   UNL A   1      32.792  27.184  26.361  1.00  0.00     0.066 C 
ATOM     11  C   UNL A   1      32.783  26.661  24.970  1.00  0.00     0.032 A 
ATOM     12  C   UNL A   1      31.969  27.076  23.976  1.00  0.00     0.090 A 
ATOM     13  N   UNL A   1      33.638  25.670  24.522  1.00  0.00    -0.294 N 
ATOM     14  S   UNL A   1      32.263  26.251  22.437  1.00  0.00    -0.105 S 
ATOM     15  C   UNL A   1      33.518  25.333  23.206  1.00  0.00     0.194 A 
ATOM     16  C   UNL A   1      34.622  24.885  25.040  1.00  0.00     0.130 A 
ATOM     17  N   UNL A   1      34.360  24.417  22.812  1.00  0.00    -0.212 NA
ENDBRANCH   7   9
ENDBRANCH   6   7
ENDBRANCH   5   6
ENDBRANCH   4   5
ENDBRANCH   3   4
ENDBRANCH   2   3
ENDBRANCH   1   2
BRANCH   1  18
ATOM     18  O   UNL A   1      41.619  19.034  25.681  1.00  0.00    -0.376 OA
BRANCH  18  19
ATOM     19  C   UNL A   1      42.915  18.581  26.039  1.00  0.00     0.202 C 
BRANCH  19  20
ATOM     20  C   UNL A   1      44.182  18.987  25.287  1.00  0.00     0.261 C 
BRANCH  20  21
ATOM     21  O   UNL A   1      44.128  20.261  24.688  1.00  0.00    -0.460 OA
BRANCH  21  22
ATOM     22  C   UNL A   1      45.296  20.933  24.725  1.00  0.00     0.338 C 
ATOM     23  O   UNL A   1      46.371  20.524  25.120  1.00  0.00    -0.246 OA
BRANCH  22  24
ATOM     24  C   UNL A   1      45.051  22.306  24.260  1.00  0.00     0.060 A 
ATOM     25  C   UNL A   1      46.133  23.167  24.435  1.00  0.00     0.016 A 
ATOM     26  C   UNL A   1      43.718  22.741  24.269  1.00  0.00     0.016 A 
ATOM     27  C   UNL A   1      45.871  24.358  25.055  1.00  0.00     0.010 A 
ATOM     28  C   UNL A   1      43.458  23.912  24.919  1.00  0.00     0.010 A 
ATOM     29  C   UNL A   1      44.547  24.626  25.411  1.00  0.00    -0.014 A 
BRANCH  29  30
ATOM     30  C   UNL A   1      44.319  25.686  26.354  1.00  0.00     0.031 A 
ATOM     31  C   UNL A   1      45.359  26.722  26.300  1.00  0.00     0.074 A 
ATOM     32  C   UNL A   1      43.220  25.718  27.125  1.00  0.00     0.049 A 
ATOM     33  N   UNL A   1      46.251  26.981  27.192  1.00  0.00    -0.248 NA
ATOM     34  C   UNL A   1      45.555  27.408  25.015  1.00  0.00     0.031 C 
ATOM     35  C   UNL A   1      42.020  24.880  27.062  1.00  0.00     0.029 A 
ATOM     36  N   UNL A   1      42.917  26.620  28.090  1.00  0.00    -0.354 N 
ATOM     37  C   UNL A   1      47.013  28.008  26.653  1.00  0.00     0.074 A 
ATOM     38  C   UNL A   1      46.681  28.077  25.255  1.00  0.00     0.031 C 
ATOM     39  C   UNL A   1      41.038  25.465  27.788  1.00  0.00     0.029 A 
ATOM     40  C   UNL A   1      41.579  26.642  28.447  1.00  0.00     0.049 A 
ATOM     41  H   UNL A   1      43.590  27.209  28.502  1.00  0.00     0.167 HD
ATOM     42  C   UNL A   1      47.671  28.887  27.450  1.00  0.00     0.037 A 
ATOM     43  C   UNL A   1      40.984  27.652  29.129  1.00  0.00     0.037 A 
ATOM     44  C   UNL A   1      47.807  28.382  28.792  1.00  0.00     0.049 A 
ATOM     45  C   UNL A   1      42.069  28.412  29.819  1.00  0.00     0.074 A 
ATOM     46  C   UNL A   1      48.416  27.269  29.343  1.00  0.00     0.029 A 
ATOM     47  N   UNL A   1      46.931  28.841  29.747  1.00  0.00    -0.354 N 
ATOM     48  N   UNL A   1      42.772  27.927  30.807  1.00  0.00    -0.248 NA
ATOM     49  C   UNL A   1      42.699  29.510  29.095  1.00  0.00     0.031 C 
ATOM     50  C   UNL A   1      47.544  26.846  30.387  1.00  0.00     0.029 A 
ATOM     51  C   UNL A   1      46.482  27.749  30.448  1.00  0.00     0.049 A 
ATOM     52  H   UNL A   1      46.673  29.779  29.900  1.00  0.00     0.167 HD
ATOM     53  C   UNL A   1      44.072  28.358  30.573  1.00  0.00     0.074 A 
ATOM     54  C   UNL A   1      43.952  29.392  29.547  1.00  0.00     0.031 C 
ATOM     55  C   UNL A   1      45.152  27.639  31.003  1.00  0.00     0.037 A 
BRANCH  42  56
ATOM     56  C   UNL A   1      47.870  30.334  27.094  1.00  0.00     0.057 A 
ATOM     57  C   UNL A   1      49.159  30.883  27.166  1.00  0.00     0.134 A 
ATOM     58  C   UNL A   1      46.825  31.269  26.939  1.00  0.00     0.134 A 
ATOM     59  F   UNL A   1      50.233  30.097  27.334  1.00  0.00    -0.206 F 
ATOM     60  C   UNL A   1      49.384  32.263  27.146  1.00  0.00     0.040 A 
ATOM     61  C   UNL A   1      47.044  32.644  26.858  1.00  0.00     0.040 A 
ATOM     62  F   UNL A   1      45.532  30.922  26.960  1.00  0.00    -0.206 F 
ATOM     63  C   UNL A   1      48.325  33.149  26.995  1.00  0.00     0.006 A 
ENDBRANCH  42  56
BRANCH  43  64
ATOM     64  C   UNL A   1      39.618  28.190  28.925  1.00  0.00     0.057 A 
ATOM     65  C   UNL A   1      38.669  28.167  29.956  1.00  0.00     0.134 A 
ATOM     66  C   UNL A   1      39.277  28.960  27.797  1.00  0.00     0.134 A 
ATOM     67  F   UNL A   1      38.916  27.502  31.094  1.00  0.00    -0.206 F 
ATOM     68  C   UNL A   1      37.461  28.875  29.874  1.00  0.00     0.040 A 
ATOM     69  C   UNL A   1      38.071  29.661  27.697  1.00  0.00     0.040 A 
ATOM     70  F   UNL A   1      40.136  29.134  26.783  1.00  0.00    -0.206 F 
ATOM     71  C   UNL A   1      37.162  29.631  28.744  1.00  0.00     0.006 A 
ENDBRANCH  43  64
BRANCH  55  72
ATOM     72  C   UNL A   1      44.900  26.467  31.914  1.00  0.00     0.057 A 
ATOM     73  C   UNL A   1      44.621  25.171  31.453  1.00  0.00     0.134 A 
ATOM     74  C   UNL A   1      45.119  26.612  33.288  1.00  0.00     0.134 A 
ATOM     75  F   UNL A   1      44.508  24.913  30.145  1.00  0.00    -0.206 F 
ATOM     76  C   UNL A   1      44.517  24.081  32.321  1.00  0.00     0.040 A 
ATOM     77  C   UNL A   1      45.054  25.525  34.164  1.00  0.00     0.040 A 
ATOM     78  F   UNL A   1      45.458  27.807  33.796  1.00  0.00    -0.206 F 
ATOM     79  C   UNL A   1      44.742  24.255  33.683  1.00  0.00     0.006 A 
ENDBRANCH  55  72
ENDBRANCH  29  30
ENDBRANCH  22  24
ENDBRANCH  21  22
ENDBRANCH  20  21
ENDBRANCH  19  20
ENDBRANCH  18  19
ENDBRANCH   1  18
TORSDOF 17
ENDMDL
MODEL 2
REMARK VINA RESULT:     -10.2      5.584     10.468
REMARK SMILES Cc1csc2nc(C(=O)OCCOCCOCCOC(=O)c3ccc(-c4c5nc(c(-c6c(F)cccc6F)c6ccc([nH]6)c(-c6c(F)cccc6F)c6nc(c(-c7c(F)cccc7F)c7ccc4[nH]7)C=C6)C=C5)cc3)cn12
REMARK SMILES IDX 15 1 14 2 13 3 12 4 11 5 10 6 8 7 9 8 7 9 1 10 2 11 3 12
REMARK SMILES IDX 77 13 4 14 5 15 76 16 6 17 16 18 17 19 18 20 19 21 20 22
REMARK SMILES IDX 21 23 22 24 23 25 75 26 24 27 74 28 25 29 26 30 27 31 68 32
REMARK SMILES IDX 28 33 73 34 67 35 69 36 29 37 72 38 66 39 65 40 30 42 56 43
REMARK SMILES IDX 39 44 55 45 40 46 43 47 54 48 70 49 41 50 42 51 53 53 71 54
REMARK SMILES IDX 44 55 31 56 32 57 37 58 33 59 34 60 36 61 38 62 35 63 57 64
REMARK SMILES IDX 58 65 63 66 59 67 60 68 62 69 64 70 61 71 45 72 46 73 51 74
REMARK SMILES IDX 47 75 48 76 50 77 52 78 49 79
REMARK H PARENT 69 41 43 52
REMARK Flexibility Score: inf
ROOT
ATOM      1  C   UNL A   1      34.074  31.198  27.590  1.00  0.00     0.188 C 
ENDROOT
BRANCH   1   2
ATOM      2  C   UNL A   1      32.698  30.939  26.928  1.00  0.00     0.188 C 
BRANCH   2   3
ATOM      3  O   UNL A   1      32.525  29.881  25.995  1.00  0.00    -0.376 OA
BRANCH   3   4
ATOM      4  C   UNL A   1      33.157  28.626  26.214  1.00  0.00     0.202 C 
BRANCH   4   5
ATOM      5  C   UNL A   1      33.674  27.764  25.043  1.00  0.00     0.261 C 
BRANCH   5   6
ATOM      6  O   UNL A   1      34.064  28.454  23.848  1.00  0.00    -0.458 OA
BRANCH   6   7
ATOM      7  C   UNL A   1      33.407  28.106  22.703  1.00  0.00     0.358 C 
ATOM      8  O   UNL A   1      33.952  27.703  21.685  1.00  0.00    -0.244 OA
BRANCH   7   9
ATOM      9  C   UNL A   1      31.949  28.090  22.873  1.00  0.00     0.168 A 
ATOM     10  C   UNL A   1      28.187  30.412  21.959  1.00  0.00     0.066 C 
ATOM     11  C   UNL A   1      28.540  29.125  22.616  1.00  0.00     0.032 A 
ATOM     12  C   UNL A   1      27.667  28.247  23.150  1.00  0.00     0.090 A 
ATOM     13  N   UNL A   1      29.840  28.667  22.746  1.00  0.00    -0.294 N 
ATOM     14  S   UNL A   1      28.444  26.802  23.818  1.00  0.00    -0.105 S 
ATOM     15  C   UNL A   1      29.982  27.450  23.344  1.00  0.00     0.194 A 
ATOM     16  C   UNL A   1      31.092  29.101  22.436  1.00  0.00     0.130 A 
ATOM     17  N   UNL A   1      31.217  27.037  23.423  1.00  0.00    -0.212 NA
ENDBRANCH   7   9
ENDBRANCH   6   7
ENDBRANCH   5   6
ENDBRANCH   4   5
ENDBRANCH   3   4
ENDBRANCH   2   3
ENDBRANCH   1   2
BRANCH   1  18
ATOM     18  O   UNL A   1      34.056  32.176  28.608  1.00  0.00    -0.376 OA
BRANCH  18  19
ATOM     19  C   UNL A   1      34.081  33.567  28.331  1.00  0.00     0.202 C 
BRANCH  19  20
ATOM     20  C   UNL A   1      33.394  34.609  29.213  1.00  0.00     0.261 C 
BRANCH  20  21
ATOM     21  O   UNL A   1      34.139  35.009  30.340  1.00  0.00    -0.460 OA
BRANCH  21  22
ATOM     22  C   UNL A   1      33.431  35.026  31.486  1.00  0.00     0.338 C 
ATOM     23  O   UNL A   1      32.300  35.442  31.650  1.00  0.00    -0.246 OA
BRANCH  22  24
ATOM     24  C   UNL A   1      34.287  34.507  32.563  1.00  0.00     0.060 A 
ATOM     25  C   UNL A   1      35.390  35.309  32.849  1.00  0.00     0.016 A 
ATOM     26  C   UNL A   1      34.283  33.117  32.751  1.00  0.00     0.016 A 
ATOM     27  C   UNL A   1      36.606  34.684  32.891  1.00  0.00     0.010 A 
ATOM     28  C   UNL A   1      35.497  32.495  32.757  1.00  0.00     0.010 A 
ATOM     29  C   UNL A   1      36.630  33.300  32.695  1.00  0.00    -0.014 A 
BRANCH  29  30
ATOM     30  C   UNL A   1      37.899  32.700  32.392  1.00  0.00     0.031 A 
ATOM     31  C   UNL A   1      38.803  32.676  33.550  1.00  0.00     0.074 A 
ATOM     32  C   UNL A   1      38.155  32.165  31.186  1.00  0.00     0.049 A 
ATOM     33  N   UNL A   1      39.883  33.358  33.711  1.00  0.00    -0.248 NA
ATOM     34  C   UNL A   1      38.337  31.967  34.749  1.00  0.00     0.031 C 
ATOM     35  C   UNL A   1      37.238  31.911  30.073  1.00  0.00     0.029 A 
ATOM     36  N   UNL A   1      39.322  31.627  30.755  1.00  0.00    -0.354 N 
ATOM     37  C   UNL A   1      40.343  33.012  34.975  1.00  0.00     0.074 A 
ATOM     38  C   UNL A   1      39.258  32.336  35.636  1.00  0.00     0.031 C 
ATOM     39  C   UNL A   1      37.833  31.065  29.199  1.00  0.00     0.029 A 
ATOM     40  C   UNL A   1      39.195  30.817  29.639  1.00  0.00     0.049 A 
ATOM     41  H   UNL A   1      40.185  31.797  31.198  1.00  0.00     0.167 HD
ATOM     42  C   UNL A   1      41.660  33.088  35.289  1.00  0.00     0.037 A 
ATOM     43  C   UNL A   1      40.133  29.928  29.227  1.00  0.00     0.037 A 
ATOM     44  C   UNL A   1      42.378  33.914  34.352  1.00  0.00     0.049 A 
ATOM     45  C   UNL A   1      41.428  30.339  29.846  1.00  0.00     0.074 A 
ATOM     46  C   UNL A   1      42.288  35.241  33.976  1.00  0.00     0.029 A 
ATOM     47  N   UNL A   1      43.096  33.291  33.359  1.00  0.00    -0.354 N 
ATOM     48  N   UNL A   1      42.069  31.430  29.520  1.00  0.00    -0.248 NA
ATOM     49  C   UNL A   1      41.755  29.803  31.163  1.00  0.00     0.031 C 
ATOM     50  C   UNL A   1      42.535  35.248  32.573  1.00  0.00     0.029 A 
ATOM     51  C   UNL A   1      42.811  33.938  32.182  1.00  0.00     0.049 A 
ATOM     52  H   UNL A   1      43.702  32.523  33.471  1.00  0.00     0.167 HD
ATOM     53  C   UNL A   1      42.550  31.940  30.720  1.00  0.00     0.074 A 
ATOM     54  C   UNL A   1      42.391  30.856  31.687  1.00  0.00     0.031 C 
ATOM     55  C   UNL A   1      42.751  33.281  30.895  1.00  0.00     0.037 A 
BRANCH  42  56
ATOM     56  C   UNL A   1      42.339  32.131  36.229  1.00  0.00     0.057 A 
ATOM     57  C   UNL A   1      43.045  32.642  37.329  1.00  0.00     0.134 A 
ATOM     58  C   UNL A   1      42.552  30.763  35.959  1.00  0.00     0.134 A 
ATOM     59  F   UNL A   1      42.942  33.935  37.672  1.00  0.00    -0.206 F 
ATOM     60  C   UNL A   1      43.941  31.862  38.067  1.00  0.00     0.040 A 
ATOM     61  C   UNL A   1      43.397  29.961  36.727  1.00  0.00     0.040 A 
ATOM     62  F   UNL A   1      42.040  30.147  34.887  1.00  0.00    -0.206 F 
ATOM     63  C   UNL A   1      44.121  30.518  37.766  1.00  0.00     0.006 A 
ENDBRANCH  42  56
BRANCH  43  64
ATOM     64  C   UNL A   1      39.900  28.585  28.644  1.00  0.00     0.057 A 
ATOM     65  C   UNL A   1      40.426  28.237  27.392  1.00  0.00     0.134 A 
ATOM     66  C   UNL A   1      39.366  27.524  29.399  1.00  0.00     0.134 A 
ATOM     67  F   UNL A   1      41.003  29.166  26.615  1.00  0.00    -0.206 F 
ATOM     68  C   UNL A   1      40.429  26.915  26.925  1.00  0.00     0.040 A 
ATOM     69  C   UNL A   1      39.351  26.203  28.941  1.00  0.00     0.040 A 
ATOM     70  F   UNL A   1      38.914  27.711  30.647  1.00  0.00    -0.206 F 
ATOM     71  C   UNL A   1      39.896  25.892  27.704  1.00  0.00     0.006 A 
ENDBRANCH  43  64
BRANCH  55  72
ATOM     72  C   UNL A   1      42.631  34.175  29.691  1.00  0.00     0.057 A 
ATOM     73  C   UNL A   1      41.436  34.804  29.307  1.00  0.00     0.134 A 
ATOM     74  C   UNL A   1      43.789  34.553  29.003  1.00  0.00     0.134 A 
ATOM     75  F   UNL A   1      40.298  34.593  29.978  1.00  0.00    -0.206 F 
ATOM     76  C   UNL A   1      41.387  35.727  28.258  1.00  0.00     0.040 A 
ATOM     77  C   UNL A   1      43.761  35.502  27.977  1.00  0.00     0.040 A 
ATOM     78  F   UNL A   1      44.981  34.047  29.357  1.00  0.00    -0.206 F 
ATOM     79  C   UNL A   1      42.556  36.085  27.594  1.00  0.00     0.006 A 
ENDBRANCH  55  72
ENDBRANCH  29  30
ENDBRANCH  22  24
ENDBRANCH  21  22
ENDBRANCH  20  21
ENDBRANCH  19  20
ENDBRANCH  18  19
ENDBRANCH   1  18
TORSDOF 17
ENDMDL
MODEL 3
REMARK VINA RESULT:     -10.1      5.633     10.405
REMARK SMILES Cc1csc2nc(C(=O)OCCOCCOCCOC(=O)c3ccc(-c4c5nc(c(-c6c(F)cccc6F)c6ccc([nH]6)c(-c6c(F)cccc6F)c6nc(c(-c7c(F)cccc7F)c7ccc4[nH]7)C=C6)C=C5)cc3)cn12
REMARK SMILES IDX 15 1 14 2 13 3 12 4 11 5 10 6 8 7 9 8 7 9 1 10 2 11 3 12
REMARK SMILES IDX 77 13 4 14 5 15 76 16 6 17 16 18 17 19 18 20 19 21 20 22
REMARK SMILES IDX 21 23 22 24 23 25 75 26 24 27 74 28 25 29 26 30 27 31 68 32
REMARK SMILES IDX 28 33 73 34 67 35 69 36 29 37 72 38 66 39 65 40 30 42 56 43
REMARK SMILES IDX 39 44 55 45 40 46 43 47 54 48 70 49 41 50 42 51 53 53 71 54
REMARK SMILES IDX 44 55 31 56 32 57 37 58 33 59 34 60 36 61 38 62 35 63 57 64
REMARK SMILES IDX 58 65 63 66 59 67 60 68 62 69 64 70 61 71 45 72 46 73 51 74
REMARK SMILES IDX 47 75 48 76 50 77 52 78 49 79
REMARK H PARENT 69 41 43 52
REMARK Flexibility Score: inf
ROOT
ATOM      1  C   UNL A   1      33.917  31.036  27.627  1.00  0.00     0.188 C 
ENDROOT
BRANCH   1   2
ATOM      2  C   UNL A   1      32.514  30.969  26.974  1.00  0.00     0.188 C 
BRANCH   2   3
ATOM      3  O   UNL A   1      32.085  29.803  26.285  1.00  0.00    -0.376 OA
BRANCH   3   4
ATOM      4  C   UNL A   1      32.603  29.506  24.995  1.00  0.00     0.202 C 
BRANCH   4   5
ATOM      5  C   UNL A   1      32.447  28.107  24.361  1.00  0.00     0.261 C 
BRANCH   5   6
ATOM      6  O   UNL A   1      31.313  27.330  24.769  1.00  0.00    -0.458 OA
BRANCH   6   7
ATOM      7  C   UNL A   1      31.514  26.457  25.800  1.00  0.00     0.358 C 
ATOM      8  O   UNL A   1      30.939  26.513  26.878  1.00  0.00    -0.244 OA
BRANCH   7   9
ATOM      9  C   UNL A   1      32.366  25.323  25.420  1.00  0.00     0.168 A 
ATOM     10  C   UNL A   1      36.563  23.697  25.756  1.00  0.00     0.066 C 
ATOM     11  C   UNL A   1      35.268  23.258  25.171  1.00  0.00     0.032 A 
ATOM     12  C   UNL A   1      35.050  22.094  24.524  1.00  0.00     0.090 A 
ATOM     13  N   UNL A   1      34.109  24.010  25.234  1.00  0.00    -0.294 N 
ATOM     14  S   UNL A   1      33.373  21.892  23.990  1.00  0.00    -0.105 S 
ATOM     15  C   UNL A   1      33.002  23.442  24.675  1.00  0.00     0.194 A 
ATOM     16  C   UNL A   1      33.725  25.223  25.719  1.00  0.00     0.130 A 
ATOM     17  N   UNL A   1      31.922  24.166  24.781  1.00  0.00    -0.212 NA
ENDBRANCH   7   9
ENDBRANCH   6   7
ENDBRANCH   5   6
ENDBRANCH   4   5
ENDBRANCH   3   4
ENDBRANCH   2   3
ENDBRANCH   1   2
BRANCH   1  18
ATOM     18  O   UNL A   1      34.042  32.012  28.639  1.00  0.00    -0.376 OA
BRANCH  18  19
ATOM     19  C   UNL A   1      34.169  33.396  28.354  1.00  0.00     0.202 C 
BRANCH  19  20
ATOM     20  C   UNL A   1      33.427  34.483  29.131  1.00  0.00     0.261 C 
BRANCH  20  21
ATOM     21  O   UNL A   1      34.139  35.013  30.226  1.00  0.00    -0.460 OA
BRANCH  21  22
ATOM     22  C   UNL A   1      33.430  35.053  31.371  1.00  0.00     0.338 C 
ATOM     23  O   UNL A   1      32.324  35.529  31.539  1.00  0.00    -0.246 OA
BRANCH  22  24
ATOM     24  C   UNL A   1      34.254  34.472  32.442  1.00  0.00     0.060 A 
ATOM     25  C   UNL A   1      35.358  35.247  32.793  1.00  0.00     0.016 A 
ATOM     26  C   UNL A   1      34.230  33.076  32.562  1.00  0.00     0.016 A 
ATOM     27  C   UNL A   1      36.565  34.606  32.834  1.00  0.00     0.010 A 
ATOM     28  C   UNL A   1      35.437  32.439  32.568  1.00  0.00     0.010 A 
ATOM     29  C   UNL A   1      36.580  33.233  32.572  1.00  0.00    -0.014 A 
BRANCH  29  30
ATOM     30  C   UNL A   1      37.849  32.633  32.271  1.00  0.00     0.031 A 
ATOM     31  C   UNL A   1      38.753  32.614  33.429  1.00  0.00     0.074 A 
ATOM     32  C   UNL A   1      38.106  32.094  31.068  1.00  0.00     0.049 A 
ATOM     33  N   UNL A   1      39.833  33.297  33.589  1.00  0.00    -0.248 NA
ATOM     34  C   UNL A   1      38.287  31.907  34.631  1.00  0.00     0.031 C 
ATOM     35  C   UNL A   1      37.189  31.836  29.954  1.00  0.00     0.029 A 
ATOM     36  N   UNL A   1      39.273  31.556  30.638  1.00  0.00    -0.354 N 
ATOM     37  C   UNL A   1      40.292  32.955  34.854  1.00  0.00     0.074 A 
ATOM     38  C   UNL A   1      39.208  32.280  35.516  1.00  0.00     0.031 C 
ATOM     39  C   UNL A   1      37.785  30.988  29.084  1.00  0.00     0.029 A 
ATOM     40  C   UNL A   1      39.147  30.742  29.524  1.00  0.00     0.049 A 
ATOM     41  H   UNL A   1      40.136  31.728  31.080  1.00  0.00     0.167 HD
ATOM     42  C   UNL A   1      41.609  33.033  35.168  1.00  0.00     0.037 A 
ATOM     43  C   UNL A   1      40.086  29.852  29.115  1.00  0.00     0.037 A 
ATOM     44  C   UNL A   1      42.327  33.856  34.228  1.00  0.00     0.049 A 
ATOM     45  C   UNL A   1      41.380  30.267  29.734  1.00  0.00     0.074 A 
ATOM     46  C   UNL A   1      42.235  35.182  33.848  1.00  0.00     0.029 A 
ATOM     47  N   UNL A   1      43.045  33.231  33.237  1.00  0.00    -0.354 N 
ATOM     48  N   UNL A   1      42.021  31.357  29.404  1.00  0.00    -0.248 NA
ATOM     49  C   UNL A   1      41.707  29.735  31.052  1.00  0.00     0.031 C 
ATOM     50  C   UNL A   1      42.483  35.185  32.445  1.00  0.00     0.029 A 
ATOM     51  C   UNL A   1      42.760  33.874  32.058  1.00  0.00     0.049 A 
ATOM     52  H   UNL A   1      43.652  32.463  33.352  1.00  0.00     0.167 HD
ATOM     53  C   UNL A   1      42.501  31.872  30.602  1.00  0.00     0.074 A 
ATOM     54  C   UNL A   1      42.343  30.791  31.573  1.00  0.00     0.031 C 
ATOM     55  C   UNL A   1      42.701  33.213  30.774  1.00  0.00     0.037 A 
BRANCH  42  56
ATOM     56  C   UNL A   1      42.289  32.080  36.110  1.00  0.00     0.057 A 
ATOM     57  C   UNL A   1      42.991  32.594  37.211  1.00  0.00     0.134 A 
ATOM     58  C   UNL A   1      42.506  30.711  35.844  1.00  0.00     0.134 A 
ATOM     59  F   UNL A   1      42.884  33.887  37.552  1.00  0.00    -0.206 F 
ATOM     60  C   UNL A   1      43.887  31.818  37.953  1.00  0.00     0.040 A 
ATOM     61  C   UNL A   1      43.351  29.913  36.615  1.00  0.00     0.040 A 
ATOM     62  F   UNL A   1      41.998  30.092  34.771  1.00  0.00    -0.206 F 
ATOM     63  C   UNL A   1      44.072  30.474  37.655  1.00  0.00     0.006 A 
ENDBRANCH  42  56
BRANCH  43  64
ATOM     64  C   UNL A   1      39.854  28.508  28.537  1.00  0.00     0.057 A 
ATOM     65  C   UNL A   1      40.401  28.148  27.298  1.00  0.00     0.134 A 
ATOM     66  C   UNL A   1      39.296  27.456  29.288  1.00  0.00     0.134 A 
ATOM     67  F   UNL A   1      41.001  29.067  26.526  1.00  0.00    -0.206 F 
ATOM     68  C   UNL A   1      40.404  26.822  26.839  1.00  0.00     0.040 A 
ATOM     69  C   UNL A   1      39.280  26.132  28.838  1.00  0.00     0.040 A 
ATOM     70  F   UNL A   1      38.821  27.654  30.525  1.00  0.00    -0.206 F 
ATOM     71  C   UNL A   1      39.847  25.808  27.614  1.00  0.00     0.006 A 
ENDBRANCH  43  64
BRANCH  55  72
ATOM     72  C   UNL A   1      42.581  34.103  29.566  1.00  0.00     0.057 A 
ATOM     73  C   UNL A   1      41.401  34.779  29.215  1.00  0.00     0.134 A 
ATOM     74  C   UNL A   1      43.731  34.427  28.840  1.00  0.00     0.134 A 
ATOM     75  F   UNL A   1      40.278  34.621  29.923  1.00  0.00    -0.206 F 
ATOM     76  C   UNL A   1      41.358  35.696  28.161  1.00  0.00     0.040 A 
ATOM     77  C   UNL A   1      43.710  35.369  27.807  1.00  0.00     0.040 A 
ATOM     78  F   UNL A   1      44.911  33.874  29.160  1.00  0.00    -0.206 F 
ATOM     79  C   UNL A   1      42.519  36.000  27.458  1.00  0.00     0.006 A 
ENDBRANCH  55  72
ENDBRANCH  29  30
ENDBRANCH  22  24
ENDBRANCH  21  22
ENDBRANCH  20  21
ENDBRANCH  19  20
ENDBRANCH  18  19
ENDBRANCH   1  18
TORSDOF 17
ENDMDL
