MODEL 1
REMARK VINA RESULT:     -10.1      0.000      0.000
REMARK SMILES C[C@H](NC(=O)N(CC(=O)OCCOCCOCCOC(=O)c1ccc(-c2c3nc(c(-c4c(F)cccc4F)c4ccc([nH]4)c(-c4c(F)cccc4F)c4nc(c(-c5c(F)cccc5F)c5ccc2[nH]5)C=C4)C=C3)cc1)C(C)(C)C)c1ccccc1
REMARK SMILES IDX 14 1 13 2 12 3 11 4 10 5 8 6 9 7 7 8 6 9 4 10 3 11 5 13 2 14
REMARK SMILES IDX 1 15 80 16 81 17 85 18 82 19 84 20 83 21 76 22 77 23 78 24
REMARK SMILES IDX 79 25 15 26 16 27 17 28 18 29 19 30 20 31 21 32 22 33 23 34
REMARK SMILES IDX 75 35 24 36 74 37 25 38 26 39 27 40 68 41 28 42 73 43 67 44
REMARK SMILES IDX 69 45 29 46 72 47 66 48 65 49 30 51 56 52 39 53 55 54 40 55
REMARK SMILES IDX 43 56 54 57 70 58 41 59 42 60 53 62 71 63 44 64 31 65 32 66
REMARK SMILES IDX 37 67 33 68 34 69 36 70 38 71 35 72 57 73 58 74 63 75 59 76
REMARK SMILES IDX 60 77 62 78 64 79 61 80 45 81 46 82 51 83 47 84 48 85 50 86
REMARK SMILES IDX 52 87 49 88
REMARK H PARENT 3 12 69 50 43 61
REMARK Flexibility Score: inf
ROOT
ATOM      1  C   UNL A   1      39.665  22.204  26.364  1.00  0.00     0.188 C 
ENDROOT
BRANCH   1   2
ATOM      2  O   UNL A   1      38.485  22.290  25.568  1.00  0.00    -0.376 OA
BRANCH   2   3
ATOM      3  C   UNL A   1      37.812  21.084  25.235  1.00  0.00     0.202 C 
BRANCH   3   4
ATOM      4  C   UNL A   1      36.284  21.115  25.365  1.00  0.00     0.261 C 
BRANCH   4   5
ATOM      5  O   UNL A   1      35.569  21.478  24.161  1.00  0.00    -0.462 OA
BRANCH   5   6
ATOM      6  C   UNL A   1      35.560  22.808  23.895  1.00  0.00     0.325 C 
ATOM      7  O   UNL A   1      36.242  23.344  23.023  1.00  0.00    -0.250 OA
BRANCH   6   8
ATOM      8  C   UNL A   1      34.609  23.651  24.752  1.00  0.00     0.244 C 
BRANCH   8   9
ATOM      9  N   UNL A   1      33.132  23.527  24.739  1.00  0.00    -0.309 N 
BRANCH   9  10
ATOM     10  C   UNL A   1      32.307  24.077  23.790  1.00  0.00     0.318 C 
ATOM     11  N   UNL A   1      31.903  25.352  23.781  1.00  0.00    -0.331 N 
ATOM     12  H   UNL A   1      31.370  25.539  22.976  1.00  0.00     0.165 HD
ATOM     13  O   UNL A   1      31.922  23.446  22.801  1.00  0.00    -0.249 OA
BRANCH  11  14
ATOM     14  C   UNL A   1      32.015  26.545  24.607  1.00  0.00     0.111 C 
ATOM     15  C   UNL A   1      33.450  27.073  24.585  1.00  0.00     0.036 C 
BRANCH  14  16
ATOM     16  C   UNL A   1      31.033  27.594  24.127  1.00  0.00    -0.026 A 
ATOM     17  C   UNL A   1      31.264  28.954  24.372  1.00  0.00     0.006 A 
ATOM     18  C   UNL A   1      29.854  27.226  23.452  1.00  0.00     0.006 A 
ATOM     19  C   UNL A   1      30.321  29.912  23.992  1.00  0.00     0.000 A 
ATOM     20  C   UNL A   1      28.916  28.184  23.069  1.00  0.00     0.000 A 
ATOM     21  C   UNL A   1      29.147  29.527  23.346  1.00  0.00     0.000 A 
ENDBRANCH  14  16
ENDBRANCH  11  14
ENDBRANCH   9  10
BRANCH   9  22
ATOM     22  C   UNL A   1      32.452  22.720  25.824  1.00  0.00     0.037 C 
ATOM     23  C   UNL A   1      31.087  23.322  26.230  1.00  0.00     0.034 C 
ATOM     24  C   UNL A   1      32.257  21.256  25.353  1.00  0.00     0.034 C 
ATOM     25  C   UNL A   1      33.284  22.609  27.110  1.00  0.00     0.034 C 
ENDBRANCH   9  22
ENDBRANCH   8   9
ENDBRANCH   6   8
ENDBRANCH   5   6
ENDBRANCH   4   5
ENDBRANCH   3   4
ENDBRANCH   2   3
ENDBRANCH   1   2
BRANCH   1  26
ATOM     26  C   UNL A   1      40.293  20.829  26.602  1.00  0.00     0.188 C 
BRANCH  26  27
ATOM     27  O   UNL A   1      41.341  20.581  25.666  1.00  0.00    -0.376 OA
BRANCH  27  28
ATOM     28  C   UNL A   1      42.632  20.785  26.243  1.00  0.00     0.202 C 
BRANCH  28  29
ATOM     29  C   UNL A   1      43.524  21.573  25.278  1.00  0.00     0.261 C 
BRANCH  29  30
ATOM     30  O   UNL A   1      42.933  22.811  24.826  1.00  0.00    -0.460 OA
BRANCH  30  31
ATOM     31  C   UNL A   1      43.666  23.922  25.033  1.00  0.00     0.338 C 
ATOM     32  O   UNL A   1      44.731  24.212  24.509  1.00  0.00    -0.246 OA
BRANCH  31  33
ATOM     33  C   UNL A   1      42.928  24.842  25.919  1.00  0.00     0.060 A 
ATOM     34  C   UNL A   1      42.999  26.206  25.647  1.00  0.00     0.016 A 
ATOM     35  C   UNL A   1      42.296  24.399  27.076  1.00  0.00     0.016 A 
ATOM     36  C   UNL A   1      42.520  27.149  26.554  1.00  0.00     0.010 A 
ATOM     37  C   UNL A   1      41.778  25.343  27.977  1.00  0.00     0.010 A 
ATOM     38  C   UNL A   1      41.923  26.727  27.746  1.00  0.00    -0.014 A 
BRANCH  38  39
ATOM     39  C   UNL A   1      41.588  27.708  28.815  1.00  0.00     0.031 A 
ATOM     40  C   UNL A   1      42.459  27.773  30.042  1.00  0.00     0.074 A 
ATOM     41  C   UNL A   1      40.555  28.567  28.704  1.00  0.00     0.049 A 
ATOM     42  N   UNL A   1      42.232  28.345  31.196  1.00  0.00    -0.248 NA
ATOM     43  C   UNL A   1      43.762  27.095  29.951  1.00  0.00     0.031 C 
ATOM     44  C   UNL A   1      39.688  28.711  27.535  1.00  0.00     0.029 A 
ATOM     45  N   UNL A   1      40.061  29.482  29.602  1.00  0.00    -0.354 N 
ATOM     46  C   UNL A   1      43.328  28.035  31.992  1.00  0.00     0.074 A 
ATOM     47  C   UNL A   1      44.230  27.243  31.182  1.00  0.00     0.031 C 
ATOM     48  C   UNL A   1      38.773  29.664  27.786  1.00  0.00     0.029 A 
ATOM     49  C   UNL A   1      38.938  30.137  29.157  1.00  0.00     0.049 A 
ATOM     50  H   UNL A   1      40.472  29.652  30.481  1.00  0.00     0.167 HD
ATOM     51  C   UNL A   1      43.556  28.369  33.285  1.00  0.00     0.037 A 
ATOM     52  C   UNL A   1      38.105  30.980  29.799  1.00  0.00     0.037 A 
ATOM     53  C   UNL A   1      42.690  29.206  34.070  1.00  0.00     0.049 A 
ATOM     54  C   UNL A   1      38.342  31.299  31.251  1.00  0.00     0.074 A 
ATOM     55  C   UNL A   1      42.819  29.584  35.396  1.00  0.00     0.029 A 
ATOM     56  N   UNL A   1      41.541  29.817  33.591  1.00  0.00    -0.354 N 
ATOM     57  N   UNL A   1      39.316  30.906  32.035  1.00  0.00    -0.248 NA
ATOM     58  C   UNL A   1      37.346  32.154  31.914  1.00  0.00     0.031 C 
ATOM     59  C   UNL A   1      41.737  30.409  35.724  1.00  0.00     0.029 A 
ATOM     60  C   UNL A   1      40.952  30.568  34.593  1.00  0.00     0.049 A 
ATOM     61  H   UNL A   1      41.197  29.731  32.673  1.00  0.00     0.167 HD
ATOM     62  C   UNL A   1      39.053  31.467  33.279  1.00  0.00     0.074 A 
ATOM     63  C   UNL A   1      37.840  32.245  33.141  1.00  0.00     0.031 C 
ATOM     64  C   UNL A   1      39.749  31.341  34.435  1.00  0.00     0.037 A 
BRANCH  51  65
ATOM     65  C   UNL A   1      44.766  27.781  33.942  1.00  0.00     0.057 A 
ATOM     66  C   UNL A   1      45.997  28.446  33.976  1.00  0.00     0.134 A 
ATOM     67  C   UNL A   1      44.689  26.528  34.566  1.00  0.00     0.134 A 
ATOM     68  F   UNL A   1      46.141  29.639  33.380  1.00  0.00    -0.206 F 
ATOM     69  C   UNL A   1      47.115  27.876  34.589  1.00  0.00     0.040 A 
ATOM     70  C   UNL A   1      45.792  25.958  35.199  1.00  0.00     0.040 A 
ATOM     71  F   UNL A   1      43.537  25.840  34.569  1.00  0.00    -0.206 F 
ATOM     72  C   UNL A   1      47.012  26.631  35.207  1.00  0.00     0.006 A 
ENDBRANCH  51  65
BRANCH  52  73
ATOM     73  C   UNL A   1      36.920  31.533  29.094  1.00  0.00     0.057 A 
ATOM     74  C   UNL A   1      36.904  32.853  28.632  1.00  0.00     0.134 A 
ATOM     75  C   UNL A   1      35.771  30.761  28.886  1.00  0.00     0.134 A 
ATOM     76  F   UNL A   1      37.963  33.652  28.832  1.00  0.00    -0.206 F 
ATOM     77  C   UNL A   1      35.785  33.388  27.989  1.00  0.00     0.040 A 
ATOM     78  C   UNL A   1      34.656  31.275  28.223  1.00  0.00     0.040 A 
ATOM     79  F   UNL A   1      35.721  29.491  29.314  1.00  0.00    -0.206 F 
ATOM     80  C   UNL A   1      34.659  32.594  27.776  1.00  0.00     0.006 A 
ENDBRANCH  52  73
BRANCH  64  81
ATOM     81  C   UNL A   1      39.227  32.077  35.632  1.00  0.00     0.057 A 
ATOM     82  C   UNL A   1      39.583  33.406  35.889  1.00  0.00     0.134 A 
ATOM     83  C   UNL A   1      38.331  31.461  36.514  1.00  0.00     0.134 A 
ATOM     84  F   UNL A   1      40.449  34.044  35.086  1.00  0.00    -0.206 F 
ATOM     85  C   UNL A   1      39.077  34.094  36.992  1.00  0.00     0.040 A 
ATOM     86  C   UNL A   1      37.803  32.145  37.610  1.00  0.00     0.040 A 
ATOM     87  F   UNL A   1      37.946  30.191  36.319  1.00  0.00    -0.206 F 
ATOM     88  C   UNL A   1      38.180  33.465  37.854  1.00  0.00     0.006 A 
ENDBRANCH  64  81
ENDBRANCH  38  39
ENDBRANCH  31  33
ENDBRANCH  30  31
ENDBRANCH  29  30
ENDBRANCH  28  29
ENDBRANCH  27  28
ENDBRANCH  26  27
ENDBRANCH   1  26
TORSDOF 22
ENDMDL
MODEL 2
REMARK VINA RESULT:      -9.7      4.262      8.307
REMARK SMILES C[C@H](NC(=O)N(CC(=O)OCCOCCOCCOC(=O)c1ccc(-c2c3nc(c(-c4c(F)cccc4F)c4ccc([nH]4)c(-c4c(F)cccc4F)c4nc(c(-c5c(F)cccc5F)c5ccc2[nH]5)C=C4)C=C3)cc1)C(C)(C)C)c1ccccc1
REMARK SMILES IDX 14 1 13 2 12 3 11 4 10 5 8 6 9 7 7 8 6 9 4 10 3 11 5 13 2 14
REMARK SMILES IDX 1 15 80 16 81 17 85 18 82 19 84 20 83 21 76 22 77 23 78 24
REMARK SMILES IDX 79 25 15 26 16 27 17 28 18 29 19 30 20 31 21 32 22 33 23 34
REMARK SMILES IDX 75 35 24 36 74 37 25 38 26 39 27 40 68 41 28 42 73 43 67 44
REMARK SMILES IDX 69 45 29 46 72 47 66 48 65 49 30 51 56 52 39 53 55 54 40 55
REMARK SMILES IDX 43 56 54 57 70 58 41 59 42 60 53 62 71 63 44 64 31 65 32 66
REMARK SMILES IDX 37 67 33 68 34 69 36 70 38 71 35 72 57 73 58 74 63 75 59 76
REMARK SMILES IDX 60 77 62 78 64 79 61 80 45 81 46 82 51 83 47 84 48 85 50 86
REMARK SMILES IDX 52 87 49 88
REMARK H PARENT 3 12 69 50 43 61
REMARK Flexibility Score: inf
ROOT
ATOM      1  C   UNL A   1      35.190  20.995  25.340  1.00  0.00     0.188 C 
ENDROOT
BRANCH   1   2
ATOM      2  O   UNL A   1      34.801  21.530  26.603  1.00  0.00    -0.376 OA
BRANCH   2   3
ATOM      3  C   UNL A   1      33.417  21.569  26.918  1.00  0.00     0.202 C 
BRANCH   3   4
ATOM      4  C   UNL A   1      32.459  21.515  25.720  1.00  0.00     0.261 C 
BRANCH   4   5
ATOM      5  O   UNL A   1      31.142  22.063  25.958  1.00  0.00    -0.462 OA
BRANCH   5   6
ATOM      6  C   UNL A   1      31.119  23.406  26.146  1.00  0.00     0.325 C 
ATOM      7  O   UNL A   1      30.944  23.949  27.236  1.00  0.00    -0.250 OA
BRANCH   6   8
ATOM      8  C   UNL A   1      31.351  24.257  24.893  1.00  0.00     0.244 C 
BRANCH   8   9
ATOM      9  N   UNL A   1      32.077  25.549  24.877  1.00  0.00    -0.309 N 
BRANCH   9  10
ATOM     10  C   UNL A   1      31.601  26.723  25.404  1.00  0.00     0.318 C 
ATOM     11  N   UNL A   1      30.641  27.471  24.850  1.00  0.00    -0.331 N 
ATOM     12  H   UNL A   1      30.418  28.233  25.432  1.00  0.00     0.165 HD
ATOM     13  O   UNL A   1      31.973  27.156  26.499  1.00  0.00    -0.249 OA
BRANCH  11  14
ATOM     14  C   UNL A   1      29.829  27.497  23.642  1.00  0.00     0.111 C 
ATOM     15  C   UNL A   1      28.730  26.437  23.718  1.00  0.00     0.036 C 
BRANCH  14  16
ATOM     16  C   UNL A   1      29.247  28.883  23.447  1.00  0.00    -0.026 A 
ATOM     17  C   UNL A   1      29.950  30.018  23.870  1.00  0.00     0.006 A 
ATOM     18  C   UNL A   1      27.977  29.059  22.865  1.00  0.00     0.006 A 
ATOM     19  C   UNL A   1      29.379  31.289  23.755  1.00  0.00     0.000 A 
ATOM     20  C   UNL A   1      27.411  30.327  22.747  1.00  0.00     0.000 A 
ATOM     21  C   UNL A   1      28.109  31.441  23.199  1.00  0.00     0.000 A 
ENDBRANCH  14  16
ENDBRANCH  11  14
ENDBRANCH   9  10
BRANCH   9  22
ATOM     22  C   UNL A   1      33.459  25.608  24.263  1.00  0.00     0.037 C 
ATOM     23  C   UNL A   1      33.804  27.021  23.739  1.00  0.00     0.034 C 
ATOM     24  C   UNL A   1      34.521  25.164  25.301  1.00  0.00     0.034 C 
ATOM     25  C   UNL A   1      33.640  24.644  23.081  1.00  0.00     0.034 C 
ENDBRANCH   9  22
ENDBRANCH   8   9
ENDBRANCH   6   8
ENDBRANCH   5   6
ENDBRANCH   4   5
ENDBRANCH   3   4
ENDBRANCH   2   3
ENDBRANCH   1   2
BRANCH   1  26
ATOM     26  C   UNL A   1      36.054  21.854  24.413  1.00  0.00     0.188 C 
BRANCH  26  27
ATOM     27  O   UNL A   1      37.268  22.234  25.060  1.00  0.00    -0.376 OA
BRANCH  27  28
ATOM     28  C   UNL A   1      38.166  21.132  25.202  1.00  0.00     0.202 C 
BRANCH  28  29
ATOM     29  C   UNL A   1      39.331  21.515  26.121  1.00  0.00     0.261 C 
BRANCH  29  30
ATOM     30  O   UNL A   1      39.971  20.382  26.745  1.00  0.00    -0.460 OA
BRANCH  30  31
ATOM     31  C   UNL A   1      41.198  20.070  26.283  1.00  0.00     0.338 C 
ATOM     32  O   UNL A   1      41.511  19.085  25.632  1.00  0.00    -0.246 OA
BRANCH  31  33
ATOM     33  C   UNL A   1      42.130  21.174  26.573  1.00  0.00     0.060 A 
ATOM     34  C   UNL A   1      42.416  21.454  27.907  1.00  0.00     0.016 A 
ATOM     35  C   UNL A   1      42.609  22.014  25.572  1.00  0.00     0.016 A 
ATOM     36  C   UNL A   1      43.105  22.609  28.271  1.00  0.00     0.010 A 
ATOM     37  C   UNL A   1      43.336  23.160  25.931  1.00  0.00     0.010 A 
ATOM     38  C   UNL A   1      43.553  23.492  27.285  1.00  0.00    -0.014 A 
BRANCH  38  39
ATOM     39  C   UNL A   1      44.111  24.823  27.653  1.00  0.00     0.031 A 
ATOM     40  C   UNL A   1      43.170  25.901  28.122  1.00  0.00     0.074 A 
ATOM     41  C   UNL A   1      45.433  25.082  27.620  1.00  0.00     0.049 A 
ATOM     42  N   UNL A   1      43.372  27.186  28.250  1.00  0.00    -0.248 NA
ATOM     43  C   UNL A   1      41.814  25.465  28.493  1.00  0.00     0.031 C 
ATOM     44  C   UNL A   1      46.484  24.117  27.302  1.00  0.00     0.029 A 
ATOM     45  N   UNL A   1      46.114  26.252  27.857  1.00  0.00    -0.354 N 
ATOM     46  C   UNL A   1      42.153  27.723  28.644  1.00  0.00     0.074 A 
ATOM     47  C   UNL A   1      41.221  26.620  28.756  1.00  0.00     0.031 C 
ATOM     48  C   UNL A   1      47.677  24.732  27.370  1.00  0.00     0.029 A 
ATOM     49  C   UNL A   1      47.469  26.148  27.656  1.00  0.00     0.049 A 
ATOM     50  H   UNL A   1      45.673  27.085  28.143  1.00  0.00     0.167 HD
ATOM     51  C   UNL A   1      41.835  29.019  28.879  1.00  0.00     0.037 A 
ATOM     52  C   UNL A   1      48.427  27.097  27.648  1.00  0.00     0.037 A 
ATOM     53  C   UNL A   1      42.774  30.106  28.826  1.00  0.00     0.049 A 
ATOM     54  C   UNL A   1      48.050  28.538  27.858  1.00  0.00     0.074 A 
ATOM     55  C   UNL A   1      42.547  31.457  29.024  1.00  0.00     0.029 A 
ATOM     56  N   UNL A   1      44.131  29.961  28.580  1.00  0.00    -0.354 N 
ATOM     57  N   UNL A   1      46.872  29.056  28.111  1.00  0.00    -0.248 NA
ATOM     58  C   UNL A   1      49.130  29.530  27.748  1.00  0.00     0.031 C 
ATOM     59  C   UNL A   1      43.764  32.132  28.878  1.00  0.00     0.029 A 
ATOM     60  C   UNL A   1      44.753  31.196  28.619  1.00  0.00     0.049 A 
ATOM     61  H   UNL A   1      44.584  29.105  28.405  1.00  0.00     0.167 HD
ATOM     62  C   UNL A   1      47.071  30.428  28.196  1.00  0.00     0.074 A 
ATOM     63  C   UNL A   1      48.484  30.663  27.987  1.00  0.00     0.031 C 
ATOM     64  C   UNL A   1      46.161  31.409  28.416  1.00  0.00     0.037 A 
BRANCH  51  65
ATOM     65  C   UNL A   1      40.398  29.332  29.161  1.00  0.00     0.057 A 
ATOM     66  C   UNL A   1      39.448  29.472  28.143  1.00  0.00     0.134 A 
ATOM     67  C   UNL A   1      39.958  29.484  30.483  1.00  0.00     0.134 A 
ATOM     68  F   UNL A   1      39.810  29.357  26.856  1.00  0.00    -0.206 F 
ATOM     69  C   UNL A   1      38.114  29.771  28.428  1.00  0.00     0.040 A 
ATOM     70  C   UNL A   1      38.624  29.763  30.782  1.00  0.00     0.040 A 
ATOM     71  F   UNL A   1      40.819  29.362  31.505  1.00  0.00    -0.206 F 
ATOM     72  C   UNL A   1      37.699  29.912  29.751  1.00  0.00     0.006 A 
ENDBRANCH  51  65
BRANCH  52  73
ATOM     73  C   UNL A   1      49.837  26.725  27.363  1.00  0.00     0.057 A 
ATOM     74  C   UNL A   1      50.754  26.514  28.398  1.00  0.00     0.134 A 
ATOM     75  C   UNL A   1      50.304  26.593  26.050  1.00  0.00     0.134 A 
ATOM     76  F   UNL A   1      50.374  26.658  29.676  1.00  0.00    -0.206 F 
ATOM     77  C   UNL A   1      52.086  26.187  28.138  1.00  0.00     0.040 A 
ATOM     78  C   UNL A   1      51.627  26.242  25.776  1.00  0.00     0.040 A 
ATOM     79  F   UNL A   1      49.477  26.792  25.013  1.00  0.00    -0.206 F 
ATOM     80  C   UNL A   1      52.524  26.043  26.823  1.00  0.00     0.006 A 
ENDBRANCH  52  73
BRANCH  64  81
ATOM     81  C   UNL A   1      46.671  32.817  28.465  1.00  0.00     0.057 A 
ATOM     82  C   UNL A   1      46.642  33.648  27.339  1.00  0.00     0.134 A 
ATOM     83  C   UNL A   1      47.161  33.358  29.660  1.00  0.00     0.134 A 
ATOM     84  F   UNL A   1      46.196  33.182  26.162  1.00  0.00    -0.206 F 
ATOM     85  C   UNL A   1      47.098  34.966  27.396  1.00  0.00     0.040 A 
ATOM     86  C   UNL A   1      47.602  34.680  29.734  1.00  0.00     0.040 A 
ATOM     87  F   UNL A   1      47.209  32.614  30.775  1.00  0.00    -0.206 F 
ATOM     88  C   UNL A   1      47.574  35.487  28.597  1.00  0.00     0.006 A 
ENDBRANCH  64  81
ENDBRANCH  38  39
ENDBRANCH  31  33
ENDBRANCH  30  31
ENDBRANCH  29  30
ENDBRANCH  28  29
ENDBRANCH  27  28
ENDBRANCH  26  27
ENDBRANCH   1  26
TORSDOF 22
ENDMDL
MODEL 3
REMARK VINA RESULT:      -9.7      4.934      9.947
REMARK SMILES C[C@H](NC(=O)N(CC(=O)OCCOCCOCCOC(=O)c1ccc(-c2c3nc(c(-c4c(F)cccc4F)c4ccc([nH]4)c(-c4c(F)cccc4F)c4nc(c(-c5c(F)cccc5F)c5ccc2[nH]5)C=C4)C=C3)cc1)C(C)(C)C)c1ccccc1
REMARK SMILES IDX 14 1 13 2 12 3 11 4 10 5 8 6 9 7 7 8 6 9 4 10 3 11 5 13 2 14
REMARK SMILES IDX 1 15 80 16 81 17 85 18 82 19 84 20 83 21 76 22 77 23 78 24
REMARK SMILES IDX 79 25 15 26 16 27 17 28 18 29 19 30 20 31 21 32 22 33 23 34
REMARK SMILES IDX 75 35 24 36 74 37 25 38 26 39 27 40 68 41 28 42 73 43 67 44
REMARK SMILES IDX 69 45 29 46 72 47 66 48 65 49 30 51 56 52 39 53 55 54 40 55
REMARK SMILES IDX 43 56 54 57 70 58 41 59 42 60 53 62 71 63 44 64 31 65 32 66
REMARK SMILES IDX 37 67 33 68 34 69 36 70 38 71 35 72 57 73 58 74 63 75 59 76
REMARK SMILES IDX 60 77 62 78 64 79 61 80 45 81 46 82 51 83 47 84 48 85 50 86
REMARK SMILES IDX 52 87 49 88
REMARK H PARENT 3 12 69 50 43 61
REMARK Flexibility Score: inf
ROOT
ATOM      1  C   UNL A   1      34.865  32.447  29.321  1.00  0.00     0.188 C 
ENDROOT
BRANCH   1   2
ATOM      2  O   UNL A   1      34.914  32.166  27.923  1.00  0.00    -0.376 OA
BRANCH   2   3
ATOM      3  C   UNL A   1      34.576  30.857  27.490  1.00  0.00     0.202 C 
BRANCH   3   4
ATOM      4  C   UNL A   1      33.083  30.598  27.249  1.00  0.00     0.261 C 
BRANCH   4   5
ATOM      5  O   UNL A   1      32.622  29.271  27.593  1.00  0.00    -0.462 OA
BRANCH   5   6
ATOM      6  C   UNL A   1      31.778  28.720  26.686  1.00  0.00     0.325 C 
ATOM      7  O   UNL A   1      31.294  27.592  26.786  1.00  0.00    -0.250 OA
BRANCH   6   8
ATOM      8  C   UNL A   1      31.420  29.604  25.487  1.00  0.00     0.244 C 
BRANCH   8   9
ATOM      9  N   UNL A   1      31.398  29.141  24.079  1.00  0.00    -0.309 N 
BRANCH   9  10
ATOM     10  C   UNL A   1      32.437  28.509  23.444  1.00  0.00     0.318 C 
ATOM     11  N   UNL A   1      32.595  27.183  23.380  1.00  0.00    -0.331 N 
ATOM     12  H   UNL A   1      33.373  26.954  22.823  1.00  0.00     0.165 HD
ATOM     13  O   UNL A   1      33.290  29.124  22.796  1.00  0.00    -0.249 OA
BRANCH  11  14
ATOM     14  C   UNL A   1      31.962  25.976  23.891  1.00  0.00     0.111 C 
ATOM     15  C   UNL A   1      31.367  25.161  22.742  1.00  0.00     0.036 C 
BRANCH  14  16
ATOM     16  C   UNL A   1      32.969  25.164  24.680  1.00  0.00    -0.026 A 
ATOM     17  C   UNL A   1      34.294  25.051  24.242  1.00  0.00     0.006 A 
ATOM     18  C   UNL A   1      32.590  24.483  25.852  1.00  0.00     0.006 A 
ATOM     19  C   UNL A   1      35.202  24.243  24.932  1.00  0.00     0.000 A 
ATOM     20  C   UNL A   1      33.497  23.681  26.542  1.00  0.00     0.000 A 
ATOM     21  C   UNL A   1      34.802  23.556  26.078  1.00  0.00     0.000 A 
ENDBRANCH  14  16
ENDBRANCH  11  14
ENDBRANCH   9  10
BRANCH   9  22
ATOM     22  C   UNL A   1      30.142  29.343  23.258  1.00  0.00     0.037 C 
ATOM     23  C   UNL A   1      29.198  28.121  23.326  1.00  0.00     0.034 C 
ATOM     24  C   UNL A   1      29.390  30.611  23.740  1.00  0.00     0.034 C 
ATOM     25  C   UNL A   1      30.424  29.599  21.770  1.00  0.00     0.034 C 
ENDBRANCH   9  22
ENDBRANCH   8   9
ENDBRANCH   6   8
ENDBRANCH   5   6
ENDBRANCH   4   5
ENDBRANCH   3   4
ENDBRANCH   2   3
ENDBRANCH   1   2
BRANCH   1  26
ATOM     26  C   UNL A   1      34.553  33.875  29.773  1.00  0.00     0.188 C 
BRANCH  26  27
ATOM     27  O   UNL A   1      33.992  33.881  31.085  1.00  0.00    -0.376 OA
BRANCH  27  28
ATOM     28  C   UNL A   1      34.952  34.251  32.076  1.00  0.00     0.202 C 
BRANCH  28  29
ATOM     29  C   UNL A   1      34.919  33.258  33.241  1.00  0.00     0.261 C 
BRANCH  29  30
ATOM     30  O   UNL A   1      35.602  32.016  32.962  1.00  0.00    -0.460 OA
BRANCH  30  31
ATOM     31  C   UNL A   1      36.817  31.874  33.526  1.00  0.00     0.338 C 
ATOM     32  O   UNL A   1      37.135  32.152  34.673  1.00  0.00    -0.246 OA
BRANCH  31  33
ATOM     33  C   UNL A   1      37.725  31.199  32.580  1.00  0.00     0.060 A 
ATOM     34  C   UNL A   1      38.878  30.610  33.092  1.00  0.00     0.016 A 
ATOM     35  C   UNL A   1      37.532  31.261  31.204  1.00  0.00     0.016 A 
ATOM     36  C   UNL A   1      39.889  30.150  32.250  1.00  0.00     0.010 A 
ATOM     37  C   UNL A   1      38.530  30.766  30.350  1.00  0.00     0.010 A 
ATOM     38  C   UNL A   1      39.737  30.246  30.864  1.00  0.00    -0.014 A 
BRANCH  38  39
ATOM     39  C   UNL A   1      40.877  29.950  29.952  1.00  0.00     0.031 A 
ATOM     40  C   UNL A   1      40.948  28.598  29.292  1.00  0.00     0.074 A 
ATOM     41  C   UNL A   1      41.823  30.865  29.667  1.00  0.00     0.049 A 
ATOM     42  N   UNL A   1      41.949  28.022  28.678  1.00  0.00    -0.248 NA
ATOM     43  C   UNL A   1      39.722  27.786  29.338  1.00  0.00     0.031 C 
ATOM     44  C   UNL A   1      41.837  32.252  30.129  1.00  0.00     0.029 A 
ATOM     45  N   UNL A   1      42.968  30.753  28.913  1.00  0.00    -0.354 N 
ATOM     46  C   UNL A   1      41.499  26.755  28.329  1.00  0.00     0.074 A 
ATOM     47  C   UNL A   1      40.127  26.654  28.780  1.00  0.00     0.031 C 
ATOM     48  C   UNL A   1      42.931  32.863  29.644  1.00  0.00     0.029 A 
ATOM     49  C   UNL A   1      43.735  31.892  28.906  1.00  0.00     0.049 A 
ATOM     50  H   UNL A   1      43.214  29.933  28.424  1.00  0.00     0.167 HD
ATOM     51  C   UNL A   1      42.172  25.762  27.700  1.00  0.00     0.037 A 
ATOM     52  C   UNL A   1      44.968  32.114  28.410  1.00  0.00     0.037 A 
ATOM     53  C   UNL A   1      43.514  25.883  27.198  1.00  0.00     0.049 A 
ATOM     54  C   UNL A   1      45.724  30.985  27.762  1.00  0.00     0.074 A 
ATOM     55  C   UNL A   1      44.292  24.928  26.568  1.00  0.00     0.029 A 
ATOM     56  N   UNL A   1      44.268  27.045  27.248  1.00  0.00    -0.354 N 
ATOM     57  N   UNL A   1      45.338  29.751  27.541  1.00  0.00    -0.248 NA
ATOM     58  C   UNL A   1      47.098  31.271  27.323  1.00  0.00     0.031 C 
ATOM     59  C   UNL A   1      45.527  25.506  26.254  1.00  0.00     0.029 A 
ATOM     60  C   UNL A   1      45.504  26.831  26.662  1.00  0.00     0.049 A 
ATOM     61  H   UNL A   1      43.969  27.896  27.641  1.00  0.00     0.167 HD
ATOM     62  C   UNL A   1      46.416  29.118  26.936  1.00  0.00     0.074 A 
ATOM     63  C   UNL A   1      47.466  30.107  26.805  1.00  0.00     0.031 C 
ATOM     64  C   UNL A   1      46.532  27.829  26.534  1.00  0.00     0.037 A 
BRANCH  51  65
ATOM     65  C   UNL A   1      41.480  24.440  27.571  1.00  0.00     0.057 A 
ATOM     66  C   UNL A   1      41.793  23.348  28.388  1.00  0.00     0.134 A 
ATOM     67  C   UNL A   1      40.470  24.265  26.615  1.00  0.00     0.134 A 
ATOM     68  F   UNL A   1      42.764  23.445  29.309  1.00  0.00    -0.206 F 
ATOM     69  C   UNL A   1      41.140  22.121  28.246  1.00  0.00     0.040 A 
ATOM     70  C   UNL A   1      39.796  23.052  26.477  1.00  0.00     0.040 A 
ATOM     71  F   UNL A   1      40.122  25.274  25.801  1.00  0.00    -0.206 F 
ATOM     72  C   UNL A   1      40.135  21.974  27.291  1.00  0.00     0.006 A 
ENDBRANCH  51  65
BRANCH  52  73
ATOM     73  C   UNL A   1      45.604  33.447  28.567  1.00  0.00     0.057 A 
ATOM     74  C   UNL A   1      46.378  33.752  29.692  1.00  0.00     0.134 A 
ATOM     75  C   UNL A   1      45.435  34.452  27.608  1.00  0.00     0.134 A 
ATOM     76  F   UNL A   1      46.549  32.841  30.661  1.00  0.00    -0.206 F 
ATOM     77  C   UNL A   1      46.959  35.011  29.858  1.00  0.00     0.040 A 
ATOM     78  C   UNL A   1      46.030  35.706  27.749  1.00  0.00     0.040 A 
ATOM     79  F   UNL A   1      44.696  34.226  26.511  1.00  0.00    -0.206 F 
ATOM     80  C   UNL A   1      46.792  35.990  28.881  1.00  0.00     0.006 A 
ENDBRANCH  52  73
BRANCH  64  81
ATOM     81  C   UNL A   1      47.826  27.424  25.896  1.00  0.00     0.057 A 
ATOM     82  C   UNL A   1      48.901  26.945  26.654  1.00  0.00     0.134 A 
ATOM     83  C   UNL A   1      47.984  27.478  24.506  1.00  0.00     0.134 A 
ATOM     84  F   UNL A   1      48.813  26.882  27.992  1.00  0.00    -0.206 F 
ATOM     85  C   UNL A   1      50.096  26.548  26.053  1.00  0.00     0.040 A 
ATOM     86  C   UNL A   1      49.168  27.067  23.891  1.00  0.00     0.040 A 
ATOM     87  F   UNL A   1      46.989  27.923  23.724  1.00  0.00    -0.206 F 
ATOM     88  C   UNL A   1      50.230  26.604  24.667  1.00  0.00     0.006 A 
ENDBRANCH  64  81
ENDBRANCH  38  39
ENDBRANCH  31  33
ENDBRANCH  30  31
ENDBRANCH  29  30
ENDBRANCH  28  29
ENDBRANCH  27  28
ENDBRANCH  26  27
ENDBRANCH   1  26
TORSDOF 22
ENDMDL
