MODEL 1
REMARK VINA RESULT:      -9.7      0.000      0.000
REMARK SMILES COc1ccc([C@H](CC(=O)OCCOCCOCCOC(=O)c2ccc(-c3c4nc(c(-c5c(F)cccc5F)c5ccc([nH]5)c(-c5c(F)cccc5F)c5nc(c(-c6c(F)cccc6F)c6ccc3[nH]6)C=C5)C=C4)cc2)NC(C)=O)cc1
REMARK SMILES IDX 15 1 14 2 13 3 12 4 11 5 9 6 10 7 8 8 7 9 6 10 3 11 4 12
REMARK SMILES IDX 82 13 5 14 81 15 2 16 1 17 77 18 78 19 79 21 80 22 16 23
REMARK SMILES IDX 17 24 18 25 19 26 20 27 21 28 22 29 23 30 24 31 76 32 25 33
REMARK SMILES IDX 75 34 26 35 27 36 28 37 69 38 29 39 74 40 68 41 70 42 30 43
REMARK SMILES IDX 73 44 67 45 66 46 31 48 57 49 40 50 56 51 41 52 44 53 55 54
REMARK SMILES IDX 71 55 42 56 43 57 54 59 72 60 45 61 32 62 33 63 38 64 34 65
REMARK SMILES IDX 35 66 37 67 39 68 36 69 58 70 59 71 64 72 60 73 61 74 63 75
REMARK SMILES IDX 65 76 62 77 46 78 47 79 52 80 48 81 49 82 51 83 53 84 50 85
REMARK H PARENT 77 20 70 47 44 58
REMARK Flexibility Score: inf
ROOT
ATOM      1  C   UNL A   1      40.545  21.693  27.387  1.00  0.00     0.188 C 
ENDROOT
BRANCH   1   2
ATOM      2  O   UNL A   1      39.502  21.907  26.446  1.00  0.00    -0.376 OA
BRANCH   2   3
ATOM      3  C   UNL A   1      38.904  23.209  26.436  1.00  0.00     0.202 C 
BRANCH   3   4
ATOM      4  C   UNL A   1      37.640  23.382  25.572  1.00  0.00     0.261 C 
BRANCH   4   5
ATOM      5  O   UNL A   1      36.446  23.564  26.368  1.00  0.00    -0.463 OA
BRANCH   5   6
ATOM      6  C   UNL A   1      35.305  23.815  25.672  1.00  0.00     0.308 C 
ATOM      7  O   UNL A   1      35.172  24.700  24.837  1.00  0.00    -0.252 OA
BRANCH   6   8
ATOM      8  C   UNL A   1      34.252  22.757  25.930  1.00  0.00     0.152 C 
BRANCH   8   9
ATOM      9  C   UNL A   1      33.470  22.347  24.676  1.00  0.00     0.123 C 
BRANCH   9  10
ATOM     10  C   UNL A   1      33.142  20.842  24.690  1.00  0.00    -0.025 A 
ATOM     11  C   UNL A   1      32.518  18.075  24.710  1.00  0.00     0.118 A 
ATOM     12  C   UNL A   1      32.494  18.804  23.520  1.00  0.00     0.047 A 
ATOM     13  C   UNL A   1      32.869  18.717  25.889  1.00  0.00     0.047 A 
ATOM     14  C   UNL A   1      32.783  20.176  23.510  1.00  0.00     0.010 A 
ATOM     15  C   UNL A   1      33.176  20.078  25.875  1.00  0.00     0.010 A 
BRANCH  11  16
ATOM     16  O   UNL A   1      32.212  16.746  24.610  1.00  0.00    -0.497 OA
ATOM     17  C   UNL A   1      33.140  15.860  25.233  1.00  0.00     0.278 C 
ENDBRANCH  11  16
ENDBRANCH   9  10
BRANCH   9  18
ATOM     18  N   UNL A   1      32.211  23.101  24.606  1.00  0.00    -0.349 N 
ATOM     19  C   UNL A   1      31.930  23.930  23.538  1.00  0.00     0.217 C 
ATOM     20  H   UNL A   1      31.554  23.014  25.335  1.00  0.00     0.164 HD
ATOM     21  C   UNL A   1      30.456  24.097  23.265  1.00  0.00     0.114 C 
ATOM     22  O   UNL A   1      32.786  24.405  22.802  1.00  0.00    -0.275 OA
ENDBRANCH   9  18
ENDBRANCH   8   9
ENDBRANCH   6   8
ENDBRANCH   5   6
ENDBRANCH   4   5
ENDBRANCH   3   4
ENDBRANCH   2   3
ENDBRANCH   1   2
BRANCH   1  23
ATOM     23  C   UNL A   1      41.560  20.582  27.073  1.00  0.00     0.188 C 
BRANCH  23  24
ATOM     24  O   UNL A   1      42.170  20.675  25.793  1.00  0.00    -0.376 OA
BRANCH  24  25
ATOM     25  C   UNL A   1      43.552  21.045  25.783  1.00  0.00     0.202 C 
BRANCH  25  26
ATOM     26  C   UNL A   1      43.943  21.992  24.634  1.00  0.00     0.261 C 
BRANCH  26  27
ATOM     27  O   UNL A   1      43.298  23.280  24.728  1.00  0.00    -0.460 OA
BRANCH  27  28
ATOM     28  C   UNL A   1      44.099  24.298  25.108  1.00  0.00     0.338 C 
ATOM     29  O   UNL A   1      45.177  24.603  24.628  1.00  0.00    -0.246 OA
BRANCH  28  30
ATOM     30  C   UNL A   1      43.358  25.169  26.039  1.00  0.00     0.060 A 
ATOM     31  C   UNL A   1      43.574  26.551  25.947  1.00  0.00     0.016 A 
ATOM     32  C   UNL A   1      42.492  24.654  26.999  1.00  0.00     0.016 A 
ATOM     33  C   UNL A   1      42.982  27.422  26.857  1.00  0.00     0.010 A 
ATOM     34  C   UNL A   1      41.894  25.528  27.913  1.00  0.00     0.010 A 
ATOM     35  C   UNL A   1      42.168  26.910  27.871  1.00  0.00    -0.014 A 
BRANCH  35  36
ATOM     36  C   UNL A   1      41.729  27.791  28.978  1.00  0.00     0.031 A 
ATOM     37  C   UNL A   1      42.508  27.775  30.264  1.00  0.00     0.074 A 
ATOM     38  C   UNL A   1      40.677  28.616  28.841  1.00  0.00     0.049 A 
ATOM     39  N   UNL A   1      42.246  28.364  31.402  1.00  0.00    -0.248 NA
ATOM     40  C   UNL A   1      43.751  26.987  30.265  1.00  0.00     0.031 C 
ATOM     41  C   UNL A   1      39.885  28.787  27.625  1.00  0.00     0.029 A 
ATOM     42  N   UNL A   1      40.090  29.461  29.748  1.00  0.00    -0.354 N 
ATOM     43  C   UNL A   1      43.275  28.000  32.259  1.00  0.00     0.074 A 
ATOM     44  C   UNL A   1      44.160  27.129  31.516  1.00  0.00     0.031 C 
ATOM     45  C   UNL A   1      38.902  29.671  27.867  1.00  0.00     0.029 A 
ATOM     46  C   UNL A   1      38.968  30.089  29.266  1.00  0.00     0.049 A 
ATOM     47  H   UNL A   1      40.438  29.603  30.658  1.00  0.00     0.167 HD
ATOM     48  C   UNL A   1      43.466  28.357  33.551  1.00  0.00     0.037 A 
ATOM     49  C   UNL A   1      38.076  30.881  29.895  1.00  0.00     0.037 A 
ATOM     50  C   UNL A   1      42.592  29.231  34.288  1.00  0.00     0.049 A 
ATOM     51  C   UNL A   1      38.262  31.195  31.356  1.00  0.00     0.074 A 
ATOM     52  C   UNL A   1      42.704  29.653  35.602  1.00  0.00     0.029 A 
ATOM     53  N   UNL A   1      41.445  29.816  33.777  1.00  0.00    -0.354 N 
ATOM     54  N   UNL A   1      39.225  30.831  32.167  1.00  0.00    -0.248 NA
ATOM     55  C   UNL A   1      37.229  32.028  31.989  1.00  0.00     0.031 C 
ATOM     56  C   UNL A   1      41.599  30.458  35.897  1.00  0.00     0.029 A 
ATOM     57  C   UNL A   1      40.827  30.579  34.754  1.00  0.00     0.049 A 
ATOM     58  H   UNL A   1      41.117  29.705  32.855  1.00  0.00     0.167 HD
ATOM     59  C   UNL A   1      38.929  31.409  33.395  1.00  0.00     0.074 A 
ATOM     60  C   UNL A   1      37.704  32.159  33.220  1.00  0.00     0.031 C 
ATOM     61  C   UNL A   1      39.613  31.328  34.564  1.00  0.00     0.037 A 
BRANCH  48  62
ATOM     62  C   UNL A   1      44.648  27.769  34.259  1.00  0.00     0.057 A 
ATOM     63  C   UNL A   1      45.888  28.418  34.302  1.00  0.00     0.134 A 
ATOM     64  C   UNL A   1      44.535  26.543  34.928  1.00  0.00     0.134 A 
ATOM     65  F   UNL A   1      46.066  29.585  33.665  1.00  0.00    -0.206 F 
ATOM     66  C   UNL A   1      46.979  27.860  34.969  1.00  0.00     0.040 A 
ATOM     67  C   UNL A   1      45.612  25.987  35.619  1.00  0.00     0.040 A 
ATOM     68  F   UNL A   1      43.375  25.869  34.924  1.00  0.00    -0.206 F 
ATOM     69  C   UNL A   1      46.841  26.644  35.636  1.00  0.00     0.006 A 
ENDBRANCH  48  62
BRANCH  49  70
ATOM     70  C   UNL A   1      36.900  31.405  29.158  1.00  0.00     0.057 A 
ATOM     71  C   UNL A   1      35.805  30.586  28.861  1.00  0.00     0.134 A 
ATOM     72  C   UNL A   1      36.857  32.730  28.704  1.00  0.00     0.134 A 
ATOM     73  F   UNL A   1      35.801  29.301  29.246  1.00  0.00    -0.206 F 
ATOM     74  C   UNL A   1      34.717  31.057  28.125  1.00  0.00     0.040 A 
ATOM     75  C   UNL A   1      35.765  33.221  27.988  1.00  0.00     0.040 A 
ATOM     76  F   UNL A   1      37.877  33.564  28.953  1.00  0.00    -0.206 F 
ATOM     77  C   UNL A   1      34.694  32.382  27.691  1.00  0.00     0.006 A 
ENDBRANCH  49  70
BRANCH  61  78
ATOM     78  C   UNL A   1      39.075  32.102  35.732  1.00  0.00     0.057 A 
ATOM     79  C   UNL A   1      38.250  31.511  36.699  1.00  0.00     0.134 A 
ATOM     80  C   UNL A   1      39.415  33.450  35.911  1.00  0.00     0.134 A 
ATOM     81  F   UNL A   1      37.877  30.228  36.579  1.00  0.00    -0.206 F 
ATOM     82  C   UNL A   1      37.766  32.238  37.787  1.00  0.00     0.040 A 
ATOM     83  C   UNL A   1      38.958  34.180  37.008  1.00  0.00     0.040 A 
ATOM     84  F   UNL A   1      40.209  34.074  35.028  1.00  0.00    -0.206 F 
ATOM     85  C   UNL A   1      38.125  33.575  37.947  1.00  0.00     0.006 A 
ENDBRANCH  61  78
ENDBRANCH  35  36
ENDBRANCH  28  30
ENDBRANCH  27  28
ENDBRANCH  26  27
ENDBRANCH  25  26
ENDBRANCH  24  25
ENDBRANCH  23  24
ENDBRANCH   1  23
TORSDOF 21
ENDMDL
MODEL 2
REMARK VINA RESULT:      -9.6      5.961     12.301
REMARK SMILES COc1ccc([C@H](CC(=O)OCCOCCOCCOC(=O)c2ccc(-c3c4nc(c(-c5c(F)cccc5F)c5ccc([nH]5)c(-c5c(F)cccc5F)c5nc(c(-c6c(F)cccc6F)c6ccc3[nH]6)C=C5)C=C4)cc2)NC(C)=O)cc1
REMARK SMILES IDX 15 1 14 2 13 3 12 4 11 5 9 6 10 7 8 8 7 9 6 10 3 11 4 12
REMARK SMILES IDX 82 13 5 14 81 15 2 16 1 17 77 18 78 19 79 21 80 22 16 23
REMARK SMILES IDX 17 24 18 25 19 26 20 27 21 28 22 29 23 30 24 31 76 32 25 33
REMARK SMILES IDX 75 34 26 35 27 36 28 37 69 38 29 39 74 40 68 41 70 42 30 43
REMARK SMILES IDX 73 44 67 45 66 46 31 48 57 49 40 50 56 51 41 52 44 53 55 54
REMARK SMILES IDX 71 55 42 56 43 57 54 59 72 60 45 61 32 62 33 63 38 64 34 65
REMARK SMILES IDX 35 66 37 67 39 68 36 69 58 70 59 71 64 72 60 73 61 74 63 75
REMARK SMILES IDX 65 76 62 77 46 78 47 79 52 80 48 81 49 82 51 83 53 84 50 85
REMARK H PARENT 77 20 70 47 44 58
REMARK Flexibility Score: inf
ROOT
ATOM      1  C   UNL A   1      34.397  34.819  31.304  1.00  0.00     0.188 C 
ENDROOT
BRANCH   1   2
ATOM      2  O   UNL A   1      33.547  34.078  32.170  1.00  0.00    -0.376 OA
BRANCH   2   3
ATOM      3  C   UNL A   1      34.179  33.389  33.255  1.00  0.00     0.202 C 
BRANCH   3   4
ATOM      4  C   UNL A   1      35.468  34.020  33.817  1.00  0.00     0.261 C 
BRANCH   4   5
ATOM      5  O   UNL A   1      36.635  33.202  33.577  1.00  0.00    -0.463 OA
BRANCH   5   6
ATOM      6  C   UNL A   1      37.834  33.792  33.835  1.00  0.00     0.308 C 
ATOM      7  O   UNL A   1      37.997  34.987  34.041  1.00  0.00    -0.252 OA
BRANCH   6   8
ATOM      8  C   UNL A   1      38.934  32.766  34.005  1.00  0.00     0.152 C 
BRANCH   8   9
ATOM      9  C   UNL A   1      39.272  32.004  32.718  1.00  0.00     0.123 C 
BRANCH   9  10
ATOM     10  C   UNL A   1      39.735  32.964  31.605  1.00  0.00    -0.025 A 
ATOM     11  C   UNL A   1      40.588  34.746  29.570  1.00  0.00     0.118 A 
ATOM     12  C   UNL A   1      41.400  34.480  30.674  1.00  0.00     0.047 A 
ATOM     13  C   UNL A   1      39.358  34.112  29.469  1.00  0.00     0.047 A 
ATOM     14  C   UNL A   1      40.974  33.615  31.691  1.00  0.00     0.010 A 
ATOM     15  C   UNL A   1      38.942  33.235  30.472  1.00  0.00     0.010 A 
BRANCH  11  16
ATOM     16  O   UNL A   1      41.096  35.611  28.641  1.00  0.00    -0.497 OA
ATOM     17  C   UNL A   1      42.492  35.478  28.386  1.00  0.00     0.278 C 
ENDBRANCH  11  16
ENDBRANCH   9  10
BRANCH   9  18
ATOM     18  N   UNL A   1      40.346  31.036  32.980  1.00  0.00    -0.349 N 
ATOM     19  C   UNL A   1      40.093  29.842  33.627  1.00  0.00     0.217 C 
ATOM     20  H   UNL A   1      41.263  31.242  32.689  1.00  0.00     0.164 HD
ATOM     21  C   UNL A   1      41.047  28.733  33.258  1.00  0.00     0.114 C 
ATOM     22  O   UNL A   1      39.123  29.652  34.350  1.00  0.00    -0.275 OA
ENDBRANCH   9  18
ENDBRANCH   8   9
ENDBRANCH   6   8
ENDBRANCH   5   6
ENDBRANCH   4   5
ENDBRANCH   3   4
ENDBRANCH   2   3
ENDBRANCH   1   2
BRANCH   1  23
ATOM     23  C   UNL A   1      33.956  34.964  29.840  1.00  0.00     0.188 C 
BRANCH  23  24
ATOM     24  O   UNL A   1      34.847  34.397  28.889  1.00  0.00    -0.376 OA
BRANCH  24  25
ATOM     25  C   UNL A   1      34.269  33.473  27.962  1.00  0.00     0.202 C 
BRANCH  25  26
ATOM     26  C   UNL A   1      34.044  32.062  28.534  1.00  0.00     0.261 C 
BRANCH  26  27
ATOM     27  O   UNL A   1      35.213  31.222  28.425  1.00  0.00    -0.460 OA
BRANCH  27  28
ATOM     28  C   UNL A   1      35.933  31.089  29.559  1.00  0.00     0.338 C 
ATOM     29  O   UNL A   1      35.574  31.357  30.693  1.00  0.00    -0.246 OA
BRANCH  28  30
ATOM     30  C   UNL A   1      37.153  30.315  29.265  1.00  0.00     0.060 A 
ATOM     31  C   UNL A   1      37.808  29.699  30.340  1.00  0.00     0.016 A 
ATOM     32  C   UNL A   1      37.667  30.212  27.976  1.00  0.00     0.016 A 
ATOM     33  C   UNL A   1      39.016  29.036  30.148  1.00  0.00     0.010 A 
ATOM     34  C   UNL A   1      38.880  29.545  27.779  1.00  0.00     0.010 A 
ATOM     35  C   UNL A   1      39.579  28.988  28.869  1.00  0.00    -0.014 A 
BRANCH  35  36
ATOM     36  C   UNL A   1      40.966  28.499  28.694  1.00  0.00     0.031 A 
ATOM     37  C   UNL A   1      42.099  29.473  28.851  1.00  0.00     0.074 A 
ATOM     38  C   UNL A   1      41.224  27.206  28.431  1.00  0.00     0.049 A 
ATOM     39  N   UNL A   1      43.377  29.305  28.630  1.00  0.00    -0.248 NA
ATOM     40  C   UNL A   1      41.742  30.821  29.324  1.00  0.00     0.031 C 
ATOM     41  C   UNL A   1      40.225  26.144  28.331  1.00  0.00     0.029 A 
ATOM     42  N   UNL A   1      42.416  26.573  28.188  1.00  0.00    -0.354 N 
ATOM     43  C   UNL A   1      43.972  30.528  28.910  1.00  0.00     0.074 A 
ATOM     44  C   UNL A   1      42.915  31.434  29.308  1.00  0.00     0.031 C 
ATOM     45  C   UNL A   1      40.845  24.991  28.029  1.00  0.00     0.029 A 
ATOM     46  C   UNL A   1      42.277  25.244  27.869  1.00  0.00     0.049 A 
ATOM     47  H   UNL A   1      43.289  27.026  28.237  1.00  0.00     0.167 HD
ATOM     48  C   UNL A   1      45.281  30.867  28.843  1.00  0.00     0.037 A 
ATOM     49  C   UNL A   1      43.194  24.347  27.458  1.00  0.00     0.037 A 
ATOM     50  C   UNL A   1      46.334  29.965  28.458  1.00  0.00     0.049 A 
ATOM     51  C   UNL A   1      44.631  24.770  27.307  1.00  0.00     0.074 A 
ATOM     52  C   UNL A   1      47.691  30.216  28.361  1.00  0.00     0.029 A 
ATOM     53  N   UNL A   1      46.147  28.638  28.105  1.00  0.00    -0.354 N 
ATOM     54  N   UNL A   1      45.184  25.933  27.554  1.00  0.00    -0.248 NA
ATOM     55  C   UNL A   1      45.571  23.753  26.813  1.00  0.00     0.031 C 
ATOM     56  C   UNL A   1      48.320  29.053  27.907  1.00  0.00     0.029 A 
ATOM     57  C   UNL A   1      47.361  28.063  27.769  1.00  0.00     0.049 A 
ATOM     58  H   UNL A   1      45.279  28.173  28.094  1.00  0.00     0.167 HD
ATOM     59  C   UNL A   1      46.536  25.781  27.271  1.00  0.00     0.074 A 
ATOM     60  C   UNL A   1      46.723  24.410  26.846  1.00  0.00     0.031 C 
ATOM     61  C   UNL A   1      47.535  26.694  27.357  1.00  0.00     0.037 A 
BRANCH  48  62
ATOM     62  C   UNL A   1      45.640  32.288  29.157  1.00  0.00     0.057 A 
ATOM     63  C   UNL A   1      45.960  32.704  30.454  1.00  0.00     0.134 A 
ATOM     64  C   UNL A   1      45.686  33.248  28.138  1.00  0.00     0.134 A 
ATOM     65  F   UNL A   1      45.914  31.837  31.478  1.00  0.00    -0.206 F 
ATOM     66  C   UNL A   1      46.296  34.030  30.732  1.00  0.00     0.040 A 
ATOM     67  C   UNL A   1      46.045  34.571  28.398  1.00  0.00     0.040 A 
ATOM     68  F   UNL A   1      45.389  32.914  26.873  1.00  0.00    -0.206 F 
ATOM     69  C   UNL A   1      46.346  34.966  29.700  1.00  0.00     0.006 A 
ENDBRANCH  48  62
BRANCH  49  70
ATOM     70  C   UNL A   1      42.781  22.962  27.121  1.00  0.00     0.057 A 
ATOM     71  C   UNL A   1      42.502  22.024  28.121  1.00  0.00     0.134 A 
ATOM     72  C   UNL A   1      42.688  22.535  25.790  1.00  0.00     0.134 A 
ATOM     73  F   UNL A   1      42.601  22.368  29.414  1.00  0.00    -0.206 F 
ATOM     74  C   UNL A   1      42.163  20.706  27.813  1.00  0.00     0.040 A 
ATOM     75  C   UNL A   1      42.325  21.227  25.467  1.00  0.00     0.040 A 
ATOM     76  F   UNL A   1      42.946  23.385  24.786  1.00  0.00    -0.206 F 
ATOM     77  C   UNL A   1      42.068  20.306  26.480  1.00  0.00     0.006 A 
ENDBRANCH  49  70
BRANCH  61  78
ATOM     78  C   UNL A   1      48.924  26.231  27.026  1.00  0.00     0.057 A 
ATOM     79  C   UNL A   1      49.469  26.377  25.743  1.00  0.00     0.134 A 
ATOM     80  C   UNL A   1      49.739  25.663  28.014  1.00  0.00     0.134 A 
ATOM     81  F   UNL A   1      48.737  26.902  24.749  1.00  0.00    -0.206 F 
ATOM     82  C   UNL A   1      50.767  25.953  25.451  1.00  0.00     0.040 A 
ATOM     83  C   UNL A   1      51.045  25.259  27.740  1.00  0.00     0.040 A 
ATOM     84  F   UNL A   1      49.282  25.503  29.265  1.00  0.00    -0.206 F 
ATOM     85  C   UNL A   1      51.561  25.397  26.452  1.00  0.00     0.006 A 
ENDBRANCH  61  78
ENDBRANCH  35  36
ENDBRANCH  28  30
ENDBRANCH  27  28
ENDBRANCH  26  27
ENDBRANCH  25  26
ENDBRANCH  24  25
ENDBRANCH  23  24
ENDBRANCH   1  23
TORSDOF 21
ENDMDL
MODEL 3
REMARK VINA RESULT:      -9.6      1.083      6.737
REMARK SMILES COc1ccc([C@H](CC(=O)OCCOCCOCCOC(=O)c2ccc(-c3c4nc(c(-c5c(F)cccc5F)c5ccc([nH]5)c(-c5c(F)cccc5F)c5nc(c(-c6c(F)cccc6F)c6ccc3[nH]6)C=C5)C=C4)cc2)NC(C)=O)cc1
REMARK SMILES IDX 15 1 14 2 13 3 12 4 11 5 9 6 10 7 8 8 7 9 6 10 3 11 4 12
REMARK SMILES IDX 82 13 5 14 81 15 2 16 1 17 77 18 78 19 79 21 80 22 16 23
REMARK SMILES IDX 17 24 18 25 19 26 20 27 21 28 22 29 23 30 24 31 76 32 25 33
REMARK SMILES IDX 75 34 26 35 27 36 28 37 69 38 29 39 74 40 68 41 70 42 30 43
REMARK SMILES IDX 73 44 67 45 66 46 31 48 57 49 40 50 56 51 41 52 44 53 55 54
REMARK SMILES IDX 71 55 42 56 43 57 54 59 72 60 45 61 32 62 33 63 38 64 34 65
REMARK SMILES IDX 35 66 37 67 39 68 36 69 58 70 59 71 64 72 60 73 61 74 63 75
REMARK SMILES IDX 65 76 62 77 46 78 47 79 52 80 48 81 49 82 51 83 53 84 50 85
REMARK H PARENT 77 20 70 47 44 58
REMARK Flexibility Score: inf
ROOT
ATOM      1  C   UNL A   1      40.867  20.753  26.697  1.00  0.00     0.188 C 
ENDROOT
BRANCH   1   2
ATOM      2  O   UNL A   1      40.028  21.716  27.321  1.00  0.00    -0.376 OA
BRANCH   2   3
ATOM      3  C   UNL A   1      39.203  22.506  26.455  1.00  0.00     0.202 C 
BRANCH   3   4
ATOM      4  C   UNL A   1      38.196  21.741  25.573  1.00  0.00     0.261 C 
BRANCH   4   5
ATOM      5  O   UNL A   1      36.831  21.911  26.017  1.00  0.00    -0.463 OA
BRANCH   5   6
ATOM      6  C   UNL A   1      36.182  23.002  25.529  1.00  0.00     0.308 C 
ATOM      7  O   UNL A   1      36.388  24.156  25.880  1.00  0.00    -0.252 OA
BRANCH   6   8
ATOM      8  C   UNL A   1      35.281  22.640  24.367  1.00  0.00     0.152 C 
BRANCH   8   9
ATOM      9  C   UNL A   1      33.951  22.007  24.792  1.00  0.00     0.123 C 
BRANCH   9  10
ATOM     10  C   UNL A   1      32.817  23.050  24.817  1.00  0.00    -0.025 A 
ATOM     11  C   UNL A   1      30.723  24.962  24.881  1.00  0.00     0.118 A 
ATOM     12  C   UNL A   1      31.695  24.933  25.882  1.00  0.00     0.047 A 
ATOM     13  C   UNL A   1      30.802  24.051  23.837  1.00  0.00     0.047 A 
ATOM     14  C   UNL A   1      32.720  23.977  25.865  1.00  0.00     0.010 A 
ATOM     15  C   UNL A   1      31.834  23.113  23.808  1.00  0.00     0.010 A 
BRANCH  11  16
ATOM     16  O   UNL A   1      29.764  25.929  24.998  1.00  0.00    -0.497 OA
ATOM     17  C   UNL A   1      29.403  26.578  23.781  1.00  0.00     0.278 C 
ENDBRANCH  11  16
ENDBRANCH   9  10
BRANCH   9  18
ATOM     18  N   UNL A   1      33.585  20.939  23.851  1.00  0.00    -0.349 N 
ATOM     19  C   UNL A   1      33.119  19.718  24.297  1.00  0.00     0.217 C 
ATOM     20  H   UNL A   1      33.673  21.097  22.883  1.00  0.00     0.164 HD
ATOM     21  C   UNL A   1      32.208  19.017  23.320  1.00  0.00     0.114 C 
ATOM     22  O   UNL A   1      33.326  19.281  25.423  1.00  0.00    -0.275 OA
ENDBRANCH   9  18
ENDBRANCH   8   9
ENDBRANCH   6   8
ENDBRANCH   5   6
ENDBRANCH   4   5
ENDBRANCH   3   4
ENDBRANCH   2   3
ENDBRANCH   1   2
BRANCH   1  23
ATOM     23  C   UNL A   1      42.365  21.081  26.602  1.00  0.00     0.188 C 
BRANCH  23  24
ATOM     24  O   UNL A   1      42.790  21.573  25.339  1.00  0.00    -0.376 OA
BRANCH  24  25
ATOM     25  C   UNL A   1      44.200  21.756  25.179  1.00  0.00     0.202 C 
BRANCH  25  26
ATOM     26  C   UNL A   1      44.586  22.992  24.348  1.00  0.00     0.261 C 
BRANCH  26  27
ATOM     27  O   UNL A   1      43.795  24.155  24.675  1.00  0.00    -0.460 OA
BRANCH  27  28
ATOM     28  C   UNL A   1      44.492  25.212  25.142  1.00  0.00     0.338 C 
ATOM     29  O   UNL A   1      45.513  25.685  24.672  1.00  0.00    -0.246 OA
BRANCH  28  30
ATOM     30  C   UNL A   1      43.693  25.894  26.177  1.00  0.00     0.060 A 
ATOM     31  C   UNL A   1      43.975  27.243  26.432  1.00  0.00     0.016 A 
ATOM     32  C   UNL A   1      42.709  25.231  26.904  1.00  0.00     0.016 A 
ATOM     33  C   UNL A   1      43.326  27.920  27.460  1.00  0.00     0.010 A 
ATOM     34  C   UNL A   1      42.054  25.910  27.937  1.00  0.00     0.010 A 
ATOM     35  C   UNL A   1      42.387  27.244  28.245  1.00  0.00    -0.014 A 
BRANCH  35  36
ATOM     36  C   UNL A   1      41.870  27.876  29.480  1.00  0.00     0.031 A 
ATOM     37  C   UNL A   1      40.624  28.712  29.395  1.00  0.00     0.074 A 
ATOM     38  C   UNL A   1      42.474  27.690  30.667  1.00  0.00     0.049 A 
ATOM     39  N   UNL A   1      40.056  29.453  30.311  1.00  0.00    -0.248 NA
ATOM     40  C   UNL A   1      39.922  28.709  28.101  1.00  0.00     0.031 C 
ATOM     41  C   UNL A   1      43.641  26.843  30.902  1.00  0.00     0.029 A 
ATOM     42  N   UNL A   1      42.186  28.219  31.900  1.00  0.00    -0.354 N 
ATOM     43  C   UNL A   1      38.948  30.024  29.698  1.00  0.00     0.074 A 
ATOM     44  C   UNL A   1      38.929  29.553  28.330  1.00  0.00     0.031 C 
ATOM     45  C   UNL A   1      43.982  26.923  32.200  1.00  0.00     0.029 A 
ATOM     46  C   UNL A   1      43.086  27.863  32.873  1.00  0.00     0.049 A 
ATOM     47  H   UNL A   1      41.409  28.800  32.070  1.00  0.00     0.167 HD
ATOM     48  C   UNL A   1      38.030  30.866  30.227  1.00  0.00     0.037 A 
ATOM     49  C   UNL A   1      43.197  28.278  34.150  1.00  0.00     0.037 A 
ATOM     50  C   UNL A   1      38.042  31.327  31.590  1.00  0.00     0.049 A 
ATOM     51  C   UNL A   1      42.214  29.282  34.693  1.00  0.00     0.074 A 
ATOM     52  C   UNL A   1      37.153  32.181  32.219  1.00  0.00     0.029 A 
ATOM     53  N   UNL A   1      38.992  30.974  32.535  1.00  0.00    -0.354 N 
ATOM     54  N   UNL A   1      41.181  29.834  34.103  1.00  0.00    -0.248 NA
ATOM     55  C   UNL A   1      42.419  29.725  36.080  1.00  0.00     0.031 C 
ATOM     56  C   UNL A   1      37.591  32.379  33.533  1.00  0.00     0.029 A 
ATOM     57  C   UNL A   1      38.724  31.609  33.736  1.00  0.00     0.049 A 
ATOM     58  H   UNL A   1      39.748  30.363  32.376  1.00  0.00     0.167 HD
ATOM     59  C   UNL A   1      40.600  30.666  35.052  1.00  0.00     0.074 A 
ATOM     60  C   UNL A   1      41.387  30.538  36.260  1.00  0.00     0.031 C 
ATOM     61  C   UNL A   1      39.510  31.465  34.934  1.00  0.00     0.037 A 
BRANCH  48  62
ATOM     62  C   UNL A   1      36.955  31.373  29.314  1.00  0.00     0.057 A 
ATOM     63  C   UNL A   1      35.858  30.584  28.948  1.00  0.00     0.134 A 
ATOM     64  C   UNL A   1      37.010  32.679  28.812  1.00  0.00     0.134 A 
ATOM     65  F   UNL A   1      35.757  29.317  29.379  1.00  0.00    -0.206 F 
ATOM     66  C   UNL A   1      34.862  31.070  28.100  1.00  0.00     0.040 A 
ATOM     67  C   UNL A   1      36.008  33.185  27.983  1.00  0.00     0.040 A 
ATOM     68  F   UNL A   1      38.036  33.486  29.124  1.00  0.00    -0.206 F 
ATOM     69  C   UNL A   1      34.933  32.377  27.620  1.00  0.00     0.006 A 
ENDBRANCH  48  62
BRANCH  49  70
ATOM     70  C   UNL A   1      44.304  27.777  35.002  1.00  0.00     0.057 A 
ATOM     71  C   UNL A   1      45.509  28.479  35.113  1.00  0.00     0.134 A 
ATOM     72  C   UNL A   1      44.195  26.566  35.699  1.00  0.00     0.134 A 
ATOM     73  F   UNL A   1      45.682  29.630  34.447  1.00  0.00    -0.206 F 
ATOM     74  C   UNL A   1      46.574  27.989  35.871  1.00  0.00     0.040 A 
ATOM     75  C   UNL A   1      45.242  26.077  36.480  1.00  0.00     0.040 A 
ATOM     76  F   UNL A   1      43.067  25.845  35.630  1.00  0.00    -0.206 F 
ATOM     77  C   UNL A   1      46.439  26.786  36.562  1.00  0.00     0.006 A 
ENDBRANCH  49  70
BRANCH  61  78
ATOM     78  C   UNL A   1      39.079  32.228  36.153  1.00  0.00     0.057 A 
ATOM     79  C   UNL A   1      39.507  33.540  36.397  1.00  0.00     0.134 A 
ATOM     80  C   UNL A   1      38.197  31.654  37.077  1.00  0.00     0.134 A 
ATOM     81  F   UNL A   1      40.362  34.143  35.557  1.00  0.00    -0.206 F 
ATOM     82  C   UNL A   1      39.090  34.244  37.528  1.00  0.00     0.040 A 
ATOM     83  C   UNL A   1      37.753  32.357  38.198  1.00  0.00     0.040 A 
ATOM     84  F   UNL A   1      37.741  30.405  36.899  1.00  0.00    -0.206 F 
ATOM     85  C   UNL A   1      38.206  33.655  38.429  1.00  0.00     0.006 A 
ENDBRANCH  61  78
ENDBRANCH  35  36
ENDBRANCH  28  30
ENDBRANCH  27  28
ENDBRANCH  26  27
ENDBRANCH  25  26
ENDBRANCH  24  25
ENDBRANCH  23  24
ENDBRANCH   1  23
TORSDOF 21
ENDMDL
