MODEL 1
REMARK VINA RESULT:     -10.2      0.000      0.000
REMARK SMILES C[C@H]1[NH2+]CC[C@@H]1C(=O)N[C@@H](CC(=O)OCCOCCOCCOC(=O)c1ccc(-c2c3nc(c(-c4c(F)cccc4F)c4ccc([nH]4)c(-c4c(F)cccc4F)c4nc(c(-c5c(F)cccc5F)c5ccc2[nH]5)C=C4)C=C3)cc1)c1cccs1
REMARK SMILES IDX 18 1 17 2 16 3 15 4 14 5 12 6 13 7 11 8 10 9 9 10 7 11 8 12
REMARK SMILES IDX 6 14 1 15 2 16 3 17 4 18 5 21 80 22 81 23 84 24 82 25 83 26
REMARK SMILES IDX 19 27 20 28 21 29 22 30 23 31 24 32 25 33 26 34 27 35 79 36
REMARK SMILES IDX 28 37 78 38 29 39 30 40 31 41 72 42 32 43 77 44 71 45 73 46
REMARK SMILES IDX 33 47 76 48 70 49 69 50 34 52 60 53 43 54 59 55 44 56 47 57
REMARK SMILES IDX 58 58 74 59 45 60 46 61 57 63 75 64 48 65 35 66 36 67 41 68
REMARK SMILES IDX 37 69 38 70 40 71 42 72 39 73 61 74 62 75 67 76 63 77 64 78
REMARK SMILES IDX 66 79 68 80 65 81 49 82 50 83 55 84 51 85 52 86 54 87 56 88
REMARK SMILES IDX 53 89
REMARK H PARENT 9 13 3 19 3 20 73 51 47 62
REMARK Flexibility Score: inf
ROOT
ATOM      1  C   UNL A   1      34.475  33.350  27.775  1.00  0.00     0.188 C 
ENDROOT
BRANCH   1   2
ATOM      2  O   UNL A   1      34.556  31.938  27.604  1.00  0.00    -0.376 OA
BRANCH   2   3
ATOM      3  C   UNL A   1      33.354  31.179  27.607  1.00  0.00     0.202 C 
BRANCH   3   4
ATOM      4  C   UNL A   1      33.496  29.761  27.048  1.00  0.00     0.261 C 
BRANCH   4   5
ATOM      5  O   UNL A   1      32.485  28.861  27.563  1.00  0.00    -0.463 OA
BRANCH   5   6
ATOM      6  C   UNL A   1      31.917  28.040  26.653  1.00  0.00     0.308 C 
ATOM      7  O   UNL A   1      31.331  26.998  26.934  1.00  0.00    -0.252 OA
BRANCH   6   8
ATOM      8  C   UNL A   1      31.890  28.575  25.241  1.00  0.00     0.153 C 
BRANCH   8   9
ATOM      9  C   UNL A   1      31.457  27.769  24.008  1.00  0.00     0.133 C 
BRANCH   9  10
ATOM     10  N   UNL A   1      32.456  27.440  23.020  1.00  0.00    -0.347 N 
ATOM     11  C   UNL A   1      33.022  26.222  22.734  1.00  0.00     0.229 C 
ATOM     12  O   UNL A   1      33.684  26.176  21.694  1.00  0.00    -0.275 OA
ATOM     13  H   UNL A   1      32.777  28.194  22.474  1.00  0.00     0.164 HD
BRANCH  11  14
ATOM     14  C   UNL A   1      32.974  25.042  23.732  1.00  0.00     0.142 C 
ATOM     15  C   UNL A   1      33.946  24.555  26.030  1.00  0.00     0.076 C 
ATOM     16  C   UNL A   1      34.261  24.959  24.584  1.00  0.00     0.192 C 
ATOM     17  N   UNL A   1      35.118  23.919  23.972  1.00  0.00    -0.343 N 
ATOM     18  C   UNL A   1      34.346  23.236  22.943  1.00  0.00     0.261 C 
ATOM     19  H   UNL A   1      35.412  23.251  24.684  1.00  0.00     0.346 HD
ATOM     20  H   UNL A   1      35.950  24.346  23.563  1.00  0.00     0.346 HD
ATOM     21  C   UNL A   1      32.907  23.615  23.205  1.00  0.00     0.081 C 
ENDBRANCH  11  14
ENDBRANCH   9  10
BRANCH   9  22
ATOM     22  C   UNL A   1      30.186  28.305  23.340  1.00  0.00     0.027 A 
ATOM     23  C   UNL A   1      30.030  29.555  22.758  1.00  0.00     0.017 A 
ATOM     24  S   UNL A   1      28.666  27.497  23.426  1.00  0.00    -0.147 S 
ATOM     25  C   UNL A   1      28.667  29.872  22.477  1.00  0.00     0.012 A 
ATOM     26  C   UNL A   1      27.824  28.826  22.771  1.00  0.00     0.065 A 
ENDBRANCH   9  22
ENDBRANCH   8   9
ENDBRANCH   6   8
ENDBRANCH   5   6
ENDBRANCH   4   5
ENDBRANCH   3   4
ENDBRANCH   2   3
ENDBRANCH   1   2
BRANCH   1  27
ATOM     27  C   UNL A   1      33.110  34.013  27.967  1.00  0.00     0.188 C 
BRANCH  27  28
ATOM     28  O   UNL A   1      32.875  34.397  29.315  1.00  0.00    -0.376 OA
BRANCH  28  29
ATOM     29  C   UNL A   1      34.065  34.717  30.032  1.00  0.00     0.202 C 
BRANCH  29  30
ATOM     30  C   UNL A   1      34.053  33.957  31.358  1.00  0.00     0.261 C 
BRANCH  30  31
ATOM     31  O   UNL A   1      34.587  32.624  31.231  1.00  0.00    -0.460 OA
BRANCH  31  32
ATOM     32  C   UNL A   1      35.492  32.276  32.171  1.00  0.00     0.338 C 
ATOM     33  O   UNL A   1      35.430  32.473  33.371  1.00  0.00    -0.246 OA
BRANCH  32  34
ATOM     34  C   UNL A   1      36.557  31.492  31.528  1.00  0.00     0.060 A 
ATOM     35  C   UNL A   1      37.288  30.591  32.305  1.00  0.00     0.016 A 
ATOM     36  C   UNL A   1      36.902  31.717  30.199  1.00  0.00     0.016 A 
ATOM     37  C   UNL A   1      38.417  29.962  31.785  1.00  0.00     0.010 A 
ATOM     38  C   UNL A   1      38.014  31.059  29.664  1.00  0.00     0.010 A 
ATOM     39  C   UNL A   1      38.800  30.206  30.463  1.00  0.00    -0.014 A 
BRANCH  39  40
ATOM     40  C   UNL A   1      40.081  29.667  29.941  1.00  0.00     0.031 A 
ATOM     41  C   UNL A   1      41.280  30.570  29.870  1.00  0.00     0.074 A 
ATOM     42  C   UNL A   1      40.189  28.385  29.549  1.00  0.00     0.049 A 
ATOM     43  N   UNL A   1      42.423  30.387  29.263  1.00  0.00    -0.248 NA
ATOM     44  C   UNL A   1      41.171  31.856  30.579  1.00  0.00     0.031 C 
ATOM     45  C   UNL A   1      39.137  27.373  29.647  1.00  0.00     0.029 A 
ATOM     46  N   UNL A   1      41.244  27.719  28.975  1.00  0.00    -0.354 N 
ATOM     47  C   UNL A   1      43.150  31.552  29.473  1.00  0.00     0.074 A 
ATOM     48  C   UNL A   1      42.323  32.433  30.268  1.00  0.00     0.031 C 
ATOM     49  C   UNL A   1      39.599  26.216  29.145  1.00  0.00     0.029 A 
ATOM     50  C   UNL A   1      40.947  26.424  28.626  1.00  0.00     0.049 A 
ATOM     51  H   UNL A   1      42.126  28.130  28.827  1.00  0.00     0.167 HD
ATOM     52  C   UNL A   1      44.394  31.860  29.032  1.00  0.00     0.037 A 
ATOM     53  C   UNL A   1      41.662  25.526  27.921  1.00  0.00     0.037 A 
ATOM     54  C   UNL A   1      45.228  30.970  28.272  1.00  0.00     0.049 A 
ATOM     55  C   UNL A   1      43.009  25.915  27.377  1.00  0.00     0.074 A 
ATOM     56  C   UNL A   1      46.502  31.190  27.779  1.00  0.00     0.029 A 
ATOM     57  N   UNL A   1      44.874  29.681  27.904  1.00  0.00    -0.354 N 
ATOM     58  N   UNL A   1      43.665  27.041  27.518  1.00  0.00    -0.248 NA
ATOM     59  C   UNL A   1      43.705  24.913  26.556  1.00  0.00     0.031 C 
ATOM     60  C   UNL A   1      46.907  30.044  27.084  1.00  0.00     0.029 A 
ATOM     61  C   UNL A   1      45.899  29.098  27.178  1.00  0.00     0.049 A 
ATOM     62  H   UNL A   1      44.019  29.244  28.126  1.00  0.00     0.167 HD
ATOM     63  C   UNL A   1      44.853  26.880  26.816  1.00  0.00     0.074 A 
ATOM     64  C   UNL A   1      44.836  25.541  26.265  1.00  0.00     0.031 C 
ATOM     65  C   UNL A   1      45.866  27.763  26.639  1.00  0.00     0.037 A 
BRANCH  52  66
ATOM     66  C   UNL A   1      44.905  33.238  29.328  1.00  0.00     0.057 A 
ATOM     67  C   UNL A   1      45.741  33.504  30.419  1.00  0.00     0.134 A 
ATOM     68  C   UNL A   1      44.569  34.310  28.491  1.00  0.00     0.134 A 
ATOM     69  F   UNL A   1      46.083  32.523  31.269  1.00  0.00    -0.206 F 
ATOM     70  C   UNL A   1      46.210  34.793  30.678  1.00  0.00     0.040 A 
ATOM     71  C   UNL A   1      45.049  35.598  28.727  1.00  0.00     0.040 A 
ATOM     72  F   UNL A   1      43.771  34.120  27.429  1.00  0.00    -0.206 F 
ATOM     73  C   UNL A   1      45.869  35.843  29.826  1.00  0.00     0.006 A 
ENDBRANCH  52  66
BRANCH  53  74
ATOM     74  C   UNL A   1      41.094  24.186  27.634  1.00  0.00     0.057 A 
ATOM     75  C   UNL A   1      41.556  23.046  28.299  1.00  0.00     0.134 A 
ATOM     76  C   UNL A   1      40.089  24.011  26.674  1.00  0.00     0.134 A 
ATOM     77  F   UNL A   1      42.536  23.148  29.210  1.00  0.00    -0.206 F 
ATOM     78  C   UNL A   1      41.047  21.777  28.014  1.00  0.00     0.040 A 
ATOM     79  C   UNL A   1      39.554  22.753  26.396  1.00  0.00     0.040 A 
ATOM     80  F   UNL A   1      39.608  25.065  25.998  1.00  0.00    -0.206 F 
ATOM     81  C   UNL A   1      40.039  21.630  27.064  1.00  0.00     0.006 A 
ENDBRANCH  53  74
BRANCH  65  82
ATOM     82  C   UNL A   1      47.047  27.298  25.842  1.00  0.00     0.057 A 
ATOM     83  C   UNL A   1      47.154  27.548  24.469  1.00  0.00     0.134 A 
ATOM     84  C   UNL A   1      48.106  26.623  26.463  1.00  0.00     0.134 A 
ATOM     85  F   UNL A   1      46.166  28.177  23.814  1.00  0.00    -0.206 F 
ATOM     86  C   UNL A   1      48.263  27.123  23.736  1.00  0.00     0.040 A 
ATOM     87  C   UNL A   1      49.230  26.213  25.746  1.00  0.00     0.040 A 
ATOM     88  F   UNL A   1      48.067  26.360  27.778  1.00  0.00    -0.206 F 
ATOM     89  C   UNL A   1      49.308  26.460  24.376  1.00  0.00     0.006 A 
ENDBRANCH  65  82
ENDBRANCH  39  40
ENDBRANCH  32  34
ENDBRANCH  31  32
ENDBRANCH  30  31
ENDBRANCH  29  30
ENDBRANCH  28  29
ENDBRANCH  27  28
ENDBRANCH   1  27
TORSDOF 21
ENDMDL
MODEL 2
REMARK VINA RESULT:     -10.0      1.298      2.233
REMARK SMILES C[C@H]1[NH2+]CC[C@@H]1C(=O)N[C@@H](CC(=O)OCCOCCOCCOC(=O)c1ccc(-c2c3nc(c(-c4c(F)cccc4F)c4ccc([nH]4)c(-c4c(F)cccc4F)c4nc(c(-c5c(F)cccc5F)c5ccc2[nH]5)C=C4)C=C3)cc1)c1cccs1
REMARK SMILES IDX 18 1 17 2 16 3 15 4 14 5 12 6 13 7 11 8 10 9 9 10 7 11 8 12
REMARK SMILES IDX 6 14 1 15 2 16 3 17 4 18 5 21 80 22 81 23 84 24 82 25 83 26
REMARK SMILES IDX 19 27 20 28 21 29 22 30 23 31 24 32 25 33 26 34 27 35 79 36
REMARK SMILES IDX 28 37 78 38 29 39 30 40 31 41 72 42 32 43 77 44 71 45 73 46
REMARK SMILES IDX 33 47 76 48 70 49 69 50 34 52 60 53 43 54 59 55 44 56 47 57
REMARK SMILES IDX 58 58 74 59 45 60 46 61 57 63 75 64 48 65 35 66 36 67 41 68
REMARK SMILES IDX 37 69 38 70 40 71 42 72 39 73 61 74 62 75 67 76 63 77 64 78
REMARK SMILES IDX 66 79 68 80 65 81 49 82 50 83 55 84 51 85 52 86 54 87 56 88
REMARK SMILES IDX 53 89
REMARK H PARENT 9 13 3 19 3 20 73 51 47 62
REMARK Flexibility Score: inf
ROOT
ATOM      1  C   UNL A   1      34.055  31.604  27.417  1.00  0.00     0.188 C 
ENDROOT
BRANCH   1   2
ATOM      2  O   UNL A   1      33.249  30.447  27.620  1.00  0.00    -0.376 OA
BRANCH   2   3
ATOM      3  C   UNL A   1      32.085  30.277  26.822  1.00  0.00     0.202 C 
BRANCH   3   4
ATOM      4  C   UNL A   1      31.535  28.848  26.796  1.00  0.00     0.261 C 
BRANCH   4   5
ATOM      5  O   UNL A   1      32.461  27.890  27.361  1.00  0.00    -0.463 OA
BRANCH   5   6
ATOM      6  C   UNL A   1      33.193  27.187  26.467  1.00  0.00     0.308 C 
ATOM      7  O   UNL A   1      34.247  27.582  25.977  1.00  0.00    -0.252 OA
BRANCH   6   8
ATOM      8  C   UNL A   1      32.718  25.775  26.226  1.00  0.00     0.153 C 
BRANCH   8   9
ATOM      9  C   UNL A   1      32.077  25.278  24.923  1.00  0.00     0.133 C 
BRANCH   9  10
ATOM     10  N   UNL A   1      32.883  24.492  24.018  1.00  0.00    -0.347 N 
ATOM     11  C   UNL A   1      33.136  23.144  24.035  1.00  0.00     0.229 C 
ATOM     12  O   UNL A   1      33.673  22.692  23.019  1.00  0.00    -0.275 OA
ATOM     13  H   UNL A   1      33.312  24.995  23.288  1.00  0.00     0.164 HD
BRANCH  11  14
ATOM     14  C   UNL A   1      32.919  22.284  25.302  1.00  0.00     0.142 C 
ATOM     15  C   UNL A   1      34.043  22.064  27.571  1.00  0.00     0.076 C 
ATOM     16  C   UNL A   1      34.245  22.023  26.052  1.00  0.00     0.192 C 
ATOM     17  N   UNL A   1      34.702  20.669  25.665  1.00  0.00    -0.343 N 
ATOM     18  C   UNL A   1      33.638  20.028  24.904  1.00  0.00     0.261 C 
ATOM     19  H   UNL A   1      34.906  20.122  26.501  1.00  0.00     0.346 HD
ATOM     20  H   UNL A   1      35.550  20.732  25.101  1.00  0.00     0.346 HD
ATOM     21  C   UNL A   1      32.404  20.858  25.163  1.00  0.00     0.081 C 
ENDBRANCH  11  14
ENDBRANCH   9  10
BRANCH   9  22
ATOM     22  C   UNL A   1      31.309  26.365  24.163  1.00  0.00     0.027 A 
ATOM     23  C   UNL A   1      29.958  26.657  24.291  1.00  0.00     0.017 A 
ATOM     24  S   UNL A   1      31.983  27.244  22.842  1.00  0.00    -0.147 S 
ATOM     25  C   UNL A   1      29.474  27.516  23.260  1.00  0.00     0.012 A 
ATOM     26  C   UNL A   1      30.481  27.929  22.419  1.00  0.00     0.065 A 
ENDBRANCH   9  22
ENDBRANCH   8   9
ENDBRANCH   6   8
ENDBRANCH   5   6
ENDBRANCH   4   5
ENDBRANCH   3   4
ENDBRANCH   2   3
ENDBRANCH   1   2
BRANCH   1  27
ATOM     27  C   UNL A   1      33.601  32.952  27.982  1.00  0.00     0.188 C 
BRANCH  27  28
ATOM     28  O   UNL A   1      34.578  33.970  27.813  1.00  0.00    -0.376 OA
BRANCH  28  29
ATOM     29  C   UNL A   1      34.516  34.990  28.808  1.00  0.00     0.202 C 
BRANCH  29  30
ATOM     30  C   UNL A   1      34.224  34.335  30.158  1.00  0.00     0.261 C 
BRANCH  30  31
ATOM     31  O   UNL A   1      35.420  33.860  30.807  1.00  0.00    -0.460 OA
BRANCH  31  32
ATOM     32  C   UNL A   1      35.317  32.642  31.380  1.00  0.00     0.338 C 
ATOM     33  O   UNL A   1      34.424  32.232  32.099  1.00  0.00    -0.246 OA
BRANCH  32  34
ATOM     34  C   UNL A   1      36.427  31.804  30.901  1.00  0.00     0.060 A 
ATOM     35  C   UNL A   1      37.197  31.111  31.837  1.00  0.00     0.016 A 
ATOM     36  C   UNL A   1      36.771  31.784  29.553  1.00  0.00     0.016 A 
ATOM     37  C   UNL A   1      38.360  30.453  31.448  1.00  0.00     0.010 A 
ATOM     38  C   UNL A   1      37.920  31.093  29.155  1.00  0.00     0.010 A 
ATOM     39  C   UNL A   1      38.743  30.455  30.104  1.00  0.00    -0.014 A 
BRANCH  39  40
ATOM     40  C   UNL A   1      40.054  29.892  29.695  1.00  0.00     0.031 A 
ATOM     41  C   UNL A   1      41.262  30.787  29.683  1.00  0.00     0.074 A 
ATOM     42  C   UNL A   1      40.181  28.597  29.355  1.00  0.00     0.049 A 
ATOM     43  N   UNL A   1      42.445  30.578  29.168  1.00  0.00    -0.248 NA
ATOM     44  C   UNL A   1      41.111  32.096  30.338  1.00  0.00     0.031 C 
ATOM     45  C   UNL A   1      39.118  27.594  29.409  1.00  0.00     0.029 A 
ATOM     46  N   UNL A   1      41.270  27.907  28.882  1.00  0.00    -0.354 N 
ATOM     47  C   UNL A   1      43.163  31.745  29.391  1.00  0.00     0.074 A 
ATOM     48  C   UNL A   1      42.287  32.657  30.094  1.00  0.00     0.031 C 
ATOM     49  C   UNL A   1      39.606  26.418  28.980  1.00  0.00     0.029 A 
ATOM     50  C   UNL A   1      40.991  26.603  28.556  1.00  0.00     0.049 A 
ATOM     51  H   UNL A   1      42.164  28.308  28.786  1.00  0.00     0.167 HD
ATOM     52  C   UNL A   1      44.438  32.032  29.033  1.00  0.00     0.037 A 
ATOM     53  C   UNL A   1      41.748  25.678  27.935  1.00  0.00     0.037 A 
ATOM     54  C   UNL A   1      45.319  31.113  28.366  1.00  0.00     0.049 A 
ATOM     55  C   UNL A   1      43.135  26.041  27.479  1.00  0.00     0.074 A 
ATOM     56  C   UNL A   1      46.627  31.310  27.960  1.00  0.00     0.029 A 
ATOM     57  N   UNL A   1      44.983  29.814  28.016  1.00  0.00    -0.354 N 
ATOM     58  N   UNL A   1      43.787  27.169  27.630  1.00  0.00    -0.248 NA
ATOM     59  C   UNL A   1      43.882  25.009  26.745  1.00  0.00     0.031 C 
ATOM     60  C   UNL A   1      47.073  30.140  27.336  1.00  0.00     0.029 A 
ATOM     61  C   UNL A   1      46.054  29.202  27.387  1.00  0.00     0.049 A 
ATOM     62  H   UNL A   1      44.112  29.389  28.189  1.00  0.00     0.167 HD
ATOM     63  C   UNL A   1      45.021  26.978  27.023  1.00  0.00     0.074 A 
ATOM     64  C   UNL A   1      45.035  25.622  26.517  1.00  0.00     0.031 C 
ATOM     65  C   UNL A   1      46.051  27.850  26.891  1.00  0.00     0.037 A 
BRANCH  52  66
ATOM     66  C   UNL A   1      44.937  33.416  29.319  1.00  0.00     0.057 A 
ATOM     67  C   UNL A   1      44.752  34.475  28.422  1.00  0.00     0.134 A 
ATOM     68  C   UNL A   1      45.595  33.694  30.524  1.00  0.00     0.134 A 
ATOM     69  F   UNL A   1      44.146  34.270  27.243  1.00  0.00    -0.206 F 
ATOM     70  C   UNL A   1      45.221  35.759  28.706  1.00  0.00     0.040 A 
ATOM     71  C   UNL A   1      46.050  34.978  30.828  1.00  0.00     0.040 A 
ATOM     72  F   UNL A   1      45.804  32.722  31.425  1.00  0.00    -0.206 F 
ATOM     73  C   UNL A   1      45.867  36.014  29.916  1.00  0.00     0.006 A 
ENDBRANCH  52  66
BRANCH  53  74
ATOM     74  C   UNL A   1      41.193  24.332  27.651  1.00  0.00     0.057 A 
ATOM     75  C   UNL A   1      40.226  24.142  26.658  1.00  0.00     0.134 A 
ATOM     76  C   UNL A   1      41.600  23.207  28.379  1.00  0.00     0.134 A 
ATOM     77  F   UNL A   1      39.777  25.187  25.946  1.00  0.00    -0.206 F 
ATOM     78  C   UNL A   1      39.677  22.884  26.404  1.00  0.00     0.040 A 
ATOM     79  C   UNL A   1      41.078  21.940  28.120  1.00  0.00     0.040 A 
ATOM     80  F   UNL A   1      42.520  23.324  29.348  1.00  0.00    -0.206 F 
ATOM     81  C   UNL A   1      40.108  21.777  27.132  1.00  0.00     0.006 A 
ENDBRANCH  53  74
BRANCH  65  82
ATOM     82  C   UNL A   1      47.284  27.353  26.199  1.00  0.00     0.057 A 
ATOM     83  C   UNL A   1      48.308  26.702  26.897  1.00  0.00     0.134 A 
ATOM     84  C   UNL A   1      47.433  27.499  24.814  1.00  0.00     0.134 A 
ATOM     85  F   UNL A   1      48.231  26.545  28.227  1.00  0.00    -0.206 F 
ATOM     86  C   UNL A   1      49.448  26.230  26.243  1.00  0.00     0.040 A 
ATOM     87  C   UNL A   1      48.557  27.012  24.147  1.00  0.00     0.040 A 
ATOM     88  F   UNL A   1      46.483  28.108  24.088  1.00  0.00    -0.206 F 
ATOM     89  C   UNL A   1      49.572  26.379  24.864  1.00  0.00     0.006 A 
ENDBRANCH  65  82
ENDBRANCH  39  40
ENDBRANCH  32  34
ENDBRANCH  31  32
ENDBRANCH  30  31
ENDBRANCH  29  30
ENDBRANCH  28  29
ENDBRANCH  27  28
ENDBRANCH   1  27
TORSDOF 21
ENDMDL
MODEL 3
REMARK VINA RESULT:      -9.6      1.269      6.344
REMARK SMILES C[C@H]1[NH2+]CC[C@@H]1C(=O)N[C@@H](CC(=O)OCCOCCOCCOC(=O)c1ccc(-c2c3nc(c(-c4c(F)cccc4F)c4ccc([nH]4)c(-c4c(F)cccc4F)c4nc(c(-c5c(F)cccc5F)c5ccc2[nH]5)C=C4)C=C3)cc1)c1cccs1
REMARK SMILES IDX 18 1 17 2 16 3 15 4 14 5 12 6 13 7 11 8 10 9 9 10 7 11 8 12
REMARK SMILES IDX 6 14 1 15 2 16 3 17 4 18 5 21 80 22 81 23 84 24 82 25 83 26
REMARK SMILES IDX 19 27 20 28 21 29 22 30 23 31 24 32 25 33 26 34 27 35 79 36
REMARK SMILES IDX 28 37 78 38 29 39 30 40 31 41 72 42 32 43 77 44 71 45 73 46
REMARK SMILES IDX 33 47 76 48 70 49 69 50 34 52 60 53 43 54 59 55 44 56 47 57
REMARK SMILES IDX 58 58 74 59 45 60 46 61 57 63 75 64 48 65 35 66 36 67 41 68
REMARK SMILES IDX 37 69 38 70 40 71 42 72 39 73 61 74 62 75 67 76 63 77 64 78
REMARK SMILES IDX 66 79 68 80 65 81 49 82 50 83 55 84 51 85 52 86 54 87 56 88
REMARK SMILES IDX 53 89
REMARK H PARENT 9 13 3 19 3 20 73 51 47 62
REMARK Flexibility Score: inf
ROOT
ATOM      1  C   UNL A   1      35.411  33.796  28.801  1.00  0.00     0.188 C 
ENDROOT
BRANCH   1   2
ATOM      2  O   UNL A   1      35.279  33.000  27.627  1.00  0.00    -0.376 OA
BRANCH   2   3
ATOM      3  C   UNL A   1      35.226  31.586  27.762  1.00  0.00     0.202 C 
BRANCH   3   4
ATOM      4  C   UNL A   1      33.828  30.984  27.606  1.00  0.00     0.261 C 
BRANCH   4   5
ATOM      5  O   UNL A   1      33.832  29.541  27.716  1.00  0.00    -0.463 OA
BRANCH   5   6
ATOM      6  C   UNL A   1      33.689  28.866  26.554  1.00  0.00     0.308 C 
ATOM      7  O   UNL A   1      34.411  29.023  25.572  1.00  0.00    -0.252 OA
BRANCH   6   8
ATOM      8  C   UNL A   1      32.672  27.751  26.585  1.00  0.00     0.153 C 
BRANCH   8   9
ATOM      9  C   UNL A   1      32.354  26.824  25.403  1.00  0.00     0.133 C 
BRANCH   9  10
ATOM     10  N   UNL A   1      33.454  26.212  24.696  1.00  0.00    -0.347 N 
ATOM     11  C   UNL A   1      33.608  24.907  24.300  1.00  0.00     0.229 C 
ATOM     12  O   UNL A   1      34.538  24.697  23.517  1.00  0.00    -0.275 OA
ATOM     13  H   UNL A   1      34.198  26.814  24.468  1.00  0.00     0.164 HD
BRANCH  11  14
ATOM     14  C   UNL A   1      32.781  23.758  24.922  1.00  0.00     0.142 C 
ATOM     15  C   UNL A   1      33.288  21.696  26.320  1.00  0.00     0.076 C 
ATOM     16  C   UNL A   1      33.601  22.451  25.023  1.00  0.00     0.192 C 
ATOM     17  N   UNL A   1      33.212  21.607  23.871  1.00  0.00    -0.343 N 
ATOM     18  C   UNL A   1      32.071  22.229  23.212  1.00  0.00     0.261 C 
ATOM     19  H   UNL A   1      32.956  20.675  24.197  1.00  0.00     0.346 HD
ATOM     20  H   UNL A   1      33.992  21.521  23.219  1.00  0.00     0.346 HD
ATOM     21  C   UNL A   1      31.544  23.244  24.198  1.00  0.00     0.081 C 
ENDBRANCH  11  14
ENDBRANCH   9  10
BRANCH   9  22
ATOM     22  C   UNL A   1      31.335  27.411  24.420  1.00  0.00     0.027 A 
ATOM     23  C   UNL A   1      30.000  27.047  24.306  1.00  0.00     0.017 A 
ATOM     24  S   UNL A   1      31.773  28.467  23.129  1.00  0.00    -0.147 S 
ATOM     25  C   UNL A   1      29.382  27.557  23.125  1.00  0.00     0.012 A 
ATOM     26  C   UNL A   1      30.232  28.366  22.408  1.00  0.00     0.065 A 
ENDBRANCH   9  22
ENDBRANCH   8   9
ENDBRANCH   6   8
ENDBRANCH   5   6
ENDBRANCH   4   5
ENDBRANCH   3   4
ENDBRANCH   2   3
ENDBRANCH   1   2
BRANCH   1  27
ATOM     27  C   UNL A   1      34.201  34.563  29.337  1.00  0.00     0.188 C 
BRANCH  27  28
ATOM     28  O   UNL A   1      33.858  34.183  30.662  1.00  0.00    -0.376 OA
BRANCH  28  29
ATOM     29  C   UNL A   1      34.987  34.027  31.520  1.00  0.00     0.202 C 
BRANCH  29  30
ATOM     30  C   UNL A   1      34.629  33.022  32.615  1.00  0.00     0.261 C 
BRANCH  30  31
ATOM     31  O   UNL A   1      35.423  31.821  32.536  1.00  0.00    -0.460 OA
BRANCH  31  32
ATOM     32  C   UNL A   1      36.645  31.903  33.105  1.00  0.00     0.338 C 
ATOM     33  O   UNL A   1      36.925  32.343  34.205  1.00  0.00    -0.246 OA
BRANCH  32  34
ATOM     34  C   UNL A   1      37.620  31.253  32.215  1.00  0.00     0.060 A 
ATOM     35  C   UNL A   1      38.713  30.597  32.783  1.00  0.00     0.016 A 
ATOM     36  C   UNL A   1      37.515  31.380  30.834  1.00  0.00     0.016 A 
ATOM     37  C   UNL A   1      39.750  30.126  31.982  1.00  0.00     0.010 A 
ATOM     38  C   UNL A   1      38.538  30.875  30.025  1.00  0.00     0.010 A 
ATOM     39  C   UNL A   1      39.680  30.279  30.595  1.00  0.00    -0.014 A 
BRANCH  39  40
ATOM     40  C   UNL A   1      40.839  29.922  29.740  1.00  0.00     0.031 A 
ATOM     41  C   UNL A   1      40.913  28.543  29.146  1.00  0.00     0.074 A 
ATOM     42  C   UNL A   1      41.811  30.813  29.476  1.00  0.00     0.049 A 
ATOM     43  N   UNL A   1      41.914  27.945  28.556  1.00  0.00    -0.248 NA
ATOM     44  C   UNL A   1      39.689  27.729  29.234  1.00  0.00     0.031 C 
ATOM     45  C   UNL A   1      41.825  32.211  29.907  1.00  0.00     0.029 A 
ATOM     46  N   UNL A   1      42.988  30.663  28.784  1.00  0.00    -0.354 N 
ATOM     47  C   UNL A   1      41.460  26.669  28.247  1.00  0.00     0.074 A 
ATOM     48  C   UNL A   1      40.092  26.580  28.709  1.00  0.00     0.031 C 
ATOM     49  C   UNL A   1      42.958  32.789  29.475  1.00  0.00     0.029 A 
ATOM     50  C   UNL A   1      43.778  31.786  28.800  1.00  0.00     0.049 A 
ATOM     51  H   UNL A   1      43.240  29.832  28.321  1.00  0.00     0.167 HD
ATOM     52  C   UNL A   1      42.131  25.660  27.641  1.00  0.00     0.037 A 
ATOM     53  C   UNL A   1      45.041  31.970  28.369  1.00  0.00     0.037 A 
ATOM     54  C   UNL A   1      43.479  25.761  27.151  1.00  0.00     0.049 A 
ATOM     55  C   UNL A   1      45.793  30.815  27.767  1.00  0.00     0.074 A 
ATOM     56  C   UNL A   1      44.245  24.795  26.524  1.00  0.00     0.029 A 
ATOM     57  N   UNL A   1      44.259  26.905  27.225  1.00  0.00    -0.354 N 
ATOM     58  N   UNL A   1      45.384  29.590  27.539  1.00  0.00    -0.248 NA
ATOM     59  C   UNL A   1      47.190  31.064  27.382  1.00  0.00     0.031 C 
ATOM     60  C   UNL A   1      45.502  25.344  26.246  1.00  0.00     0.029 A 
ATOM     61  C   UNL A   1      45.504  26.665  26.667  1.00  0.00     0.049 A 
ATOM     62  H   UNL A   1      43.971  27.761  27.617  1.00  0.00     0.167 HD
ATOM     63  C   UNL A   1      46.467  28.928  26.975  1.00  0.00     0.074 A 
ATOM     64  C   UNL A   1      47.544  29.890  26.878  1.00  0.00     0.031 C 
ATOM     65  C   UNL A   1      46.563  27.635  26.577  1.00  0.00     0.037 A 
BRANCH  52  66
ATOM     66  C   UNL A   1      41.424  24.344  27.515  1.00  0.00     0.057 A 
ATOM     67  C   UNL A   1      40.420  24.125  26.565  1.00  0.00     0.134 A 
ATOM     68  C   UNL A   1      41.773  23.274  28.349  1.00  0.00     0.134 A 
ATOM     69  F   UNL A   1      40.026  25.117  25.751  1.00  0.00    -0.206 F 
ATOM     70  C   UNL A   1      39.774  22.892  26.461  1.00  0.00     0.040 A 
ATOM     71  C   UNL A   1      41.150  22.030  28.239  1.00  0.00     0.040 A 
ATOM     72  F   UNL A   1      42.728  23.420  29.280  1.00  0.00    -0.206 F 
ATOM     73  C   UNL A   1      40.143  21.838  27.296  1.00  0.00     0.006 A 
ENDBRANCH  52  66
BRANCH  53  74
ATOM     74  C   UNL A   1      45.701  33.287  28.545  1.00  0.00     0.057 A 
ATOM     75  C   UNL A   1      45.628  34.272  27.554  1.00  0.00     0.134 A 
ATOM     76  C   UNL A   1      46.435  33.585  29.699  1.00  0.00     0.134 A 
ATOM     77  F   UNL A   1      44.961  34.033  26.415  1.00  0.00    -0.206 F 
ATOM     78  C   UNL A   1      46.271  35.503  27.699  1.00  0.00     0.040 A 
ATOM     79  C   UNL A   1      47.063  34.820  29.869  1.00  0.00     0.040 A 
ATOM     80  F   UNL A   1      46.547  32.681  30.684  1.00  0.00    -0.206 F 
ATOM     81  C   UNL A   1      46.986  35.781  28.862  1.00  0.00     0.006 A 
ENDBRANCH  53  74
BRANCH  65  82
ATOM     82  C   UNL A   1      47.865  27.199  25.976  1.00  0.00     0.057 A 
ATOM     83  C   UNL A   1      48.899  26.675  26.760  1.00  0.00     0.134 A 
ATOM     84  C   UNL A   1      48.074  27.276  24.593  1.00  0.00     0.134 A 
ATOM     85  F   UNL A   1      48.766  26.590  28.092  1.00  0.00    -0.206 F 
ATOM     86  C   UNL A   1      50.104  26.258  26.192  1.00  0.00     0.040 A 
ATOM     87  C   UNL A   1      49.265  26.843  24.011  1.00  0.00     0.040 A 
ATOM     88  F   UNL A   1      47.119  27.763  23.786  1.00  0.00    -0.206 F 
ATOM     89  C   UNL A   1      50.287  26.336  24.813  1.00  0.00     0.006 A 
ENDBRANCH  65  82
ENDBRANCH  39  40
ENDBRANCH  32  34
ENDBRANCH  31  32
ENDBRANCH  30  31
ENDBRANCH  29  30
ENDBRANCH  28  29
ENDBRANCH  27  28
ENDBRANCH   1  27
TORSDOF 21
ENDMDL
