MODEL 1
REMARK VINA RESULT:     -10.9      0.000      0.000
REMARK SMILES CCOc1ccc(C(=O)N2CCC(C(=O)OCCOCCOCCOC(=O)c3ccc(-c4c5nc(c(-c6c(F)cccc6F)c6ccc([nH]6)c(-c6c(F)cccc6F)c6nc(c(-c7c(F)cccc7F)c7ccc4[nH]7)C=C6)C=C5)cc3)(c3ccccc3)CC2)cc1OC
REMARK SMILES IDX 20 1 19 2 18 3 17 4 16 5 14 6 15 7 13 8 8 9 9 10 10 11 11 12
REMARK SMILES IDX 89 13 12 14 88 15 7 16 4 17 5 18 91 19 6 20 90 21 3 22 2 23
REMARK SMILES IDX 1 24 92 25 93 26 82 27 83 28 87 29 84 30 86 31 85 32 21 33
REMARK SMILES IDX 22 34 23 35 24 36 25 37 26 38 27 39 28 40 29 41 81 42 30 43
REMARK SMILES IDX 80 44 31 45 32 46 33 47 74 48 34 49 79 50 73 51 75 52 35 53
REMARK SMILES IDX 78 54 72 55 71 56 36 58 62 59 45 60 61 61 46 62 49 63 60 64
REMARK SMILES IDX 76 65 47 66 48 67 59 69 77 70 50 71 37 72 38 73 43 74 39 75
REMARK SMILES IDX 40 76 42 77 44 78 41 79 63 80 64 81 69 82 65 83 66 84 68 85
REMARK SMILES IDX 70 86 67 87 51 88 52 89 57 90 53 91 54 92 56 93 58 94 55 95
REMARK H PARENT 75 57 49 68
REMARK Flexibility Score: inf
ROOT
ATOM      1  C   UNL A   1      33.470  21.915  24.371  1.00  0.00     0.188 C 
ENDROOT
BRANCH   1   2
ATOM      2  O   UNL A   1      32.309  22.731  24.215  1.00  0.00    -0.376 OA
BRANCH   2   3
ATOM      3  C   UNL A   1      31.953  23.175  22.913  1.00  0.00     0.202 C 
BRANCH   3   4
ATOM      4  C   UNL A   1      33.080  23.834  22.119  1.00  0.00     0.261 C 
BRANCH   4   5
ATOM      5  O   UNL A   1      33.785  24.827  22.885  1.00  0.00    -0.463 OA
BRANCH   5   6
ATOM      6  C   UNL A   1      33.532  26.120  22.566  1.00  0.00     0.316 C 
ATOM      7  O   UNL A   1      33.694  26.580  21.438  1.00  0.00    -0.251 OA
BRANCH   6   8
ATOM      8  C   UNL A   1      33.036  26.987  23.767  1.00  0.00     0.096 C 
ATOM      9  C   UNL A   1      34.649  29.461  27.021  1.00  0.00     0.253 C 
ATOM     10  O   UNL A   1      35.382  28.942  27.863  1.00  0.00    -0.269 OA
ATOM     11  N   UNL A   1      34.129  28.729  25.941  1.00  0.00    -0.339 N 
ATOM     12  C   UNL A   1      33.573  27.432  26.286  1.00  0.00     0.121 C 
ATOM     13  C   UNL A   1      33.835  29.302  24.627  1.00  0.00     0.121 C 
ATOM     14  C   UNL A   1      33.486  26.428  25.142  1.00  0.00     0.045 C 
ATOM     15  C   UNL A   1      33.833  28.291  23.503  1.00  0.00     0.045 C 
BRANCH   9  16
ATOM     16  C   UNL A   1      34.181  30.860  27.266  1.00  0.00     0.043 A 
ATOM     17  C   UNL A   1      33.202  33.418  27.917  1.00  0.00     0.161 A 
ATOM     18  C   UNL A   1      34.508  33.041  28.274  1.00  0.00     0.051 A 
ATOM     19  C   UNL A   1      32.389  32.528  27.221  1.00  0.00     0.161 A 
ATOM     20  C   UNL A   1      35.001  31.771  27.938  1.00  0.00     0.018 A 
ATOM     21  C   UNL A   1      32.867  31.240  26.987  1.00  0.00     0.064 A 
BRANCH  17  22
ATOM     22  O   UNL A   1      32.760  34.669  28.239  1.00  0.00    -0.490 OA
BRANCH  22  23
ATOM     23  C   UNL A   1      33.057  35.024  29.596  1.00  0.00     0.226 C 
ATOM     24  C   UNL A   1      33.311  36.521  29.657  1.00  0.00     0.049 C 
ENDBRANCH  22  23
ENDBRANCH  17  22
BRANCH  19  25
ATOM     25  O   UNL A   1      31.122  32.685  26.742  1.00  0.00    -0.493 OA
ATOM     26  C   UNL A   1      30.625  31.781  25.771  1.00  0.00     0.278 C 
ENDBRANCH  19  25
ENDBRANCH   9  16
BRANCH   8  27
ATOM     27  C   UNL A   1      31.483  27.124  23.732  1.00  0.00    -0.031 A 
ATOM     28  C   UNL A   1      30.854  28.214  23.096  1.00  0.00     0.005 A 
ATOM     29  C   UNL A   1      30.618  26.148  24.264  1.00  0.00     0.005 A 
ATOM     30  C   UNL A   1      29.461  28.326  23.011  1.00  0.00     0.000 A 
ATOM     31  C   UNL A   1      29.222  26.249  24.165  1.00  0.00     0.000 A 
ATOM     32  C   UNL A   1      28.642  27.339  23.536  1.00  0.00     0.000 A 
ENDBRANCH   8  27
ENDBRANCH   6   8
ENDBRANCH   5   6
ENDBRANCH   4   5
ENDBRANCH   3   4
ENDBRANCH   2   3
ENDBRANCH   1   2
BRANCH   1  33
ATOM     33  C   UNL A   1      33.323  20.387  24.404  1.00  0.00     0.188 C 
BRANCH  33  34
ATOM     34  O   UNL A   1      34.539  19.738  24.743  1.00  0.00    -0.376 OA
BRANCH  34  35
ATOM     35  C   UNL A   1      35.542  20.592  25.268  1.00  0.00     0.202 C 
BRANCH  35  36
ATOM     36  C   UNL A   1      36.920  19.999  24.977  1.00  0.00     0.261 C 
BRANCH  36  37
ATOM     37  O   UNL A   1      37.999  20.951  25.054  1.00  0.00    -0.460 OA
BRANCH  37  38
ATOM     38  C   UNL A   1      39.080  20.588  25.788  1.00  0.00     0.338 C 
ATOM     39  O   UNL A   1      39.559  19.482  25.887  1.00  0.00    -0.246 OA
BRANCH  38  40
ATOM     40  C   UNL A   1      39.699  21.824  26.323  1.00  0.00     0.060 A 
ATOM     41  C   UNL A   1      39.093  23.059  26.058  1.00  0.00     0.016 A 
ATOM     42  C   UNL A   1      40.872  21.762  27.077  1.00  0.00     0.016 A 
ATOM     43  C   UNL A   1      39.672  24.239  26.538  1.00  0.00     0.010 A 
ATOM     44  C   UNL A   1      41.460  22.944  27.539  1.00  0.00     0.010 A 
ATOM     45  C   UNL A   1      40.875  24.190  27.256  1.00  0.00    -0.014 A 
BRANCH  45  46
ATOM     46  C   UNL A   1      41.598  25.434  27.621  1.00  0.00     0.031 A 
ATOM     47  C   UNL A   1      40.897  26.471  28.452  1.00  0.00     0.074 A 
ATOM     48  C   UNL A   1      42.851  25.663  27.191  1.00  0.00     0.049 A 
ATOM     49  N   UNL A   1      41.295  27.670  28.793  1.00  0.00    -0.248 NA
ATOM     50  C   UNL A   1      39.563  26.109  28.958  1.00  0.00     0.031 C 
ATOM     51  C   UNL A   1      43.648  24.738  26.390  1.00  0.00     0.029 A 
ATOM     52  N   UNL A   1      43.668  26.756  27.358  1.00  0.00    -0.354 N 
ATOM     53  C   UNL A   1      40.257  28.214  29.538  1.00  0.00     0.074 A 
ATOM     54  C   UNL A   1      39.207  27.218  29.590  1.00  0.00     0.031 C 
ATOM     55  C   UNL A   1      44.842  25.301  26.135  1.00  0.00     0.029 A 
ATOM     56  C   UNL A   1      44.877  26.642  26.715  1.00  0.00     0.049 A 
ATOM     57  H   UNL A   1      43.411  27.545  27.887  1.00  0.00     0.167 HD
ATOM     58  C   UNL A   1      40.182  29.434  30.121  1.00  0.00     0.037 A 
ATOM     59  C   UNL A   1      45.884  27.528  26.585  1.00  0.00     0.037 A 
ATOM     60  C   UNL A   1      41.217  30.432  30.063  1.00  0.00     0.049 A 
ATOM     61  C   UNL A   1      45.752  28.901  27.194  1.00  0.00     0.074 A 
ATOM     62  C   UNL A   1      41.231  31.694  30.634  1.00  0.00     0.029 A 
ATOM     63  N   UNL A   1      42.418  30.288  29.385  1.00  0.00    -0.354 N 
ATOM     64  N   UNL A   1      44.773  29.399  27.910  1.00  0.00    -0.248 NA
ATOM     65  C   UNL A   1      46.859  29.841  26.959  1.00  0.00     0.031 C 
ATOM     66  C   UNL A   1      42.420  32.330  30.262  1.00  0.00     0.029 A 
ATOM     67  C   UNL A   1      43.167  31.447  29.501  1.00  0.00     0.049 A 
ATOM     68  H   UNL A   1      42.696  29.481  28.895  1.00  0.00     0.167 HD
ATOM     69  C   UNL A   1      45.150  30.702  28.217  1.00  0.00     0.074 A 
ATOM     70  C   UNL A   1      46.458  30.909  27.634  1.00  0.00     0.031 C 
ATOM     71  C   UNL A   1      44.468  31.645  28.913  1.00  0.00     0.037 A 
BRANCH  58  72
ATOM     72  C   UNL A   1      38.914  29.771  30.847  1.00  0.00     0.057 A 
ATOM     73  C   UNL A   1      37.841  30.403  30.207  1.00  0.00     0.134 A 
ATOM     74  C   UNL A   1      38.755  29.432  32.196  1.00  0.00     0.134 A 
ATOM     75  F   UNL A   1      37.936  30.767  28.919  1.00  0.00    -0.206 F 
ATOM     76  C   UNL A   1      36.660  30.705  30.889  1.00  0.00     0.040 A 
ATOM     77  C   UNL A   1      37.572  29.706  32.883  1.00  0.00     0.040 A 
ATOM     78  F   UNL A   1      39.744  28.822  32.866  1.00  0.00    -0.206 F 
ATOM     79  C   UNL A   1      36.522  30.349  32.230  1.00  0.00     0.006 A 
ENDBRANCH  58  72
BRANCH  59  80
ATOM     80  C   UNL A   1      47.104  27.169  25.816  1.00  0.00     0.057 A 
ATOM     81  C   UNL A   1      47.226  27.499  24.460  1.00  0.00     0.134 A 
ATOM     82  C   UNL A   1      48.156  26.458  26.403  1.00  0.00     0.134 A 
ATOM     83  F   UNL A   1      46.237  28.154  23.834  1.00  0.00    -0.206 F 
ATOM     84  C   UNL A   1      48.343  27.121  23.713  1.00  0.00     0.040 A 
ATOM     85  C   UNL A   1      49.291  26.096  25.675  1.00  0.00     0.040 A 
ATOM     86  F   UNL A   1      48.098  26.106  27.696  1.00  0.00    -0.206 F 
ATOM     87  C   UNL A   1      49.383  26.422  24.324  1.00  0.00     0.006 A 
ENDBRANCH  59  80
BRANCH  71  88
ATOM     88  C   UNL A   1      45.128  32.980  29.095  1.00  0.00     0.057 A 
ATOM     89  C   UNL A   1      44.901  34.041  28.207  1.00  0.00     0.134 A 
ATOM     90  C   UNL A   1      45.967  33.223  30.190  1.00  0.00     0.134 A 
ATOM     91  F   UNL A   1      44.118  33.872  27.132  1.00  0.00    -0.206 F 
ATOM     92  C   UNL A   1      45.502  35.288  28.392  1.00  0.00     0.040 A 
ATOM     93  C   UNL A   1      46.554  34.472  30.399  1.00  0.00     0.040 A 
ATOM     94  F   UNL A   1      46.220  32.253  31.082  1.00  0.00    -0.206 F 
ATOM     95  C   UNL A   1      46.325  35.508  29.495  1.00  0.00     0.006 A 
ENDBRANCH  71  88
ENDBRANCH  45  46
ENDBRANCH  38  40
ENDBRANCH  37  38
ENDBRANCH  36  37
ENDBRANCH  35  36
ENDBRANCH  34  35
ENDBRANCH  33  34
ENDBRANCH   1  33
TORSDOF 22
ENDMDL
MODEL 2
REMARK VINA RESULT:     -10.6      0.694      5.777
REMARK SMILES CCOc1ccc(C(=O)N2CCC(C(=O)OCCOCCOCCOC(=O)c3ccc(-c4c5nc(c(-c6c(F)cccc6F)c6ccc([nH]6)c(-c6c(F)cccc6F)c6nc(c(-c7c(F)cccc7F)c7ccc4[nH]7)C=C6)C=C5)cc3)(c3ccccc3)CC2)cc1OC
REMARK SMILES IDX 20 1 19 2 18 3 17 4 16 5 14 6 15 7 13 8 8 9 9 10 10 11 11 12
REMARK SMILES IDX 89 13 12 14 88 15 7 16 4 17 5 18 91 19 6 20 90 21 3 22 2 23
REMARK SMILES IDX 1 24 92 25 93 26 82 27 83 28 87 29 84 30 86 31 85 32 21 33
REMARK SMILES IDX 22 34 23 35 24 36 25 37 26 38 27 39 28 40 29 41 81 42 30 43
REMARK SMILES IDX 80 44 31 45 32 46 33 47 74 48 34 49 79 50 73 51 75 52 35 53
REMARK SMILES IDX 78 54 72 55 71 56 36 58 62 59 45 60 61 61 46 62 49 63 60 64
REMARK SMILES IDX 76 65 47 66 48 67 59 69 77 70 50 71 37 72 38 73 43 74 39 75
REMARK SMILES IDX 40 76 42 77 44 78 41 79 63 80 64 81 69 82 65 83 66 84 68 85
REMARK SMILES IDX 70 86 67 87 51 88 52 89 57 90 53 91 54 92 56 93 58 94 55 95
REMARK H PARENT 75 57 49 68
REMARK Flexibility Score: inf
ROOT
ATOM      1  C   UNL A   1      33.380  21.643  23.887  1.00  0.00     0.188 C 
ENDROOT
BRANCH   1   2
ATOM      2  O   UNL A   1      32.219  22.461  23.745  1.00  0.00    -0.376 OA
BRANCH   2   3
ATOM      3  C   UNL A   1      32.235  23.517  22.794  1.00  0.00     0.202 C 
BRANCH   3   4
ATOM      4  C   UNL A   1      33.604  23.829  22.192  1.00  0.00     0.261 C 
BRANCH   4   5
ATOM      5  O   UNL A   1      34.162  25.055  22.698  1.00  0.00    -0.463 OA
BRANCH   5   6
ATOM      6  C   UNL A   1      33.482  26.190  22.401  1.00  0.00     0.316 C 
ATOM      7  O   UNL A   1      33.264  26.563  21.250  1.00  0.00    -0.251 OA
BRANCH   6   8
ATOM      8  C   UNL A   1      33.019  27.001  23.652  1.00  0.00     0.096 C 
ATOM      9  C   UNL A   1      34.713  29.390  26.929  1.00  0.00     0.253 C 
ATOM     10  O   UNL A   1      35.490  28.857  27.721  1.00  0.00    -0.269 OA
ATOM     11  N   UNL A   1      34.164  28.687  25.844  1.00  0.00    -0.339 N 
ATOM     12  C   UNL A   1      33.649  27.366  26.162  1.00  0.00     0.121 C 
ATOM     13  C   UNL A   1      33.805  29.300  24.565  1.00  0.00     0.121 C 
ATOM     14  C   UNL A   1      33.536  26.402  24.986  1.00  0.00     0.045 C 
ATOM     15  C   UNL A   1      33.777  28.331  23.405  1.00  0.00     0.045 C 
BRANCH   9  16
ATOM     16  C   UNL A   1      34.227  30.768  27.245  1.00  0.00     0.043 A 
ATOM     17  C   UNL A   1      33.217  33.278  28.025  1.00  0.00     0.161 A 
ATOM     18  C   UNL A   1      34.530  32.903  28.354  1.00  0.00     0.051 A 
ATOM     19  C   UNL A   1      32.410  32.409  27.294  1.00  0.00     0.161 A 
ATOM     20  C   UNL A   1      35.038  31.658  27.954  1.00  0.00     0.018 A 
ATOM     21  C   UNL A   1      32.905  31.142  26.995  1.00  0.00     0.064 A 
BRANCH  17  22
ATOM     22  O   UNL A   1      32.759  34.505  28.411  1.00  0.00    -0.490 OA
BRANCH  22  23
ATOM     23  C   UNL A   1      33.743  35.255  29.134  1.00  0.00     0.226 C 
ATOM     24  C   UNL A   1      33.976  36.570  28.407  1.00  0.00     0.049 C 
ENDBRANCH  22  23
ENDBRANCH  17  22
BRANCH  19  25
ATOM     25  O   UNL A   1      31.138  32.570  26.833  1.00  0.00    -0.493 OA
ATOM     26  C   UNL A   1      30.695  31.811  25.722  1.00  0.00     0.278 C 
ENDBRANCH  19  25
ENDBRANCH   9  16
BRANCH   8  27
ATOM     27  C   UNL A   1      31.463  27.106  23.685  1.00  0.00    -0.031 A 
ATOM     28  C   UNL A   1      30.777  28.107  22.967  1.00  0.00     0.005 A 
ATOM     29  C   UNL A   1      30.650  26.179  24.365  1.00  0.00     0.005 A 
ATOM     30  C   UNL A   1      29.379  28.184  22.945  1.00  0.00     0.000 A 
ATOM     31  C   UNL A   1      29.249  26.242  24.330  1.00  0.00     0.000 A 
ATOM     32  C   UNL A   1      28.611  27.246  23.617  1.00  0.00     0.000 A 
ENDBRANCH   8  27
ENDBRANCH   6   8
ENDBRANCH   5   6
ENDBRANCH   4   5
ENDBRANCH   3   4
ENDBRANCH   2   3
ENDBRANCH   1   2
BRANCH   1  33
ATOM     33  C   UNL A   1      33.233  20.198  24.383  1.00  0.00     0.188 C 
BRANCH  33  34
ATOM     34  O   UNL A   1      34.404  19.734  25.037  1.00  0.00    -0.376 OA
BRANCH  34  35
ATOM     35  C   UNL A   1      35.311  20.752  25.427  1.00  0.00     0.202 C 
BRANCH  35  36
ATOM     36  C   UNL A   1      36.739  20.315  25.102  1.00  0.00     0.261 C 
BRANCH  36  37
ATOM     37  O   UNL A   1      37.714  21.373  25.192  1.00  0.00    -0.460 OA
BRANCH  37  38
ATOM     38  C   UNL A   1      38.842  21.103  25.895  1.00  0.00     0.338 C 
ATOM     39  O   UNL A   1      39.409  20.039  25.987  1.00  0.00    -0.246 OA
BRANCH  38  40
ATOM     40  C   UNL A   1      39.378  22.389  26.401  1.00  0.00     0.060 A 
ATOM     41  C   UNL A   1      38.824  23.588  25.935  1.00  0.00     0.016 A 
ATOM     42  C   UNL A   1      40.423  22.409  27.326  1.00  0.00     0.016 A 
ATOM     43  C   UNL A   1      39.328  24.813  26.386  1.00  0.00     0.010 A 
ATOM     44  C   UNL A   1      40.939  23.633  27.760  1.00  0.00     0.010 A 
ATOM     45  C   UNL A   1      40.409  24.842  27.279  1.00  0.00    -0.014 A 
BRANCH  45  46
ATOM     46  C   UNL A   1      41.073  26.122  27.633  1.00  0.00     0.031 A 
ATOM     47  C   UNL A   1      42.494  26.353  27.205  1.00  0.00     0.074 A 
ATOM     48  C   UNL A   1      40.436  27.059  28.358  1.00  0.00     0.049 A 
ATOM     49  N   UNL A   1      43.299  27.343  27.496  1.00  0.00    -0.248 NA
ATOM     50  C   UNL A   1      43.090  25.322  26.340  1.00  0.00     0.031 C 
ATOM     51  C   UNL A   1      39.057  26.967  28.827  1.00  0.00     0.029 A 
ATOM     52  N   UNL A   1      40.877  28.268  28.841  1.00  0.00    -0.354 N 
ATOM     53  C   UNL A   1      44.501  27.049  26.866  1.00  0.00     0.074 A 
ATOM     54  C   UNL A   1      44.323  25.783  26.185  1.00  0.00     0.031 C 
ATOM     55  C   UNL A   1      38.761  28.074  29.529  1.00  0.00     0.029 A 
ATOM     56  C   UNL A   1      39.943  28.932  29.599  1.00  0.00     0.049 A 
ATOM     57  H   UNL A   1      41.777  28.624  28.661  1.00  0.00     0.167 HD
ATOM     58  C   UNL A   1      45.650  27.765  26.859  1.00  0.00     0.037 A 
ATOM     59  C   UNL A   1      40.039  30.083  30.292  1.00  0.00     0.037 A 
ATOM     60  C   UNL A   1      45.837  29.018  27.542  1.00  0.00     0.049 A 
ATOM     61  C   UNL A   1      41.347  30.832  30.316  1.00  0.00     0.074 A 
ATOM     62  C   UNL A   1      46.965  29.819  27.581  1.00  0.00     0.029 A 
ATOM     63  N   UNL A   1      44.873  29.647  28.316  1.00  0.00    -0.354 N 
ATOM     64  N   UNL A   1      42.472  30.554  29.704  1.00  0.00    -0.248 NA
ATOM     65  C   UNL A   1      41.402  32.047  31.145  1.00  0.00     0.031 C 
ATOM     66  C   UNL A   1      46.700  30.909  28.417  1.00  0.00     0.029 A 
ATOM     67  C   UNL A   1      45.391  30.812  28.859  1.00  0.00     0.049 A 
ATOM     68  H   UNL A   1      43.958  29.315  28.459  1.00  0.00     0.167 HD
ATOM     69  C   UNL A   1      43.362  31.559  30.065  1.00  0.00     0.074 A 
ATOM     70  C   UNL A   1      42.638  32.470  30.927  1.00  0.00     0.031 C 
ATOM     71  C   UNL A   1      44.664  31.709  29.719  1.00  0.00     0.037 A 
BRANCH  58  72
ATOM     72  C   UNL A   1      46.814  27.186  26.111  1.00  0.00     0.057 A 
ATOM     73  C   UNL A   1      47.750  26.350  26.732  1.00  0.00     0.134 A 
ATOM     74  C   UNL A   1      46.984  27.448  24.746  1.00  0.00     0.134 A 
ATOM     75  F   UNL A   1      47.652  26.073  28.042  1.00  0.00    -0.206 F 
ATOM     76  C   UNL A   1      48.826  25.809  26.026  1.00  0.00     0.040 A 
ATOM     77  C   UNL A   1      48.041  26.894  24.024  1.00  0.00     0.040 A 
ATOM     78  F   UNL A   1      46.121  28.239  24.092  1.00  0.00    -0.206 F 
ATOM     79  C   UNL A   1      48.969  26.076  24.665  1.00  0.00     0.006 A 
ENDBRANCH  58  72
BRANCH  59  80
ATOM     80  C   UNL A   1      38.873  30.595  31.059  1.00  0.00     0.057 A 
ATOM     81  C   UNL A   1      37.978  31.509  30.488  1.00  0.00     0.134 A 
ATOM     82  C   UNL A   1      38.646  30.215  32.386  1.00  0.00     0.134 A 
ATOM     83  F   UNL A   1      38.161  31.935  29.229  1.00  0.00    -0.206 F 
ATOM     84  C   UNL A   1      36.910  32.038  31.215  1.00  0.00     0.040 A 
ATOM     85  C   UNL A   1      37.567  30.714  33.116  1.00  0.00     0.040 A 
ATOM     86  F   UNL A   1      39.470  29.347  32.993  1.00  0.00    -0.206 F 
ATOM     87  C   UNL A   1      36.699  31.635  32.533  1.00  0.00     0.006 A 
ENDBRANCH  59  80
BRANCH  71  88
ATOM     88  C   UNL A   1      45.388  32.908  30.261  1.00  0.00     0.057 A 
ATOM     89  C   UNL A   1      45.374  34.140  29.594  1.00  0.00     0.134 A 
ATOM     90  C   UNL A   1      46.072  32.843  31.482  1.00  0.00     0.134 A 
ATOM     91  F   UNL A   1      44.749  34.268  28.415  1.00  0.00    -0.206 F 
ATOM     92  C   UNL A   1      46.032  35.258  30.112  1.00  0.00     0.040 A 
ATOM     93  C   UNL A   1      46.711  33.959  32.022  1.00  0.00     0.040 A 
ATOM     94  F   UNL A   1      46.117  31.695  32.176  1.00  0.00    -0.206 F 
ATOM     95  C   UNL A   1      46.697  35.170  31.334  1.00  0.00     0.006 A 
ENDBRANCH  71  88
ENDBRANCH  45  46
ENDBRANCH  38  40
ENDBRANCH  37  38
ENDBRANCH  36  37
ENDBRANCH  35  36
ENDBRANCH  34  35
ENDBRANCH  33  34
ENDBRANCH   1  33
TORSDOF 22
ENDMDL
MODEL 3
REMARK VINA RESULT:     -10.3      3.461      9.386
REMARK SMILES CCOc1ccc(C(=O)N2CCC(C(=O)OCCOCCOCCOC(=O)c3ccc(-c4c5nc(c(-c6c(F)cccc6F)c6ccc([nH]6)c(-c6c(F)cccc6F)c6nc(c(-c7c(F)cccc7F)c7ccc4[nH]7)C=C6)C=C5)cc3)(c3ccccc3)CC2)cc1OC
REMARK SMILES IDX 20 1 19 2 18 3 17 4 16 5 14 6 15 7 13 8 8 9 9 10 10 11 11 12
REMARK SMILES IDX 89 13 12 14 88 15 7 16 4 17 5 18 91 19 6 20 90 21 3 22 2 23
REMARK SMILES IDX 1 24 92 25 93 26 82 27 83 28 87 29 84 30 86 31 85 32 21 33
REMARK SMILES IDX 22 34 23 35 24 36 25 37 26 38 27 39 28 40 29 41 81 42 30 43
REMARK SMILES IDX 80 44 31 45 32 46 33 47 74 48 34 49 79 50 73 51 75 52 35 53
REMARK SMILES IDX 78 54 72 55 71 56 36 58 62 59 45 60 61 61 46 62 49 63 60 64
REMARK SMILES IDX 76 65 47 66 48 67 59 69 77 70 50 71 37 72 38 73 43 74 39 75
REMARK SMILES IDX 40 76 42 77 44 78 41 79 63 80 64 81 69 82 65 83 66 84 68 85
REMARK SMILES IDX 70 86 67 87 51 88 52 89 57 90 53 91 54 92 56 93 58 94 55 95
REMARK H PARENT 75 57 49 68
REMARK Flexibility Score: inf
ROOT
ATOM      1  C   UNL A   1      34.077  28.108  22.410  1.00  0.00     0.188 C 
ENDROOT
BRANCH   1   2
ATOM      2  O   UNL A   1      34.020  26.852  21.733  1.00  0.00    -0.376 OA
BRANCH   2   3
ATOM      3  C   UNL A   1      32.760  26.377  21.277  1.00  0.00     0.202 C 
BRANCH   3   4
ATOM      4  C   UNL A   1      32.334  25.022  21.839  1.00  0.00     0.261 C 
BRANCH   4   5
ATOM      5  O   UNL A   1      33.342  24.011  21.663  1.00  0.00    -0.463 OA
BRANCH   5   6
ATOM      6  C   UNL A   1      33.189  22.879  22.394  1.00  0.00     0.316 C 
ATOM      7  O   UNL A   1      32.388  21.993  22.104  1.00  0.00    -0.251 OA
BRANCH   6   8
ATOM      8  C   UNL A   1      34.104  22.807  23.658  1.00  0.00     0.096 C 
ATOM      9  C   UNL A   1      37.672  20.692  25.111  1.00  0.00     0.253 C 
ATOM     10  O   UNL A   1      37.640  19.466  25.220  1.00  0.00    -0.269 OA
ATOM     11  N   UNL A   1      36.574  21.420  24.623  1.00  0.00    -0.339 N 
ATOM     12  C   UNL A   1      35.288  21.050  25.188  1.00  0.00     0.121 C 
ATOM     13  C   UNL A   1      36.687  22.671  23.873  1.00  0.00     0.121 C 
ATOM     14  C   UNL A   1      34.069  21.419  24.350  1.00  0.00     0.045 C 
ATOM     15  C   UNL A   1      35.495  22.969  22.992  1.00  0.00     0.045 C 
BRANCH   9  16
ATOM     16  C   UNL A   1      38.853  21.415  25.673  1.00  0.00     0.043 A 
ATOM     17  C   UNL A   1      40.995  22.734  26.937  1.00  0.00     0.161 A 
ATOM     18  C   UNL A   1      41.113  21.389  26.552  1.00  0.00     0.051 A 
ATOM     19  C   UNL A   1      39.817  23.429  26.678  1.00  0.00     0.161 A 
ATOM     20  C   UNL A   1      40.051  20.734  25.911  1.00  0.00     0.018 A 
ATOM     21  C   UNL A   1      38.744  22.730  26.129  1.00  0.00     0.064 A 
BRANCH  17  22
ATOM     22  O   UNL A   1      42.055  23.349  27.540  1.00  0.00    -0.490 OA
BRANCH  22  23
ATOM     23  C   UNL A   1      42.163  23.016  28.931  1.00  0.00     0.226 C 
ATOM     24  C   UNL A   1      43.616  22.694  29.237  1.00  0.00     0.049 C 
ENDBRANCH  22  23
ENDBRANCH  17  22
BRANCH  19  25
ATOM     25  O   UNL A   1      39.493  24.731  26.920  1.00  0.00    -0.493 OA
ATOM     26  C   UNL A   1      39.197  25.145  28.242  1.00  0.00     0.278 C 
ENDBRANCH  19  25
ENDBRANCH   9  16
BRANCH   8  27
ATOM     27  C   UNL A   1      33.708  23.919  24.678  1.00  0.00    -0.031 A 
ATOM     28  C   UNL A   1      34.477  25.092  24.822  1.00  0.00     0.005 A 
ATOM     29  C   UNL A   1      32.539  23.856  25.459  1.00  0.00     0.005 A 
ATOM     30  C   UNL A   1      34.108  26.123  25.696  1.00  0.00     0.000 A 
ATOM     31  C   UNL A   1      32.157  24.895  26.322  1.00  0.00     0.000 A 
ATOM     32  C   UNL A   1      32.943  26.031  26.440  1.00  0.00     0.000 A 
ENDBRANCH   8  27
ENDBRANCH   6   8
ENDBRANCH   5   6
ENDBRANCH   4   5
ENDBRANCH   3   4
ENDBRANCH   2   3
ENDBRANCH   1   2
BRANCH   1  33
ATOM     33  C   UNL A   1      32.781  28.754  22.918  1.00  0.00     0.188 C 
BRANCH  33  34
ATOM     34  O   UNL A   1      32.843  29.068  24.301  1.00  0.00    -0.376 OA
BRANCH  34  35
ATOM     35  C   UNL A   1      31.583  29.187  24.940  1.00  0.00     0.202 C 
BRANCH  35  36
ATOM     36  C   UNL A   1      31.788  29.561  26.407  1.00  0.00     0.261 C 
BRANCH  36  37
ATOM     37  O   UNL A   1      33.165  29.772  26.776  1.00  0.00    -0.460 OA
BRANCH  37  38
ATOM     38  C   UNL A   1      33.492  31.007  27.232  1.00  0.00     0.338 C 
ATOM     39  O   UNL A   1      32.789  31.990  27.247  1.00  0.00    -0.246 OA
BRANCH  38  40
ATOM     40  C   UNL A   1      34.820  30.911  27.884  1.00  0.00     0.060 A 
ATOM     41  C   UNL A   1      35.265  29.665  28.343  1.00  0.00     0.016 A 
ATOM     42  C   UNL A   1      35.616  32.047  28.044  1.00  0.00     0.016 A 
ATOM     43  C   UNL A   1      36.507  29.557  28.979  1.00  0.00     0.010 A 
ATOM     44  C   UNL A   1      36.848  31.940  28.697  1.00  0.00     0.010 A 
ATOM     45  C   UNL A   1      37.292  30.700  29.186  1.00  0.00    -0.014 A 
BRANCH  45  46
ATOM     46  C   UNL A   1      38.526  30.640  30.010  1.00  0.00     0.031 A 
ATOM     47  C   UNL A   1      39.757  29.995  29.440  1.00  0.00     0.074 A 
ATOM     48  C   UNL A   1      38.547  31.119  31.266  1.00  0.00     0.049 A 
ATOM     49  N   UNL A   1      40.902  29.737  30.017  1.00  0.00    -0.248 NA
ATOM     50  C   UNL A   1      39.681  29.577  28.031  1.00  0.00     0.031 C 
ATOM     51  C   UNL A   1      37.429  31.777  31.935  1.00  0.00     0.029 A 
ATOM     52  N   UNL A   1      39.547  31.110  32.209  1.00  0.00    -0.354 N 
ATOM     53  C   UNL A   1      41.679  29.111  29.051  1.00  0.00     0.074 A 
ATOM     54  C   UNL A   1      40.870  29.019  27.853  1.00  0.00     0.031 C 
ATOM     55  C   UNL A   1      37.804  32.112  33.182  1.00  0.00     0.029 A 
ATOM     56  C   UNL A   1      39.172  31.652  33.415  1.00  0.00     0.049 A 
ATOM     57  H   UNL A   1      40.447  30.750  32.037  1.00  0.00     0.167 HD
ATOM     58  C   UNL A   1      42.948  28.649  29.152  1.00  0.00     0.037 A 
ATOM     59  C   UNL A   1      39.843  31.740  34.580  1.00  0.00     0.037 A 
ATOM     60  C   UNL A   1      43.752  28.727  30.343  1.00  0.00     0.049 A 
ATOM     61  C   UNL A   1      41.233  31.166  34.684  1.00  0.00     0.074 A 
ATOM     62  C   UNL A   1      45.054  28.294  30.534  1.00  0.00     0.029 A 
ATOM     63  N   UNL A   1      43.329  29.264  31.549  1.00  0.00    -0.354 N 
ATOM     64  N   UNL A   1      41.964  30.591  33.760  1.00  0.00    -0.248 NA
ATOM     65  C   UNL A   1      41.884  31.238  36.002  1.00  0.00     0.031 C 
ATOM     66  C   UNL A   1      45.401  28.527  31.869  1.00  0.00     0.029 A 
ATOM     67  C   UNL A   1      44.335  29.148  32.496  1.00  0.00     0.049 A 
ATOM     68  H   UNL A   1      42.446  29.667  31.709  1.00  0.00     0.167 HD
ATOM     69  C   UNL A   1      43.158  30.243  34.380  1.00  0.00     0.074 A 
ATOM     70  C   UNL A   1      43.066  30.695  35.752  1.00  0.00     0.031 C 
ATOM     71  C   UNL A   1      44.231  29.598  33.861  1.00  0.00     0.037 A 
BRANCH  58  72
ATOM     72  C   UNL A   1      43.534  27.982  27.944  1.00  0.00     0.057 A 
ATOM     73  C   UNL A   1      44.008  28.717  26.851  1.00  0.00     0.134 A 
ATOM     74  C   UNL A   1      43.650  26.588  27.888  1.00  0.00     0.134 A 
ATOM     75  F   UNL A   1      43.912  30.055  26.837  1.00  0.00    -0.206 F 
ATOM     76  C   UNL A   1      44.560  28.087  25.733  1.00  0.00     0.040 A 
ATOM     77  C   UNL A   1      44.221  25.948  26.788  1.00  0.00     0.040 A 
ATOM     78  F   UNL A   1      43.217  25.826  28.903  1.00  0.00    -0.206 F 
ATOM     79  C   UNL A   1      44.673  26.698  25.704  1.00  0.00     0.006 A 
ENDBRANCH  58  72
BRANCH  59  80
ATOM     80  C   UNL A   1      39.204  32.367  35.767  1.00  0.00     0.057 A 
ATOM     81  C   UNL A   1      38.368  31.627  36.612  1.00  0.00     0.134 A 
ATOM     82  C   UNL A   1      39.384  33.723  36.063  1.00  0.00     0.134 A 
ATOM     83  F   UNL A   1      38.133  30.330  36.362  1.00  0.00    -0.206 F 
ATOM     84  C   UNL A   1      37.720  32.217  37.699  1.00  0.00     0.040 A 
ATOM     85  C   UNL A   1      38.765  34.320  37.162  1.00  0.00     0.040 A 
ATOM     86  F   UNL A   1      40.169  34.488  35.290  1.00  0.00    -0.206 F 
ATOM     87  C   UNL A   1      37.923  33.567  37.980  1.00  0.00     0.006 A 
ENDBRANCH  59  80
BRANCH  71  88
ATOM     88  C   UNL A   1      45.399  29.355  34.773  1.00  0.00     0.057 A 
ATOM     89  C   UNL A   1      46.421  30.300  34.928  1.00  0.00     0.134 A 
ATOM     90  C   UNL A   1      45.482  28.183  35.535  1.00  0.00     0.134 A 
ATOM     91  F   UNL A   1      46.408  31.438  34.218  1.00  0.00    -0.206 F 
ATOM     92  C   UNL A   1      47.495  30.079  35.793  1.00  0.00     0.040 A 
ATOM     93  C   UNL A   1      46.537  27.961  36.422  1.00  0.00     0.040 A 
ATOM     94  F   UNL A   1      44.532  27.240  35.441  1.00  0.00    -0.206 F 
ATOM     95  C   UNL A   1      47.550  28.909  36.549  1.00  0.00     0.006 A 
ENDBRANCH  71  88
ENDBRANCH  45  46
ENDBRANCH  38  40
ENDBRANCH  37  38
ENDBRANCH  36  37
ENDBRANCH  35  36
ENDBRANCH  34  35
ENDBRANCH  33  34
ENDBRANCH   1  33
TORSDOF 22
ENDMDL
