MODEL 1
REMARK VINA RESULT:     -11.7      0.000      0.000
REMARK SMILES Cc1ncccc1NC(=O)N1CCC(C(=O)OCCOCCOCCOC(=O)c2ccc(-c3c4nc(c(-c5c(F)cccc5F)c5ccc([nH]5)c(-c5c(F)cccc5F)c5nc(c(-c6c(F)cccc6F)c6ccc3[nH]6)C=C5)C=C4)cc2)CC1
REMARK SMILES IDX 22 1 21 2 20 3 19 4 18 5 17 6 15 7 16 8 14 9 8 10 9 11 10 13
REMARK SMILES IDX 11 14 12 15 84 16 13 17 83 18 7 19 1 20 2 21 3 22 4 23 6 24
REMARK SMILES IDX 5 25 23 26 24 27 25 28 26 29 27 30 28 31 29 32 30 33 82 34
REMARK SMILES IDX 31 35 81 36 32 37 33 38 34 39 75 40 35 41 80 42 74 43 76 44
REMARK SMILES IDX 36 45 79 46 73 47 72 48 37 50 63 51 46 52 62 53 47 54 50 55
REMARK SMILES IDX 61 56 77 57 48 58 49 59 60 61 78 62 51 63 38 64 39 65 44 66
REMARK SMILES IDX 40 67 41 68 43 69 45 70 42 71 64 72 65 73 70 74 66 75 67 76
REMARK SMILES IDX 69 77 71 78 68 79 52 80 53 81 58 82 54 83 55 84 57 85 59 86
REMARK SMILES IDX 56 87
REMARK H PARENT 8 12 76 49 50 60
REMARK Flexibility Score: inf
ROOT
ATOM      1  C   UNL A   1      42.075  19.589  26.267  1.00  0.00     0.188 C 
ENDROOT
BRANCH   1   2
ATOM      2  C   UNL A   1      40.653  20.131  26.094  1.00  0.00     0.188 C 
BRANCH   2   3
ATOM      3  O   UNL A   1      40.185  21.111  27.004  1.00  0.00    -0.376 OA
BRANCH   3   4
ATOM      4  C   UNL A   1      39.336  22.136  26.501  1.00  0.00     0.202 C 
BRANCH   4   5
ATOM      5  C   UNL A   1      38.162  21.731  25.594  1.00  0.00     0.261 C 
BRANCH   5   6
ATOM      6  O   UNL A   1      36.985  22.568  25.662  1.00  0.00    -0.463 OA
BRANCH   6   7
ATOM      7  C   UNL A   1      36.430  22.886  24.463  1.00  0.00     0.309 C 
ATOM      8  O   UNL A   1      37.029  22.861  23.392  1.00  0.00    -0.252 OA
BRANCH   7   9
ATOM      9  C   UNL A   1      34.974  23.313  24.526  1.00  0.00     0.103 C 
ATOM     10  N   UNL A   1      30.957  25.682  26.756  1.00  0.00    -0.306 N 
ATOM     11  C   UNL A   1      31.467  24.427  26.621  1.00  0.00     0.321 C 
ATOM     12  H   UNL A   1      30.576  25.878  27.643  1.00  0.00     0.171 HD
ATOM     13  O   UNL A   1      31.009  23.537  27.341  1.00  0.00    -0.248 OA
ATOM     14  N   UNL A   1      32.484  24.187  25.726  1.00  0.00    -0.324 N 
ATOM     15  C   UNL A   1      32.525  22.891  25.075  1.00  0.00     0.122 C 
ATOM     16  C   UNL A   1      33.513  25.153  25.341  1.00  0.00     0.122 C 
ATOM     17  C   UNL A   1      33.924  22.294  24.965  1.00  0.00     0.037 C 
ATOM     18  C   UNL A   1      34.904  24.550  25.415  1.00  0.00     0.037 C 
BRANCH  10  19
ATOM     19  C   UNL A   1      30.884  26.750  25.837  1.00  0.00     0.064 A 
ATOM     20  C   UNL A   1      32.063  28.359  27.433  1.00  0.00     0.069 C 
ATOM     21  C   UNL A   1      31.503  27.980  26.094  1.00  0.00     0.061 A 
ATOM     22  N   UNL A   1      31.595  28.959  25.151  1.00  0.00    -0.259 NA
ATOM     23  C   UNL A   1      31.024  28.739  23.949  1.00  0.00     0.111 A 
ATOM     24  C   UNL A   1      30.188  26.629  24.630  1.00  0.00     0.030 A 
ATOM     25  C   UNL A   1      30.285  27.614  23.654  1.00  0.00     0.022 A 
ENDBRANCH  10  19
ENDBRANCH   7   9
ENDBRANCH   6   7
ENDBRANCH   5   6
ENDBRANCH   4   5
ENDBRANCH   3   4
ENDBRANCH   2   3
ENDBRANCH   1   2
BRANCH   1  26
ATOM     26  O   UNL A   1      42.805  19.368  25.082  1.00  0.00    -0.376 OA
BRANCH  26  27
ATOM     27  C   UNL A   1      44.022  20.092  24.944  1.00  0.00     0.202 C 
BRANCH  27  28
ATOM     28  C   UNL A   1      44.052  21.439  25.699  1.00  0.00     0.261 C 
BRANCH  28  29
ATOM     29  O   UNL A   1      43.352  22.546  25.079  1.00  0.00    -0.460 OA
BRANCH  29  30
ATOM     30  C   UNL A   1      43.984  23.746  25.051  1.00  0.00     0.338 C 
ATOM     31  O   UNL A   1      44.806  24.107  24.223  1.00  0.00    -0.246 OA
BRANCH  30  32
ATOM     32  C   UNL A   1      43.302  24.678  26.002  1.00  0.00     0.060 A 
ATOM     33  C   UNL A   1      43.778  25.997  26.094  1.00  0.00     0.016 A 
ATOM     34  C   UNL A   1      42.179  24.303  26.744  1.00  0.00     0.016 A 
ATOM     35  C   UNL A   1      43.176  26.917  26.963  1.00  0.00     0.010 A 
ATOM     36  C   UNL A   1      41.587  25.222  27.628  1.00  0.00     0.010 A 
ATOM     37  C   UNL A   1      42.103  26.525  27.774  1.00  0.00    -0.014 A 
BRANCH  37  38
ATOM     38  C   UNL A   1      41.649  27.404  28.891  1.00  0.00     0.031 A 
ATOM     39  C   UNL A   1      42.400  27.354  30.200  1.00  0.00     0.074 A 
ATOM     40  C   UNL A   1      40.617  28.259  28.764  1.00  0.00     0.049 A 
ATOM     41  N   UNL A   1      42.186  28.008  31.314  1.00  0.00    -0.248 NA
ATOM     42  C   UNL A   1      43.549  26.436  30.255  1.00  0.00     0.031 C 
ATOM     43  C   UNL A   1      39.817  28.450  27.556  1.00  0.00     0.029 A 
ATOM     44  N   UNL A   1      40.061  29.127  29.676  1.00  0.00    -0.354 N 
ATOM     45  C   UNL A   1      43.162  27.574  32.204  1.00  0.00     0.074 A 
ATOM     46  C   UNL A   1      43.951  26.579  31.508  1.00  0.00     0.031 C 
ATOM     47  C   UNL A   1      38.871  29.375  27.802  1.00  0.00     0.029 A 
ATOM     48  C   UNL A   1      38.975  29.819  29.193  1.00  0.00     0.049 A 
ATOM     49  H   UNL A   1      40.408  29.242  30.589  1.00  0.00     0.167 HD
ATOM     50  C   UNL A   1      43.392  27.969  33.480  1.00  0.00     0.037 A 
ATOM     51  C   UNL A   1      38.152  30.696  29.804  1.00  0.00     0.037 A 
ATOM     52  C   UNL A   1      42.615  28.957  34.183  1.00  0.00     0.049 A 
ATOM     53  C   UNL A   1      38.380  31.063  31.250  1.00  0.00     0.074 A 
ATOM     54  C   UNL A   1      42.799  29.444  35.466  1.00  0.00     0.029 A 
ATOM     55  N   UNL A   1      41.498  29.599  33.672  1.00  0.00    -0.354 N 
ATOM     56  N   UNL A   1      39.332  30.678  32.065  1.00  0.00    -0.248 NA
ATOM     57  C   UNL A   1      37.416  31.994  31.857  1.00  0.00     0.031 C 
ATOM     58  C   UNL A   1      41.757  30.331  35.755  1.00  0.00     0.029 A 
ATOM     59  C   UNL A   1      40.961  30.448  34.627  1.00  0.00     0.049 A 
ATOM     60  H   UNL A   1      41.139  29.471  32.764  1.00  0.00     0.167 HD
ATOM     61  C   UNL A   1      39.099  31.341  33.266  1.00  0.00     0.074 A 
ATOM     62  C   UNL A   1      37.928  32.168  33.067  1.00  0.00     0.031 C 
ATOM     63  C   UNL A   1      39.793  31.270  34.430  1.00  0.00     0.037 A 
BRANCH  50  64
ATOM     64  C   UNL A   1      44.516  27.300  34.218  1.00  0.00     0.057 A 
ATOM     65  C   UNL A   1      44.354  26.072  34.874  1.00  0.00     0.134 A 
ATOM     66  C   UNL A   1      45.791  27.881  34.247  1.00  0.00     0.134 A 
ATOM     67  F   UNL A   1      43.156  25.467  34.896  1.00  0.00    -0.206 F 
ATOM     68  C   UNL A   1      45.408  25.462  35.555  1.00  0.00     0.040 A 
ATOM     69  C   UNL A   1      46.862  27.265  34.898  1.00  0.00     0.040 A 
ATOM     70  F   UNL A   1      46.020  29.052  33.635  1.00  0.00    -0.206 F 
ATOM     71  C   UNL A   1      46.669  26.056  35.561  1.00  0.00     0.006 A 
ENDBRANCH  50  64
BRANCH  51  72
ATOM     72  C   UNL A   1      37.011  31.298  29.060  1.00  0.00     0.057 A 
ATOM     73  C   UNL A   1      37.057  32.624  28.610  1.00  0.00     0.134 A 
ATOM     74  C   UNL A   1      35.833  30.581  28.825  1.00  0.00     0.134 A 
ATOM     75  F   UNL A   1      38.145  33.375  28.833  1.00  0.00    -0.206 F 
ATOM     76  C   UNL A   1      35.967  33.219  27.970  1.00  0.00     0.040 A 
ATOM     77  C   UNL A   1      34.746  31.154  28.160  1.00  0.00     0.040 A 
ATOM     78  F   UNL A   1      35.719  29.310  29.238  1.00  0.00    -0.206 F 
ATOM     79  C   UNL A   1      34.809  32.481  27.739  1.00  0.00     0.006 A 
ENDBRANCH  51  72
BRANCH  63  80
ATOM     80  C   UNL A   1      39.327  32.136  35.568  1.00  0.00     0.057 A 
ATOM     81  C   UNL A   1      38.450  31.665  36.555  1.00  0.00     0.134 A 
ATOM     82  C   UNL A   1      39.774  33.460  35.689  1.00  0.00     0.134 A 
ATOM     83  F   UNL A   1      37.975  30.411  36.499  1.00  0.00    -0.206 F 
ATOM     84  C   UNL A   1      38.004  32.487  37.593  1.00  0.00     0.040 A 
ATOM     85  C   UNL A   1      39.361  34.281  36.741  1.00  0.00     0.040 A 
ATOM     86  F   UNL A   1      40.626  33.976  34.790  1.00  0.00    -0.206 F 
ATOM     87  C   UNL A   1      38.464  33.798  37.690  1.00  0.00     0.006 A 
ENDBRANCH  63  80
ENDBRANCH  37  38
ENDBRANCH  30  32
ENDBRANCH  29  30
ENDBRANCH  28  29
ENDBRANCH  27  28
ENDBRANCH  26  27
ENDBRANCH   1  26
TORSDOF 18
ENDMDL
MODEL 2
REMARK VINA RESULT:     -11.3      1.453      2.244
REMARK SMILES Cc1ncccc1NC(=O)N1CCC(C(=O)OCCOCCOCCOC(=O)c2ccc(-c3c4nc(c(-c5c(F)cccc5F)c5ccc([nH]5)c(-c5c(F)cccc5F)c5nc(c(-c6c(F)cccc6F)c6ccc3[nH]6)C=C5)C=C4)cc2)CC1
REMARK SMILES IDX 22 1 21 2 20 3 19 4 18 5 17 6 15 7 16 8 14 9 8 10 9 11 10 13
REMARK SMILES IDX 11 14 12 15 84 16 13 17 83 18 7 19 1 20 2 21 3 22 4 23 6 24
REMARK SMILES IDX 5 25 23 26 24 27 25 28 26 29 27 30 28 31 29 32 30 33 82 34
REMARK SMILES IDX 31 35 81 36 32 37 33 38 34 39 75 40 35 41 80 42 74 43 76 44
REMARK SMILES IDX 36 45 79 46 73 47 72 48 37 50 63 51 46 52 62 53 47 54 50 55
REMARK SMILES IDX 61 56 77 57 48 58 49 59 60 61 78 62 51 63 38 64 39 65 44 66
REMARK SMILES IDX 40 67 41 68 43 69 45 70 42 71 64 72 65 73 70 74 66 75 67 76
REMARK SMILES IDX 69 77 71 78 68 79 52 80 53 81 58 82 54 83 55 84 57 85 59 86
REMARK SMILES IDX 56 87
REMARK H PARENT 8 12 76 49 50 60
REMARK Flexibility Score: inf
ROOT
ATOM      1  C   UNL A   1      44.567  19.144  24.369  1.00  0.00     0.188 C 
ENDROOT
BRANCH   1   2
ATOM      2  C   UNL A   1      43.541  18.665  25.399  1.00  0.00     0.188 C 
BRANCH   2   3
ATOM      3  O   UNL A   1      42.233  19.210  25.357  1.00  0.00    -0.376 OA
BRANCH   3   4
ATOM      4  C   UNL A   1      41.606  19.533  26.594  1.00  0.00     0.202 C 
BRANCH   4   5
ATOM      5  C   UNL A   1      40.949  20.915  26.739  1.00  0.00     0.261 C 
BRANCH   5   6
ATOM      6  O   UNL A   1      39.575  21.019  26.300  1.00  0.00    -0.463 OA
BRANCH   6   7
ATOM      7  C   UNL A   1      39.075  22.281  26.253  1.00  0.00     0.309 C 
ATOM      8  O   UNL A   1      39.574  23.247  26.822  1.00  0.00    -0.252 OA
BRANCH   7   9
ATOM      9  C   UNL A   1      37.800  22.434  25.442  1.00  0.00     0.103 C 
ATOM     10  N   UNL A   1      32.924  24.015  24.776  1.00  0.00    -0.306 N 
ATOM     11  C   UNL A   1      33.604  22.875  25.078  1.00  0.00     0.321 C 
ATOM     12  H   UNL A   1      32.080  24.133  25.270  1.00  0.00     0.171 HD
ATOM     13  O   UNL A   1      32.961  21.912  25.500  1.00  0.00    -0.248 OA
ATOM     14  N   UNL A   1      34.973  22.830  24.939  1.00  0.00    -0.324 N 
ATOM     15  C   UNL A   1      35.576  21.567  24.558  1.00  0.00     0.122 C 
ATOM     16  C   UNL A   1      35.874  23.971  25.105  1.00  0.00     0.122 C 
ATOM     17  C   UNL A   1      36.858  21.238  25.315  1.00  0.00     0.037 C 
ATOM     18  C   UNL A   1      37.046  23.632  26.008  1.00  0.00     0.037 C 
BRANCH  10  19
ATOM     19  C   UNL A   1      33.226  25.056  23.872  1.00  0.00     0.064 A 
ATOM     20  C   UNL A   1      33.301  23.461  21.878  1.00  0.00     0.069 C 
ATOM     21  C   UNL A   1      33.289  24.830  22.491  1.00  0.00     0.061 A 
ATOM     22  N   UNL A   1      33.403  25.847  21.593  1.00  0.00    -0.259 NA
ATOM     23  C   UNL A   1      33.504  27.105  22.067  1.00  0.00     0.111 A 
ATOM     24  C   UNL A   1      33.477  26.358  24.314  1.00  0.00     0.030 A 
ATOM     25  C   UNL A   1      33.581  27.407  23.409  1.00  0.00     0.022 A 
ENDBRANCH  10  19
ENDBRANCH   7   9
ENDBRANCH   6   7
ENDBRANCH   5   6
ENDBRANCH   4   5
ENDBRANCH   3   4
ENDBRANCH   2   3
ENDBRANCH   1   2
BRANCH   1  26
ATOM     26  O   UNL A   1      45.434  20.174  24.786  1.00  0.00    -0.376 OA
BRANCH  26  27
ATOM     27  C   UNL A   1      45.147  21.479  24.295  1.00  0.00     0.202 C 
BRANCH  27  28
ATOM     28  C   UNL A   1      44.038  22.223  25.070  1.00  0.00     0.261 C 
BRANCH  28  29
ATOM     29  O   UNL A   1      43.733  23.570  24.634  1.00  0.00    -0.460 OA
BRANCH  29  30
ATOM     30  C   UNL A   1      44.523  24.570  25.099  1.00  0.00     0.338 C 
ATOM     31  O   UNL A   1      45.597  24.916  24.629  1.00  0.00    -0.246 OA
BRANCH  30  32
ATOM     32  C   UNL A   1      43.747  25.389  26.082  1.00  0.00     0.060 A 
ATOM     33  C   UNL A   1      44.004  26.769  26.145  1.00  0.00     0.016 A 
ATOM     34  C   UNL A   1      42.742  24.842  26.883  1.00  0.00     0.016 A 
ATOM     35  C   UNL A   1      43.305  27.587  27.042  1.00  0.00     0.010 A 
ATOM     36  C   UNL A   1      42.053  25.661  27.795  1.00  0.00     0.010 A 
ATOM     37  C   UNL A   1      42.354  27.033  27.910  1.00  0.00    -0.014 A 
BRANCH  37  38
ATOM     38  C   UNL A   1      41.820  27.838  29.048  1.00  0.00     0.031 A 
ATOM     39  C   UNL A   1      42.530  27.766  30.378  1.00  0.00     0.074 A 
ATOM     40  C   UNL A   1      40.751  28.646  28.921  1.00  0.00     0.049 A 
ATOM     41  N   UNL A   1      42.246  28.359  31.512  1.00  0.00    -0.248 NA
ATOM     42  C   UNL A   1      43.721  26.905  30.434  1.00  0.00     0.031 C 
ATOM     43  C   UNL A   1      39.983  28.852  27.696  1.00  0.00     0.029 A 
ATOM     44  N   UNL A   1      40.122  29.445  29.850  1.00  0.00    -0.354 N 
ATOM     45  C   UNL A   1      43.214  27.934  32.415  1.00  0.00     0.074 A 
ATOM     46  C   UNL A   1      44.074  27.010  31.705  1.00  0.00     0.031 C 
ATOM     47  C   UNL A   1      38.984  29.718  27.948  1.00  0.00     0.029 A 
ATOM     48  C   UNL A   1      39.020  30.104  29.360  1.00  0.00     0.049 A 
ATOM     49  H   UNL A   1      40.433  29.535  30.779  1.00  0.00     0.167 HD
ATOM     50  C   UNL A   1      43.382  28.282  33.714  1.00  0.00     0.037 A 
ATOM     51  C   UNL A   1      38.134  30.911  29.978  1.00  0.00     0.037 A 
ATOM     52  C   UNL A   1      42.533  29.198  34.432  1.00  0.00     0.049 A 
ATOM     53  C   UNL A   1      38.296  31.224  31.446  1.00  0.00     0.074 A 
ATOM     54  C   UNL A   1      42.651  29.636  35.740  1.00  0.00     0.029 A 
ATOM     55  N   UNL A   1      41.403  29.807  33.911  1.00  0.00    -0.354 N 
ATOM     56  N   UNL A   1      39.239  30.850  32.276  1.00  0.00    -0.248 NA
ATOM     57  C   UNL A   1      37.267  32.078  32.059  1.00  0.00     0.031 C 
ATOM     58  C   UNL A   1      41.556  30.458  36.030  1.00  0.00     0.029 A 
ATOM     59  C   UNL A   1      40.793  30.586  34.882  1.00  0.00     0.049 A 
ATOM     60  H   UNL A   1      41.080  29.702  32.986  1.00  0.00     0.167 HD
ATOM     61  C   UNL A   1      38.933  31.447  33.496  1.00  0.00     0.074 A 
ATOM     62  C   UNL A   1      37.730  32.223  33.293  1.00  0.00     0.031 C 
ATOM     63  C   UNL A   1      39.592  31.357  34.679  1.00  0.00     0.037 A 
BRANCH  50  64
ATOM     64  C   UNL A   1      44.514  27.636  34.461  1.00  0.00     0.057 A 
ATOM     65  C   UNL A   1      45.766  28.250  34.597  1.00  0.00     0.134 A 
ATOM     66  C   UNL A   1      44.338  26.391  35.079  1.00  0.00     0.134 A 
ATOM     67  F   UNL A   1      46.007  29.437  34.020  1.00  0.00    -0.206 F 
ATOM     68  C   UNL A   1      46.809  27.638  35.295  1.00  0.00     0.040 A 
ATOM     69  C   UNL A   1      45.363  25.782  35.806  1.00  0.00     0.040 A 
ATOM     70  F   UNL A   1      43.163  25.748  34.995  1.00  0.00    -0.206 F 
ATOM     71  C   UNL A   1      46.605  26.403  35.908  1.00  0.00     0.006 A 
ENDBRANCH  50  64
BRANCH  51  72
ATOM     72  C   UNL A   1      36.989  31.489  29.222  1.00  0.00     0.057 A 
ATOM     73  C   UNL A   1      37.039  32.795  28.717  1.00  0.00     0.134 A 
ATOM     74  C   UNL A   1      35.804  30.771  29.029  1.00  0.00     0.134 A 
ATOM     75  F   UNL A   1      38.134  33.548  28.897  1.00  0.00    -0.206 F 
ATOM     76  C   UNL A   1      35.946  33.370  28.064  1.00  0.00     0.040 A 
ATOM     77  C   UNL A   1      34.714  31.323  28.353  1.00  0.00     0.040 A 
ATOM     78  F   UNL A   1      35.686  29.519  29.497  1.00  0.00    -0.206 F 
ATOM     79  C   UNL A   1      34.781  32.631  27.875  1.00  0.00     0.006 A 
ENDBRANCH  51  72
BRANCH  63  80
ATOM     80  C   UNL A   1      39.047  32.148  35.837  1.00  0.00     0.057 A 
ATOM     81  C   UNL A   1      38.185  31.583  36.788  1.00  0.00     0.134 A 
ATOM     82  C   UNL A   1      39.399  33.494  36.013  1.00  0.00     0.134 A 
ATOM     83  F   UNL A   1      37.798  30.303  36.678  1.00  0.00    -0.206 F 
ATOM     84  C   UNL A   1      37.664  32.334  37.844  1.00  0.00     0.040 A 
ATOM     85  C   UNL A   1      38.911  34.246  37.084  1.00  0.00     0.040 A 
ATOM     86  F   UNL A   1      40.230  34.099  35.151  1.00  0.00    -0.206 F 
ATOM     87  C   UNL A   1      38.031  33.669  37.997  1.00  0.00     0.006 A 
ENDBRANCH  63  80
ENDBRANCH  37  38
ENDBRANCH  30  32
ENDBRANCH  29  30
ENDBRANCH  28  29
ENDBRANCH  27  28
ENDBRANCH  26  27
ENDBRANCH   1  26
TORSDOF 18
ENDMDL
MODEL 3
REMARK VINA RESULT:     -11.1      0.953      6.179
REMARK SMILES Cc1ncccc1NC(=O)N1CCC(C(=O)OCCOCCOCCOC(=O)c2ccc(-c3c4nc(c(-c5c(F)cccc5F)c5ccc([nH]5)c(-c5c(F)cccc5F)c5nc(c(-c6c(F)cccc6F)c6ccc3[nH]6)C=C5)C=C4)cc2)CC1
REMARK SMILES IDX 22 1 21 2 20 3 19 4 18 5 17 6 15 7 16 8 14 9 8 10 9 11 10 13
REMARK SMILES IDX 11 14 12 15 84 16 13 17 83 18 7 19 1 20 2 21 3 22 4 23 6 24
REMARK SMILES IDX 5 25 23 26 24 27 25 28 26 29 27 30 28 31 29 32 30 33 82 34
REMARK SMILES IDX 31 35 81 36 32 37 33 38 34 39 75 40 35 41 80 42 74 43 76 44
REMARK SMILES IDX 36 45 79 46 73 47 72 48 37 50 63 51 46 52 62 53 47 54 50 55
REMARK SMILES IDX 61 56 77 57 48 58 49 59 60 61 78 62 51 63 38 64 39 65 44 66
REMARK SMILES IDX 40 67 41 68 43 69 45 70 42 71 64 72 65 73 70 74 66 75 67 76
REMARK SMILES IDX 69 77 71 78 68 79 52 80 53 81 58 82 54 83 55 84 57 85 59 86
REMARK SMILES IDX 56 87
REMARK H PARENT 8 12 76 49 50 60
REMARK Flexibility Score: inf
ROOT
ATOM      1  C   UNL A   1      42.156  20.838  26.521  1.00  0.00     0.188 C 
ENDROOT
BRANCH   1   2
ATOM      2  C   UNL A   1      40.663  20.927  26.194  1.00  0.00     0.188 C 
BRANCH   2   3
ATOM      3  O   UNL A   1      39.873  21.881  26.884  1.00  0.00    -0.376 OA
BRANCH   3   4
ATOM      4  C   UNL A   1      38.872  22.575  26.147  1.00  0.00     0.202 C 
BRANCH   4   5
ATOM      5  C   UNL A   1      37.738  21.756  25.509  1.00  0.00     0.261 C 
BRANCH   5   6
ATOM      6  O   UNL A   1      36.391  22.179  25.824  1.00  0.00    -0.463 OA
BRANCH   6   7
ATOM      7  C   UNL A   1      35.404  21.382  25.337  1.00  0.00     0.309 C 
ATOM      8  O   UNL A   1      35.553  20.204  25.026  1.00  0.00    -0.252 OA
BRANCH   7   9
ATOM      9  C   UNL A   1      34.057  22.063  25.169  1.00  0.00     0.103 C 
ATOM     10  N   UNL A   1      30.308  25.294  26.660  1.00  0.00    -0.306 N 
ATOM     11  C   UNL A   1      30.588  23.962  26.682  1.00  0.00     0.321 C 
ATOM     12  H   UNL A   1      29.864  25.634  27.471  1.00  0.00     0.171 HD
ATOM     13  O   UNL A   1      29.887  23.236  27.390  1.00  0.00    -0.248 OA
ATOM     14  N   UNL A   1      31.645  23.466  25.953  1.00  0.00    -0.324 N 
ATOM     15  C   UNL A   1      31.523  22.130  25.403  1.00  0.00     0.122 C 
ATOM     16  C   UNL A   1      32.875  24.198  25.649  1.00  0.00     0.122 C 
ATOM     17  C   UNL A   1      32.789  21.289  25.528  1.00  0.00     0.037 C 
ATOM     18  C   UNL A   1      34.109  23.369  25.955  1.00  0.00     0.037 C 
BRANCH  10  19
ATOM     19  C   UNL A   1      30.548  26.270  25.669  1.00  0.00     0.064 A 
ATOM     20  C   UNL A   1      31.731  27.822  27.318  1.00  0.00     0.069 C 
ATOM     21  C   UNL A   1      31.319  27.409  25.936  1.00  0.00     0.061 A 
ATOM     22  N   UNL A   1      31.709  28.269  24.955  1.00  0.00    -0.259 NA
ATOM     23  C   UNL A   1      31.292  28.028  23.695  1.00  0.00     0.111 A 
ATOM     24  C   UNL A   1      30.027  26.145  24.378  1.00  0.00     0.030 A 
ATOM     25  C   UNL A   1      30.428  27.007  23.365  1.00  0.00     0.022 A 
ENDBRANCH  10  19
ENDBRANCH   7   9
ENDBRANCH   6   7
ENDBRANCH   5   6
ENDBRANCH   4   5
ENDBRANCH   3   4
ENDBRANCH   2   3
ENDBRANCH   1   2
BRANCH   1  26
ATOM     26  O   UNL A   1      43.029  20.732  25.419  1.00  0.00    -0.376 OA
BRANCH  26  27
ATOM     27  C   UNL A   1      44.097  21.671  25.366  1.00  0.00     0.202 C 
BRANCH  27  28
ATOM     28  C   UNL A   1      43.955  22.736  24.257  1.00  0.00     0.261 C 
BRANCH  28  29
ATOM     29  O   UNL A   1      43.391  24.011  24.650  1.00  0.00    -0.460 OA
BRANCH  29  30
ATOM     30  C   UNL A   1      44.238  24.935  25.168  1.00  0.00     0.338 C 
ATOM     31  O   UNL A   1      45.304  25.286  24.683  1.00  0.00    -0.246 OA
BRANCH  30  32
ATOM     32  C   UNL A   1      43.538  25.685  26.256  1.00  0.00     0.060 A 
ATOM     33  C   UNL A   1      43.835  27.048  26.421  1.00  0.00     0.016 A 
ATOM     34  C   UNL A   1      42.560  25.096  27.063  1.00  0.00     0.016 A 
ATOM     35  C   UNL A   1      43.206  27.803  27.420  1.00  0.00     0.010 A 
ATOM     36  C   UNL A   1      41.942  25.850  28.076  1.00  0.00     0.010 A 
ATOM     37  C   UNL A   1      42.287  27.199  28.289  1.00  0.00    -0.014 A 
BRANCH  37  38
ATOM     38  C   UNL A   1      41.836  27.917  29.517  1.00  0.00     0.031 A 
ATOM     39  C   UNL A   1      40.594  28.771  29.438  1.00  0.00     0.074 A 
ATOM     40  C   UNL A   1      42.476  27.804  30.696  1.00  0.00     0.049 A 
ATOM     41  N   UNL A   1      40.018  29.498  30.363  1.00  0.00    -0.248 NA
ATOM     42  C   UNL A   1      39.913  28.810  28.135  1.00  0.00     0.031 C 
ATOM     43  C   UNL A   1      43.664  26.990  30.942  1.00  0.00     0.029 A 
ATOM     44  N   UNL A   1      42.212  28.389  31.914  1.00  0.00    -0.354 N 
ATOM     45  C   UNL A   1      38.917  30.089  29.751  1.00  0.00     0.074 A 
ATOM     46  C   UNL A   1      38.924  29.657  28.369  1.00  0.00     0.031 C 
ATOM     47  C   UNL A   1      44.029  27.130  32.230  1.00  0.00     0.029 A 
ATOM     48  C   UNL A   1      43.122  28.067  32.893  1.00  0.00     0.049 A 
ATOM     49  H   UNL A   1      41.444  28.984  32.068  1.00  0.00     0.167 HD
ATOM     50  C   UNL A   1      37.979  30.908  30.287  1.00  0.00     0.037 A 
ATOM     51  C   UNL A   1      43.221  28.490  34.170  1.00  0.00     0.037 A 
ATOM     52  C   UNL A   1      37.961  31.344  31.659  1.00  0.00     0.049 A 
ATOM     53  C   UNL A   1      42.209  29.464  34.723  1.00  0.00     0.074 A 
ATOM     54  C   UNL A   1      37.028  32.145  32.296  1.00  0.00     0.029 A 
ATOM     55  N   UNL A   1      38.926  31.031  32.604  1.00  0.00    -0.354 N 
ATOM     56  N   UNL A   1      41.151  29.979  34.147  1.00  0.00    -0.248 NA
ATOM     57  C   UNL A   1      42.409  29.910  36.111  1.00  0.00     0.031 C 
ATOM     58  C   UNL A   1      37.462  32.371  33.607  1.00  0.00     0.029 A 
ATOM     59  C   UNL A   1      38.631  31.654  33.807  1.00  0.00     0.049 A 
ATOM     60  H   UNL A   1      39.705  30.451  32.444  1.00  0.00     0.167 HD
ATOM     61  C   UNL A   1      40.544  30.782  35.109  1.00  0.00     0.074 A 
ATOM     62  C   UNL A   1      41.341  30.670  36.311  1.00  0.00     0.031 C 
ATOM     63  C   UNL A   1      39.426  31.544  35.003  1.00  0.00     0.037 A 
BRANCH  50  64
ATOM     64  C   UNL A   1      36.905  31.419  29.369  1.00  0.00     0.057 A 
ATOM     65  C   UNL A   1      36.918  32.724  28.858  1.00  0.00     0.134 A 
ATOM     66  C   UNL A   1      35.855  30.581  28.969  1.00  0.00     0.134 A 
ATOM     67  F   UNL A   1      37.887  33.582  29.211  1.00  0.00    -0.206 F 
ATOM     68  C   UNL A   1      35.913  33.185  28.006  1.00  0.00     0.040 A 
ATOM     69  C   UNL A   1      34.861  31.022  28.092  1.00  0.00     0.040 A 
ATOM     70  F   UNL A   1      35.784  29.318  29.415  1.00  0.00    -0.206 F 
ATOM     71  C   UNL A   1      34.885  32.329  27.615  1.00  0.00     0.006 A 
ENDBRANCH  50  64
BRANCH  51  72
ATOM     72  C   UNL A   1      44.332  28.008  35.036  1.00  0.00     0.057 A 
ATOM     73  C   UNL A   1      45.536  28.717  35.135  1.00  0.00     0.134 A 
ATOM     74  C   UNL A   1      44.236  26.805  35.745  1.00  0.00     0.134 A 
ATOM     75  F   UNL A   1      45.704  29.860  34.454  1.00  0.00    -0.206 F 
ATOM     76  C   UNL A   1      46.609  28.239  35.891  1.00  0.00     0.040 A 
ATOM     77  C   UNL A   1      45.290  26.329  36.528  1.00  0.00     0.040 A 
ATOM     78  F   UNL A   1      43.115  26.071  35.685  1.00  0.00    -0.206 F 
ATOM     79  C   UNL A   1      46.485  27.044  36.595  1.00  0.00     0.006 A 
ENDBRANCH  51  72
BRANCH  63  80
ATOM     80  C   UNL A   1      38.978  32.289  36.232  1.00  0.00     0.057 A 
ATOM     81  C   UNL A   1      39.368  33.611  36.487  1.00  0.00     0.134 A 
ATOM     82  C   UNL A   1      38.130  31.679  37.168  1.00  0.00     0.134 A 
ATOM     83  F   UNL A   1      40.185  34.254  35.640  1.00  0.00    -0.206 F 
ATOM     84  C   UNL A   1      38.966  34.283  37.645  1.00  0.00     0.040 A 
ATOM     85  C   UNL A   1      37.694  32.353  38.311  1.00  0.00     0.040 A 
ATOM     86  F   UNL A   1      37.704  30.420  36.983  1.00  0.00    -0.206 F 
ATOM     87  C   UNL A   1      38.123  33.655  38.558  1.00  0.00     0.006 A 
ENDBRANCH  63  80
ENDBRANCH  37  38
ENDBRANCH  30  32
ENDBRANCH  29  30
ENDBRANCH  28  29
ENDBRANCH  27  28
ENDBRANCH  26  27
ENDBRANCH   1  26
TORSDOF 18
ENDMDL
