MODEL 1
REMARK VINA RESULT:     -10.3      0.000      0.000
REMARK SMILES N#C[C@H]1CN(c2cc(C(=O)OCCOCCOCCOC(=O)c3ccc(-c4c5nc(c(-c6c(F)cccc6F)c6ccc([nH]6)c(-c6c(F)cccc6F)c6nc(c(-c7c(F)cccc7F)c7ccc4[nH]7)C=C6)C=C5)cc3)c(N)cc2F)CCO1
REMARK SMILES IDX 15 1 14 2 13 3 12 4 11 5 9 6 10 7 8 8 6 9 7 10 80 11 79 12
REMARK SMILES IDX 81 13 77 14 5 15 3 16 4 17 84 18 83 19 82 20 2 21 1 22 78 23
REMARK SMILES IDX 16 26 17 27 18 28 19 29 20 30 21 31 22 32 23 33 24 34 76 35
REMARK SMILES IDX 25 36 75 37 26 38 27 39 28 40 69 41 29 42 74 43 68 44 70 45
REMARK SMILES IDX 30 46 73 47 67 48 66 49 31 51 57 52 40 53 56 54 41 55 44 56
REMARK SMILES IDX 55 57 71 58 42 59 43 60 54 62 72 63 45 64 32 65 33 66 38 67
REMARK SMILES IDX 34 68 35 69 37 70 39 71 36 72 58 73 59 74 64 75 60 76 61 77
REMARK SMILES IDX 63 78 65 79 62 80 46 81 47 82 52 83 48 84 49 85 51 86 53 87
REMARK SMILES IDX 50 88
REMARK H PARENT 78 24 78 25 70 50 44 61
REMARK Flexibility Score: inf
ROOT
ATOM      1  C   UNL A   1      32.428  28.398  25.938  1.00  0.00     0.188 C 
ENDROOT
BRANCH   1   2
ATOM      2  O   UNL A   1      32.572  28.753  24.575  1.00  0.00    -0.376 OA
BRANCH   2   3
ATOM      3  C   UNL A   1      33.804  28.544  23.902  1.00  0.00     0.202 C 
BRANCH   3   4
ATOM      4  C   UNL A   1      33.908  28.035  22.451  1.00  0.00     0.261 C 
BRANCH   4   5
ATOM      5  O   UNL A   1      32.723  27.459  21.884  1.00  0.00    -0.460 OA
BRANCH   5   6
ATOM      6  C   UNL A   1      32.699  26.102  21.804  1.00  0.00     0.340 C 
ATOM      7  O   UNL A   1      33.277  25.421  20.973  1.00  0.00    -0.246 OA
BRANCH   6   8
ATOM      8  C   UNL A   1      32.044  25.516  23.006  1.00  0.00     0.085 A 
ATOM      9  C   UNL A   1      32.147  23.728  24.678  1.00  0.00     0.074 A 
ATOM     10  C   UNL A   1      32.692  24.402  23.582  1.00  0.00     0.047 A 
ATOM     11  C   UNL A   1      30.919  24.192  25.165  1.00  0.00     0.148 A 
ATOM     12  C   UNL A   1      30.288  25.318  24.634  1.00  0.00     0.067 A 
ATOM     13  F   UNL A   1      30.326  23.548  26.184  1.00  0.00    -0.205 F 
ATOM     14  C   UNL A   1      30.870  26.036  23.584  1.00  0.00     0.049 A 
BRANCH   9  15
ATOM     15  N   UNL A   1      32.767  22.617  25.200  1.00  0.00    -0.363 N 
ATOM     16  C   UNL A   1      33.098  20.230  24.609  1.00  0.00     0.240 C 
ATOM     17  C   UNL A   1      32.142  21.288  25.218  1.00  0.00     0.164 C 
ATOM     18  O   UNL A   1      34.409  20.303  25.214  1.00  0.00    -0.360 OA
ATOM     19  C   UNL A   1      34.990  21.599  24.991  1.00  0.00     0.183 C 
ATOM     20  C   UNL A   1      34.156  22.703  25.652  1.00  0.00     0.145 C 
BRANCH  16  21
ATOM     21  C   UNL A   1      32.533  18.882  24.772  1.00  0.00     0.096 C 
ATOM     22  N   UNL A   1      32.134  17.792  24.867  1.00  0.00    -0.195 NA
ENDBRANCH  16  21
ENDBRANCH   9  15
BRANCH  14  23
ATOM     23  N   UNL A   1      30.197  27.146  23.078  1.00  0.00    -0.398 N 
ATOM     24  H   UNL A   1      29.462  27.025  22.435  1.00  0.00     0.156 HD
ATOM     25  H   UNL A   1      30.457  28.052  23.363  1.00  0.00     0.156 HD
ENDBRANCH  14  23
ENDBRANCH   6   8
ENDBRANCH   5   6
ENDBRANCH   4   5
ENDBRANCH   3   4
ENDBRANCH   2   3
ENDBRANCH   1   2
BRANCH   1  26
ATOM     26  C   UNL A   1      31.790  29.398  26.924  1.00  0.00     0.188 C 
BRANCH  26  27
ATOM     27  O   UNL A   1      32.401  30.664  26.987  1.00  0.00    -0.376 OA
BRANCH  27  28
ATOM     28  C   UNL A   1      31.626  31.824  26.736  1.00  0.00     0.202 C 
BRANCH  28  29
ATOM     29  C   UNL A   1      32.068  33.288  26.971  1.00  0.00     0.261 C 
BRANCH  29  30
ATOM     30  O   UNL A   1      32.227  33.768  28.312  1.00  0.00    -0.460 OA
BRANCH  30  31
ATOM     31  C   UNL A   1      33.282  34.592  28.531  1.00  0.00     0.338 C 
ATOM     32  O   UNL A   1      33.259  35.806  28.625  1.00  0.00    -0.246 OA
BRANCH  31  33
ATOM     33  C   UNL A   1      34.473  33.779  28.857  1.00  0.00     0.060 A 
ATOM     34  C   UNL A   1      34.288  32.580  29.557  1.00  0.00     0.016 A 
ATOM     35  C   UNL A   1      35.758  34.213  28.529  1.00  0.00     0.016 A 
ATOM     36  C   UNL A   1      35.392  31.824  29.948  1.00  0.00     0.010 A 
ATOM     37  C   UNL A   1      36.866  33.457  28.936  1.00  0.00     0.010 A 
ATOM     38  C   UNL A   1      36.690  32.268  29.667  1.00  0.00    -0.014 A 
BRANCH  38  39
ATOM     39  C   UNL A   1      37.838  31.549  30.278  1.00  0.00     0.031 A 
ATOM     40  C   UNL A   1      38.181  31.806  31.721  1.00  0.00     0.074 A 
ATOM     41  C   UNL A   1      38.518  30.619  29.584  1.00  0.00     0.049 A 
ATOM     42  N   UNL A   1      39.134  31.293  32.458  1.00  0.00    -0.248 NA
ATOM     43  C   UNL A   1      37.338  32.786  32.422  1.00  0.00     0.031 C 
ATOM     44  C   UNL A   1      38.251  30.232  28.199  1.00  0.00     0.029 A 
ATOM     45  N   UNL A   1      39.567  29.818  29.961  1.00  0.00    -0.354 N 
ATOM     46  C   UNL A   1      38.997  31.875  33.711  1.00  0.00     0.074 A 
ATOM     47  C   UNL A   1      37.908  32.826  33.617  1.00  0.00     0.031 C 
ATOM     48  C   UNL A   1      39.111  29.260  27.848  1.00  0.00     0.029 A 
ATOM     49  C   UNL A   1      40.011  28.984  28.967  1.00  0.00     0.049 A 
ATOM     50  H   UNL A   1      39.963  29.840  30.862  1.00  0.00     0.167 HD
ATOM     51  C   UNL A   1      39.703  31.634  34.842  1.00  0.00     0.037 A 
ATOM     52  C   UNL A   1      41.037  28.110  28.955  1.00  0.00     0.037 A 
ATOM     53  C   UNL A   1      40.789  30.689  34.935  1.00  0.00     0.049 A 
ATOM     54  C   UNL A   1      41.874  27.932  30.196  1.00  0.00     0.074 A 
ATOM     55  C   UNL A   1      41.572  30.378  36.033  1.00  0.00     0.029 A 
ATOM     56  N   UNL A   1      41.249  29.907  33.885  1.00  0.00    -0.354 N 
ATOM     57  N   UNL A   1      41.746  28.492  31.375  1.00  0.00    -0.248 NA
ATOM     58  C   UNL A   1      43.002  26.994  30.100  1.00  0.00     0.031 C 
ATOM     59  C   UNL A   1      42.552  29.466  35.629  1.00  0.00     0.029 A 
ATOM     60  C   UNL A   1      42.334  29.147  34.299  1.00  0.00     0.049 A 
ATOM     61  H   UNL A   1      40.861  29.892  32.980  1.00  0.00     0.167 HD
ATOM     62  C   UNL A   1      42.750  27.951  32.168  1.00  0.00     0.074 A 
ATOM     63  C   UNL A   1      43.467  27.004  31.340  1.00  0.00     0.031 C 
ATOM     64  C   UNL A   1      43.052  28.213  33.466  1.00  0.00     0.037 A 
BRANCH  51  65
ATOM     65  C   UNL A   1      39.352  32.446  36.059  1.00  0.00     0.057 A 
ATOM     66  C   UNL A   1      38.415  32.012  37.007  1.00  0.00     0.134 A 
ATOM     67  C   UNL A   1      39.968  33.685  36.287  1.00  0.00     0.134 A 
ATOM     68  F   UNL A   1      37.776  30.843  36.847  1.00  0.00    -0.206 F 
ATOM     69  C   UNL A   1      38.075  32.796  38.112  1.00  0.00     0.040 A 
ATOM     70  C   UNL A   1      39.661  34.461  37.407  1.00  0.00     0.040 A 
ATOM     71  F   UNL A   1      40.879  34.163  35.427  1.00  0.00    -0.206 F 
ATOM     72  C   UNL A   1      38.704  34.022  38.317  1.00  0.00     0.006 A 
ENDBRANCH  51  65
BRANCH  52  73
ATOM     73  C   UNL A   1      41.348  27.345  27.719  1.00  0.00     0.057 A 
ATOM     74  C   UNL A   1      42.071  27.920  26.668  1.00  0.00     0.134 A 
ATOM     75  C   UNL A   1      40.905  26.027  27.548  1.00  0.00     0.134 A 
ATOM     76  F   UNL A   1      42.499  29.188  26.756  1.00  0.00    -0.206 F 
ATOM     77  C   UNL A   1      42.326  27.222  25.486  1.00  0.00     0.040 A 
ATOM     78  C   UNL A   1      41.182  25.306  26.385  1.00  0.00     0.040 A 
ATOM     79  F   UNL A   1      40.203  25.416  28.515  1.00  0.00    -0.206 F 
ATOM     80  C   UNL A   1      41.888  25.907  25.346  1.00  0.00     0.006 A 
ENDBRANCH  52  73
BRANCH  64  81
ATOM     81  C   UNL A   1      44.190  27.438  34.076  1.00  0.00     0.057 A 
ATOM     82  C   UNL A   1      45.506  27.921  34.082  1.00  0.00     0.134 A 
ATOM     83  C   UNL A   1      43.967  26.186  34.666  1.00  0.00     0.134 A 
ATOM     84  F   UNL A   1      45.798  29.110  33.532  1.00  0.00    -0.206 F 
ATOM     85  C   UNL A   1      46.561  27.168  34.603  1.00  0.00     0.040 A 
ATOM     86  C   UNL A   1      45.008  25.441  35.223  1.00  0.00     0.040 A 
ATOM     87  F   UNL A   1      42.732  25.663  34.713  1.00  0.00    -0.206 F 
ATOM     88  C   UNL A   1      46.312  25.924  35.179  1.00  0.00     0.006 A 
ENDBRANCH  64  81
ENDBRANCH  38  39
ENDBRANCH  31  33
ENDBRANCH  30  31
ENDBRANCH  29  30
ENDBRANCH  28  29
ENDBRANCH  27  28
ENDBRANCH  26  27
ENDBRANCH   1  26
TORSDOF 20
ENDMDL
MODEL 2
REMARK VINA RESULT:     -10.3      2.621      8.258
REMARK SMILES N#C[C@H]1CN(c2cc(C(=O)OCCOCCOCCOC(=O)c3ccc(-c4c5nc(c(-c6c(F)cccc6F)c6ccc([nH]6)c(-c6c(F)cccc6F)c6nc(c(-c7c(F)cccc7F)c7ccc4[nH]7)C=C6)C=C5)cc3)c(N)cc2F)CCO1
REMARK SMILES IDX 15 1 14 2 13 3 12 4 11 5 9 6 10 7 8 8 6 9 7 10 80 11 79 12
REMARK SMILES IDX 81 13 77 14 5 15 3 16 4 17 84 18 83 19 82 20 2 21 1 22 78 23
REMARK SMILES IDX 16 26 17 27 18 28 19 29 20 30 21 31 22 32 23 33 24 34 76 35
REMARK SMILES IDX 25 36 75 37 26 38 27 39 28 40 69 41 29 42 74 43 68 44 70 45
REMARK SMILES IDX 30 46 73 47 67 48 66 49 31 51 57 52 40 53 56 54 41 55 44 56
REMARK SMILES IDX 55 57 71 58 42 59 43 60 54 62 72 63 45 64 32 65 33 66 38 67
REMARK SMILES IDX 34 68 35 69 37 70 39 71 36 72 58 73 59 74 64 75 60 76 61 77
REMARK SMILES IDX 63 78 65 79 62 80 46 81 47 82 52 83 48 84 49 85 51 86 53 87
REMARK SMILES IDX 50 88
REMARK H PARENT 78 24 78 25 70 50 44 61
REMARK Flexibility Score: inf
ROOT
ATOM      1  C   UNL A   1      39.021  21.463  25.902  1.00  0.00     0.188 C 
ENDROOT
BRANCH   1   2
ATOM      2  O   UNL A   1      38.048  22.469  26.110  1.00  0.00    -0.376 OA
BRANCH   2   3
ATOM      3  C   UNL A   1      36.685  22.231  25.793  1.00  0.00     0.202 C 
BRANCH   3   4
ATOM      4  C   UNL A   1      35.507  22.904  26.526  1.00  0.00     0.261 C 
BRANCH   4   5
ATOM      5  O   UNL A   1      34.735  22.072  27.403  1.00  0.00    -0.460 OA
BRANCH   5   6
ATOM      6  C   UNL A   1      33.385  22.147  27.259  1.00  0.00     0.340 C 
ATOM      7  O   UNL A   1      32.598  22.586  28.081  1.00  0.00    -0.246 OA
BRANCH   6   8
ATOM      8  C   UNL A   1      32.986  21.821  25.862  1.00  0.00     0.085 A 
ATOM      9  C   UNL A   1      32.265  22.748  23.712  1.00  0.00     0.074 A 
ATOM     10  C   UNL A   1      32.704  22.923  25.026  1.00  0.00     0.047 A 
ATOM     11  C   UNL A   1      32.094  21.430  23.268  1.00  0.00     0.148 A 
ATOM     12  C   UNL A   1      32.408  20.331  24.068  1.00  0.00     0.067 A 
ATOM     13  F   UNL A   1      31.623  21.206  22.030  1.00  0.00    -0.205 F 
ATOM     14  C   UNL A   1      32.919  20.508  25.358  1.00  0.00     0.049 A 
BRANCH   9  15
ATOM     15  N   UNL A   1      31.951  23.831  22.924  1.00  0.00    -0.363 N 
ATOM     16  C   UNL A   1      31.186  26.173  23.213  1.00  0.00     0.240 C 
ATOM     17  C   UNL A   1      30.776  24.679  23.163  1.00  0.00     0.164 C 
ATOM     18  O   UNL A   1      31.982  26.533  22.061  1.00  0.00    -0.360 OA
ATOM     19  C   UNL A   1      33.186  25.749  22.021  1.00  0.00     0.183 C 
ATOM     20  C   UNL A   1      32.872  24.256  21.870  1.00  0.00     0.145 C 
BRANCH  16  21
ATOM     21  C   UNL A   1      29.990  27.025  23.296  1.00  0.00     0.096 C 
ATOM     22  N   UNL A   1      29.068  27.737  23.317  1.00  0.00    -0.195 NA
ENDBRANCH  16  21
ENDBRANCH   9  15
BRANCH  14  23
ATOM     23  N   UNL A   1      33.208  19.381  26.124  1.00  0.00    -0.398 N 
ATOM     24  H   UNL A   1      33.085  19.404  27.101  1.00  0.00     0.156 HD
ATOM     25  H   UNL A   1      33.535  18.560  25.689  1.00  0.00     0.156 HD
ENDBRANCH  14  23
ENDBRANCH   6   8
ENDBRANCH   5   6
ENDBRANCH   4   5
ENDBRANCH   3   4
ENDBRANCH   2   3
ENDBRANCH   1   2
BRANCH   1  26
ATOM     26  C   UNL A   1      40.467  21.688  26.389  1.00  0.00     0.188 C 
BRANCH  26  27
ATOM     27  O   UNL A   1      41.450  20.903  25.759  1.00  0.00    -0.376 OA
BRANCH  27  28
ATOM     28  C   UNL A   1      42.820  21.162  26.019  1.00  0.00     0.202 C 
BRANCH  28  29
ATOM     29  C   UNL A   1      43.757  22.058  25.175  1.00  0.00     0.261 C 
BRANCH  29  30
ATOM     30  O   UNL A   1      43.300  23.347  24.747  1.00  0.00    -0.460 OA
BRANCH  30  31
ATOM     31  C   UNL A   1      44.075  24.403  25.099  1.00  0.00     0.338 C 
ATOM     32  O   UNL A   1      45.132  24.739  24.595  1.00  0.00    -0.246 OA
BRANCH  31  33
ATOM     33  C   UNL A   1      43.342  25.242  26.070  1.00  0.00     0.060 A 
ATOM     34  C   UNL A   1      43.795  26.548  26.295  1.00  0.00     0.016 A 
ATOM     35  C   UNL A   1      42.257  24.738  26.789  1.00  0.00     0.016 A 
ATOM     36  C   UNL A   1      43.177  27.344  27.258  1.00  0.00     0.010 A 
ATOM     37  C   UNL A   1      41.647  25.537  27.766  1.00  0.00     0.010 A 
ATOM     38  C   UNL A   1      42.117  26.839  28.021  1.00  0.00    -0.014 A 
BRANCH  38  39
ATOM     39  C   UNL A   1      41.623  27.636  29.173  1.00  0.00     0.031 A 
ATOM     40  C   UNL A   1      42.360  27.567  30.484  1.00  0.00     0.074 A 
ATOM     41  C   UNL A   1      40.580  28.474  29.035  1.00  0.00     0.049 A 
ATOM     42  N   UNL A   1      42.111  28.175  31.616  1.00  0.00    -0.248 NA
ATOM     43  C   UNL A   1      43.532  26.679  30.521  1.00  0.00     0.031 C 
ATOM     44  C   UNL A   1      39.815  28.680  27.807  1.00  0.00     0.029 A 
ATOM     45  N   UNL A   1      39.995  29.323  29.942  1.00  0.00    -0.354 N 
ATOM     46  C   UNL A   1      43.101  27.756  32.495  1.00  0.00     0.074 A 
ATOM     47  C   UNL A   1      43.917  26.794  31.783  1.00  0.00     0.031 C 
ATOM     48  C   UNL A   1      38.867  29.605  28.036  1.00  0.00     0.029 A 
ATOM     49  C   UNL A   1      38.933  30.027  29.435  1.00  0.00     0.049 A 
ATOM     50  H   UNL A   1      40.310  29.418  30.870  1.00  0.00     0.167 HD
ATOM     51  C   UNL A   1      43.320  28.143  33.775  1.00  0.00     0.037 A 
ATOM     52  C   UNL A   1      38.098  30.898  30.035  1.00  0.00     0.037 A 
ATOM     53  C   UNL A   1      42.506  29.098  34.485  1.00  0.00     0.049 A 
ATOM     54  C   UNL A   1      38.300  31.237  31.490  1.00  0.00     0.074 A 
ATOM     55  C   UNL A   1      42.641  29.551  35.785  1.00  0.00     0.029 A 
ATOM     56  N   UNL A   1      41.399  29.744  33.953  1.00  0.00    -0.354 N 
ATOM     57  N   UNL A   1      39.231  30.831  32.319  1.00  0.00    -0.248 NA
ATOM     58  C   UNL A   1      37.328  32.162  32.092  1.00  0.00     0.031 C 
ATOM     59  C   UNL A   1      41.573  30.411  36.065  1.00  0.00     0.029 A 
ATOM     60  C   UNL A   1      40.815  30.556  34.915  1.00  0.00     0.049 A 
ATOM     61  H   UNL A   1      41.075  29.641  33.029  1.00  0.00     0.167 HD
ATOM     62  C   UNL A   1      38.980  31.474  33.524  1.00  0.00     0.074 A 
ATOM     63  C   UNL A   1      37.819  32.313  33.312  1.00  0.00     0.031 C 
ATOM     64  C   UNL A   1      39.651  31.381  34.701  1.00  0.00     0.037 A 
BRANCH  51  65
ATOM     65  C   UNL A   1      44.462  27.490  34.505  1.00  0.00     0.057 A 
ATOM     66  C   UNL A   1      45.745  28.053  34.550  1.00  0.00     0.134 A 
ATOM     67  C   UNL A   1      44.271  26.276  35.180  1.00  0.00     0.134 A 
ATOM     68  F   UNL A   1      46.005  29.206  33.915  1.00  0.00    -0.206 F 
ATOM     69  C   UNL A   1      46.803  27.414  35.202  1.00  0.00     0.040 A 
ATOM     70  C   UNL A   1      45.312  25.646  35.865  1.00  0.00     0.040 A 
ATOM     71  F   UNL A   1      43.070  25.681  35.187  1.00  0.00    -0.206 F 
ATOM     72  C   UNL A   1      46.585  26.210  35.867  1.00  0.00     0.006 A 
ENDBRANCH  51  65
BRANCH  52  73
ATOM     73  C   UNL A   1      36.976  31.502  29.269  1.00  0.00     0.057 A 
ATOM     74  C   UNL A   1      35.821  30.771  28.969  1.00  0.00     0.134 A 
ATOM     75  C   UNL A   1      37.046  32.817  28.792  1.00  0.00     0.134 A 
ATOM     76  F   UNL A   1      35.703  29.497  29.372  1.00  0.00    -0.206 F 
ATOM     77  C   UNL A   1      34.784  31.318  28.210  1.00  0.00     0.040 A 
ATOM     78  C   UNL A   1      36.003  33.387  28.060  1.00  0.00     0.040 A 
ATOM     79  F   UNL A   1      38.126  33.572  29.039  1.00  0.00    -0.206 F 
ATOM     80  C   UNL A   1      34.871  32.634  27.760  1.00  0.00     0.006 A 
ENDBRANCH  52  73
BRANCH  64  81
ATOM     81  C   UNL A   1      39.159  32.234  35.841  1.00  0.00     0.057 A 
ATOM     82  C   UNL A   1      39.562  33.567  36.006  1.00  0.00     0.134 A 
ATOM     83  C   UNL A   1      38.269  31.714  36.791  1.00  0.00     0.134 A 
ATOM     84  F   UNL A   1      40.416  34.133  35.140  1.00  0.00    -0.206 F 
ATOM     85  C   UNL A   1      39.142  34.330  37.099  1.00  0.00     0.040 A 
ATOM     86  C   UNL A   1      37.812  32.479  37.866  1.00  0.00     0.040 A 
ATOM     87  F   UNL A   1      37.824  30.451  36.691  1.00  0.00    -0.206 F 
ATOM     88  C   UNL A   1      38.261  33.786  38.031  1.00  0.00     0.006 A 
ENDBRANCH  64  81
ENDBRANCH  38  39
ENDBRANCH  31  33
ENDBRANCH  30  31
ENDBRANCH  29  30
ENDBRANCH  28  29
ENDBRANCH  27  28
ENDBRANCH  26  27
ENDBRANCH   1  26
TORSDOF 20
ENDMDL
MODEL 3
REMARK VINA RESULT:     -10.1      1.348      2.091
REMARK SMILES N#C[C@H]1CN(c2cc(C(=O)OCCOCCOCCOC(=O)c3ccc(-c4c5nc(c(-c6c(F)cccc6F)c6ccc([nH]6)c(-c6c(F)cccc6F)c6nc(c(-c7c(F)cccc7F)c7ccc4[nH]7)C=C6)C=C5)cc3)c(N)cc2F)CCO1
REMARK SMILES IDX 15 1 14 2 13 3 12 4 11 5 9 6 10 7 8 8 6 9 7 10 80 11 79 12
REMARK SMILES IDX 81 13 77 14 5 15 3 16 4 17 84 18 83 19 82 20 2 21 1 22 78 23
REMARK SMILES IDX 16 26 17 27 18 28 19 29 20 30 21 31 22 32 23 33 24 34 76 35
REMARK SMILES IDX 25 36 75 37 26 38 27 39 28 40 69 41 29 42 74 43 68 44 70 45
REMARK SMILES IDX 30 46 73 47 67 48 66 49 31 51 57 52 40 53 56 54 41 55 44 56
REMARK SMILES IDX 55 57 71 58 42 59 43 60 54 62 72 63 45 64 32 65 33 66 38 67
REMARK SMILES IDX 34 68 35 69 37 70 39 71 36 72 58 73 59 74 64 75 60 76 61 77
REMARK SMILES IDX 63 78 65 79 62 80 46 81 47 82 52 83 48 84 49 85 51 86 53 87
REMARK SMILES IDX 50 88
REMARK H PARENT 78 24 78 25 70 50 44 61
REMARK Flexibility Score: inf
ROOT
ATOM      1  C   UNL A   1      32.921  28.822  25.033  1.00  0.00     0.188 C 
ENDROOT
BRANCH   1   2
ATOM      2  O   UNL A   1      33.347  29.311  23.774  1.00  0.00    -0.376 OA
BRANCH   2   3
ATOM      3  C   UNL A   1      34.038  28.465  22.869  1.00  0.00     0.202 C 
BRANCH   3   4
ATOM      4  C   UNL A   1      33.362  27.326  22.080  1.00  0.00     0.261 C 
BRANCH   4   5
ATOM      5  O   UNL A   1      34.054  26.069  22.043  1.00  0.00    -0.460 OA
BRANCH   5   6
ATOM      6  C   UNL A   1      33.287  24.974  21.801  1.00  0.00     0.340 C 
ATOM      7  O   UNL A   1      32.922  24.580  20.705  1.00  0.00    -0.246 OA
BRANCH   6   8
ATOM      8  C   UNL A   1      33.117  24.166  23.040  1.00  0.00     0.085 A 
ATOM      9  C   UNL A   1      34.281  23.054  24.887  1.00  0.00     0.074 A 
ATOM     10  C   UNL A   1      34.302  23.853  23.742  1.00  0.00     0.047 A 
ATOM     11  C   UNL A   1      33.036  22.557  25.295  1.00  0.00     0.148 A 
ATOM     12  C   UNL A   1      31.852  22.893  24.637  1.00  0.00     0.067 A 
ATOM     13  F   UNL A   1      32.967  21.741  26.360  1.00  0.00    -0.205 F 
ATOM     14  C   UNL A   1      31.865  23.753  23.534  1.00  0.00     0.049 A 
BRANCH   9  15
ATOM     15  N   UNL A   1      35.448  22.720  25.534  1.00  0.00    -0.363 N 
ATOM     16  C   UNL A   1      37.550  21.495  25.050  1.00  0.00     0.240 C 
ATOM     17  C   UNL A   1      36.056  21.386  25.448  1.00  0.00     0.164 C 
ATOM     18  O   UNL A   1      38.248  22.437  25.897  1.00  0.00    -0.360 OA
ATOM     19  C   UNL A   1      37.664  23.745  25.774  1.00  0.00     0.183 C 
ATOM     20  C   UNL A   1      36.206  23.749  26.246  1.00  0.00     0.145 C 
BRANCH  16  21
ATOM     21  C   UNL A   1      38.191  20.173  25.118  1.00  0.00     0.096 C 
ATOM     22  N   UNL A   1      38.657  19.105  25.129  1.00  0.00    -0.195 NA
ENDBRANCH  16  21
ENDBRANCH   9  15
BRANCH  14  23
ATOM     23  N   UNL A   1      30.660  24.050  22.902  1.00  0.00    -0.398 N 
ATOM     24  H   UNL A   1      30.360  23.510  22.135  1.00  0.00     0.156 HD
ATOM     25  H   UNL A   1      30.107  24.799  23.222  1.00  0.00     0.156 HD
ENDBRANCH  14  23
ENDBRANCH   6   8
ENDBRANCH   5   6
ENDBRANCH   4   5
ENDBRANCH   3   4
ENDBRANCH   2   3
ENDBRANCH   1   2
BRANCH   1  26
ATOM     26  C   UNL A   1      31.648  29.399  25.684  1.00  0.00     0.188 C 
BRANCH  26  27
ATOM     27  O   UNL A   1      31.493  30.794  25.586  1.00  0.00    -0.376 OA
BRANCH  27  28
ATOM     28  C   UNL A   1      31.514  31.582  26.766  1.00  0.00     0.202 C 
BRANCH  28  29
ATOM     29  C   UNL A   1      32.024  33.037  26.884  1.00  0.00     0.261 C 
BRANCH  29  30
ATOM     30  O   UNL A   1      32.240  33.604  28.183  1.00  0.00    -0.460 OA
BRANCH  30  31
ATOM     31  C   UNL A   1      33.309  34.428  28.305  1.00  0.00     0.338 C 
ATOM     32  O   UNL A   1      33.302  35.646  28.305  1.00  0.00    -0.246 OA
BRANCH  31  33
ATOM     33  C   UNL A   1      34.502  33.629  28.657  1.00  0.00     0.060 A 
ATOM     34  C   UNL A   1      34.314  32.420  29.339  1.00  0.00     0.016 A 
ATOM     35  C   UNL A   1      35.790  34.084  28.370  1.00  0.00     0.016 A 
ATOM     36  C   UNL A   1      35.416  31.675  29.754  1.00  0.00     0.010 A 
ATOM     37  C   UNL A   1      36.896  33.338  28.801  1.00  0.00     0.010 A 
ATOM     38  C   UNL A   1      36.716  32.139  29.515  1.00  0.00    -0.014 A 
BRANCH  38  39
ATOM     39  C   UNL A   1      37.855  31.430  30.151  1.00  0.00     0.031 A 
ATOM     40  C   UNL A   1      38.162  31.686  31.602  1.00  0.00     0.074 A 
ATOM     41  C   UNL A   1      38.560  30.507  29.471  1.00  0.00     0.049 A 
ATOM     42  N   UNL A   1      39.101  31.180  32.360  1.00  0.00    -0.248 NA
ATOM     43  C   UNL A   1      37.293  32.656  32.286  1.00  0.00     0.031 C 
ATOM     44  C   UNL A   1      38.330  30.122  28.080  1.00  0.00     0.029 A 
ATOM     45  N   UNL A   1      39.608  29.715  29.871  1.00  0.00    -0.354 N 
ATOM     46  C   UNL A   1      38.930  31.758  33.612  1.00  0.00     0.074 A 
ATOM     47  C   UNL A   1      37.835  32.699  33.494  1.00  0.00     0.031 C 
ATOM     48  C   UNL A   1      39.206  29.158  27.746  1.00  0.00     0.029 A 
ATOM     49  C   UNL A   1      40.083  28.888  28.886  1.00  0.00     0.049 A 
ATOM     50  H   UNL A   1      39.982  29.739  30.782  1.00  0.00     0.167 HD
ATOM     51  C   UNL A   1      39.611  31.521  34.758  1.00  0.00     0.037 A 
ATOM     52  C   UNL A   1      41.117  28.024  28.897  1.00  0.00     0.037 A 
ATOM     53  C   UNL A   1      40.703  30.586  34.874  1.00  0.00     0.049 A 
ATOM     54  C   UNL A   1      41.926  27.851  30.156  1.00  0.00     0.074 A 
ATOM     55  C   UNL A   1      41.463  30.279  35.990  1.00  0.00     0.029 A 
ATOM     56  N   UNL A   1      41.195  29.810  33.834  1.00  0.00    -0.354 N 
ATOM     57  N   UNL A   1      41.765  28.406  31.333  1.00  0.00    -0.248 NA
ATOM     58  C   UNL A   1      43.065  26.924  30.086  1.00  0.00     0.031 C 
ATOM     59  C   UNL A   1      42.461  29.377  35.608  1.00  0.00     0.029 A 
ATOM     60  C   UNL A   1      42.277  29.059  34.272  1.00  0.00     0.049 A 
ATOM     61  H   UNL A   1      40.829  29.794  32.920  1.00  0.00     0.167 HD
ATOM     62  C   UNL A   1      42.755  27.873  32.149  1.00  0.00     0.074 A 
ATOM     63  C   UNL A   1      43.500  26.934  31.336  1.00  0.00     0.031 C 
ATOM     64  C   UNL A   1      43.023  28.134  33.454  1.00  0.00     0.037 A 
BRANCH  51  65
ATOM     65  C   UNL A   1      39.224  32.326  35.968  1.00  0.00     0.057 A 
ATOM     66  C   UNL A   1      39.735  33.608  36.212  1.00  0.00     0.134 A 
ATOM     67  C   UNL A   1      38.319  31.808  36.905  1.00  0.00     0.134 A 
ATOM     68  F   UNL A   1      40.617  34.162  35.366  1.00  0.00    -0.206 F 
ATOM     69  C   UNL A   1      39.393  34.327  37.360  1.00  0.00     0.040 A 
ATOM     70  C   UNL A   1      37.941  32.533  38.038  1.00  0.00     0.040 A 
ATOM     71  F   UNL A   1      37.783  30.591  36.735  1.00  0.00    -0.206 F 
ATOM     72  C   UNL A   1      38.488  33.791  38.273  1.00  0.00     0.006 A 
ENDBRANCH  51  65
BRANCH  52  73
ATOM     73  C   UNL A   1      41.464  27.264  27.667  1.00  0.00     0.057 A 
ATOM     74  C   UNL A   1      42.283  27.817  26.675  1.00  0.00     0.134 A 
ATOM     75  C   UNL A   1      40.961  25.977  27.440  1.00  0.00     0.134 A 
ATOM     76  F   UNL A   1      42.774  29.057  26.818  1.00  0.00    -0.206 F 
ATOM     77  C   UNL A   1      42.576  27.127  25.497  1.00  0.00     0.040 A 
ATOM     78  C   UNL A   1      41.272  25.262  26.282  1.00  0.00     0.040 A 
ATOM     79  F   UNL A   1      40.167  25.389  28.347  1.00  0.00    -0.206 F 
ATOM     80  C   UNL A   1      42.075  25.841  25.302  1.00  0.00     0.006 A 
ENDBRANCH  52  73
BRANCH  64  81
ATOM     81  C   UNL A   1      44.154  27.368  34.089  1.00  0.00     0.057 A 
ATOM     82  C   UNL A   1      43.966  26.113  34.684  1.00  0.00     0.134 A 
ATOM     83  C   UNL A   1      45.452  27.896  34.109  1.00  0.00     0.134 A 
ATOM     84  F   UNL A   1      42.750  25.546  34.709  1.00  0.00    -0.206 F 
ATOM     85  C   UNL A   1      45.012  25.438  35.319  1.00  0.00     0.040 A 
ATOM     86  C   UNL A   1      46.514  27.213  34.706  1.00  0.00     0.040 A 
ATOM     87  F   UNL A   1      45.716  29.085  33.545  1.00  0.00    -0.206 F 
ATOM     88  C   UNL A   1      46.292  25.988  35.328  1.00  0.00     0.006 A 
ENDBRANCH  64  81
ENDBRANCH  38  39
ENDBRANCH  31  33
ENDBRANCH  30  31
ENDBRANCH  29  30
ENDBRANCH  28  29
ENDBRANCH  27  28
ENDBRANCH  26  27
ENDBRANCH   1  26
TORSDOF 20
ENDMDL
