MODEL 1
REMARK VINA RESULT:     -10.9      0.000      0.000
REMARK SMILES Cc1nc(=O)[nH]c(C)c1CC(=O)Nc1sccc1C(=O)OCCOCCOCCOC(=O)c1ccc(-c2c3nc(c(-c4c(F)cccc4F)c4ccc([nH]4)c(-c4c(F)cccc4F)c4nc(c(-c5c(F)cccc5F)c5ccc2[nH]5)C=C4)C=C3)cc1
REMARK SMILES IDX 25 1 24 2 23 3 22 4 21 5 19 6 20 7 18 8 14 9 15 10 16 11
REMARK SMILES IDX 17 12 13 13 11 14 12 15 10 17 9 18 1 19 2 20 3 21 4 22 7 23
REMARK SMILES IDX 5 24 6 25 8 26 26 28 27 29 28 30 29 31 30 32 31 33 32 34
REMARK SMILES IDX 33 35 34 36 86 37 35 38 85 39 36 40 37 41 38 42 79 43 39 44
REMARK SMILES IDX 84 45 78 46 80 47 40 48 83 49 77 50 76 51 41 53 67 54 50 55
REMARK SMILES IDX 66 56 51 57 54 58 65 59 81 60 52 61 53 62 64 64 82 65 55 66
REMARK SMILES IDX 42 67 43 68 48 69 44 70 45 71 47 72 49 73 46 74 68 75 69 76
REMARK SMILES IDX 74 77 70 78 71 79 73 80 75 81 72 82 56 83 57 84 62 85 58 86
REMARK SMILES IDX 59 87 61 88 63 89 60 90
REMARK H PARENT 13 16 6 27 80 52 54 63
REMARK Flexibility Score: inf
ROOT
ATOM      1  C   UNL A   1      34.278  32.661  28.430  1.00  0.00     0.188 C 
ENDROOT
BRANCH   1   2
ATOM      2  O   UNL A   1      33.370  31.937  27.619  1.00  0.00    -0.376 OA
BRANCH   2   3
ATOM      3  C   UNL A   1      33.619  30.548  27.490  1.00  0.00     0.202 C 
BRANCH   3   4
ATOM      4  C   UNL A   1      32.351  29.729  27.265  1.00  0.00     0.261 C 
BRANCH   4   5
ATOM      5  O   UNL A   1      32.419  28.291  27.113  1.00  0.00    -0.460 OA
BRANCH   5   6
ATOM      6  C   UNL A   1      32.736  27.662  25.954  1.00  0.00     0.341 C 
ATOM      7  O   UNL A   1      33.839  27.231  25.660  1.00  0.00    -0.246 OA
BRANCH   6   8
ATOM      8  C   UNL A   1      31.569  27.413  25.114  1.00  0.00     0.094 A 
ATOM      9  C   UNL A   1      30.626  26.423  25.294  1.00  0.00     0.110 A 
ATOM     10  S   UNL A   1      29.657  26.166  23.923  1.00  0.00    -0.126 S 
ATOM     11  C   UNL A   1      30.269  27.574  23.167  1.00  0.00     0.068 A 
ATOM     12  C   UNL A   1      31.293  28.135  23.898  1.00  0.00     0.029 A 
BRANCH   9  13
ATOM     13  N   UNL A   1      30.360  25.570  26.335  1.00  0.00    -0.317 N 
ATOM     14  C   UNL A   1      30.850  24.297  26.477  1.00  0.00     0.229 C 
ATOM     15  O   UNL A   1      30.324  23.538  27.293  1.00  0.00    -0.274 OA
ATOM     16  H   UNL A   1      29.763  25.902  27.045  1.00  0.00     0.170 HD
BRANCH  14  17
ATOM     17  C   UNL A   1      32.171  23.916  25.783  1.00  0.00     0.139 C 
BRANCH  17  18
ATOM     18  C   UNL A   1      32.545  22.466  25.681  1.00  0.00     0.002 A 
ATOM     19  C   UNL A   1      31.758  22.418  23.182  1.00  0.00     0.067 C 
ATOM     20  C   UNL A   1      32.271  21.696  24.412  1.00  0.00     0.049 A 
ATOM     21  N   UNL A   1      32.443  20.422  24.266  1.00  0.00    -0.198 NA
ATOM     22  C   UNL A   1      32.917  19.692  25.316  1.00  0.00     0.345 A 
ATOM     23  C   UNL A   1      33.161  21.730  26.626  1.00  0.00     0.022 A 
ATOM     24  O   UNL A   1      33.033  18.471  25.295  1.00  0.00    -0.246 OA
ATOM     25  N   UNL A   1      33.315  20.380  26.434  1.00  0.00    -0.310 N 
ATOM     26  C   UNL A   1      33.681  22.265  27.931  1.00  0.00     0.065 C 
ATOM     27  H   UNL A   1      33.744  19.865  27.154  1.00  0.00     0.171 HD
ENDBRANCH  17  18
ENDBRANCH  14  17
ENDBRANCH   9  13
ENDBRANCH   6   8
ENDBRANCH   5   6
ENDBRANCH   4   5
ENDBRANCH   3   4
ENDBRANCH   2   3
ENDBRANCH   1   2
BRANCH   1  28
ATOM     28  C   UNL A   1      34.286  34.186  28.197  1.00  0.00     0.188 C 
BRANCH  28  29
ATOM     29  O   UNL A   1      34.489  35.072  29.290  1.00  0.00    -0.376 OA
BRANCH  29  30
ATOM     30  C   UNL A   1      33.736  34.880  30.479  1.00  0.00     0.202 C 
BRANCH  30  31
ATOM     31  C   UNL A   1      34.482  34.364  31.716  1.00  0.00     0.261 C 
BRANCH  31  32
ATOM     32  O   UNL A   1      35.846  33.992  31.445  1.00  0.00    -0.460 OA
BRANCH  32  33
ATOM     33  C   UNL A   1      36.428  33.169  32.351  1.00  0.00     0.338 C 
ATOM     34  O   UNL A   1      36.187  33.104  33.545  1.00  0.00    -0.246 OA
BRANCH  33  35
ATOM     35  C   UNL A   1      37.259  32.157  31.652  1.00  0.00     0.060 A 
ATOM     36  C   UNL A   1      38.130  31.380  32.433  1.00  0.00     0.016 A 
ATOM     37  C   UNL A   1      37.196  31.961  30.270  1.00  0.00     0.016 A 
ATOM     38  C   UNL A   1      38.981  30.452  31.836  1.00  0.00     0.010 A 
ATOM     39  C   UNL A   1      38.078  31.055  29.665  1.00  0.00     0.010 A 
ATOM     40  C   UNL A   1      39.008  30.339  30.441  1.00  0.00    -0.014 A 
BRANCH  40  41
ATOM     41  C   UNL A   1      40.221  29.770  29.800  1.00  0.00     0.031 A 
ATOM     42  C   UNL A   1      41.401  30.694  29.631  1.00  0.00     0.074 A 
ATOM     43  C   UNL A   1      40.314  28.487  29.412  1.00  0.00     0.049 A 
ATOM     44  N   UNL A   1      42.559  30.480  29.065  1.00  0.00    -0.248 NA
ATOM     45  C   UNL A   1      41.246  32.051  30.186  1.00  0.00     0.031 C 
ATOM     46  C   UNL A   1      39.279  27.468  29.573  1.00  0.00     0.029 A 
ATOM     47  N   UNL A   1      41.346  27.826  28.789  1.00  0.00    -0.354 N 
ATOM     48  C   UNL A   1      43.261  31.673  29.184  1.00  0.00     0.074 A 
ATOM     49  C   UNL A   1      42.398  32.613  29.861  1.00  0.00     0.031 C 
ATOM     50  C   UNL A   1      39.723  26.312  29.045  1.00  0.00     0.029 A 
ATOM     51  C   UNL A   1      41.059  26.517  28.484  1.00  0.00     0.049 A 
ATOM     52  H   UNL A   1      42.209  28.250  28.581  1.00  0.00     0.167 HD
ATOM     53  C   UNL A   1      44.515  31.966  28.771  1.00  0.00     0.037 A 
ATOM     54  C   UNL A   1      41.786  25.606  27.806  1.00  0.00     0.037 A 
ATOM     55  C   UNL A   1      45.378  31.042  28.092  1.00  0.00     0.049 A 
ATOM     56  C   UNL A   1      43.146  25.983  27.272  1.00  0.00     0.074 A 
ATOM     57  C   UNL A   1      46.668  31.244  27.636  1.00  0.00     0.029 A 
ATOM     58  N   UNL A   1      45.030  29.742  27.763  1.00  0.00    -0.354 N 
ATOM     59  N   UNL A   1      43.807  27.109  27.401  1.00  0.00    -0.248 NA
ATOM     60  C   UNL A   1      43.860  24.959  26.491  1.00  0.00     0.031 C 
ATOM     61  C   UNL A   1      47.086  30.076  26.990  1.00  0.00     0.029 A 
ATOM     62  C   UNL A   1      46.074  29.135  27.086  1.00  0.00     0.049 A 
ATOM     63  H   UNL A   1      44.170  29.314  27.977  1.00  0.00     0.167 HD
ATOM     64  C   UNL A   1      45.020  26.918  26.747  1.00  0.00     0.074 A 
ATOM     65  C   UNL A   1      45.008  25.567  26.227  1.00  0.00     0.031 C 
ATOM     66  C   UNL A   1      46.051  27.783  26.591  1.00  0.00     0.037 A 
BRANCH  53  67
ATOM     67  C   UNL A   1      45.001  33.362  29.011  1.00  0.00     0.057 A 
ATOM     68  C   UNL A   1      45.716  33.709  30.165  1.00  0.00     0.134 A 
ATOM     69  C   UNL A   1      44.746  34.373  28.076  1.00  0.00     0.134 A 
ATOM     70  F   UNL A   1      45.967  32.791  31.111  1.00  0.00    -0.206 F 
ATOM     71  C   UNL A   1      46.140  35.019  30.391  1.00  0.00     0.040 A 
ATOM     72  C   UNL A   1      45.187  35.680  28.279  1.00  0.00     0.040 A 
ATOM     73  F   UNL A   1      44.062  34.105  26.953  1.00  0.00    -0.206 F 
ATOM     74  C   UNL A   1      45.881  36.007  29.443  1.00  0.00     0.006 A 
ENDBRANCH  53  67
BRANCH  54  75
ATOM     75  C   UNL A   1      41.244  24.245  27.561  1.00  0.00     0.057 A 
ATOM     76  C   UNL A   1      40.219  24.027  26.632  1.00  0.00     0.134 A 
ATOM     77  C   UNL A   1      41.701  23.138  28.287  1.00  0.00     0.134 A 
ATOM     78  F   UNL A   1      39.715  25.054  25.931  1.00  0.00    -0.206 F 
ATOM     79  C   UNL A   1      39.657  22.763  26.445  1.00  0.00     0.040 A 
ATOM     80  C   UNL A   1      41.165  21.864  28.093  1.00  0.00     0.040 A 
ATOM     81  F   UNL A   1      42.672  23.282  29.202  1.00  0.00    -0.206 F 
ATOM     82  C   UNL A   1      40.135  21.674  27.174  1.00  0.00     0.006 A 
ENDBRANCH  54  75
BRANCH  66  83
ATOM     83  C   UNL A   1      47.272  27.289  25.871  1.00  0.00     0.057 A 
ATOM     84  C   UNL A   1      47.425  27.437  24.487  1.00  0.00     0.134 A 
ATOM     85  C   UNL A   1      48.334  26.717  26.583  1.00  0.00     0.134 A 
ATOM     86  F   UNL A   1      46.442  27.970  23.746  1.00  0.00    -0.206 F 
ATOM     87  C   UNL A   1      48.585  27.015  23.834  1.00  0.00     0.040 A 
ATOM     88  C   UNL A   1      49.507  26.313  25.945  1.00  0.00     0.040 A 
ATOM     89  F   UNL A   1      48.255  26.560  27.913  1.00  0.00    -0.206 F 
ATOM     90  C   UNL A   1      49.633  26.458  24.566  1.00  0.00     0.006 A 
ENDBRANCH  66  83
ENDBRANCH  40  41
ENDBRANCH  33  35
ENDBRANCH  32  33
ENDBRANCH  31  32
ENDBRANCH  30  31
ENDBRANCH  29  30
ENDBRANCH  28  29
ENDBRANCH   1  28
TORSDOF 20
ENDMDL
MODEL 2
REMARK VINA RESULT:     -10.8      0.262      1.565
REMARK SMILES Cc1nc(=O)[nH]c(C)c1CC(=O)Nc1sccc1C(=O)OCCOCCOCCOC(=O)c1ccc(-c2c3nc(c(-c4c(F)cccc4F)c4ccc([nH]4)c(-c4c(F)cccc4F)c4nc(c(-c5c(F)cccc5F)c5ccc2[nH]5)C=C4)C=C3)cc1
REMARK SMILES IDX 25 1 24 2 23 3 22 4 21 5 19 6 20 7 18 8 14 9 15 10 16 11
REMARK SMILES IDX 17 12 13 13 11 14 12 15 10 17 9 18 1 19 2 20 3 21 4 22 7 23
REMARK SMILES IDX 5 24 6 25 8 26 26 28 27 29 28 30 29 31 30 32 31 33 32 34
REMARK SMILES IDX 33 35 34 36 86 37 35 38 85 39 36 40 37 41 38 42 79 43 39 44
REMARK SMILES IDX 84 45 78 46 80 47 40 48 83 49 77 50 76 51 41 53 67 54 50 55
REMARK SMILES IDX 66 56 51 57 54 58 65 59 81 60 52 61 53 62 64 64 82 65 55 66
REMARK SMILES IDX 42 67 43 68 48 69 44 70 45 71 47 72 49 73 46 74 68 75 69 76
REMARK SMILES IDX 74 77 70 78 71 79 73 80 75 81 72 82 56 83 57 84 62 85 58 86
REMARK SMILES IDX 59 87 61 88 63 89 60 90
REMARK H PARENT 13 16 6 27 80 52 54 63
REMARK Flexibility Score: inf
ROOT
ATOM      1  C   UNL A   1      34.606  33.015  28.470  1.00  0.00     0.188 C 
ENDROOT
BRANCH   1   2
ATOM      2  O   UNL A   1      33.862  32.310  27.492  1.00  0.00    -0.376 OA
BRANCH   2   3
ATOM      3  C   UNL A   1      33.866  30.898  27.603  1.00  0.00     0.202 C 
BRANCH   3   4
ATOM      4  C   UNL A   1      32.570  30.253  27.119  1.00  0.00     0.261 C 
BRANCH   4   5
ATOM      5  O   UNL A   1      32.347  28.833  27.280  1.00  0.00    -0.460 OA
BRANCH   5   6
ATOM      6  C   UNL A   1      32.732  27.895  26.379  1.00  0.00     0.341 C 
ATOM      7  O   UNL A   1      33.770  27.254  26.421  1.00  0.00    -0.246 OA
BRANCH   6   8
ATOM      8  C   UNL A   1      31.696  27.608  25.391  1.00  0.00     0.094 A 
ATOM      9  C   UNL A   1      30.793  26.566  25.430  1.00  0.00     0.110 A 
ATOM     10  S   UNL A   1      30.022  26.296  23.941  1.00  0.00    -0.126 S 
ATOM     11  C   UNL A   1      30.646  27.753  23.298  1.00  0.00     0.068 A 
ATOM     12  C   UNL A   1      31.537  28.347  24.164  1.00  0.00     0.029 A 
BRANCH   9  13
ATOM     13  N   UNL A   1      30.445  25.673  26.411  1.00  0.00    -0.317 N 
ATOM     14  C   UNL A   1      30.895  24.383  26.521  1.00  0.00     0.229 C 
ATOM     15  O   UNL A   1      30.303  23.600  27.267  1.00  0.00    -0.274 OA
ATOM     16  H   UNL A   1      29.814  25.988  27.099  1.00  0.00     0.170 HD
BRANCH  14  17
ATOM     17  C   UNL A   1      32.246  24.000  25.890  1.00  0.00     0.139 C 
BRANCH  17  18
ATOM     18  C   UNL A   1      32.585  22.547  25.727  1.00  0.00     0.002 A 
ATOM     19  C   UNL A   1      31.723  22.603  23.253  1.00  0.00     0.067 C 
ATOM     20  C   UNL A   1      32.257  21.827  24.441  1.00  0.00     0.049 A 
ATOM     21  N   UNL A   1      32.396  20.556  24.246  1.00  0.00    -0.198 NA
ATOM     22  C   UNL A   1      32.885  19.780  25.256  1.00  0.00     0.345 A 
ATOM     23  C   UNL A   1      33.213  21.765  26.627  1.00  0.00     0.022 A 
ATOM     24  O   UNL A   1      32.973  18.558  25.189  1.00  0.00    -0.246 OA
ATOM     25  N   UNL A   1      33.331  20.420  26.384  1.00  0.00    -0.310 N 
ATOM     26  C   UNL A   1      33.783  22.243  27.933  1.00  0.00     0.065 C 
ATOM     27  H   UNL A   1      33.770  19.871  27.073  1.00  0.00     0.171 HD
ENDBRANCH  17  18
ENDBRANCH  14  17
ENDBRANCH   9  13
ENDBRANCH   6   8
ENDBRANCH   5   6
ENDBRANCH   4   5
ENDBRANCH   3   4
ENDBRANCH   2   3
ENDBRANCH   1   2
BRANCH   1  28
ATOM     28  C   UNL A   1      34.348  34.535  28.513  1.00  0.00     0.188 C 
BRANCH  28  29
ATOM     29  O   UNL A   1      34.407  35.233  29.749  1.00  0.00    -0.376 OA
BRANCH  29  30
ATOM     30  C   UNL A   1      33.630  34.761  30.842  1.00  0.00     0.202 C 
BRANCH  30  31
ATOM     31  C   UNL A   1      34.381  34.184  32.049  1.00  0.00     0.261 C 
BRANCH  31  32
ATOM     32  O   UNL A   1      35.774  33.934  31.788  1.00  0.00    -0.460 OA
BRANCH  32  33
ATOM     33  C   UNL A   1      36.392  33.075  32.635  1.00  0.00     0.338 C 
ATOM     34  O   UNL A   1      36.196  32.958  33.833  1.00  0.00    -0.246 OA
BRANCH  33  35
ATOM     35  C   UNL A   1      37.197  32.098  31.862  1.00  0.00     0.060 A 
ATOM     36  C   UNL A   1      37.975  31.179  32.587  1.00  0.00     0.016 A 
ATOM     37  C   UNL A   1      37.201  32.067  30.465  1.00  0.00     0.016 A 
ATOM     38  C   UNL A   1      38.800  30.272  31.926  1.00  0.00     0.010 A 
ATOM     39  C   UNL A   1      38.058  31.180  29.800  1.00  0.00     0.010 A 
ATOM     40  C   UNL A   1      38.899  30.318  30.530  1.00  0.00    -0.014 A 
BRANCH  40  41
ATOM     41  C   UNL A   1      40.109  29.748  29.886  1.00  0.00     0.031 A 
ATOM     42  C   UNL A   1      41.293  30.668  29.721  1.00  0.00     0.074 A 
ATOM     43  C   UNL A   1      40.197  28.466  29.492  1.00  0.00     0.049 A 
ATOM     44  N   UNL A   1      42.450  30.452  29.153  1.00  0.00    -0.248 NA
ATOM     45  C   UNL A   1      41.144  32.023  30.282  1.00  0.00     0.031 C 
ATOM     46  C   UNL A   1      39.158  27.451  29.649  1.00  0.00     0.029 A 
ATOM     47  N   UNL A   1      41.226  27.804  28.866  1.00  0.00    -0.354 N 
ATOM     48  C   UNL A   1      43.157  31.642  29.278  1.00  0.00     0.074 A 
ATOM     49  C   UNL A   1      42.298  32.582  29.959  1.00  0.00     0.031 C 
ATOM     50  C   UNL A   1      39.598  26.295  29.115  1.00  0.00     0.029 A 
ATOM     51  C   UNL A   1      40.934  26.498  28.554  1.00  0.00     0.049 A 
ATOM     52  H   UNL A   1      42.091  28.226  28.659  1.00  0.00     0.167 HD
ATOM     53  C   UNL A   1      44.411  31.932  28.865  1.00  0.00     0.037 A 
ATOM     54  C   UNL A   1      41.657  25.587  27.872  1.00  0.00     0.037 A 
ATOM     55  C   UNL A   1      45.270  31.008  28.182  1.00  0.00     0.049 A 
ATOM     56  C   UNL A   1      43.019  25.961  27.339  1.00  0.00     0.074 A 
ATOM     57  C   UNL A   1      46.561  31.207  27.726  1.00  0.00     0.029 A 
ATOM     58  N   UNL A   1      44.917  29.711  27.846  1.00  0.00    -0.354 N 
ATOM     59  N   UNL A   1      43.683  27.084  27.473  1.00  0.00    -0.248 NA
ATOM     60  C   UNL A   1      43.728  24.939  26.553  1.00  0.00     0.031 C 
ATOM     61  C   UNL A   1      46.974  30.040  27.074  1.00  0.00     0.029 A 
ATOM     62  C   UNL A   1      45.959  29.104  27.166  1.00  0.00     0.049 A 
ATOM     63  H   UNL A   1      44.055  29.286  28.059  1.00  0.00     0.167 HD
ATOM     64  C   UNL A   1      44.895  26.892  26.817  1.00  0.00     0.074 A 
ATOM     65  C   UNL A   1      44.878  25.544  26.291  1.00  0.00     0.031 C 
ATOM     66  C   UNL A   1      45.930  27.754  26.665  1.00  0.00     0.037 A 
BRANCH  53  67
ATOM     67  C   UNL A   1      44.903  33.325  29.111  1.00  0.00     0.057 A 
ATOM     68  C   UNL A   1      44.707  34.355  28.180  1.00  0.00     0.134 A 
ATOM     69  C   UNL A   1      45.588  33.639  30.291  1.00  0.00     0.134 A 
ATOM     70  F   UNL A   1      44.083  34.111  27.018  1.00  0.00    -0.206 F 
ATOM     71  C   UNL A   1      45.194  35.642  28.408  1.00  0.00     0.040 A 
ATOM     72  C   UNL A   1      46.057  34.928  30.540  1.00  0.00     0.040 A 
ATOM     73  F   UNL A   1      45.812  32.696  31.219  1.00  0.00    -0.206 F 
ATOM     74  C   UNL A   1      45.866  35.932  29.594  1.00  0.00     0.006 A 
ENDBRANCH  53  67
BRANCH  54  75
ATOM     75  C   UNL A   1      41.110  24.229  27.621  1.00  0.00     0.057 A 
ATOM     76  C   UNL A   1      41.603  23.110  28.302  1.00  0.00     0.134 A 
ATOM     77  C   UNL A   1      40.119  24.011  26.657  1.00  0.00     0.134 A 
ATOM     78  F   UNL A   1      42.578  23.251  29.213  1.00  0.00    -0.206 F 
ATOM     79  C   UNL A   1      41.143  21.822  28.024  1.00  0.00     0.040 A 
ATOM     80  C   UNL A   1      39.632  22.731  26.385  1.00  0.00     0.040 A 
ATOM     81  F   UNL A   1      39.614  25.039  25.959  1.00  0.00    -0.206 F 
ATOM     82  C   UNL A   1      40.149  21.630  27.066  1.00  0.00     0.006 A 
ENDBRANCH  54  75
BRANCH  66  83
ATOM     83  C   UNL A   1      47.149  27.259  25.942  1.00  0.00     0.057 A 
ATOM     84  C   UNL A   1      48.178  26.579  26.605  1.00  0.00     0.134 A 
ATOM     85  C   UNL A   1      47.261  27.410  24.554  1.00  0.00     0.134 A 
ATOM     86  F   UNL A   1      48.133  26.408  27.935  1.00  0.00    -0.206 F 
ATOM     87  C   UNL A   1      49.285  26.082  25.915  1.00  0.00     0.040 A 
ATOM     88  C   UNL A   1      48.351  26.897  23.849  1.00  0.00     0.040 A 
ATOM     89  F   UNL A   1      46.303  28.040  23.857  1.00  0.00    -0.206 F 
ATOM     90  C   UNL A   1      49.369  26.235  24.531  1.00  0.00     0.006 A 
ENDBRANCH  66  83
ENDBRANCH  40  41
ENDBRANCH  33  35
ENDBRANCH  32  33
ENDBRANCH  31  32
ENDBRANCH  30  31
ENDBRANCH  29  30
ENDBRANCH  28  29
ENDBRANCH   1  28
TORSDOF 20
ENDMDL
MODEL 3
REMARK VINA RESULT:     -10.8      1.826      3.450
REMARK SMILES Cc1nc(=O)[nH]c(C)c1CC(=O)Nc1sccc1C(=O)OCCOCCOCCOC(=O)c1ccc(-c2c3nc(c(-c4c(F)cccc4F)c4ccc([nH]4)c(-c4c(F)cccc4F)c4nc(c(-c5c(F)cccc5F)c5ccc2[nH]5)C=C4)C=C3)cc1
REMARK SMILES IDX 25 1 24 2 23 3 22 4 21 5 19 6 20 7 18 8 14 9 15 10 16 11
REMARK SMILES IDX 17 12 13 13 11 14 12 15 10 17 9 18 1 19 2 20 3 21 4 22 7 23
REMARK SMILES IDX 5 24 6 25 8 26 26 28 27 29 28 30 29 31 30 32 31 33 32 34
REMARK SMILES IDX 33 35 34 36 86 37 35 38 85 39 36 40 37 41 38 42 79 43 39 44
REMARK SMILES IDX 84 45 78 46 80 47 40 48 83 49 77 50 76 51 41 53 67 54 50 55
REMARK SMILES IDX 66 56 51 57 54 58 65 59 81 60 52 61 53 62 64 64 82 65 55 66
REMARK SMILES IDX 42 67 43 68 48 69 44 70 45 71 47 72 49 73 46 74 68 75 69 76
REMARK SMILES IDX 74 77 70 78 71 79 73 80 75 81 72 82 56 83 57 84 62 85 58 86
REMARK SMILES IDX 59 87 61 88 63 89 60 90
REMARK H PARENT 13 16 6 27 80 52 54 63
REMARK Flexibility Score: inf
ROOT
ATOM      1  C   UNL A   1      33.991  31.389  27.630  1.00  0.00     0.188 C 
ENDROOT
BRANCH   1   2
ATOM      2  O   UNL A   1      32.700  30.948  27.250  1.00  0.00    -0.376 OA
BRANCH   2   3
ATOM      3  C   UNL A   1      32.597  30.345  25.972  1.00  0.00     0.202 C 
BRANCH   3   4
ATOM      4  C   UNL A   1      31.704  29.107  25.962  1.00  0.00     0.261 C 
BRANCH   4   5
ATOM      5  O   UNL A   1      32.179  27.850  26.497  1.00  0.00    -0.460 OA
BRANCH   5   6
ATOM      6  C   UNL A   1      33.462  27.419  26.403  1.00  0.00     0.341 C 
ATOM      7  O   UNL A   1      34.444  28.015  26.815  1.00  0.00    -0.246 OA
BRANCH   6   8
ATOM      8  C   UNL A   1      33.559  26.063  25.869  1.00  0.00     0.094 A 
ATOM      9  C   UNL A   1      32.652  25.042  26.057  1.00  0.00     0.110 A 
ATOM     10  S   UNL A   1      33.274  23.515  25.652  1.00  0.00    -0.126 S 
ATOM     11  C   UNL A   1      34.658  24.215  24.930  1.00  0.00     0.068 A 
ATOM     12  C   UNL A   1      34.697  25.578  25.130  1.00  0.00     0.029 A 
BRANCH   9  13
ATOM     13  N   UNL A   1      31.377  25.011  26.561  1.00  0.00    -0.317 N 
ATOM     14  C   UNL A   1      30.240  25.397  25.897  1.00  0.00     0.229 C 
ATOM     15  O   UNL A   1      29.206  25.591  26.539  1.00  0.00    -0.274 OA
ATOM     16  H   UNL A   1      31.268  24.682  27.483  1.00  0.00     0.170 HD
BRANCH  14  17
ATOM     17  C   UNL A   1      30.220  25.368  24.358  1.00  0.00     0.139 C 
BRANCH  17  18
ATOM     18  C   UNL A   1      29.920  26.636  23.612  1.00  0.00     0.002 A 
ATOM     19  C   UNL A   1      32.360  26.676  22.659  1.00  0.00     0.067 C 
ATOM     20  C   UNL A   1      31.004  27.332  22.826  1.00  0.00     0.049 A 
ATOM     21  N   UNL A   1      30.880  28.485  22.253  1.00  0.00    -0.198 NA
ATOM     22  C   UNL A   1      29.688  29.142  22.337  1.00  0.00     0.345 A 
ATOM     23  C   UNL A   1      28.723  27.249  23.525  1.00  0.00     0.022 A 
ATOM     24  O   UNL A   1      29.505  30.272  21.896  1.00  0.00    -0.246 OA
ATOM     25  N   UNL A   1      28.639  28.475  22.916  1.00  0.00    -0.310 N 
ATOM     26  C   UNL A   1      27.437  26.710  24.085  1.00  0.00     0.065 C 
ATOM     27  H   UNL A   1      27.756  28.911  22.893  1.00  0.00     0.171 HD
ENDBRANCH  17  18
ENDBRANCH  14  17
ENDBRANCH   9  13
ENDBRANCH   6   8
ENDBRANCH   5   6
ENDBRANCH   4   5
ENDBRANCH   3   4
ENDBRANCH   2   3
ENDBRANCH   1   2
BRANCH   1  28
ATOM     28  C   UNL A   1      34.090  32.886  27.986  1.00  0.00     0.188 C 
BRANCH  28  29
ATOM     29  O   UNL A   1      33.559  33.364  29.214  1.00  0.00    -0.376 OA
BRANCH  29  30
ATOM     30  C   UNL A   1      34.332  34.265  29.994  1.00  0.00     0.202 C 
BRANCH  30  31
ATOM     31  C   UNL A   1      34.337  34.064  31.515  1.00  0.00     0.261 C 
BRANCH  31  32
ATOM     32  O   UNL A   1      34.495  32.689  31.908  1.00  0.00    -0.460 OA
BRANCH  32  33
ATOM     33  C   UNL A   1      35.585  32.409  32.663  1.00  0.00     0.338 C 
ATOM     34  O   UNL A   1      35.753  32.683  33.839  1.00  0.00    -0.246 OA
BRANCH  33  35
ATOM     35  C   UNL A   1      36.487  31.490  31.924  1.00  0.00     0.060 A 
ATOM     36  C   UNL A   1      37.347  30.676  32.681  1.00  0.00     0.016 A 
ATOM     37  C   UNL A   1      36.501  31.414  30.530  1.00  0.00     0.016 A 
ATOM     38  C   UNL A   1      38.260  29.833  32.052  1.00  0.00     0.010 A 
ATOM     39  C   UNL A   1      37.445  30.594  29.896  1.00  0.00     0.010 A 
ATOM     40  C   UNL A   1      38.362  29.844  30.656  1.00  0.00    -0.014 A 
BRANCH  40  41
ATOM     41  C   UNL A   1      39.625  29.374  30.033  1.00  0.00     0.031 A 
ATOM     42  C   UNL A   1      40.746  30.377  29.922  1.00  0.00     0.074 A 
ATOM     43  C   UNL A   1      39.812  28.111  29.614  1.00  0.00     0.049 A 
ATOM     44  N   UNL A   1      41.930  30.255  29.382  1.00  0.00    -0.248 NA
ATOM     45  C   UNL A   1      40.488  31.705  30.509  1.00  0.00     0.031 C 
ATOM     46  C   UNL A   1      38.843  27.023  29.719  1.00  0.00     0.029 A 
ATOM     47  N   UNL A   1      40.901  27.537  29.002  1.00  0.00    -0.354 N 
ATOM     48  C   UNL A   1      42.548  31.487  29.553  1.00  0.00     0.074 A 
ATOM     49  C   UNL A   1      41.608  32.350  30.230  1.00  0.00     0.031 C 
ATOM     50  C   UNL A   1      39.376  25.913  29.172  1.00  0.00     0.029 A 
ATOM     51  C   UNL A   1      40.710  26.222  28.654  1.00  0.00     0.049 A 
ATOM     52  H   UNL A   1      41.740  28.022  28.829  1.00  0.00     0.167 HD
ATOM     53  C   UNL A   1      43.790  31.874  29.183  1.00  0.00     0.037 A 
ATOM     54  C   UNL A   1      41.512  25.379  27.972  1.00  0.00     0.037 A 
ATOM     55  C   UNL A   1      44.729  31.028  28.503  1.00  0.00     0.049 A 
ATOM     56  C   UNL A   1      42.858  25.859  27.486  1.00  0.00     0.074 A 
ATOM     57  C   UNL A   1      46.014  31.326  28.088  1.00  0.00     0.029 A 
ATOM     58  N   UNL A   1      44.476  29.717  28.129  1.00  0.00    -0.354 N 
ATOM     59  N   UNL A   1      43.439  27.022  27.663  1.00  0.00    -0.248 NA
ATOM     60  C   UNL A   1      43.657  24.907  26.698  1.00  0.00     0.031 C 
ATOM     61  C   UNL A   1      46.525  30.207  27.423  1.00  0.00     0.029 A 
ATOM     62  C   UNL A   1      45.575  29.200  27.466  1.00  0.00     0.049 A 
ATOM     63  H   UNL A   1      43.641  29.229  28.309  1.00  0.00     0.167 HD
ATOM     64  C   UNL A   1      44.678  26.929  27.038  1.00  0.00     0.074 A 
ATOM     65  C   UNL A   1      44.769  25.596  26.482  1.00  0.00     0.031 C 
ATOM     66  C   UNL A   1      45.654  27.864  26.934  1.00  0.00     0.037 A 
BRANCH  53  67
ATOM     67  C   UNL A   1      44.177  33.291  29.473  1.00  0.00     0.057 A 
ATOM     68  C   UNL A   1      43.971  34.319  28.544  1.00  0.00     0.134 A 
ATOM     69  C   UNL A   1      44.769  33.629  30.695  1.00  0.00     0.134 A 
ATOM     70  F   UNL A   1      43.434  34.054  27.343  1.00  0.00    -0.206 F 
ATOM     71  C   UNL A   1      44.361  35.632  28.814  1.00  0.00     0.040 A 
ATOM     72  C   UNL A   1      45.141  34.941  30.987  1.00  0.00     0.040 A 
ATOM     73  F   UNL A   1      44.998  32.688  31.625  1.00  0.00    -0.206 F 
ATOM     74  C   UNL A   1      44.943  35.946  30.041  1.00  0.00     0.006 A 
ENDBRANCH  53  67
BRANCH  54  75
ATOM     75  C   UNL A   1      41.068  23.993  27.676  1.00  0.00     0.057 A 
ATOM     76  C   UNL A   1      41.615  22.895  28.350  1.00  0.00     0.134 A 
ATOM     77  C   UNL A   1      40.124  23.729  26.676  1.00  0.00     0.134 A 
ATOM     78  F   UNL A   1      42.549  23.081  29.295  1.00  0.00    -0.206 F 
ATOM     79  C   UNL A   1      41.253  21.585  28.031  1.00  0.00     0.040 A 
ATOM     80  C   UNL A   1      39.735  22.426  26.363  1.00  0.00     0.040 A 
ATOM     81  F   UNL A   1      39.572  24.737  25.983  1.00  0.00    -0.206 F 
ATOM     82  C   UNL A   1      40.305  21.348  27.037  1.00  0.00     0.006 A 
ENDBRANCH  54  75
BRANCH  66  83
ATOM     83  C   UNL A   1      46.923  27.472  26.235  1.00  0.00     0.057 A 
ATOM     84  C   UNL A   1      48.006  26.912  26.924  1.00  0.00     0.134 A 
ATOM     85  C   UNL A   1      47.036  27.597  24.844  1.00  0.00     0.134 A 
ATOM     86  F   UNL A   1      47.964  26.772  28.258  1.00  0.00    -0.206 F 
ATOM     87  C   UNL A   1      49.164  26.509  26.257  1.00  0.00     0.040 A 
ATOM     88  C   UNL A   1      48.178  27.176  24.163  1.00  0.00     0.040 A 
ATOM     89  F   UNL A   1      46.029  28.113  24.123  1.00  0.00    -0.206 F 
ATOM     90  C   UNL A   1      49.248  26.633  24.871  1.00  0.00     0.006 A 
ENDBRANCH  66  83
ENDBRANCH  40  41
ENDBRANCH  33  35
ENDBRANCH  32  33
ENDBRANCH  31  32
ENDBRANCH  30  31
ENDBRANCH  29  30
ENDBRANCH  28  29
ENDBRANCH   1  28
TORSDOF 20
ENDMDL
