MODEL 1
REMARK VINA RESULT:     -12.5      0.000      0.000
REMARK SMILES COc1ccc(-c2cc(CC3(C(=O)OCCOCCOCCOC(=O)c4ccc(-c5c6nc(c(-c7c(F)cccc7F)c7ccc([nH]7)c(-c7c(F)cccc7F)c7nc(c(-c8c(F)cccc8F)c8ccc5[nH]8)C=C7)C=C6)cc4)CCN(C(=O)C4CCCC4)CC3)on2)cc1
REMARK SMILES IDX 18 1 17 2 16 3 15 4 14 5 12 6 13 7 11 8 80 9 91 10 81 11
REMARK SMILES IDX 90 12 82 13 83 14 84 15 10 16 9 17 7 18 8 19 93 20 92 21
REMARK SMILES IDX 6 22 3 23 4 24 95 25 5 26 94 27 2 28 1 29 85 30 86 31 89 32
REMARK SMILES IDX 87 33 88 34 19 35 20 36 21 37 22 38 23 39 24 40 25 41 26 42
REMARK SMILES IDX 27 43 79 44 28 45 78 46 29 47 30 48 31 49 72 50 32 51 77 52
REMARK SMILES IDX 71 53 73 54 33 55 76 56 70 57 69 58 34 60 60 61 43 62 59 63
REMARK SMILES IDX 44 64 47 65 58 66 74 67 45 68 46 69 57 71 75 72 48 73 35 74
REMARK SMILES IDX 36 75 41 76 37 77 38 78 40 79 42 80 39 81 61 82 62 83 67 84
REMARK SMILES IDX 63 85 64 86 66 87 68 88 65 89 49 90 50 91 55 92 51 93 52 94
REMARK SMILES IDX 54 95 56 96 53 97
REMARK H PARENT 73 59 47 70
REMARK Flexibility Score: inf
ROOT
ATOM      1  C   UNL A   1      38.659  22.185  26.109  1.00  0.00     0.188 C 
ENDROOT
BRANCH   1   2
ATOM      2  O   UNL A   1      37.673  22.342  25.099  1.00  0.00    -0.376 OA
BRANCH   2   3
ATOM      3  C   UNL A   1      36.342  22.613  25.539  1.00  0.00     0.202 C 
BRANCH   3   4
ATOM      4  C   UNL A   1      35.945  24.089  25.697  1.00  0.00     0.261 C 
BRANCH   4   5
ATOM      5  O   UNL A   1      34.523  24.342  25.682  1.00  0.00    -0.463 OA
BRANCH   5   6
ATOM      6  C   UNL A   1      34.121  25.455  25.013  1.00  0.00     0.312 C 
ATOM      7  O   UNL A   1      34.607  26.570  25.187  1.00  0.00    -0.252 OA
BRANCH   6   8
ATOM      8  C   UNL A   1      32.994  25.223  23.983  1.00  0.00     0.078 C 
ATOM      9  C   UNL A   1      31.653  24.797  24.638  1.00  0.00     0.041 C 
ATOM     10  C   UNL A   1      32.846  26.624  23.348  1.00  0.00     0.041 C 
ATOM     11  C   UNL A   1      30.394  25.107  23.821  1.00  0.00     0.120 C 
ATOM     12  C   UNL A   1      31.572  26.854  22.563  1.00  0.00     0.120 C 
ATOM     13  N   UNL A   1      30.389  26.478  23.315  1.00  0.00    -0.342 N 
ATOM     14  C   UNL A   1      29.199  27.196  23.345  1.00  0.00     0.225 C 
ATOM     15  O   UNL A   1      28.157  26.696  23.781  1.00  0.00    -0.275 OA
BRANCH   8  16
ATOM     16  C   UNL A   1      33.551  24.132  23.009  1.00  0.00     0.097 C 
BRANCH  16  17
ATOM     17  C   UNL A   1      33.033  22.752  23.193  1.00  0.00     0.138 A 
ATOM     18  C   UNL A   1      32.619  20.613  23.549  1.00  0.00     0.114 A 
ATOM     19  C   UNL A   1      33.315  21.733  24.073  1.00  0.00     0.077 A 
ATOM     20  N   UNL A   1      31.852  20.977  22.511  1.00  0.00    -0.080 NA
ATOM     21  O   UNL A   1      32.085  22.326  22.317  1.00  0.00    -0.361 OA
BRANCH  18  22
ATOM     22  C   UNL A   1      32.765  19.223  23.947  1.00  0.00     0.004 A 
ATOM     23  C   UNL A   1      33.147  16.543  24.686  1.00  0.00     0.118 A 
ATOM     24  C   UNL A   1      33.233  16.919  23.346  1.00  0.00     0.047 A 
ATOM     25  C   UNL A   1      32.893  17.511  25.660  1.00  0.00     0.047 A 
ATOM     26  C   UNL A   1      33.026  18.249  22.973  1.00  0.00     0.014 A 
ATOM     27  C   UNL A   1      32.706  18.849  25.292  1.00  0.00     0.014 A 
BRANCH  23  28
ATOM     28  O   UNL A   1      33.385  15.221  24.945  1.00  0.00    -0.497 OA
ATOM     29  C   UNL A   1      32.349  14.556  25.662  1.00  0.00     0.278 C 
ENDBRANCH  23  28
ENDBRANCH  18  22
ENDBRANCH  16  17
ENDBRANCH   8  16
BRANCH  14  30
ATOM     30  C   UNL A   1      29.158  28.653  22.873  1.00  0.00     0.078 C 
ATOM     31  C   UNL A   1      27.745  29.223  22.794  1.00  0.00     0.013 C 
ATOM     32  C   UNL A   1      30.005  29.629  23.688  1.00  0.00     0.013 C 
ATOM     33  C   UNL A   1      27.876  30.706  23.093  1.00  0.00     0.001 C 
ATOM     34  C   UNL A   1      29.175  30.896  23.863  1.00  0.00     0.001 C 
ENDBRANCH  14  30
ENDBRANCH   6   8
ENDBRANCH   5   6
ENDBRANCH   4   5
ENDBRANCH   3   4
ENDBRANCH   2   3
ENDBRANCH   1   2
BRANCH   1  35
ATOM     35  C   UNL A   1      39.718  21.106  25.888  1.00  0.00     0.188 C 
BRANCH  35  36
ATOM     36  O   UNL A   1      40.862  21.166  26.727  1.00  0.00    -0.376 OA
BRANCH  36  37
ATOM     37  C   UNL A   1      42.011  20.445  26.267  1.00  0.00     0.202 C 
BRANCH  37  38
ATOM     38  C   UNL A   1      43.170  21.300  25.711  1.00  0.00     0.261 C 
BRANCH  38  39
ATOM     39  O   UNL A   1      42.763  22.479  24.979  1.00  0.00    -0.460 OA
BRANCH  39  40
ATOM     40  C   UNL A   1      43.584  23.554  25.005  1.00  0.00     0.338 C 
ATOM     41  O   UNL A   1      44.525  23.766  24.257  1.00  0.00    -0.246 OA
BRANCH  40  42
ATOM     42  C   UNL A   1      42.993  24.578  25.910  1.00  0.00     0.060 A 
ATOM     43  C   UNL A   1      43.575  25.856  25.939  1.00  0.00     0.016 A 
ATOM     44  C   UNL A   1      41.837  24.328  26.657  1.00  0.00     0.016 A 
ATOM     45  C   UNL A   1      43.035  26.864  26.745  1.00  0.00     0.010 A 
ATOM     46  C   UNL A   1      41.306  25.332  27.474  1.00  0.00     0.010 A 
ATOM     47  C   UNL A   1      41.921  26.594  27.551  1.00  0.00    -0.014 A 
BRANCH  47  48
ATOM     48  C   UNL A   1      41.544  27.525  28.648  1.00  0.00     0.031 A 
ATOM     49  C   UNL A   1      42.312  27.427  29.940  1.00  0.00     0.074 A 
ATOM     50  C   UNL A   1      40.548  28.423  28.531  1.00  0.00     0.049 A 
ATOM     51  N   UNL A   1      42.106  28.033  31.081  1.00  0.00    -0.248 NA
ATOM     52  C   UNL A   1      43.467  26.514  29.945  1.00  0.00     0.031 C 
ATOM     53  C   UNL A   1      39.749  28.661  27.332  1.00  0.00     0.029 A 
ATOM     54  N   UNL A   1      40.027  29.293  29.460  1.00  0.00    -0.354 N 
ATOM     55  C   UNL A   1      43.090  27.561  31.940  1.00  0.00     0.074 A 
ATOM     56  C   UNL A   1      43.886  26.610  31.197  1.00  0.00     0.031 C 
ATOM     57  C   UNL A   1      38.823  29.598  27.604  1.00  0.00     0.029 A 
ATOM     58  C   UNL A   1      38.938  29.999  29.008  1.00  0.00     0.049 A 
ATOM     59  H   UNL A   1      40.399  29.401  30.366  1.00  0.00     0.167 HD
ATOM     60  C   UNL A   1      43.315  27.890  33.232  1.00  0.00     0.037 A 
ATOM     61  C   UNL A   1      38.111  30.843  29.661  1.00  0.00     0.037 A 
ATOM     62  C   UNL A   1      42.543  28.846  33.976  1.00  0.00     0.049 A 
ATOM     63  C   UNL A   1      38.344  31.140  31.124  1.00  0.00     0.074 A 
ATOM     64  C   UNL A   1      42.721  29.260  35.286  1.00  0.00     0.029 A 
ATOM     65  N   UNL A   1      41.446  29.530  33.482  1.00  0.00    -0.354 N 
ATOM     66  N   UNL A   1      39.296  30.712  31.918  1.00  0.00    -0.248 NA
ATOM     67  C   UNL A   1      37.379  32.036  31.786  1.00  0.00     0.031 C 
ATOM     68  C   UNL A   1      41.700  30.161  35.599  1.00  0.00     0.029 A 
ATOM     69  C   UNL A   1      40.921  30.346  34.469  1.00  0.00     0.049 A 
ATOM     70  H   UNL A   1      41.093  29.449  32.567  1.00  0.00     0.167 HD
ATOM     71  C   UNL A   1      39.068  31.317  33.150  1.00  0.00     0.074 A 
ATOM     72  C   UNL A   1      37.892  32.145  33.002  1.00  0.00     0.031 C 
ATOM     73  C   UNL A   1      39.772  31.196  34.302  1.00  0.00     0.037 A 
BRANCH  60  74
ATOM     74  C   UNL A   1      44.433  27.189  33.944  1.00  0.00     0.057 A 
ATOM     75  C   UNL A   1      45.730  27.715  33.982  1.00  0.00     0.134 A 
ATOM     76  C   UNL A   1      44.188  26.008  34.653  1.00  0.00     0.134 A 
ATOM     77  F   UNL A   1      46.030  28.835  33.309  1.00  0.00    -0.206 F 
ATOM     78  C   UNL A   1      46.748  27.083  34.698  1.00  0.00     0.040 A 
ATOM     79  C   UNL A   1      45.191  25.381  35.392  1.00  0.00     0.040 A 
ATOM     80  F   UNL A   1      42.964  25.456  34.656  1.00  0.00    -0.206 F 
ATOM     81  C   UNL A   1      46.475  25.919  35.414  1.00  0.00     0.006 A 
ENDBRANCH  60  74
BRANCH  61  82
ATOM     82  C   UNL A   1      36.943  31.450  28.968  1.00  0.00     0.057 A 
ATOM     83  C   UNL A   1      36.950  32.791  28.563  1.00  0.00     0.134 A 
ATOM     84  C   UNL A   1      35.758  30.729  28.774  1.00  0.00     0.134 A 
ATOM     85  F   UNL A   1      38.043  33.546  28.751  1.00  0.00    -0.206 F 
ATOM     86  C   UNL A   1      35.815  33.402  28.025  1.00  0.00     0.040 A 
ATOM     87  C   UNL A   1      34.626  31.317  28.208  1.00  0.00     0.040 A 
ATOM     88  F   UNL A   1      35.680  29.442  29.145  1.00  0.00    -0.206 F 
ATOM     89  C   UNL A   1      34.649  32.662  27.844  1.00  0.00     0.006 A 
ENDBRANCH  61  82
BRANCH  73  90
ATOM     90  C   UNL A   1      39.342  32.020  35.481  1.00  0.00     0.057 A 
ATOM     91  C   UNL A   1      39.766  33.342  35.658  1.00  0.00     0.134 A 
ATOM     92  C   UNL A   1      38.430  31.504  36.412  1.00  0.00     0.134 A 
ATOM     93  F   UNL A   1      40.645  33.894  34.808  1.00  0.00    -0.206 F 
ATOM     94  C   UNL A   1      39.309  34.118  36.725  1.00  0.00     0.040 A 
ATOM     95  C   UNL A   1      37.946  32.277  37.468  1.00  0.00     0.040 A 
ATOM     96  F   UNL A   1      37.973  30.248  36.293  1.00  0.00    -0.206 F 
ATOM     97  C   UNL A   1      38.390  33.588  37.629  1.00  0.00     0.006 A 
ENDBRANCH  73  90
ENDBRANCH  47  48
ENDBRANCH  40  42
ENDBRANCH  39  40
ENDBRANCH  38  39
ENDBRANCH  37  38
ENDBRANCH  36  37
ENDBRANCH  35  36
ENDBRANCH   1  35
TORSDOF 22
ENDMDL
MODEL 2
REMARK VINA RESULT:     -11.6      2.444      9.401
REMARK SMILES COc1ccc(-c2cc(CC3(C(=O)OCCOCCOCCOC(=O)c4ccc(-c5c6nc(c(-c7c(F)cccc7F)c7ccc([nH]7)c(-c7c(F)cccc7F)c7nc(c(-c8c(F)cccc8F)c8ccc5[nH]8)C=C7)C=C6)cc4)CCN(C(=O)C4CCCC4)CC3)on2)cc1
REMARK SMILES IDX 18 1 17 2 16 3 15 4 14 5 12 6 13 7 11 8 80 9 91 10 81 11
REMARK SMILES IDX 90 12 82 13 83 14 84 15 10 16 9 17 7 18 8 19 93 20 92 21
REMARK SMILES IDX 6 22 3 23 4 24 95 25 5 26 94 27 2 28 1 29 85 30 86 31 89 32
REMARK SMILES IDX 87 33 88 34 19 35 20 36 21 37 22 38 23 39 24 40 25 41 26 42
REMARK SMILES IDX 27 43 79 44 28 45 78 46 29 47 30 48 31 49 72 50 32 51 77 52
REMARK SMILES IDX 71 53 73 54 33 55 76 56 70 57 69 58 34 60 60 61 43 62 59 63
REMARK SMILES IDX 44 64 47 65 58 66 74 67 45 68 46 69 57 71 75 72 48 73 35 74
REMARK SMILES IDX 36 75 41 76 37 77 38 78 40 79 42 80 39 81 61 82 62 83 67 84
REMARK SMILES IDX 63 85 64 86 66 87 68 88 65 89 49 90 50 91 55 92 51 93 52 94
REMARK SMILES IDX 54 95 56 96 53 97
REMARK H PARENT 73 59 47 70
REMARK Flexibility Score: inf
ROOT
ATOM      1  C   UNL A   1      31.894  29.096  27.212  1.00  0.00     0.188 C 
ENDROOT
BRANCH   1   2
ATOM      2  O   UNL A   1      32.849  28.049  27.297  1.00  0.00    -0.376 OA
BRANCH   2   3
ATOM      3  C   UNL A   1      34.025  28.189  26.500  1.00  0.00     0.202 C 
BRANCH   3   4
ATOM      4  C   UNL A   1      34.352  27.044  25.528  1.00  0.00     0.261 C 
BRANCH   4   5
ATOM      5  O   UNL A   1      34.265  25.718  26.096  1.00  0.00    -0.463 OA
BRANCH   5   6
ATOM      6  C   UNL A   1      34.384  24.685  25.222  1.00  0.00     0.312 C 
ATOM      7  O   UNL A   1      35.368  24.503  24.509  1.00  0.00    -0.252 OA
BRANCH   6   8
ATOM      8  C   UNL A   1      33.179  23.720  25.187  1.00  0.00     0.078 C 
ATOM      9  C   UNL A   1      32.840  23.225  23.755  1.00  0.00     0.041 C 
ATOM     10  C   UNL A   1      33.688  22.540  26.044  1.00  0.00     0.041 C 
ATOM     11  C   UNL A   1      32.099  21.885  23.681  1.00  0.00     0.120 C 
ATOM     12  C   UNL A   1      32.907  21.249  25.909  1.00  0.00     0.120 C 
ATOM     13  N   UNL A   1      32.719  20.864  24.523  1.00  0.00    -0.342 N 
ATOM     14  C   UNL A   1      32.823  19.568  24.032  1.00  0.00     0.225 C 
ATOM     15  O   UNL A   1      32.397  19.269  22.911  1.00  0.00    -0.275 OA
BRANCH   8  16
ATOM     16  C   UNL A   1      31.998  24.520  25.832  1.00  0.00     0.097 C 
BRANCH  16  17
ATOM     17  C   UNL A   1      31.123  25.278  24.900  1.00  0.00     0.138 A 
ATOM     18  C   UNL A   1      29.945  26.708  23.702  1.00  0.00     0.114 A 
ATOM     19  C   UNL A   1      31.231  26.490  24.259  1.00  0.00     0.077 A 
ATOM     20  N   UNL A   1      29.168  25.629  23.870  1.00  0.00    -0.080 NA
ATOM     21  O   UNL A   1      29.924  24.721  24.588  1.00  0.00    -0.361 OA
BRANCH  18  22
ATOM     22  C   UNL A   1      29.433  27.943  23.130  1.00  0.00     0.004 A 
ATOM     23  C   UNL A   1      28.420  30.357  22.120  1.00  0.00     0.118 A 
ATOM     24  C   UNL A   1      27.564  29.436  22.723  1.00  0.00     0.047 A 
ATOM     25  C   UNL A   1      29.788  30.082  22.042  1.00  0.00     0.047 A 
ATOM     26  C   UNL A   1      28.063  28.226  23.210  1.00  0.00     0.014 A 
ATOM     27  C   UNL A   1      30.294  28.878  22.549  1.00  0.00     0.014 A 
BRANCH  23  28
ATOM     28  O   UNL A   1      27.834  31.517  21.694  1.00  0.00    -0.497 OA
ATOM     29  C   UNL A   1      28.566  32.703  21.993  1.00  0.00     0.278 C 
ENDBRANCH  23  28
ENDBRANCH  18  22
ENDBRANCH  16  17
ENDBRANCH   8  16
BRANCH  14  30
ATOM     30  C   UNL A   1      33.510  18.477  24.858  1.00  0.00     0.078 C 
ATOM     31  C   UNL A   1      32.530  17.513  25.521  1.00  0.00     0.013 C 
ATOM     32  C   UNL A   1      34.543  17.639  24.105  1.00  0.00     0.013 C 
ATOM     33  C   UNL A   1      33.247  16.176  25.596  1.00  0.00     0.001 C 
ATOM     34  C   UNL A   1      34.339  16.191  24.536  1.00  0.00     0.001 C 
ENDBRANCH  14  30
ENDBRANCH   6   8
ENDBRANCH   5   6
ENDBRANCH   4   5
ENDBRANCH   3   4
ENDBRANCH   2   3
ENDBRANCH   1   2
BRANCH   1  35
ATOM     35  C   UNL A   1      32.361  30.421  26.610  1.00  0.00     0.188 C 
BRANCH  35  36
ATOM     36  O   UNL A   1      31.342  31.337  26.239  1.00  0.00    -0.376 OA
BRANCH  36  37
ATOM     37  C   UNL A   1      31.552  32.697  26.638  1.00  0.00     0.202 C 
BRANCH  37  38
ATOM     38  C   UNL A   1      32.713  32.941  27.626  1.00  0.00     0.261 C 
BRANCH  38  39
ATOM     39  O   UNL A   1      32.970  34.329  27.939  1.00  0.00    -0.460 OA
BRANCH  39  40
ATOM     40  C   UNL A   1      33.280  34.641  29.218  1.00  0.00     0.338 C 
ATOM     41  O   UNL A   1      32.566  35.232  30.013  1.00  0.00    -0.246 OA
BRANCH  40  42
ATOM     42  C   UNL A   1      34.519  33.908  29.597  1.00  0.00     0.060 A 
ATOM     43  C   UNL A   1      34.401  32.798  30.449  1.00  0.00     0.016 A 
ATOM     44  C   UNL A   1      35.769  34.241  29.064  1.00  0.00     0.016 A 
ATOM     45  C   UNL A   1      35.530  32.052  30.805  1.00  0.00     0.010 A 
ATOM     46  C   UNL A   1      36.901  33.504  29.433  1.00  0.00     0.010 A 
ATOM     47  C   UNL A   1      36.795  32.428  30.333  1.00  0.00    -0.014 A 
BRANCH  47  48
ATOM     48  C   UNL A   1      38.025  31.873  30.956  1.00  0.00     0.031 A 
ATOM     49  C   UNL A   1      38.752  30.783  30.213  1.00  0.00     0.074 A 
ATOM     50  C   UNL A   1      38.493  32.295  32.146  1.00  0.00     0.049 A 
ATOM     51  N   UNL A   1      39.771  30.053  30.590  1.00  0.00    -0.248 NA
ATOM     52  C   UNL A   1      38.253  30.469  28.864  1.00  0.00     0.031 C 
ATOM     53  C   UNL A   1      37.922  33.369  32.955  1.00  0.00     0.029 A 
ATOM     54  N   UNL A   1      39.558  31.843  32.889  1.00  0.00    -0.354 N 
ATOM     55  C   UNL A   1      40.021  29.186  29.534  1.00  0.00     0.074 A 
ATOM     56  C   UNL A   1      39.042  29.468  28.507  1.00  0.00     0.031 C 
ATOM     57  C   UNL A   1      38.629  33.477  34.096  1.00  0.00     0.029 A 
ATOM     58  C   UNL A   1      39.679  32.456  34.114  1.00  0.00     0.049 A 
ATOM     59  H   UNL A   1      40.177  31.144  32.574  1.00  0.00     0.167 HD
ATOM     60  C   UNL A   1      40.981  28.239  29.425  1.00  0.00     0.037 A 
ATOM     61  C   UNL A   1      40.515  32.198  35.141  1.00  0.00     0.037 A 
ATOM     62  C   UNL A   1      41.969  27.961  30.430  1.00  0.00     0.049 A 
ATOM     63  C   UNL A   1      41.533  31.088  35.020  1.00  0.00     0.074 A 
ATOM     64  C   UNL A   1      42.998  27.035  30.389  1.00  0.00     0.029 A 
ATOM     65  N   UNL A   1      42.049  28.600  31.655  1.00  0.00    -0.354 N 
ATOM     66  N   UNL A   1      41.782  30.295  34.006  1.00  0.00    -0.248 NA
ATOM     67  C   UNL A   1      42.387  30.832  36.194  1.00  0.00     0.031 C 
ATOM     68  C   UNL A   1      43.672  27.080  31.612  1.00  0.00     0.029 A 
ATOM     69  C   UNL A   1      43.095  28.070  32.390  1.00  0.00     0.049 A 
ATOM     70  H   UNL A   1      41.453  29.322  31.958  1.00  0.00     0.167 HD
ATOM     71  C   UNL A   1      42.839  29.483  34.404  1.00  0.00     0.074 A 
ATOM     72  C   UNL A   1      43.191  29.878  35.749  1.00  0.00     0.031 C 
ATOM     73  C   UNL A   1      43.462  28.495  33.715  1.00  0.00     0.037 A 
BRANCH  60  74
ATOM     74  C   UNL A   1      40.997  27.406  28.180  1.00  0.00     0.057 A 
ATOM     75  C   UNL A   1      40.241  26.233  28.064  1.00  0.00     0.134 A 
ATOM     76  C   UNL A   1      41.729  27.821  27.062  1.00  0.00     0.134 A 
ATOM     77  F   UNL A   1      39.532  25.775  29.106  1.00  0.00    -0.206 F 
ATOM     78  C   UNL A   1      40.219  25.498  26.878  1.00  0.00     0.040 A 
ATOM     79  C   UNL A   1      41.696  27.108  25.863  1.00  0.00     0.040 A 
ATOM     80  F   UNL A   1      42.472  28.938  27.110  1.00  0.00    -0.206 F 
ATOM     81  C   UNL A   1      40.939  25.943  25.771  1.00  0.00     0.006 A 
ENDBRANCH  60  74
BRANCH  61  82
ATOM     82  C   UNL A   1      40.417  32.966  36.412  1.00  0.00     0.057 A 
ATOM     83  C   UNL A   1      39.446  32.662  37.375  1.00  0.00     0.134 A 
ATOM     84  C   UNL A   1      41.234  34.077  36.654  1.00  0.00     0.134 A 
ATOM     85  F   UNL A   1      38.611  31.629  37.188  1.00  0.00    -0.206 F 
ATOM     86  C   UNL A   1      39.268  33.453  38.512  1.00  0.00     0.040 A 
ATOM     87  C   UNL A   1      41.088  34.859  37.800  1.00  0.00     0.040 A 
ATOM     88  F   UNL A   1      42.179  34.428  35.769  1.00  0.00    -0.206 F 
ATOM     89  C   UNL A   1      40.092  34.555  38.728  1.00  0.00     0.006 A 
ENDBRANCH  61  82
BRANCH  73  90
ATOM     90  C   UNL A   1      44.632  27.813  34.364  1.00  0.00     0.057 A 
ATOM     91  C   UNL A   1      44.489  26.630  35.097  1.00  0.00     0.134 A 
ATOM     92  C   UNL A   1      45.930  28.311  34.185  1.00  0.00     0.134 A 
ATOM     93  F   UNL A   1      43.273  26.105  35.313  1.00  0.00    -0.206 F 
ATOM     94  C   UNL A   1      45.594  25.972  35.642  1.00  0.00     0.040 A 
ATOM     95  C   UNL A   1      47.045  27.649  34.702  1.00  0.00     0.040 A 
ATOM     96  F   UNL A   1      46.138  29.434  33.481  1.00  0.00    -0.206 F 
ATOM     97  C   UNL A   1      46.877  26.478  35.438  1.00  0.00     0.006 A 
ENDBRANCH  73  90
ENDBRANCH  47  48
ENDBRANCH  40  42
ENDBRANCH  39  40
ENDBRANCH  38  39
ENDBRANCH  37  38
ENDBRANCH  36  37
ENDBRANCH  35  36
ENDBRANCH   1  35
TORSDOF 22
ENDMDL
MODEL 3
REMARK VINA RESULT:     -11.2      2.195      3.095
REMARK SMILES COc1ccc(-c2cc(CC3(C(=O)OCCOCCOCCOC(=O)c4ccc(-c5c6nc(c(-c7c(F)cccc7F)c7ccc([nH]7)c(-c7c(F)cccc7F)c7nc(c(-c8c(F)cccc8F)c8ccc5[nH]8)C=C7)C=C6)cc4)CCN(C(=O)C4CCCC4)CC3)on2)cc1
REMARK SMILES IDX 18 1 17 2 16 3 15 4 14 5 12 6 13 7 11 8 80 9 91 10 81 11
REMARK SMILES IDX 90 12 82 13 83 14 84 15 10 16 9 17 7 18 8 19 93 20 92 21
REMARK SMILES IDX 6 22 3 23 4 24 95 25 5 26 94 27 2 28 1 29 85 30 86 31 89 32
REMARK SMILES IDX 87 33 88 34 19 35 20 36 21 37 22 38 23 39 24 40 25 41 26 42
REMARK SMILES IDX 27 43 79 44 28 45 78 46 29 47 30 48 31 49 72 50 32 51 77 52
REMARK SMILES IDX 71 53 73 54 33 55 76 56 70 57 69 58 34 60 60 61 43 62 59 63
REMARK SMILES IDX 44 64 47 65 58 66 74 67 45 68 46 69 57 71 75 72 48 73 35 74
REMARK SMILES IDX 36 75 41 76 37 77 38 78 40 79 42 80 39 81 61 82 62 83 67 84
REMARK SMILES IDX 63 85 64 86 66 87 68 88 65 89 49 90 50 91 55 92 51 93 52 94
REMARK SMILES IDX 54 95 56 96 53 97
REMARK H PARENT 73 59 47 70
REMARK Flexibility Score: inf
ROOT
ATOM      1  C   UNL A   1      39.146  20.966  25.863  1.00  0.00     0.188 C 
ENDROOT
BRANCH   1   2
ATOM      2  O   UNL A   1      38.208  20.242  25.080  1.00  0.00    -0.376 OA
BRANCH   2   3
ATOM      3  C   UNL A   1      36.861  20.714  25.096  1.00  0.00     0.202 C 
BRANCH   3   4
ATOM      4  C   UNL A   1      36.608  22.088  25.735  1.00  0.00     0.261 C 
BRANCH   4   5
ATOM      5  O   UNL A   1      35.285  22.627  25.518  1.00  0.00    -0.463 OA
BRANCH   5   6
ATOM      6  C   UNL A   1      35.149  23.470  24.461  1.00  0.00     0.312 C 
ATOM      7  O   UNL A   1      36.001  23.614  23.587  1.00  0.00    -0.252 OA
BRANCH   6   8
ATOM      8  C   UNL A   1      33.815  24.248  24.417  1.00  0.00     0.078 C 
ATOM      9  C   UNL A   1      33.028  24.176  25.753  1.00  0.00     0.041 C 
ATOM     10  C   UNL A   1      34.296  25.695  24.168  1.00  0.00     0.041 C 
ATOM     11  C   UNL A   1      32.053  25.331  26.004  1.00  0.00     0.120 C 
ATOM     12  C   UNL A   1      33.276  26.779  24.446  1.00  0.00     0.120 C 
ATOM     13  N   UNL A   1      32.664  26.634  25.754  1.00  0.00    -0.342 N 
ATOM     14  C   UNL A   1      32.388  27.679  26.628  1.00  0.00     0.225 C 
ATOM     15  O   UNL A   1      31.636  27.527  27.596  1.00  0.00    -0.275 OA
BRANCH   8  16
ATOM     16  C   UNL A   1      33.017  23.622  23.225  1.00  0.00     0.097 C 
BRANCH  16  17
ATOM     17  C   UNL A   1      32.693  22.176  23.330  1.00  0.00     0.138 A 
ATOM     18  C   UNL A   1      32.546  19.998  23.656  1.00  0.00     0.114 A 
ATOM     19  C   UNL A   1      32.907  21.214  24.291  1.00  0.00     0.077 A 
ATOM     20  N   UNL A   1      32.010  20.235  22.451  1.00  0.00    -0.080 NA
ATOM     21  O   UNL A   1      32.069  21.604  22.268  1.00  0.00    -0.361 OA
BRANCH  18  22
ATOM     22  C   UNL A   1      32.807  18.649  24.131  1.00  0.00     0.004 A 
ATOM     23  C   UNL A   1      33.411  16.059  25.027  1.00  0.00     0.118 A 
ATOM     24  C   UNL A   1      33.599  16.399  23.687  1.00  0.00     0.047 A 
ATOM     25  C   UNL A   1      32.941  17.021  25.924  1.00  0.00     0.047 A 
ATOM     26  C   UNL A   1      33.283  17.682  23.235  1.00  0.00     0.014 A 
ATOM     27  C   UNL A   1      32.643  18.315  25.478  1.00  0.00     0.014 A 
BRANCH  23  28
ATOM     28  O   UNL A   1      33.769  14.784  25.369  1.00  0.00    -0.497 OA
ATOM     29  C   UNL A   1      32.679  13.886  25.556  1.00  0.00     0.278 C 
ENDBRANCH  23  28
ENDBRANCH  18  22
ENDBRANCH  16  17
ENDBRANCH   8  16
BRANCH  14  30
ATOM     30  C   UNL A   1      33.047  29.049  26.434  1.00  0.00     0.078 C 
ATOM     31  C   UNL A   1      32.335  30.173  27.182  1.00  0.00     0.013 C 
ATOM     32  C   UNL A   1      34.529  29.118  26.798  1.00  0.00     0.013 C 
ATOM     33  C   UNL A   1      33.414  31.176  27.550  1.00  0.00     0.001 C 
ATOM     34  C   UNL A   1      34.742  30.433  27.540  1.00  0.00     0.001 C 
ENDBRANCH  14  30
ENDBRANCH   6   8
ENDBRANCH   5   6
ENDBRANCH   4   5
ENDBRANCH   3   4
ENDBRANCH   2   3
ENDBRANCH   1   2
BRANCH   1  35
ATOM     35  C   UNL A   1      40.544  20.366  26.007  1.00  0.00     0.188 C 
BRANCH  35  36
ATOM     36  O   UNL A   1      41.621  21.291  26.072  1.00  0.00    -0.376 OA
BRANCH  36  37
ATOM     37  C   UNL A   1      41.868  21.869  27.360  1.00  0.00     0.202 C 
BRANCH  37  38
ATOM     38  C   UNL A   1      41.947  23.410  27.405  1.00  0.00     0.261 C 
BRANCH  38  39
ATOM     39  O   UNL A   1      41.320  24.088  26.293  1.00  0.00    -0.460 OA
BRANCH  39  40
ATOM     40  C   UNL A   1      40.112  24.662  26.501  1.00  0.00     0.338 C 
ATOM     41  O   UNL A   1      39.044  24.289  26.043  1.00  0.00    -0.246 OA
BRANCH  40  42
ATOM     42  C   UNL A   1      40.245  25.655  27.603  1.00  0.00     0.060 A 
ATOM     43  C   UNL A   1      39.330  25.596  28.666  1.00  0.00     0.016 A 
ATOM     44  C   UNL A   1      41.295  26.578  27.645  1.00  0.00     0.016 A 
ATOM     45  C   UNL A   1      39.434  26.482  29.743  1.00  0.00     0.010 A 
ATOM     46  C   UNL A   1      41.390  27.475  28.715  1.00  0.00     0.010 A 
ATOM     47  C   UNL A   1      40.440  27.457  29.753  1.00  0.00    -0.014 A 
BRANCH  47  48
ATOM     48  C   UNL A   1      40.366  28.605  30.695  1.00  0.00     0.031 A 
ATOM     49  C   UNL A   1      41.279  28.583  31.893  1.00  0.00     0.074 A 
ATOM     50  C   UNL A   1      39.516  29.635  30.523  1.00  0.00     0.049 A 
ATOM     51  N   UNL A   1      41.327  29.393  32.919  1.00  0.00    -0.248 NA
ATOM     52  C   UNL A   1      42.267  27.492  31.941  1.00  0.00     0.031 C 
ATOM     53  C   UNL A   1      38.608  29.813  29.393  1.00  0.00     0.029 A 
ATOM     54  N   UNL A   1      39.270  30.723  31.328  1.00  0.00    -0.354 N 
ATOM     55  C   UNL A   1      42.334  28.900  33.740  1.00  0.00     0.074 A 
ATOM     56  C   UNL A   1      42.862  27.714  33.102  1.00  0.00     0.031 C 
ATOM     57  C   UNL A   1      37.886  30.932  29.587  1.00  0.00     0.029 A 
ATOM     58  C   UNL A   1      38.253  31.528  30.873  1.00  0.00     0.049 A 
ATOM     59  H   UNL A   1      39.774  30.908  32.153  1.00  0.00     0.167 HD
ATOM     60  C   UNL A   1      42.782  29.388  34.919  1.00  0.00     0.037 A 
ATOM     61  C   UNL A   1      37.665  32.600  31.446  1.00  0.00     0.037 A 
ATOM     62  C   UNL A   1      42.277  30.573  35.554  1.00  0.00     0.049 A 
ATOM     63  C   UNL A   1      38.138  33.084  32.796  1.00  0.00     0.074 A 
ATOM     64  C   UNL A   1      42.694  31.156  36.738  1.00  0.00     0.029 A 
ATOM     65  N   UNL A   1      41.244  31.353  35.063  1.00  0.00    -0.354 N 
ATOM     66  N   UNL A   1      39.111  32.628  33.548  1.00  0.00    -0.248 NA
ATOM     67  C   UNL A   1      37.425  34.232  33.383  1.00  0.00     0.031 C 
ATOM     68  C   UNL A   1      41.879  32.263  36.990  1.00  0.00     0.029 A 
ATOM     69  C   UNL A   1      40.992  32.397  35.935  1.00  0.00     0.049 A 
ATOM     70  H   UNL A   1      40.761  31.188  34.221  1.00  0.00     0.167 HD
ATOM     71  C   UNL A   1      39.151  33.456  34.667  1.00  0.00     0.074 A 
ATOM     72  C   UNL A   1      38.110  34.444  34.497  1.00  0.00     0.031 C 
ATOM     73  C   UNL A   1      39.977  33.399  35.740  1.00  0.00     0.037 A 
BRANCH  60  74
ATOM     74  C   UNL A   1      43.862  28.625  35.622  1.00  0.00     0.057 A 
ATOM     75  C   UNL A   1      43.575  27.555  36.478  1.00  0.00     0.134 A 
ATOM     76  C   UNL A   1      45.208  28.925  35.385  1.00  0.00     0.134 A 
ATOM     77  F   UNL A   1      42.304  27.229  36.757  1.00  0.00    -0.206 F 
ATOM     78  C   UNL A   1      44.593  26.814  37.081  1.00  0.00     0.040 A 
ATOM     79  C   UNL A   1      46.234  28.177  35.962  1.00  0.00     0.040 A 
ATOM     80  F   UNL A   1      45.548  29.939  34.573  1.00  0.00    -0.206 F 
ATOM     81  C   UNL A   1      45.926  27.118  36.813  1.00  0.00     0.006 A 
ENDBRANCH  60  74
BRANCH  61  82
ATOM     82  C   UNL A   1      36.522  33.285  30.782  1.00  0.00     0.057 A 
ATOM     83  C   UNL A   1      35.204  33.093  31.217  1.00  0.00     0.134 A 
ATOM     84  C   UNL A   1      36.713  34.076  29.643  1.00  0.00     0.134 A 
ATOM     85  F   UNL A   1      34.952  32.318  32.282  1.00  0.00    -0.206 F 
ATOM     86  C   UNL A   1      34.118  33.633  30.525  1.00  0.00     0.040 A 
ATOM     87  C   UNL A   1      35.639  34.647  28.959  1.00  0.00     0.040 A 
ATOM     88  F   UNL A   1      37.948  34.295  29.169  1.00  0.00    -0.206 F 
ATOM     89  C   UNL A   1      34.334  34.415  29.393  1.00  0.00     0.006 A 
ENDBRANCH  61  82
BRANCH  73  90
ATOM     90  C   UNL A   1      39.847  34.467  36.787  1.00  0.00     0.057 A 
ATOM     91  C   UNL A   1      40.419  35.735  36.631  1.00  0.00     0.134 A 
ATOM     92  C   UNL A   1      39.073  34.243  37.934  1.00  0.00     0.134 A 
ATOM     93  F   UNL A   1      41.178  36.012  35.561  1.00  0.00    -0.206 F 
ATOM     94  C   UNL A   1      40.236  36.739  37.585  1.00  0.00     0.040 A 
ATOM     95  C   UNL A   1      38.861  35.246  38.881  1.00  0.00     0.040 A 
ATOM     96  F   UNL A   1      38.485  33.054  38.138  1.00  0.00    -0.206 F 
ATOM     97  C   UNL A   1      39.449  36.498  38.710  1.00  0.00     0.006 A 
ENDBRANCH  73  90
ENDBRANCH  47  48
ENDBRANCH  40  42
ENDBRANCH  39  40
ENDBRANCH  38  39
ENDBRANCH  37  38
ENDBRANCH  36  37
ENDBRANCH  35  36
ENDBRANCH   1  35
TORSDOF 22
ENDMDL
