MODEL 1
REMARK VINA RESULT:     -10.4      0.000      0.000
REMARK SMILES COc1ncccc1C[C@H](C(=O)OCCOCCOCCOC(=O)c1ccc(-c2c3nc(c(-c4c(F)cccc4F)c4ccc([nH]4)c(-c4c(F)cccc4F)c4nc(c(-c5c(F)cccc5F)c5ccc2[nH]5)C=C4)C=C3)cc1)c1ccc(F)cc1
REMARK SMILES IDX 17 1 16 2 15 3 14 4 13 5 11 6 12 7 10 8 9 9 8 10 3 11 4 12
REMARK SMILES IDX 5 13 7 14 6 15 2 16 1 17 79 18 80 19 85 20 81 21 84 22 82 23
REMARK SMILES IDX 83 24 18 25 19 26 20 27 21 28 22 29 23 30 24 31 25 32 26 33
REMARK SMILES IDX 78 34 27 35 77 36 28 37 29 38 30 39 71 40 31 41 76 42 70 43
REMARK SMILES IDX 72 44 32 45 75 46 69 47 68 48 33 50 59 51 42 52 58 53 43 54
REMARK SMILES IDX 46 55 57 56 73 57 44 58 45 59 56 61 74 62 47 63 34 64 35 65
REMARK SMILES IDX 40 66 36 67 37 68 39 69 41 70 38 71 60 72 61 73 66 74 62 75
REMARK SMILES IDX 63 76 65 77 67 78 64 79 48 80 49 81 54 82 50 83 51 84 53 85
REMARK SMILES IDX 55 86 52 87
REMARK H PARENT 72 49 46 60
REMARK Flexibility Score: inf
ROOT
ATOM      1  C   UNL A   1      38.910  22.362  26.141  1.00  0.00     0.188 C 
ENDROOT
BRANCH   1   2
ATOM      2  O   UNL A   1      37.582  22.435  25.644  1.00  0.00    -0.376 OA
BRANCH   2   3
ATOM      3  C   UNL A   1      37.033  23.685  25.249  1.00  0.00     0.202 C 
BRANCH   3   4
ATOM      4  C   UNL A   1      35.509  23.820  25.067  1.00  0.00     0.261 C 
BRANCH   4   5
ATOM      5  O   UNL A   1      34.765  22.584  24.966  1.00  0.00    -0.463 OA
BRANCH   5   6
ATOM      6  C   UNL A   1      33.723  22.469  25.828  1.00  0.00     0.313 C 
ATOM      7  O   UNL A   1      33.792  22.836  26.999  1.00  0.00    -0.252 OA
BRANCH   6   8
ATOM      8  C   UNL A   1      32.387  21.989  25.187  1.00  0.00     0.134 C 
BRANCH   8   9
ATOM      9  C   UNL A   1      31.695  22.911  24.128  1.00  0.00     0.061 C 
BRANCH   9  10
ATOM     10  C   UNL A   1      31.523  24.378  24.522  1.00  0.00     0.015 A 
ATOM     11  C   UNL A   1      32.138  25.422  23.829  1.00  0.00     0.216 A 
ATOM     12  N   UNL A   1      31.949  26.742  24.076  1.00  0.00    -0.222 NA
ATOM     13  C   UNL A   1      31.146  27.053  25.116  1.00  0.00     0.115 A 
ATOM     14  C   UNL A   1      30.732  24.753  25.615  1.00  0.00     0.011 A 
ATOM     15  C   UNL A   1      30.541  26.102  25.920  1.00  0.00     0.021 A 
BRANCH  11  16
ATOM     16  O   UNL A   1      33.126  25.096  22.934  1.00  0.00    -0.481 OA
ATOM     17  C   UNL A   1      32.766  25.461  21.612  1.00  0.00     0.280 C 
ENDBRANCH  11  16
ENDBRANCH   9  10
ENDBRANCH   8   9
BRANCH   8  18
ATOM     18  C   UNL A   1      32.679  20.583  24.647  1.00  0.00    -0.033 A 
ATOM     19  C   UNL A   1      32.332  20.256  23.323  1.00  0.00     0.007 A 
ATOM     20  C   UNL A   1      33.073  19.556  25.521  1.00  0.00     0.007 A 
ATOM     21  C   UNL A   1      32.410  18.939  22.874  1.00  0.00     0.039 A 
ATOM     22  C   UNL A   1      33.121  18.235  25.076  1.00  0.00     0.039 A 
ATOM     23  C   UNL A   1      32.795  17.940  23.759  1.00  0.00     0.123 A 
ATOM     24  F   UNL A   1      32.823  16.668  23.342  1.00  0.00    -0.207 F 
ENDBRANCH   8  18
ENDBRANCH   6   8
ENDBRANCH   5   6
ENDBRANCH   4   5
ENDBRANCH   3   4
ENDBRANCH   2   3
ENDBRANCH   1   2
BRANCH   1  25
ATOM     25  C   UNL A   1      39.673  21.029  26.125  1.00  0.00     0.188 C 
BRANCH  25  26
ATOM     26  O   UNL A   1      40.409  20.741  27.294  1.00  0.00    -0.376 OA
BRANCH  26  27
ATOM     27  C   UNL A   1      41.733  20.270  27.135  1.00  0.00     0.202 C 
BRANCH  27  28
ATOM     28  C   UNL A   1      42.605  20.973  26.085  1.00  0.00     0.261 C 
BRANCH  28  29
ATOM     29  O   UNL A   1      43.336  22.126  26.535  1.00  0.00    -0.460 OA
BRANCH  29  30
ATOM     30  C   UNL A   1      43.308  23.232  25.757  1.00  0.00     0.338 C 
ATOM     31  O   UNL A   1      43.473  23.282  24.546  1.00  0.00    -0.246 OA
BRANCH  30  32
ATOM     32  C   UNL A   1      42.821  24.354  26.594  1.00  0.00     0.060 A 
ATOM     33  C   UNL A   1      43.452  25.605  26.517  1.00  0.00     0.016 A 
ATOM     34  C   UNL A   1      41.723  24.172  27.438  1.00  0.00     0.016 A 
ATOM     35  C   UNL A   1      43.001  26.669  27.304  1.00  0.00     0.010 A 
ATOM     36  C   UNL A   1      41.289  25.230  28.240  1.00  0.00     0.010 A 
ATOM     37  C   UNL A   1      41.942  26.476  28.200  1.00  0.00    -0.014 A 
BRANCH  37  38
ATOM     38  C   UNL A   1      41.621  27.496  29.232  1.00  0.00     0.031 A 
ATOM     39  C   UNL A   1      42.388  27.468  30.526  1.00  0.00     0.074 A 
ATOM     40  C   UNL A   1      40.645  28.401  29.056  1.00  0.00     0.049 A 
ATOM     41  N   UNL A   1      42.206  28.160  31.620  1.00  0.00    -0.248 NA
ATOM     42  C   UNL A   1      43.505  26.511  30.592  1.00  0.00     0.031 C 
ATOM     43  C   UNL A   1      39.842  28.555  27.846  1.00  0.00     0.029 A 
ATOM     44  N   UNL A   1      40.143  29.346  29.920  1.00  0.00    -0.354 N 
ATOM     45  C   UNL A   1      43.168  27.707  32.514  1.00  0.00     0.074 A 
ATOM     46  C   UNL A   1      43.912  26.663  31.843  1.00  0.00     0.031 C 
ATOM     47  C   UNL A   1      38.923  29.514  28.055  1.00  0.00     0.029 A 
ATOM     48  C   UNL A   1      39.050  30.013  29.426  1.00  0.00     0.049 A 
ATOM     49  H   UNL A   1      40.530  29.526  30.807  1.00  0.00     0.167 HD
ATOM     50  C   UNL A   1      43.411  28.122  33.782  1.00  0.00     0.037 A 
ATOM     51  C   UNL A   1      38.222  30.895  30.022  1.00  0.00     0.037 A 
ATOM     52  C   UNL A   1      42.666  29.156  34.450  1.00  0.00     0.049 A 
ATOM     53  C   UNL A   1      38.468  31.306  31.450  1.00  0.00     0.074 A 
ATOM     54  C   UNL A   1      42.864  29.680  35.715  1.00  0.00     0.029 A 
ATOM     55  N   UNL A   1      41.566  29.810  33.915  1.00  0.00    -0.354 N 
ATOM     56  N   UNL A   1      39.405  30.907  32.276  1.00  0.00    -0.248 NA
ATOM     57  C   UNL A   1      37.543  32.292  32.029  1.00  0.00     0.031 C 
ATOM     58  C   UNL A   1      41.842  30.599  35.973  1.00  0.00     0.029 A 
ATOM     59  C   UNL A   1      41.050  30.703  34.840  1.00  0.00     0.049 A 
ATOM     60  H   UNL A   1      41.205  29.662  33.011  1.00  0.00     0.167 HD
ATOM     61  C   UNL A   1      39.200  31.609  33.460  1.00  0.00     0.074 A 
ATOM     62  C   UNL A   1      38.053  32.466  33.241  1.00  0.00     0.031 C 
ATOM     63  C   UNL A   1      39.904  31.552  34.618  1.00  0.00     0.037 A 
BRANCH  50  64
ATOM     64  C   UNL A   1      44.497  27.412  34.540  1.00  0.00     0.057 A 
ATOM     65  C   UNL A   1      45.825  27.864  34.548  1.00  0.00     0.134 A 
ATOM     66  C   UNL A   1      44.210  26.249  35.265  1.00  0.00     0.134 A 
ATOM     67  F   UNL A   1      46.173  28.964  33.864  1.00  0.00    -0.206 F 
ATOM     68  C   UNL A   1      46.832  27.161  35.213  1.00  0.00     0.040 A 
ATOM     69  C   UNL A   1      45.201  25.557  35.962  1.00  0.00     0.040 A 
ATOM     70  F   UNL A   1      42.960  25.762  35.308  1.00  0.00    -0.206 F 
ATOM     71  C   UNL A   1      46.520  26.005  35.926  1.00  0.00     0.006 A 
ENDBRANCH  50  64
BRANCH  51  72
ATOM     72  C   UNL A   1      37.060  31.430  29.266  1.00  0.00     0.057 A 
ATOM     73  C   UNL A   1      37.070  32.723  28.732  1.00  0.00     0.134 A 
ATOM     74  C   UNL A   1      35.918  30.648  29.044  1.00  0.00     0.134 A 
ATOM     75  F   UNL A   1      38.122  33.528  28.933  1.00  0.00    -0.206 F 
ATOM     76  C   UNL A   1      35.986  33.221  28.005  1.00  0.00     0.040 A 
ATOM     77  C   UNL A   1      34.840  31.124  28.297  1.00  0.00     0.040 A 
ATOM     78  F   UNL A   1      35.846  29.402  29.531  1.00  0.00    -0.206 F 
ATOM     79  C   UNL A   1      34.871  32.416  27.778  1.00  0.00     0.006 A 
ENDBRANCH  51  72
BRANCH  63  80
ATOM     80  C   UNL A   1      39.484  32.465  35.737  1.00  0.00     0.057 A 
ATOM     81  C   UNL A   1      39.962  33.777  35.849  1.00  0.00     0.134 A 
ATOM     82  C   UNL A   1      38.539  32.042  36.682  1.00  0.00     0.134 A 
ATOM     83  F   UNL A   1      40.875  34.244  34.984  1.00  0.00    -0.206 F 
ATOM     84  C   UNL A   1      39.529  34.628  36.869  1.00  0.00     0.040 A 
ATOM     85  C   UNL A   1      38.077  32.893  37.688  1.00  0.00     0.040 A 
ATOM     86  F   UNL A   1      38.031  30.801  36.630  1.00  0.00    -0.206 F 
ATOM     87  C   UNL A   1      38.576  34.189  37.786  1.00  0.00     0.006 A 
ENDBRANCH  63  80
ENDBRANCH  37  38
ENDBRANCH  30  32
ENDBRANCH  29  30
ENDBRANCH  28  29
ENDBRANCH  27  28
ENDBRANCH  26  27
ENDBRANCH  25  26
ENDBRANCH   1  25
TORSDOF 21
ENDMDL
MODEL 2
REMARK VINA RESULT:     -10.4      2.646      7.398
REMARK SMILES COc1ncccc1C[C@H](C(=O)OCCOCCOCCOC(=O)c1ccc(-c2c3nc(c(-c4c(F)cccc4F)c4ccc([nH]4)c(-c4c(F)cccc4F)c4nc(c(-c5c(F)cccc5F)c5ccc2[nH]5)C=C4)C=C3)cc1)c1ccc(F)cc1
REMARK SMILES IDX 17 1 16 2 15 3 14 4 13 5 11 6 12 7 10 8 9 9 8 10 3 11 4 12
REMARK SMILES IDX 5 13 7 14 6 15 2 16 1 17 79 18 80 19 85 20 81 21 84 22 82 23
REMARK SMILES IDX 83 24 18 25 19 26 20 27 21 28 22 29 23 30 24 31 25 32 26 33
REMARK SMILES IDX 78 34 27 35 77 36 28 37 29 38 30 39 71 40 31 41 76 42 70 43
REMARK SMILES IDX 72 44 32 45 75 46 69 47 68 48 33 50 59 51 42 52 58 53 43 54
REMARK SMILES IDX 46 55 57 56 73 57 44 58 45 59 56 61 74 62 47 63 34 64 35 65
REMARK SMILES IDX 40 66 36 67 37 68 39 69 41 70 38 71 60 72 61 73 66 74 62 75
REMARK SMILES IDX 63 76 65 77 67 78 64 79 48 80 49 81 54 82 50 83 51 84 53 85
REMARK SMILES IDX 55 86 52 87
REMARK H PARENT 72 49 46 60
REMARK Flexibility Score: inf
ROOT
ATOM      1  C   UNL A   1      32.915  27.050  21.845  1.00  0.00     0.188 C 
ENDROOT
BRANCH   1   2
ATOM      2  O   UNL A   1      33.637  25.832  21.953  1.00  0.00    -0.376 OA
BRANCH   2   3
ATOM      3  C   UNL A   1      32.961  24.625  22.273  1.00  0.00     0.202 C 
BRANCH   3   4
ATOM      4  C   UNL A   1      33.673  23.276  22.054  1.00  0.00     0.261 C 
BRANCH   4   5
ATOM      5  O   UNL A   1      34.296  22.685  23.218  1.00  0.00    -0.463 OA
BRANCH   5   6
ATOM      6  C   UNL A   1      35.550  23.129  23.485  1.00  0.00     0.313 C 
ATOM      7  O   UNL A   1      36.423  23.201  22.623  1.00  0.00    -0.252 OA
BRANCH   6   8
ATOM      8  C   UNL A   1      35.756  23.691  24.923  1.00  0.00     0.134 C 
BRANCH   8   9
ATOM      9  C   UNL A   1      34.672  23.379  26.008  1.00  0.00     0.061 C 
BRANCH   9  10
ATOM     10  C   UNL A   1      33.567  24.422  26.176  1.00  0.00     0.015 A 
ATOM     11  C   UNL A   1      32.239  24.080  26.440  1.00  0.00     0.216 A 
ATOM     12  N   UNL A   1      31.240  24.961  26.688  1.00  0.00    -0.222 NA
ATOM     13  C   UNL A   1      31.557  26.271  26.612  1.00  0.00     0.115 A 
ATOM     14  C   UNL A   1      33.834  25.793  26.069  1.00  0.00     0.011 A 
ATOM     15  C   UNL A   1      32.821  26.729  26.285  1.00  0.00     0.021 A 
BRANCH  11  16
ATOM     16  O   UNL A   1      31.880  22.764  26.284  1.00  0.00    -0.481 OA
ATOM     17  C   UNL A   1      30.472  22.622  26.191  1.00  0.00     0.280 C 
ENDBRANCH  11  16
ENDBRANCH   9  10
ENDBRANCH   8   9
BRANCH   8  18
ATOM     18  C   UNL A   1      37.159  23.234  25.340  1.00  0.00    -0.033 A 
ATOM     19  C   UNL A   1      37.539  21.891  25.164  1.00  0.00     0.007 A 
ATOM     20  C   UNL A   1      37.983  24.080  26.103  1.00  0.00     0.007 A 
ATOM     21  C   UNL A   1      38.730  21.412  25.708  1.00  0.00     0.039 A 
ATOM     22  C   UNL A   1      39.158  23.589  26.671  1.00  0.00     0.039 A 
ATOM     23  C   UNL A   1      39.523  22.265  26.464  1.00  0.00     0.123 A 
ATOM     24  F   UNL A   1      40.642  21.794  27.028  1.00  0.00    -0.207 F 
ENDBRANCH   8  18
ENDBRANCH   6   8
ENDBRANCH   5   6
ENDBRANCH   4   5
ENDBRANCH   3   4
ENDBRANCH   2   3
ENDBRANCH   1   2
BRANCH   1  25
ATOM     25  C   UNL A   1      33.091  28.155  22.897  1.00  0.00     0.188 C 
BRANCH  25  26
ATOM     26  O   UNL A   1      32.077  28.223  23.876  1.00  0.00    -0.376 OA
BRANCH  26  27
ATOM     27  C   UNL A   1      31.424  29.464  24.057  1.00  0.00     0.202 C 
BRANCH  27  28
ATOM     28  C   UNL A   1      31.487  30.090  25.458  1.00  0.00     0.261 C 
BRANCH  28  29
ATOM     29  O   UNL A   1      32.786  30.146  26.072  1.00  0.00    -0.460 OA
BRANCH  29  30
ATOM     30  C   UNL A   1      33.048  31.187  26.894  1.00  0.00     0.338 C 
ATOM     31  O   UNL A   1      32.266  32.057  27.249  1.00  0.00    -0.246 OA
BRANCH  30  32
ATOM     32  C   UNL A   1      34.395  30.969  27.472  1.00  0.00     0.060 A 
ATOM     33  C   UNL A   1      34.830  29.664  27.754  1.00  0.00     0.016 A 
ATOM     34  C   UNL A   1      35.237  32.057  27.713  1.00  0.00     0.016 A 
ATOM     35  C   UNL A   1      36.099  29.450  28.302  1.00  0.00     0.010 A 
ATOM     36  C   UNL A   1      36.495  31.842  28.281  1.00  0.00     0.010 A 
ATOM     37  C   UNL A   1      36.923  30.541  28.606  1.00  0.00    -0.014 A 
BRANCH  37  38
ATOM     38  C   UNL A   1      38.147  30.365  29.428  1.00  0.00     0.031 A 
ATOM     39  C   UNL A   1      39.246  29.486  28.894  1.00  0.00     0.074 A 
ATOM     40  C   UNL A   1      38.275  30.927  30.641  1.00  0.00     0.049 A 
ATOM     41  N   UNL A   1      40.343  29.074  29.474  1.00  0.00    -0.248 NA
ATOM     42  C   UNL A   1      39.066  28.995  27.519  1.00  0.00     0.031 C 
ATOM     43  C   UNL A   1      37.302  31.817  31.268  1.00  0.00     0.029 A 
ATOM     44  N   UNL A   1      39.273  30.802  31.578  1.00  0.00    -0.354 N 
ATOM     45  C   UNL A   1      40.973  28.255  28.546  1.00  0.00     0.074 A 
ATOM     46  C   UNL A   1      40.121  28.209  27.375  1.00  0.00     0.031 C 
ATOM     47  C   UNL A   1      37.734  32.132  32.502  1.00  0.00     0.029 A 
ATOM     48  C   UNL A   1      38.995  31.435  32.763  1.00  0.00     0.049 A 
ATOM     49  H   UNL A   1      40.109  30.305  31.414  1.00  0.00     0.167 HD
ATOM     50  C   UNL A   1      42.154  27.599  28.655  1.00  0.00     0.037 A 
ATOM     51  C   UNL A   1      39.658  31.423  33.938  1.00  0.00     0.037 A 
ATOM     52  C   UNL A   1      42.996  27.642  29.821  1.00  0.00     0.049 A 
ATOM     53  C   UNL A   1      40.941  30.643  34.065  1.00  0.00     0.074 A 
ATOM     54  C   UNL A   1      44.232  27.050  30.013  1.00  0.00     0.029 A 
ATOM     55  N   UNL A   1      42.679  28.296  31.003  1.00  0.00    -0.354 N 
ATOM     56  N   UNL A   1      41.554  29.907  33.170  1.00  0.00    -0.248 NA
ATOM     57  C   UNL A   1      41.626  30.695  35.366  1.00  0.00     0.031 C 
ATOM     58  C   UNL A   1      44.630  27.288  31.333  1.00  0.00     0.029 A 
ATOM     59  C   UNL A   1      43.677  28.090  31.941  1.00  0.00     0.049 A 
ATOM     60  H   UNL A   1      41.865  28.830  31.152  1.00  0.00     0.167 HD
ATOM     61  C   UNL A   1      42.706  29.430  33.787  1.00  0.00     0.074 A 
ATOM     62  C   UNL A   1      42.710  29.968  35.132  1.00  0.00     0.031 C 
ATOM     63  C   UNL A   1      43.674  28.626  33.281  1.00  0.00     0.037 A 
BRANCH  50  64
ATOM     64  C   UNL A   1      42.571  26.739  27.496  1.00  0.00     0.057 A 
ATOM     65  C   UNL A   1      43.247  27.257  26.382  1.00  0.00     0.134 A 
ATOM     66  C   UNL A   1      42.281  25.368  27.492  1.00  0.00     0.134 A 
ATOM     67  F   UNL A   1      43.545  28.563  26.313  1.00  0.00    -0.206 F 
ATOM     68  C   UNL A   1      43.578  26.452  25.289  1.00  0.00     0.040 A 
ATOM     69  C   UNL A   1      42.638  24.547  26.421  1.00  0.00     0.040 A 
ATOM     70  F   UNL A   1      41.644  24.803  28.528  1.00  0.00    -0.206 F 
ATOM     71  C   UNL A   1      43.277  25.092  25.309  1.00  0.00     0.006 A 
ENDBRANCH  50  64
BRANCH  51  72
ATOM     72  C   UNL A   1      39.095  32.159  35.100  1.00  0.00     0.057 A 
ATOM     73  C   UNL A   1      39.296  33.534  35.258  1.00  0.00     0.134 A 
ATOM     74  C   UNL A   1      38.327  31.502  36.070  1.00  0.00     0.134 A 
ATOM     75  F   UNL A   1      40.044  34.212  34.378  1.00  0.00    -0.206 F 
ATOM     76  C   UNL A   1      38.753  34.231  36.339  1.00  0.00     0.040 A 
ATOM     77  C   UNL A   1      37.757  32.191  37.141  1.00  0.00     0.040 A 
ATOM     78  F   UNL A   1      38.100  30.184  35.977  1.00  0.00    -0.206 F 
ATOM     79  C   UNL A   1      37.972  33.560  37.279  1.00  0.00     0.006 A 
ENDBRANCH  51  72
BRANCH  63  80
ATOM     80  C   UNL A   1      44.845  28.300  34.166  1.00  0.00     0.057 A 
ATOM     81  C   UNL A   1      45.963  29.139  34.264  1.00  0.00     0.134 A 
ATOM     82  C   UNL A   1      44.826  27.157  34.978  1.00  0.00     0.134 A 
ATOM     83  F   UNL A   1      46.052  30.244  33.509  1.00  0.00    -0.206 F 
ATOM     84  C   UNL A   1      47.024  28.845  35.124  1.00  0.00     0.040 A 
ATOM     85  C   UNL A   1      45.867  26.869  35.863  1.00  0.00     0.040 A 
ATOM     86  F   UNL A   1      43.783  26.314  34.944  1.00  0.00    -0.206 F 
ATOM     87  C   UNL A   1      46.973  27.712  35.933  1.00  0.00     0.006 A 
ENDBRANCH  63  80
ENDBRANCH  37  38
ENDBRANCH  30  32
ENDBRANCH  29  30
ENDBRANCH  28  29
ENDBRANCH  27  28
ENDBRANCH  26  27
ENDBRANCH  25  26
ENDBRANCH   1  25
TORSDOF 21
ENDMDL
MODEL 3
REMARK VINA RESULT:     -10.1      4.629      6.732
REMARK SMILES COc1ncccc1C[C@H](C(=O)OCCOCCOCCOC(=O)c1ccc(-c2c3nc(c(-c4c(F)cccc4F)c4ccc([nH]4)c(-c4c(F)cccc4F)c4nc(c(-c5c(F)cccc5F)c5ccc2[nH]5)C=C4)C=C3)cc1)c1ccc(F)cc1
REMARK SMILES IDX 17 1 16 2 15 3 14 4 13 5 11 6 12 7 10 8 9 9 8 10 3 11 4 12
REMARK SMILES IDX 5 13 7 14 6 15 2 16 1 17 79 18 80 19 85 20 81 21 84 22 82 23
REMARK SMILES IDX 83 24 18 25 19 26 20 27 21 28 22 29 23 30 24 31 25 32 26 33
REMARK SMILES IDX 78 34 27 35 77 36 28 37 29 38 30 39 71 40 31 41 76 42 70 43
REMARK SMILES IDX 72 44 32 45 75 46 69 47 68 48 33 50 59 51 42 52 58 53 43 54
REMARK SMILES IDX 46 55 57 56 73 57 44 58 45 59 56 61 74 62 47 63 34 64 35 65
REMARK SMILES IDX 40 66 36 67 37 68 39 69 41 70 38 71 60 72 61 73 66 74 62 75
REMARK SMILES IDX 63 76 65 77 67 78 64 79 48 80 49 81 54 82 50 83 51 84 53 85
REMARK SMILES IDX 55 86 52 87
REMARK H PARENT 72 49 46 60
REMARK Flexibility Score: inf
ROOT
ATOM      1  C   UNL A   1      39.764  21.733  26.389  1.00  0.00     0.188 C 
ENDROOT
BRANCH   1   2
ATOM      2  O   UNL A   1      39.319  22.987  26.883  1.00  0.00    -0.376 OA
BRANCH   2   3
ATOM      3  C   UNL A   1      38.425  23.782  26.117  1.00  0.00     0.202 C 
BRANCH   3   4
ATOM      4  C   UNL A   1      37.348  23.095  25.256  1.00  0.00     0.261 C 
BRANCH   4   5
ATOM      5  O   UNL A   1      36.231  23.919  24.850  1.00  0.00    -0.463 OA
BRANCH   5   6
ATOM      6  C   UNL A   1      35.577  23.493  23.740  1.00  0.00     0.313 C 
ATOM      7  O   UNL A   1      36.153  22.936  22.808  1.00  0.00    -0.252 OA
BRANCH   6   8
ATOM      8  C   UNL A   1      34.025  23.615  23.802  1.00  0.00     0.134 C 
BRANCH   8   9
ATOM      9  C   UNL A   1      33.289  24.355  22.636  1.00  0.00     0.061 C 
BRANCH   9  10
ATOM     10  C   UNL A   1      32.180  25.324  23.046  1.00  0.00     0.015 A 
ATOM     11  C   UNL A   1      32.362  26.707  23.082  1.00  0.00     0.216 A 
ATOM     12  N   UNL A   1      31.391  27.616  23.348  1.00  0.00    -0.222 NA
ATOM     13  C   UNL A   1      30.173  27.125  23.660  1.00  0.00     0.115 A 
ATOM     14  C   UNL A   1      30.909  24.865  23.416  1.00  0.00     0.011 A 
ATOM     15  C   UNL A   1      29.894  25.771  23.729  1.00  0.00     0.021 A 
BRANCH  11  16
ATOM     16  O   UNL A   1      33.646  27.181  22.995  1.00  0.00    -0.481 OA
ATOM     17  C   UNL A   1      33.665  28.571  22.709  1.00  0.00     0.280 C 
ENDBRANCH  11  16
ENDBRANCH   9  10
ENDBRANCH   8   9
BRANCH   8  18
ATOM     18  C   UNL A   1      33.514  22.185  24.012  1.00  0.00    -0.033 A 
ATOM     19  C   UNL A   1      34.163  21.336  24.926  1.00  0.00     0.007 A 
ATOM     20  C   UNL A   1      32.554  21.640  23.141  1.00  0.00     0.007 A 
ATOM     21  C   UNL A   1      33.838  19.982  24.992  1.00  0.00     0.039 A 
ATOM     22  C   UNL A   1      32.253  20.280  23.190  1.00  0.00     0.039 A 
ATOM     23  C   UNL A   1      32.892  19.466  24.116  1.00  0.00     0.123 A 
ATOM     24  F   UNL A   1      32.615  18.156  24.146  1.00  0.00    -0.207 F 
ENDBRANCH   8  18
ENDBRANCH   6   8
ENDBRANCH   5   6
ENDBRANCH   4   5
ENDBRANCH   3   4
ENDBRANCH   2   3
ENDBRANCH   1   2
BRANCH   1  25
ATOM     25  C   UNL A   1      41.263  21.463  26.188  1.00  0.00     0.188 C 
BRANCH  25  26
ATOM     26  O   UNL A   1      41.575  20.270  25.503  1.00  0.00    -0.376 OA
BRANCH  26  27
ATOM     27  C   UNL A   1      42.078  19.190  26.266  1.00  0.00     0.202 C 
BRANCH  27  28
ATOM     28  C   UNL A   1      43.305  18.454  25.711  1.00  0.00     0.261 C 
BRANCH  28  29
ATOM     29  O   UNL A   1      43.791  18.900  24.433  1.00  0.00    -0.460 OA
BRANCH  29  30
ATOM     30  C   UNL A   1      45.022  19.455  24.388  1.00  0.00     0.338 C 
ATOM     31  O   UNL A   1      46.037  18.955  23.922  1.00  0.00    -0.246 OA
BRANCH  30  32
ATOM     32  C   UNL A   1      44.888  20.872  24.801  1.00  0.00     0.060 A 
ATOM     33  C   UNL A   1      44.490  21.837  23.862  1.00  0.00     0.016 A 
ATOM     34  C   UNL A   1      45.133  21.241  26.125  1.00  0.00     0.016 A 
ATOM     35  C   UNL A   1      44.362  23.177  24.242  1.00  0.00     0.010 A 
ATOM     36  C   UNL A   1      45.027  22.584  26.498  1.00  0.00     0.010 A 
ATOM     37  C   UNL A   1      44.670  23.564  25.553  1.00  0.00    -0.014 A 
BRANCH  37  38
ATOM     38  C   UNL A   1      44.805  24.999  25.911  1.00  0.00     0.031 A 
ATOM     39  C   UNL A   1      46.169  25.630  25.830  1.00  0.00     0.074 A 
ATOM     40  C   UNL A   1      43.760  25.725  26.343  1.00  0.00     0.049 A 
ATOM     41  N   UNL A   1      46.564  26.816  26.212  1.00  0.00    -0.248 NA
ATOM     42  C   UNL A   1      47.232  24.793  25.252  1.00  0.00     0.031 C 
ATOM     43  C   UNL A   1      42.384  25.248  26.447  1.00  0.00     0.029 A 
ATOM     44  N   UNL A   1      43.708  27.018  26.808  1.00  0.00    -0.354 N 
ATOM     45  C   UNL A   1      47.927  26.861  25.944  1.00  0.00     0.074 A 
ATOM     46  C   UNL A   1      48.292  25.573  25.392  1.00  0.00     0.031 C 
ATOM     47  C   UNL A   1      41.626  26.225  26.977  1.00  0.00     0.029 A 
ATOM     48  C   UNL A   1      42.472  27.379  27.283  1.00  0.00     0.049 A 
ATOM     49  H   UNL A   1      44.483  27.626  26.800  1.00  0.00     0.167 HD
ATOM     50  C   UNL A   1      48.797  27.882  26.138  1.00  0.00     0.037 A 
ATOM     51  C   UNL A   1      42.076  28.495  27.927  1.00  0.00     0.037 A 
ATOM     52  C   UNL A   1      48.433  29.159  26.691  1.00  0.00     0.049 A 
ATOM     53  C   UNL A   1      43.067  29.600  28.189  1.00  0.00     0.074 A 
ATOM     54  C   UNL A   1      49.231  30.272  26.886  1.00  0.00     0.029 A 
ATOM     55  N   UNL A   1      47.170  29.487  27.161  1.00  0.00    -0.354 N 
ATOM     56  N   UNL A   1      44.343  29.654  27.894  1.00  0.00    -0.248 NA
ATOM     57  C   UNL A   1      42.561  30.801  28.872  1.00  0.00     0.031 C 
ATOM     58  C   UNL A   1      48.469  31.249  27.535  1.00  0.00     0.029 A 
ATOM     59  C   UNL A   1      47.176  30.771  27.680  1.00  0.00     0.049 A 
ATOM     60  H   UNL A   1      46.384  28.895  27.128  1.00  0.00     0.167 HD
ATOM     61  C   UNL A   1      44.787  30.899  28.329  1.00  0.00     0.074 A 
ATOM     62  C   UNL A   1      43.640  31.572  28.903  1.00  0.00     0.031 C 
ATOM     63  C   UNL A   1      46.030  31.435  28.253  1.00  0.00     0.037 A 
BRANCH  50  64
ATOM     64  C   UNL A   1      50.239  27.629  25.795  1.00  0.00     0.057 A 
ATOM     65  C   UNL A   1      50.742  27.798  24.497  1.00  0.00     0.134 A 
ATOM     66  C   UNL A   1      51.135  27.198  26.781  1.00  0.00     0.134 A 
ATOM     67  F   UNL A   1      49.936  28.195  23.502  1.00  0.00    -0.206 F 
ATOM     68  C   UNL A   1      52.071  27.505  24.185  1.00  0.00     0.040 A 
ATOM     69  C   UNL A   1      52.475  26.937  26.489  1.00  0.00     0.040 A 
ATOM     70  F   UNL A   1      50.726  27.022  28.046  1.00  0.00    -0.206 F 
ATOM     71  C   UNL A   1      52.943  27.077  25.184  1.00  0.00     0.006 A 
ENDBRANCH  50  64
BRANCH  51  72
ATOM     72  C   UNL A   1      40.670  28.607  28.395  1.00  0.00     0.057 A 
ATOM     73  C   UNL A   1      40.316  28.316  29.716  1.00  0.00     0.134 A 
ATOM     74  C   UNL A   1      39.651  29.029  27.531  1.00  0.00     0.134 A 
ATOM     75  F   UNL A   1      41.241  27.883  30.583  1.00  0.00    -0.206 F 
ATOM     76  C   UNL A   1      38.998  28.438  30.163  1.00  0.00     0.040 A 
ATOM     77  C   UNL A   1      38.335  29.181  27.970  1.00  0.00     0.040 A 
ATOM     78  F   UNL A   1      39.925  29.321  26.252  1.00  0.00    -0.206 F 
ATOM     79  C   UNL A   1      38.005  28.882  29.290  1.00  0.00     0.006 A 
ENDBRANCH  51  72
BRANCH  63  80
ATOM     80  C   UNL A   1      46.221  32.835  28.769  1.00  0.00     0.057 A 
ATOM     81  C   UNL A   1      46.633  33.098  30.082  1.00  0.00     0.134 A 
ATOM     82  C   UNL A   1      46.049  33.936  27.917  1.00  0.00     0.134 A 
ATOM     83  F   UNL A   1      46.808  32.093  30.953  1.00  0.00    -0.206 F 
ATOM     84  C   UNL A   1      46.849  34.402  30.533  1.00  0.00     0.040 A 
ATOM     85  C   UNL A   1      46.290  35.242  28.348  1.00  0.00     0.040 A 
ATOM     86  F   UNL A   1      45.666  33.758  26.643  1.00  0.00    -0.206 F 
ATOM     87  C   UNL A   1      46.687  35.477  29.662  1.00  0.00     0.006 A 
ENDBRANCH  63  80
ENDBRANCH  37  38
ENDBRANCH  30  32
ENDBRANCH  29  30
ENDBRANCH  28  29
ENDBRANCH  27  28
ENDBRANCH  26  27
ENDBRANCH  25  26
ENDBRANCH   1  25
TORSDOF 21
ENDMDL
