MODEL 1
REMARK VINA RESULT:      -9.8      0.000      0.000
REMARK SMILES CCNC(=O)NC(=O)[C@@H](C)[N@H+](C)CC(=O)OCCOCCOCCOC(=O)c1ccc(-c2c3nc(c(-c4c(F)cccc4F)c4ccc([nH]4)c(-c4c(F)cccc4F)c4nc(c(-c5c(F)cccc5F)c5ccc2[nH]5)C=C4)C=C3)cc1
REMARK SMILES IDX 20 1 19 2 18 3 17 4 16 5 14 6 15 7 13 8 11 9 12 10 9 12
REMARK SMILES IDX 10 13 7 14 3 15 4 16 5 18 6 19 8 21 2 22 1 23 21 24 22 25
REMARK SMILES IDX 23 26 24 27 25 28 26 29 27 30 28 31 29 32 81 33 30 34 80 35
REMARK SMILES IDX 31 36 32 37 33 38 74 39 34 40 79 41 73 42 75 43 35 44 78 45
REMARK SMILES IDX 72 46 71 47 36 49 62 50 45 51 61 52 46 53 49 54 60 55 76 56
REMARK SMILES IDX 47 57 48 58 59 60 77 61 50 62 37 63 38 64 43 65 39 66 40 67
REMARK SMILES IDX 42 68 44 69 41 70 63 71 64 72 69 73 65 74 66 75 68 76 70 77
REMARK SMILES IDX 67 78 51 79 52 80 57 81 53 82 54 83 56 84 58 85 55 86
REMARK H PARENT 11 11 3 17 6 20 75 48 49 59
REMARK Flexibility Score: inf
ROOT
ATOM      1  C   UNL A   1      38.847  20.378  25.615  1.00  0.00     0.188 C 
ENDROOT
BRANCH   1   2
ATOM      2  O   UNL A   1      37.693  20.712  24.844  1.00  0.00    -0.376 OA
BRANCH   2   3
ATOM      3  C   UNL A   1      36.935  21.904  25.125  1.00  0.00     0.202 C 
BRANCH   3   4
ATOM      4  C   UNL A   1      36.179  22.632  23.954  1.00  0.00     0.261 C 
BRANCH   4   5
ATOM      5  O   UNL A   1      35.184  23.636  24.368  1.00  0.00    -0.459 OA
BRANCH   5   6
ATOM      6  C   UNL A   1      34.403  24.226  23.403  1.00  0.00     0.361 C 
ATOM      7  O   UNL A   1      34.001  23.584  22.430  1.00  0.00    -0.245 OA
BRANCH   6   8
ATOM      8  C   UNL A   1      33.905  25.724  23.625  1.00  0.00     0.386 C 
BRANCH   8   9
ATOM      9  N   UNL A   1      32.437  25.993  23.788  1.00  0.00    -0.318 N 
ATOM     10  C   UNL A   1      31.869  26.301  22.457  1.00  0.00     0.333 C 
ATOM     11  H   UNL A   1      32.417  26.772  24.447  1.00  0.00     0.349 HD
BRANCH   9  12
ATOM     12  C   UNL A   1      31.565  24.981  24.493  1.00  0.00     0.271 C 
ATOM     13  C   UNL A   1      30.355  24.467  23.624  1.00  0.00     0.086 C 
BRANCH  12  14
ATOM     14  C   UNL A   1      30.962  25.263  25.902  1.00  0.00     0.285 C 
ATOM     15  N   UNL A   1      31.154  22.194  26.286  1.00  0.00    -0.338 N 
ATOM     16  C   UNL A   1      30.286  23.024  26.882  1.00  0.00     0.321 C 
ATOM     17  H   UNL A   1      30.781  21.356  25.926  1.00  0.00     0.165 HD
ATOM     18  O   UNL A   1      29.271  22.579  27.415  1.00  0.00    -0.248 OA
ATOM     19  N   UNL A   1      30.506  24.363  26.833  1.00  0.00    -0.273 N 
ATOM     20  H   UNL A   1      30.280  24.803  27.684  1.00  0.00     0.175 HD
ATOM     21  O   UNL A   1      30.915  26.447  26.284  1.00  0.00    -0.268 OA
BRANCH  15  22
ATOM     22  C   UNL A   1      32.569  22.390  26.112  1.00  0.00     0.114 C 
ATOM     23  C   UNL A   1      33.479  22.353  27.339  1.00  0.00     0.027 C 
ENDBRANCH  15  22
ENDBRANCH  12  14
ENDBRANCH   9  12
ENDBRANCH   8   9
ENDBRANCH   6   8
ENDBRANCH   5   6
ENDBRANCH   4   5
ENDBRANCH   3   4
ENDBRANCH   2   3
ENDBRANCH   1   2
BRANCH   1  24
ATOM     24  C   UNL A   1      39.576  21.522  26.365  1.00  0.00     0.188 C 
BRANCH  24  25
ATOM     25  O   UNL A   1      40.895  21.656  25.887  1.00  0.00    -0.376 OA
BRANCH  25  26
ATOM     26  C   UNL A   1      41.875  20.660  26.111  1.00  0.00     0.202 C 
BRANCH  26  27
ATOM     27  C   UNL A   1      43.343  21.018  25.881  1.00  0.00     0.261 C 
BRANCH  27  28
ATOM     28  O   UNL A   1      43.743  22.255  26.469  1.00  0.00    -0.460 OA
BRANCH  28  29
ATOM     29  C   UNL A   1      43.657  23.370  25.709  1.00  0.00     0.338 C 
ATOM     30  O   UNL A   1      43.836  23.460  24.503  1.00  0.00    -0.246 OA
BRANCH  29  31
ATOM     31  C   UNL A   1      43.136  24.450  26.582  1.00  0.00     0.060 A 
ATOM     32  C   UNL A   1      43.601  25.760  26.407  1.00  0.00     0.016 A 
ATOM     33  C   UNL A   1      42.140  24.187  27.531  1.00  0.00     0.016 A 
ATOM     34  C   UNL A   1      43.062  26.807  27.159  1.00  0.00     0.010 A 
ATOM     35  C   UNL A   1      41.605  25.227  28.284  1.00  0.00     0.010 A 
ATOM     36  C   UNL A   1      42.080  26.540  28.118  1.00  0.00    -0.014 A 
BRANCH  36  37
ATOM     37  C   UNL A   1      41.699  27.548  29.134  1.00  0.00     0.031 A 
ATOM     38  C   UNL A   1      42.450  27.532  30.434  1.00  0.00     0.074 A 
ATOM     39  C   UNL A   1      40.689  28.412  28.944  1.00  0.00     0.049 A 
ATOM     40  N   UNL A   1      42.187  28.141  31.559  1.00  0.00    -0.248 NA
ATOM     41  C   UNL A   1      43.659  26.691  30.468  1.00  0.00     0.031 C 
ATOM     42  C   UNL A   1      39.926  28.578  27.710  1.00  0.00     0.029 A 
ATOM     43  N   UNL A   1      40.117  29.304  29.819  1.00  0.00    -0.354 N 
ATOM     44  C   UNL A   1      43.180  27.736  32.441  1.00  0.00     0.074 A 
ATOM     45  C   UNL A   1      44.033  26.810  31.730  1.00  0.00     0.031 C 
ATOM     46  C   UNL A   1      38.971  29.504  27.913  1.00  0.00     0.029 A 
ATOM     47  C   UNL A   1      39.023  29.953  29.304  1.00  0.00     0.049 A 
ATOM     48  H   UNL A   1      40.460  29.461  30.729  1.00  0.00     0.167 HD
ATOM     49  C   UNL A   1      43.368  28.107  33.730  1.00  0.00     0.037 A 
ATOM     50  C   UNL A   1      38.146  30.784  29.904  1.00  0.00     0.037 A 
ATOM     51  C   UNL A   1      42.517  29.028  34.431  1.00  0.00     0.049 A 
ATOM     52  C   UNL A   1      38.315  31.110  31.369  1.00  0.00     0.074 A 
ATOM     53  C   UNL A   1      42.615  29.467  35.739  1.00  0.00     0.029 A 
ATOM     54  N   UNL A   1      41.406  29.650  33.880  1.00  0.00    -0.354 N 
ATOM     55  N   UNL A   1      39.245  30.716  32.206  1.00  0.00    -0.248 NA
ATOM     56  C   UNL A   1      37.305  31.992  31.973  1.00  0.00     0.031 C 
ATOM     57  C   UNL A   1      41.530  30.312  35.996  1.00  0.00     0.029 A 
ATOM     58  C   UNL A   1      40.797  30.453  34.828  1.00  0.00     0.049 A 
ATOM     59  H   UNL A   1      41.097  29.537  32.951  1.00  0.00     0.167 HD
ATOM     60  C   UNL A   1      38.958  31.335  33.419  1.00  0.00     0.074 A 
ATOM     61  C   UNL A   1      37.766  32.130  33.210  1.00  0.00     0.031 C 
ATOM     62  C   UNL A   1      39.624  31.259  34.597  1.00  0.00     0.037 A 
BRANCH  49  63
ATOM     63  C   UNL A   1      44.511  27.473  34.464  1.00  0.00     0.057 A 
ATOM     64  C   UNL A   1      44.373  26.261  35.156  1.00  0.00     0.134 A 
ATOM     65  C   UNL A   1      45.768  28.089  34.487  1.00  0.00     0.134 A 
ATOM     66  F   UNL A   1      43.190  25.630  35.192  1.00  0.00    -0.206 F 
ATOM     67  C   UNL A   1      45.434  25.705  35.872  1.00  0.00     0.040 A 
ATOM     68  C   UNL A   1      46.846  27.526  35.171  1.00  0.00     0.040 A 
ATOM     69  F   UNL A   1      45.971  29.250  33.845  1.00  0.00    -0.206 F 
ATOM     70  C   UNL A   1      46.677  26.336  35.876  1.00  0.00     0.006 A 
ENDBRANCH  49  63
BRANCH  50  71
ATOM     71  C   UNL A   1      37.009  31.355  29.137  1.00  0.00     0.057 A 
ATOM     72  C   UNL A   1      37.031  32.681  28.689  1.00  0.00     0.134 A 
ATOM     73  C   UNL A   1      35.859  30.604  28.863  1.00  0.00     0.134 A 
ATOM     74  F   UNL A   1      38.091  33.461  28.946  1.00  0.00    -0.206 F 
ATOM     75  C   UNL A   1      35.947  33.247  28.017  1.00  0.00     0.040 A 
ATOM     76  C   UNL A   1      34.778  31.148  28.167  1.00  0.00     0.040 A 
ATOM     77  F   UNL A   1      35.769  29.329  29.269  1.00  0.00    -0.206 F 
ATOM     78  C   UNL A   1      34.817  32.477  27.748  1.00  0.00     0.006 A 
ENDBRANCH  50  71
BRANCH  62  79
ATOM     79  C   UNL A   1      39.134  32.104  35.738  1.00  0.00     0.057 A 
ATOM     80  C   UNL A   1      39.517  33.440  35.899  1.00  0.00     0.134 A 
ATOM     81  C   UNL A   1      38.199  31.587  36.647  1.00  0.00     0.134 A 
ATOM     82  F   UNL A   1      40.415  33.995  35.070  1.00  0.00    -0.206 F 
ATOM     83  C   UNL A   1      39.002  34.228  36.932  1.00  0.00     0.040 A 
ATOM     84  C   UNL A   1      37.655  32.372  37.664  1.00  0.00     0.040 A 
ATOM     85  F   UNL A   1      37.778  30.318  36.543  1.00  0.00    -0.206 F 
ATOM     86  C   UNL A   1      38.060  33.697  37.811  1.00  0.00     0.006 A 
ENDBRANCH  62  79
ENDBRANCH  36  37
ENDBRANCH  29  31
ENDBRANCH  28  29
ENDBRANCH  27  28
ENDBRANCH  26  27
ENDBRANCH  25  26
ENDBRANCH  24  25
ENDBRANCH   1  24
TORSDOF 21
ENDMDL
MODEL 2
REMARK VINA RESULT:      -9.6      2.499      8.131
REMARK SMILES CCNC(=O)NC(=O)[C@@H](C)[N@H+](C)CC(=O)OCCOCCOCCOC(=O)c1ccc(-c2c3nc(c(-c4c(F)cccc4F)c4ccc([nH]4)c(-c4c(F)cccc4F)c4nc(c(-c5c(F)cccc5F)c5ccc2[nH]5)C=C4)C=C3)cc1
REMARK SMILES IDX 20 1 19 2 18 3 17 4 16 5 14 6 15 7 13 8 11 9 12 10 9 12
REMARK SMILES IDX 10 13 7 14 3 15 4 16 5 18 6 19 8 21 2 22 1 23 21 24 22 25
REMARK SMILES IDX 23 26 24 27 25 28 26 29 27 30 28 31 29 32 81 33 30 34 80 35
REMARK SMILES IDX 31 36 32 37 33 38 74 39 34 40 79 41 73 42 75 43 35 44 78 45
REMARK SMILES IDX 72 46 71 47 36 49 62 50 45 51 61 52 46 53 49 54 60 55 76 56
REMARK SMILES IDX 47 57 48 58 59 60 77 61 50 62 37 63 38 64 43 65 39 66 40 67
REMARK SMILES IDX 42 68 44 69 41 70 63 71 64 72 69 73 65 74 66 75 68 76 70 77
REMARK SMILES IDX 67 78 51 79 52 80 57 81 53 82 54 83 56 84 58 85 55 86
REMARK H PARENT 11 11 3 17 6 20 75 48 49 59
REMARK Flexibility Score: inf
ROOT
ATOM      1  C   UNL A   1      31.857  27.478  25.588  1.00  0.00     0.188 C 
ENDROOT
BRANCH   1   2
ATOM      2  O   UNL A   1      31.803  26.077  25.322  1.00  0.00    -0.376 OA
BRANCH   2   3
ATOM      3  C   UNL A   1      31.691  25.124  26.396  1.00  0.00     0.202 C 
BRANCH   3   4
ATOM      4  C   UNL A   1      31.233  23.653  26.078  1.00  0.00     0.261 C 
BRANCH   4   5
ATOM      5  O   UNL A   1      31.697  22.625  27.026  1.00  0.00    -0.459 OA
BRANCH   5   6
ATOM      6  C   UNL A   1      33.032  22.298  27.042  1.00  0.00     0.361 C 
ATOM      7  O   UNL A   1      33.748  22.599  27.999  1.00  0.00    -0.245 OA
BRANCH   6   8
ATOM      8  C   UNL A   1      33.619  21.400  25.863  1.00  0.00     0.386 C 
BRANCH   8   9
ATOM      9  N   UNL A   1      34.979  21.711  25.309  1.00  0.00    -0.318 N 
ATOM     10  C   UNL A   1      35.658  20.434  24.996  1.00  0.00     0.333 C 
ATOM     11  H   UNL A   1      35.416  22.249  26.058  1.00  0.00     0.349 HD
BRANCH   9  12
ATOM     12  C   UNL A   1      35.110  22.659  24.140  1.00  0.00     0.271 C 
ATOM     13  C   UNL A   1      36.563  22.724  23.533  1.00  0.00     0.086 C 
BRANCH  12  14
ATOM     14  C   UNL A   1      34.644  24.142  24.236  1.00  0.00     0.285 C 
ATOM     15  N   UNL A   1      32.829  23.429  21.827  1.00  0.00    -0.338 N 
ATOM     16  C   UNL A   1      33.317  24.640  22.132  1.00  0.00     0.321 C 
ATOM     17  H   UNL A   1      32.889  23.160  20.881  1.00  0.00     0.165 HD
ATOM     18  O   UNL A   1      33.331  25.533  21.287  1.00  0.00    -0.248 OA
ATOM     19  N   UNL A   1      33.856  24.849  23.361  1.00  0.00    -0.273 N 
ATOM     20  H   UNL A   1      33.622  25.736  23.717  1.00  0.00     0.175 HD
ATOM     21  O   UNL A   1      34.972  24.788  25.248  1.00  0.00    -0.268 OA
BRANCH  15  22
ATOM     22  C   UNL A   1      32.228  22.479  22.726  1.00  0.00     0.114 C 
ATOM     23  C   UNL A   1      31.971  21.055  22.234  1.00  0.00     0.027 C 
ENDBRANCH  15  22
ENDBRANCH  12  14
ENDBRANCH   9  12
ENDBRANCH   8   9
ENDBRANCH   6   8
ENDBRANCH   5   6
ENDBRANCH   4   5
ENDBRANCH   3   4
ENDBRANCH   2   3
ENDBRANCH   1   2
BRANCH   1  24
ATOM     24  C   UNL A   1      31.730  27.944  27.061  1.00  0.00     0.188 C 
BRANCH  24  25
ATOM     25  O   UNL A   1      32.039  29.315  27.168  1.00  0.00    -0.376 OA
BRANCH  25  26
ATOM     26  C   UNL A   1      31.551  30.265  26.239  1.00  0.00     0.202 C 
BRANCH  26  27
ATOM     27  C   UNL A   1      31.596  31.744  26.619  1.00  0.00     0.261 C 
BRANCH  27  28
ATOM     28  O   UNL A   1      32.903  32.315  26.598  1.00  0.00    -0.460 OA
BRANCH  28  29
ATOM     29  C   UNL A   1      33.233  33.169  27.592  1.00  0.00     0.338 C 
ATOM     30  O   UNL A   1      32.574  34.112  28.007  1.00  0.00    -0.246 OA
BRANCH  29  31
ATOM     31  C   UNL A   1      34.477  32.653  28.212  1.00  0.00     0.060 A 
ATOM     32  C   UNL A   1      34.500  31.348  28.723  1.00  0.00     0.016 A 
ATOM     33  C   UNL A   1      35.643  33.428  28.233  1.00  0.00     0.016 A 
ATOM     34  C   UNL A   1      35.684  30.811  29.234  1.00  0.00     0.010 A 
ATOM     35  C   UNL A   1      36.823  32.897  28.746  1.00  0.00     0.010 A 
ATOM     36  C   UNL A   1      36.844  31.593  29.270  1.00  0.00    -0.014 A 
BRANCH  36  37
ATOM     37  C   UNL A   1      38.026  31.185  30.063  1.00  0.00     0.031 A 
ATOM     38  C   UNL A   1      38.982  30.218  29.425  1.00  0.00     0.074 A 
ATOM     39  C   UNL A   1      38.225  31.604  31.323  1.00  0.00     0.049 A 
ATOM     40  N   UNL A   1      39.960  29.535  29.957  1.00  0.00    -0.248 NA
ATOM     41  C   UNL A   1      38.787  29.977  27.986  1.00  0.00     0.031 C 
ATOM     42  C   UNL A   1      37.416  32.591  32.034  1.00  0.00     0.029 A 
ATOM     43  N   UNL A   1      39.175  31.221  32.239  1.00  0.00    -0.354 N 
ATOM     44  C   UNL A   1      40.479  28.765  28.925  1.00  0.00     0.074 A 
ATOM     45  C   UNL A   1      39.691  29.043  27.745  1.00  0.00     0.031 C 
ATOM     46  C   UNL A   1      37.893  32.721  33.285  1.00  0.00     0.029 A 
ATOM     47  C   UNL A   1      39.005  31.790  33.477  1.00  0.00     0.049 A 
ATOM     48  H   UNL A   1      39.907  30.598  32.027  1.00  0.00     0.167 HD
ATOM     49  C   UNL A   1      41.523  27.904  28.957  1.00  0.00     0.037 A 
ATOM     50  C   UNL A   1      39.651  31.552  34.637  1.00  0.00     0.037 A 
ATOM     51  C   UNL A   1      42.302  27.631  30.133  1.00  0.00     0.049 A 
ATOM     52  C   UNL A   1      40.749  30.516  34.675  1.00  0.00     0.074 A 
ATOM     53  C   UNL A   1      43.377  26.773  30.275  1.00  0.00     0.029 A 
ATOM     54  N   UNL A   1      42.086  28.213  31.374  1.00  0.00    -0.354 N 
ATOM     55  N   UNL A   1      41.230  29.777  33.703  1.00  0.00    -0.248 NA
ATOM     56  C   UNL A   1      41.390  30.277  35.977  1.00  0.00     0.031 C 
ATOM     57  C   UNL A   1      43.776  26.793  31.615  1.00  0.00     0.029 A 
ATOM     58  C   UNL A   1      42.993  27.716  32.292  1.00  0.00     0.049 A 
ATOM     59  H   UNL A   1      41.389  28.881  31.571  1.00  0.00     0.167 HD
ATOM     60  C   UNL A   1      42.255  29.022  34.265  1.00  0.00     0.074 A 
ATOM     61  C   UNL A   1      42.325  29.390  35.664  1.00  0.00     0.031 C 
ATOM     62  C   UNL A   1      43.068  28.111  33.676  1.00  0.00     0.037 A 
BRANCH  49  63
ATOM     63  C   UNL A   1      41.840  27.167  27.690  1.00  0.00     0.057 A 
ATOM     64  C   UNL A   1      42.736  27.672  26.738  1.00  0.00     0.134 A 
ATOM     65  C   UNL A   1      41.232  25.937  27.413  1.00  0.00     0.134 A 
ATOM     66  F   UNL A   1      43.337  28.857  26.931  1.00  0.00    -0.206 F 
ATOM     67  C   UNL A   1      42.989  26.998  25.542  1.00  0.00     0.040 A 
ATOM     68  C   UNL A   1      41.501  25.236  26.238  1.00  0.00     0.040 A 
ATOM     69  F   UNL A   1      40.364  25.394  28.281  1.00  0.00    -0.206 F 
ATOM     70  C   UNL A   1      42.374  25.772  25.293  1.00  0.00     0.006 A 
ENDBRANCH  49  63
BRANCH  50  71
ATOM     71  C   UNL A   1      39.269  32.285  35.872  1.00  0.00     0.057 A 
ATOM     72  C   UNL A   1      38.324  31.760  36.761  1.00  0.00     0.134 A 
ATOM     73  C   UNL A   1      39.810  33.540  36.176  1.00  0.00     0.134 A 
ATOM     74  F   UNL A   1      37.747  30.576  36.510  1.00  0.00    -0.206 F 
ATOM     75  C   UNL A   1      37.914  32.463  37.895  1.00  0.00     0.040 A 
ATOM     76  C   UNL A   1      39.431  34.242  37.322  1.00  0.00     0.040 A 
ATOM     77  F   UNL A   1      40.716  34.104  35.363  1.00  0.00    -0.206 F 
ATOM     78  C   UNL A   1      38.474  33.706  38.182  1.00  0.00     0.006 A 
ENDBRANCH  50  71
BRANCH  62  79
ATOM     79  C   UNL A   1      44.154  27.494  34.511  1.00  0.00     0.057 A 
ATOM     80  C   UNL A   1      43.990  26.270  35.168  1.00  0.00     0.134 A 
ATOM     81  C   UNL A   1      45.413  28.106  34.593  1.00  0.00     0.134 A 
ATOM     82  F   UNL A   1      42.807  25.635  35.138  1.00  0.00    -0.206 F 
ATOM     83  C   UNL A   1      45.032  25.682  35.889  1.00  0.00     0.040 A 
ATOM     84  C   UNL A   1      46.471  27.516  35.285  1.00  0.00     0.040 A 
ATOM     85  F   UNL A   1      45.644  29.275  33.976  1.00  0.00    -0.206 F 
ATOM     86  C   UNL A   1      46.280  26.301  35.940  1.00  0.00     0.006 A 
ENDBRANCH  62  79
ENDBRANCH  36  37
ENDBRANCH  29  31
ENDBRANCH  28  29
ENDBRANCH  27  28
ENDBRANCH  26  27
ENDBRANCH  25  26
ENDBRANCH  24  25
ENDBRANCH   1  24
TORSDOF 21
ENDMDL
MODEL 3
REMARK VINA RESULT:      -9.5      1.006      2.433
REMARK SMILES CCNC(=O)NC(=O)[C@@H](C)[N@H+](C)CC(=O)OCCOCCOCCOC(=O)c1ccc(-c2c3nc(c(-c4c(F)cccc4F)c4ccc([nH]4)c(-c4c(F)cccc4F)c4nc(c(-c5c(F)cccc5F)c5ccc2[nH]5)C=C4)C=C3)cc1
REMARK SMILES IDX 20 1 19 2 18 3 17 4 16 5 14 6 15 7 13 8 11 9 12 10 9 12
REMARK SMILES IDX 10 13 7 14 3 15 4 16 5 18 6 19 8 21 2 22 1 23 21 24 22 25
REMARK SMILES IDX 23 26 24 27 25 28 26 29 27 30 28 31 29 32 81 33 30 34 80 35
REMARK SMILES IDX 31 36 32 37 33 38 74 39 34 40 79 41 73 42 75 43 35 44 78 45
REMARK SMILES IDX 72 46 71 47 36 49 62 50 45 51 61 52 46 53 49 54 60 55 76 56
REMARK SMILES IDX 47 57 48 58 59 60 77 61 50 62 37 63 38 64 43 65 39 66 40 67
REMARK SMILES IDX 42 68 44 69 41 70 63 71 64 72 69 73 65 74 66 75 68 76 70 77
REMARK SMILES IDX 67 78 51 79 52 80 57 81 53 82 54 83 56 84 58 85 55 86
REMARK H PARENT 11 11 3 17 6 20 75 48 49 59
REMARK Flexibility Score: inf
ROOT
ATOM      1  C   UNL A   1      39.911  21.435  26.217  1.00  0.00     0.188 C 
ENDROOT
BRANCH   1   2
ATOM      2  O   UNL A   1      38.541  21.819  26.100  1.00  0.00    -0.376 OA
BRANCH   2   3
ATOM      3  C   UNL A   1      37.723  21.323  25.024  1.00  0.00     0.202 C 
BRANCH   3   4
ATOM      4  C   UNL A   1      36.160  21.467  25.114  1.00  0.00     0.261 C 
BRANCH   4   5
ATOM      5  O   UNL A   1      35.500  21.983  23.903  1.00  0.00    -0.459 OA
BRANCH   5   6
ATOM      6  C   UNL A   1      34.424  22.827  24.047  1.00  0.00     0.361 C 
ATOM      7  O   UNL A   1      34.539  24.040  23.859  1.00  0.00    -0.245 OA
BRANCH   6   8
ATOM      8  C   UNL A   1      32.986  22.201  24.329  1.00  0.00     0.386 C 
BRANCH   8   9
ATOM      9  N   UNL A   1      32.143  22.765  25.435  1.00  0.00    -0.318 N 
ATOM     10  C   UNL A   1      32.956  22.796  26.672  1.00  0.00     0.333 C 
ATOM     11  H   UNL A   1      31.347  22.127  25.469  1.00  0.00     0.349 HD
BRANCH   9  12
ATOM     12  C   UNL A   1      31.453  24.096  25.245  1.00  0.00     0.271 C 
ATOM     13  C   UNL A   1      30.398  24.433  26.366  1.00  0.00     0.086 C 
BRANCH  12  14
ATOM     14  C   UNL A   1      30.754  24.468  23.904  1.00  0.00     0.285 C 
ATOM     15  N   UNL A   1      31.542  27.376  24.629  1.00  0.00    -0.338 N 
ATOM     16  C   UNL A   1      30.504  26.992  23.872  1.00  0.00     0.321 C 
ATOM     17  H   UNL A   1      31.358  28.070  25.304  1.00  0.00     0.165 HD
ATOM     18  O   UNL A   1      29.579  27.771  23.649  1.00  0.00    -0.248 OA
ATOM     19  N   UNL A   1      30.452  25.714  23.413  1.00  0.00    -0.273 N 
ATOM     20  H   UNL A   1      30.111  25.671  22.492  1.00  0.00     0.175 HD
ATOM     21  O   UNL A   1      30.456  23.540  23.129  1.00  0.00    -0.268 OA
BRANCH  15  22
ATOM     22  C   UNL A   1      32.895  26.888  24.566  1.00  0.00     0.114 C 
ATOM     23  C   UNL A   1      33.743  26.891  25.837  1.00  0.00     0.027 C 
ENDBRANCH  15  22
ENDBRANCH  12  14
ENDBRANCH   9  12
ENDBRANCH   8   9
ENDBRANCH   6   8
ENDBRANCH   5   6
ENDBRANCH   4   5
ENDBRANCH   3   4
ENDBRANCH   2   3
ENDBRANCH   1   2
BRANCH   1  24
ATOM     24  C   UNL A   1      40.250  19.923  26.159  1.00  0.00     0.188 C 
BRANCH  24  25
ATOM     25  O   UNL A   1      41.443  19.718  25.436  1.00  0.00    -0.376 OA
BRANCH  25  26
ATOM     26  C   UNL A   1      42.709  19.728  26.067  1.00  0.00     0.202 C 
BRANCH  26  27
ATOM     27  C   UNL A   1      43.651  20.899  25.790  1.00  0.00     0.261 C 
BRANCH  27  28
ATOM     28  O   UNL A   1      43.267  22.121  26.419  1.00  0.00    -0.460 OA
BRANCH  28  29
ATOM     29  C   UNL A   1      43.275  23.244  25.668  1.00  0.00     0.338 C 
ATOM     30  O   UNL A   1      43.487  23.331  24.467  1.00  0.00    -0.246 OA
BRANCH  29  31
ATOM     31  C   UNL A   1      42.809  24.351  26.539  1.00  0.00     0.060 A 
ATOM     32  C   UNL A   1      43.364  25.629  26.383  1.00  0.00     0.016 A 
ATOM     33  C   UNL A   1      41.779  24.149  27.466  1.00  0.00     0.016 A 
ATOM     34  C   UNL A   1      42.881  26.704  27.132  1.00  0.00     0.010 A 
ATOM     35  C   UNL A   1      41.300  25.218  28.218  1.00  0.00     0.010 A 
ATOM     36  C   UNL A   1      41.864  26.497  28.071  1.00  0.00    -0.014 A 
BRANCH  36  37
ATOM     37  C   UNL A   1      41.532  27.522  29.087  1.00  0.00     0.031 A 
ATOM     38  C   UNL A   1      42.321  27.506  30.364  1.00  0.00     0.074 A 
ATOM     39  C   UNL A   1      40.531  28.402  28.918  1.00  0.00     0.049 A 
ATOM     40  N   UNL A   1      42.102  28.130  31.490  1.00  0.00    -0.248 NA
ATOM     41  C   UNL A   1      43.515  26.644  30.371  1.00  0.00     0.031 C 
ATOM     42  C   UNL A   1      39.735  28.569  27.705  1.00  0.00     0.029 A 
ATOM     43  N   UNL A   1      40.002  29.312  29.800  1.00  0.00    -0.354 N 
ATOM     44  C   UNL A   1      43.114  27.717  32.346  1.00  0.00     0.074 A 
ATOM     45  C   UNL A   1      43.929  26.769  31.620  1.00  0.00     0.031 C 
ATOM     46  C   UNL A   1      38.803  29.513  27.927  1.00  0.00     0.029 A 
ATOM     47  C   UNL A   1      38.904  29.976  29.311  1.00  0.00     0.049 A 
ATOM     48  H   UNL A   1      40.374  29.472  30.697  1.00  0.00     0.167 HD
ATOM     49  C   UNL A   1      43.346  28.097  33.625  1.00  0.00     0.037 A 
ATOM     50  C   UNL A   1      38.060  30.828  29.927  1.00  0.00     0.037 A 
ATOM     51  C   UNL A   1      42.533  29.040  34.341  1.00  0.00     0.049 A 
ATOM     52  C   UNL A   1      38.278  31.165  31.384  1.00  0.00     0.074 A 
ATOM     53  C   UNL A   1      42.677  29.490  35.641  1.00  0.00     0.029 A 
ATOM     54  N   UNL A   1      41.417  29.676  33.817  1.00  0.00    -0.354 N 
ATOM     55  N   UNL A   1      39.226  30.763  32.197  1.00  0.00    -0.248 NA
ATOM     56  C   UNL A   1      37.302  32.071  32.008  1.00  0.00     0.031 C 
ATOM     57  C   UNL A   1      41.616  30.356  35.921  1.00  0.00     0.029 A 
ATOM     58  C   UNL A   1      40.850  30.499  34.774  1.00  0.00     0.049 A 
ATOM     59  H   UNL A   1      41.079  29.560  32.899  1.00  0.00     0.167 HD
ATOM     60  C   UNL A   1      38.986  31.399  33.411  1.00  0.00     0.074 A 
ATOM     61  C   UNL A   1      37.802  32.213  33.229  1.00  0.00     0.031 C 
ATOM     62  C   UNL A   1      39.685  31.323  34.570  1.00  0.00     0.037 A 
BRANCH  49  63
ATOM     63  C   UNL A   1      44.500  27.450  34.331  1.00  0.00     0.057 A 
ATOM     64  C   UNL A   1      45.782  28.016  34.339  1.00  0.00     0.134 A 
ATOM     65  C   UNL A   1      44.327  26.236  35.007  1.00  0.00     0.134 A 
ATOM     66  F   UNL A   1      46.021  29.167  33.692  1.00  0.00    -0.206 F 
ATOM     67  C   UNL A   1      46.857  27.381  34.963  1.00  0.00     0.040 A 
ATOM     68  C   UNL A   1      45.385  25.607  35.664  1.00  0.00     0.040 A 
ATOM     69  F   UNL A   1      43.125  25.639  35.041  1.00  0.00    -0.206 F 
ATOM     70  C   UNL A   1      46.657  26.175  35.634  1.00  0.00     0.006 A 
ENDBRANCH  49  63
BRANCH  50  71
ATOM     71  C   UNL A   1      36.910  31.411  29.188  1.00  0.00     0.057 A 
ATOM     72  C   UNL A   1      35.765  30.652  28.916  1.00  0.00     0.134 A 
ATOM     73  C   UNL A   1      36.939  32.725  28.705  1.00  0.00     0.134 A 
ATOM     74  F   UNL A   1      35.689  29.377  29.325  1.00  0.00    -0.206 F 
ATOM     75  C   UNL A   1      34.702  31.168  28.174  1.00  0.00     0.040 A 
ATOM     76  C   UNL A   1      35.871  33.265  27.986  1.00  0.00     0.040 A 
ATOM     77  F   UNL A   1      38.008  33.505  28.925  1.00  0.00    -0.206 F 
ATOM     78  C   UNL A   1      34.751  32.482  27.712  1.00  0.00     0.006 A 
ENDBRANCH  50  71
BRANCH  62  79
ATOM     79  C   UNL A   1      39.244  32.188  35.716  1.00  0.00     0.057 A 
ATOM     80  C   UNL A   1      38.378  31.725  36.713  1.00  0.00     0.134 A 
ATOM     81  C   UNL A   1      39.759  33.484  35.860  1.00  0.00     0.134 A 
ATOM     82  F   UNL A   1      37.841  30.497  36.632  1.00  0.00    -0.206 F 
ATOM     83  C   UNL A   1      38.027  32.524  37.805  1.00  0.00     0.040 A 
ATOM     84  C   UNL A   1      39.440  34.281  36.960  1.00  0.00     0.040 A 
ATOM     85  F   UNL A   1      40.604  33.986  34.948  1.00  0.00    -0.206 F 
ATOM     86  C   UNL A   1      38.567  33.802  37.935  1.00  0.00     0.006 A 
ENDBRANCH  62  79
ENDBRANCH  36  37
ENDBRANCH  29  31
ENDBRANCH  28  29
ENDBRANCH  27  28
ENDBRANCH  26  27
ENDBRANCH  25  26
ENDBRANCH  24  25
ENDBRANCH   1  24
TORSDOF 21
ENDMDL
