MODEL 1
REMARK VINA RESULT:     -11.2      0.000      0.000
REMARK SMILES Cc1cc2c(c(C)c1Br)C=C(C(=O)OCCOCCOCCOC(=O)c1ccc(-c3c4nc(c(-c5c(F)cccc5F)c5ccc([nH]5)c(-c5c(F)cccc5F)c5nc(c(-c6c(F)cccc6F)c6ccc3[nH]6)C=C5)C=C4)cc1)[C@@H](C(F)(F)F)O2
REMARK SMILES IDX 19 1 18 2 17 3 16 4 15 5 14 6 12 7 13 8 11 9 1 10 2 11 3 12
REMARK SMILES IDX 8 13 4 14 6 15 9 16 5 17 85 18 7 19 10 20 80 21 81 22 82 23
REMARK SMILES IDX 83 24 84 25 20 26 21 27 22 28 23 29 24 30 25 31 26 32 27 33
REMARK SMILES IDX 79 34 28 35 78 36 29 37 30 38 31 39 72 40 32 41 77 42 71 43
REMARK SMILES IDX 73 44 33 45 76 46 70 47 69 48 34 50 60 51 43 52 59 53 44 54
REMARK SMILES IDX 47 55 58 56 74 57 45 58 46 59 57 61 75 62 48 63 35 64 36 65
REMARK SMILES IDX 41 66 37 67 38 68 40 69 42 70 39 71 61 72 62 73 67 74 63 75
REMARK SMILES IDX 64 76 66 77 68 78 65 79 49 80 50 81 55 82 51 83 52 84 54 85
REMARK SMILES IDX 56 86 53 87
REMARK H PARENT 73 49 47 60
REMARK Flexibility Score: inf
ROOT
ATOM      1  C   UNL A   1      40.855  21.326  27.036  1.00  0.00     0.188 C 
ENDROOT
BRANCH   1   2
ATOM      2  C   UNL A   1      39.550  21.993  26.553  1.00  0.00     0.188 C 
BRANCH   2   3
ATOM      3  O   UNL A   1      38.807  21.429  25.492  1.00  0.00    -0.376 OA
BRANCH   3   4
ATOM      4  C   UNL A   1      37.418  21.680  25.359  1.00  0.00     0.202 C 
BRANCH   4   5
ATOM      5  C   UNL A   1      36.836  23.077  25.092  1.00  0.00     0.261 C 
BRANCH   5   6
ATOM      6  O   UNL A   1      35.510  23.106  24.547  1.00  0.00    -0.460 OA
BRANCH   6   7
ATOM      7  C   UNL A   1      34.539  23.477  25.414  1.00  0.00     0.338 C 
ATOM      8  O   UNL A   1      34.388  23.082  26.558  1.00  0.00    -0.246 OA
BRANCH   7   9
ATOM      9  C   UNL A   1      33.748  24.577  24.827  1.00  0.00     0.087 C 
ATOM     10  C   UNL A   1      29.919  29.670  23.771  1.00  0.00     0.046 C 
ATOM     11  C   UNL A   1      31.032  28.749  24.197  1.00  0.00    -0.033 A 
ATOM     12  C   UNL A   1      31.196  27.550  23.492  1.00  0.00     0.051 A 
ATOM     13  C   UNL A   1      31.921  29.045  25.251  1.00  0.00     0.024 A 
ATOM     14  C   UNL A   1      32.140  26.608  23.889  1.00  0.00     0.128 A 
ATOM     15  C   UNL A   1      32.901  28.106  25.660  1.00  0.00    -0.026 A 
ATOM     16  Br  UNL A   1      31.759  30.739  26.128  1.00  0.00    -0.050 Br
ATOM     17  C   UNL A   1      32.957  26.851  24.997  1.00  0.00     0.021 A 
ATOM     18  O   UNL A   1      32.179  25.475  23.127  1.00  0.00    -0.475 OA
ATOM     19  C   UNL A   1      33.879  28.393  26.778  1.00  0.00     0.046 C 
ATOM     20  C   UNL A   1      33.793  25.750  25.472  1.00  0.00     0.027 C 
ATOM     21  C   UNL A   1      32.957  24.337  23.575  1.00  0.00     0.316 C 
BRANCH  21  22
ATOM     22  C   UNL A   1      32.017  23.130  23.695  1.00  0.00     0.430 C 
ATOM     23  F   UNL A   1      30.853  23.347  23.037  1.00  0.00    -0.167 F 
ATOM     24  F   UNL A   1      32.563  22.014  23.158  1.00  0.00    -0.167 F 
ATOM     25  F   UNL A   1      31.712  22.853  24.983  1.00  0.00    -0.167 F 
ENDBRANCH  21  22
ENDBRANCH   7   9
ENDBRANCH   6   7
ENDBRANCH   5   6
ENDBRANCH   4   5
ENDBRANCH   3   4
ENDBRANCH   2   3
ENDBRANCH   1   2
BRANCH   1  26
ATOM     26  O   UNL A   1      41.555  20.489  26.150  1.00  0.00    -0.376 OA
BRANCH  26  27
ATOM     27  C   UNL A   1      42.965  20.592  26.027  1.00  0.00     0.202 C 
BRANCH  27  28
ATOM     28  C   UNL A   1      43.734  21.747  25.354  1.00  0.00     0.261 C 
BRANCH  28  29
ATOM     29  O   UNL A   1      43.025  22.953  25.059  1.00  0.00    -0.460 OA
BRANCH  29  30
ATOM     30  C   UNL A   1      43.759  24.093  25.127  1.00  0.00     0.338 C 
ATOM     31  O   UNL A   1      44.702  24.411  24.428  1.00  0.00    -0.246 OA
BRANCH  30  32
ATOM     32  C   UNL A   1      43.107  25.015  26.077  1.00  0.00     0.060 A 
ATOM     33  C   UNL A   1      43.518  26.355  26.104  1.00  0.00     0.016 A 
ATOM     34  C   UNL A   1      42.121  24.555  26.950  1.00  0.00     0.016 A 
ATOM     35  C   UNL A   1      42.945  27.242  27.014  1.00  0.00     0.010 A 
ATOM     36  C   UNL A   1      41.568  25.440  27.882  1.00  0.00     0.010 A 
ATOM     37  C   UNL A   1      41.993  26.780  27.931  1.00  0.00    -0.014 A 
BRANCH  37  38
ATOM     38  C   UNL A   1      41.572  27.649  29.056  1.00  0.00     0.031 A 
ATOM     39  C   UNL A   1      42.315  27.544  30.358  1.00  0.00     0.074 A 
ATOM     40  C   UNL A   1      40.566  28.531  28.920  1.00  0.00     0.049 A 
ATOM     41  N   UNL A   1      42.087  28.150  31.495  1.00  0.00    -0.248 NA
ATOM     42  C   UNL A   1      43.476  26.638  30.380  1.00  0.00     0.031 C 
ATOM     43  C   UNL A   1      39.810  28.769  27.692  1.00  0.00     0.029 A 
ATOM     44  N   UNL A   1      40.005  29.386  29.835  1.00  0.00    -0.354 N 
ATOM     45  C   UNL A   1      43.072  27.700  32.364  1.00  0.00     0.074 A 
ATOM     46  C   UNL A   1      43.884  26.751  31.636  1.00  0.00     0.031 C 
ATOM     47  C   UNL A   1      38.872  29.703  27.934  1.00  0.00     0.029 A 
ATOM     48  C   UNL A   1      38.938  30.098  29.341  1.00  0.00     0.049 A 
ATOM     49  H   UNL A   1      40.334  29.480  30.757  1.00  0.00     0.167 HD
ATOM     50  C   UNL A   1      43.285  28.057  33.653  1.00  0.00     0.037 A 
ATOM     51  C   UNL A   1      38.098  30.950  29.962  1.00  0.00     0.037 A 
ATOM     52  C   UNL A   1      42.473  28.995  34.379  1.00  0.00     0.049 A 
ATOM     53  C   UNL A   1      38.295  31.251  31.428  1.00  0.00     0.074 A 
ATOM     54  C   UNL A   1      42.608  29.412  35.691  1.00  0.00     0.029 A 
ATOM     55  N   UNL A   1      41.373  29.659  33.857  1.00  0.00    -0.354 N 
ATOM     56  N   UNL A   1      39.229  30.822  32.242  1.00  0.00    -0.248 NA
ATOM     57  C   UNL A   1      37.321  32.154  32.060  1.00  0.00     0.031 C 
ATOM     58  C   UNL A   1      41.559  30.288  35.980  1.00  0.00     0.029 A 
ATOM     59  C   UNL A   1      40.808  30.466  34.829  1.00  0.00     0.049 A 
ATOM     60  H   UNL A   1      41.045  29.571  32.933  1.00  0.00     0.167 HD
ATOM     61  C   UNL A   1      38.977  31.429  33.468  1.00  0.00     0.074 A 
ATOM     62  C   UNL A   1      37.807  32.263  33.289  1.00  0.00     0.031 C 
ATOM     63  C   UNL A   1      39.655  31.308  34.635  1.00  0.00     0.037 A 
BRANCH  50  64
ATOM     64  C   UNL A   1      44.438  27.422  34.373  1.00  0.00     0.057 A 
ATOM     65  C   UNL A   1      45.714  27.999  34.371  1.00  0.00     0.134 A 
ATOM     66  C   UNL A   1      44.250  26.267  35.142  1.00  0.00     0.134 A 
ATOM     67  F   UNL A   1      45.964  29.097  33.641  1.00  0.00    -0.206 F 
ATOM     68  C   UNL A   1      46.763  27.449  35.109  1.00  0.00     0.040 A 
ATOM     69  C   UNL A   1      45.284  25.723  35.904  1.00  0.00     0.040 A 
ATOM     70  F   UNL A   1      43.051  25.667  35.187  1.00  0.00    -0.206 F 
ATOM     71  C   UNL A   1      46.545  26.315  35.889  1.00  0.00     0.006 A 
ENDBRANCH  50  64
BRANCH  51  72
ATOM     72  C   UNL A   1      36.982  31.580  29.210  1.00  0.00     0.057 A 
ATOM     73  C   UNL A   1      37.061  32.908  28.773  1.00  0.00     0.134 A 
ATOM     74  C   UNL A   1      35.802  30.880  28.928  1.00  0.00     0.134 A 
ATOM     75  F   UNL A   1      38.153  33.641  29.036  1.00  0.00    -0.206 F 
ATOM     76  C   UNL A   1      36.004  33.522  28.098  1.00  0.00     0.040 A 
ATOM     77  C   UNL A   1      34.748  31.471  28.229  1.00  0.00     0.040 A 
ATOM     78  F   UNL A   1      35.660  29.606  29.323  1.00  0.00    -0.206 F 
ATOM     79  C   UNL A   1      34.846  32.799  27.818  1.00  0.00     0.006 A 
ENDBRANCH  51  72
BRANCH  63  80
ATOM     80  C   UNL A   1      39.190  32.122  35.809  1.00  0.00     0.057 A 
ATOM     81  C   UNL A   1      39.614  33.440  36.013  1.00  0.00     0.134 A 
ATOM     82  C   UNL A   1      38.238  31.605  36.699  1.00  0.00     0.134 A 
ATOM     83  F   UNL A   1      40.528  33.994  35.202  1.00  0.00    -0.206 F 
ATOM     84  C   UNL A   1      39.119  34.210  37.068  1.00  0.00     0.040 A 
ATOM     85  C   UNL A   1      37.715  32.374  37.739  1.00  0.00     0.040 A 
ATOM     86  F   UNL A   1      37.778  30.353  36.554  1.00  0.00    -0.206 F 
ATOM     87  C   UNL A   1      38.159  33.681  37.928  1.00  0.00     0.006 A 
ENDBRANCH  63  80
ENDBRANCH  37  38
ENDBRANCH  30  32
ENDBRANCH  29  30
ENDBRANCH  28  29
ENDBRANCH  27  28
ENDBRANCH  26  27
ENDBRANCH   1  26
TORSDOF 18
ENDMDL
MODEL 2
REMARK VINA RESULT:     -10.9      4.712      9.704
REMARK SMILES Cc1cc2c(c(C)c1Br)C=C(C(=O)OCCOCCOCCOC(=O)c1ccc(-c3c4nc(c(-c5c(F)cccc5F)c5ccc([nH]5)c(-c5c(F)cccc5F)c5nc(c(-c6c(F)cccc6F)c6ccc3[nH]6)C=C5)C=C4)cc1)[C@@H](C(F)(F)F)O2
REMARK SMILES IDX 19 1 18 2 17 3 16 4 15 5 14 6 12 7 13 8 11 9 1 10 2 11 3 12
REMARK SMILES IDX 8 13 4 14 6 15 9 16 5 17 85 18 7 19 10 20 80 21 81 22 82 23
REMARK SMILES IDX 83 24 84 25 20 26 21 27 22 28 23 29 24 30 25 31 26 32 27 33
REMARK SMILES IDX 79 34 28 35 78 36 29 37 30 38 31 39 72 40 32 41 77 42 71 43
REMARK SMILES IDX 73 44 33 45 76 46 70 47 69 48 34 50 60 51 43 52 59 53 44 54
REMARK SMILES IDX 47 55 58 56 74 57 45 58 46 59 57 61 75 62 48 63 35 64 36 65
REMARK SMILES IDX 41 66 37 67 38 68 40 69 42 70 39 71 61 72 62 73 67 74 63 75
REMARK SMILES IDX 64 76 66 77 68 78 65 79 49 80 50 81 55 82 51 83 52 84 54 85
REMARK SMILES IDX 56 86 53 87
REMARK H PARENT 73 49 47 60
REMARK Flexibility Score: inf
ROOT
ATOM      1  C   UNL A   1      34.734  33.386  29.162  1.00  0.00     0.188 C 
ENDROOT
BRANCH   1   2
ATOM      2  C   UNL A   1      34.288  32.147  28.358  1.00  0.00     0.188 C 
BRANCH   2   3
ATOM      3  O   UNL A   1      35.232  31.178  27.950  1.00  0.00    -0.376 OA
BRANCH   3   4
ATOM      4  C   UNL A   1      34.817  29.926  27.431  1.00  0.00     0.202 C 
BRANCH   4   5
ATOM      5  C   UNL A   1      33.342  29.543  27.234  1.00  0.00     0.261 C 
BRANCH   5   6
ATOM      6  O   UNL A   1      33.105  28.244  26.676  1.00  0.00    -0.460 OA
BRANCH   6   7
ATOM      7  C   UNL A   1      31.944  27.658  27.054  1.00  0.00     0.338 C 
ATOM      8  O   UNL A   1      31.151  28.071  27.883  1.00  0.00    -0.246 OA
BRANCH   7   9
ATOM      9  C   UNL A   1      31.678  26.490  26.191  1.00  0.00     0.087 C 
ATOM     10  C   UNL A   1      32.089  21.251  22.435  1.00  0.00     0.046 C 
ATOM     11  C   UNL A   1      32.139  22.230  23.579  1.00  0.00    -0.033 A 
ATOM     12  C   UNL A   1      31.301  23.351  23.518  1.00  0.00     0.051 A 
ATOM     13  C   UNL A   1      32.967  22.061  24.708  1.00  0.00     0.024 A 
ATOM     14  C   UNL A   1      31.363  24.345  24.490  1.00  0.00     0.128 A 
ATOM     15  C   UNL A   1      33.031  23.053  25.717  1.00  0.00    -0.026 A 
ATOM     16  Br  UNL A   1      34.017  20.465  24.833  1.00  0.00    -0.050 Br
ATOM     17  C   UNL A   1      32.256  24.233  25.560  1.00  0.00     0.021 A 
ATOM     18  O   UNL A   1      30.508  25.393  24.297  1.00  0.00    -0.475 OA
ATOM     19  C   UNL A   1      33.899  22.901  26.948  1.00  0.00     0.046 C 
ATOM     20  C   UNL A   1      32.403  25.391  26.440  1.00  0.00     0.027 C 
ATOM     21  C   UNL A   1      30.640  26.584  25.112  1.00  0.00     0.316 C 
BRANCH  21  22
ATOM     22  C   UNL A   1      30.868  27.782  24.180  1.00  0.00     0.430 C 
ATOM     23  F   UNL A   1      32.152  27.833  23.752  1.00  0.00    -0.167 F 
ATOM     24  F   UNL A   1      30.093  27.711  23.073  1.00  0.00    -0.167 F 
ATOM     25  F   UNL A   1      30.596  28.957  24.791  1.00  0.00    -0.167 F 
ENDBRANCH  21  22
ENDBRANCH   7   9
ENDBRANCH   6   7
ENDBRANCH   5   6
ENDBRANCH   4   5
ENDBRANCH   3   4
ENDBRANCH   2   3
ENDBRANCH   1   2
BRANCH   1  26
ATOM     26  O   UNL A   1      33.818  33.986  30.044  1.00  0.00    -0.376 OA
BRANCH  26  27
ATOM     27  C   UNL A   1      34.208  34.317  31.367  1.00  0.00     0.202 C 
BRANCH  27  28
ATOM     28  C   UNL A   1      34.267  33.347  32.564  1.00  0.00     0.261 C 
BRANCH  28  29
ATOM     29  O   UNL A   1      35.107  32.194  32.461  1.00  0.00    -0.460 OA
BRANCH  29  30
ATOM     30  C   UNL A   1      36.322  32.302  33.059  1.00  0.00     0.338 C 
ATOM     31  O   UNL A   1      36.571  32.766  34.154  1.00  0.00    -0.246 OA
BRANCH  30  32
ATOM     32  C   UNL A   1      37.312  31.574  32.242  1.00  0.00     0.060 A 
ATOM     33  C   UNL A   1      38.162  30.656  32.875  1.00  0.00     0.016 A 
ATOM     34  C   UNL A   1      37.420  31.817  30.872  1.00  0.00     0.016 A 
ATOM     35  C   UNL A   1      39.130  29.978  32.137  1.00  0.00     0.010 A 
ATOM     36  C   UNL A   1      38.411  31.158  30.139  1.00  0.00     0.010 A 
ATOM     37  C   UNL A   1      39.283  30.253  30.772  1.00  0.00    -0.014 A 
BRANCH  37  38
ATOM     38  C   UNL A   1      40.464  29.730  30.044  1.00  0.00     0.031 A 
ATOM     39  C   UNL A   1      41.634  30.649  29.826  1.00  0.00     0.074 A 
ATOM     40  C   UNL A   1      40.510  28.461  29.605  1.00  0.00     0.049 A 
ATOM     41  N   UNL A   1      42.742  30.439  29.163  1.00  0.00    -0.248 NA
ATOM     42  C   UNL A   1      41.544  31.983  30.443  1.00  0.00     0.031 C 
ATOM     43  C   UNL A   1      39.467  27.457  29.807  1.00  0.00     0.029 A 
ATOM     44  N   UNL A   1      41.478  27.803  28.887  1.00  0.00    -0.354 N 
ATOM     45  C   UNL A   1      43.480  31.609  29.284  1.00  0.00     0.074 A 
ATOM     46  C   UNL A   1      42.684  32.537  30.058  1.00  0.00     0.031 C 
ATOM     47  C   UNL A   1      39.848  26.310  29.215  1.00  0.00     0.029 A 
ATOM     48  C   UNL A   1      41.140  26.512  28.561  1.00  0.00     0.049 A 
ATOM     49  H   UNL A   1      42.333  28.217  28.630  1.00  0.00     0.167 HD
ATOM     50  C   UNL A   1      44.714  31.881  28.800  1.00  0.00     0.037 A 
ATOM     51  C   UNL A   1      41.790  25.607  27.801  1.00  0.00     0.037 A 
ATOM     52  C   UNL A   1      45.501  30.960  28.025  1.00  0.00     0.049 A 
ATOM     53  C   UNL A   1      43.120  25.972  27.186  1.00  0.00     0.074 A 
ATOM     54  C   UNL A   1      46.760  31.151  27.485  1.00  0.00     0.029 A 
ATOM     55  N   UNL A   1      45.103  29.678  27.676  1.00  0.00    -0.354 N 
ATOM     56  N   UNL A   1      43.809  27.081  27.305  1.00  0.00    -0.248 NA
ATOM     57  C   UNL A   1      43.759  24.961  26.331  1.00  0.00     0.031 C 
ATOM     58  C   UNL A   1      47.103  30.004  26.764  1.00  0.00     0.029 A 
ATOM     59  C   UNL A   1      46.085  29.076  26.909  1.00  0.00     0.049 A 
ATOM     60  H   UNL A   1      44.251  29.260  27.936  1.00  0.00     0.167 HD
ATOM     61  C   UNL A   1      44.976  26.886  26.573  1.00  0.00     0.074 A 
ATOM     62  C   UNL A   1      44.905  25.551  26.020  1.00  0.00     0.031 C 
ATOM     63  C   UNL A   1      46.014  27.737  26.380  1.00  0.00     0.037 A 
BRANCH  50  64
ATOM     64  C   UNL A   1      45.295  33.234  29.083  1.00  0.00     0.057 A 
ATOM     65  C   UNL A   1      45.042  34.332  28.252  1.00  0.00     0.134 A 
ATOM     66  C   UNL A   1      46.047  33.459  30.243  1.00  0.00     0.134 A 
ATOM     67  F   UNL A   1      44.341  34.179  27.117  1.00  0.00    -0.206 F 
ATOM     68  C   UNL A   1      45.516  35.607  28.564  1.00  0.00     0.040 A 
ATOM     69  C   UNL A   1      46.505  34.734  30.578  1.00  0.00     0.040 A 
ATOM     70  F   UNL A   1      46.323  32.450  31.083  1.00  0.00    -0.206 F 
ATOM     71  C   UNL A   1      46.239  35.812  29.737  1.00  0.00     0.006 A 
ENDBRANCH  50  64
BRANCH  51  72
ATOM     72  C   UNL A   1      41.196  24.266  27.564  1.00  0.00     0.057 A 
ATOM     73  C   UNL A   1      41.682  23.131  28.224  1.00  0.00     0.134 A 
ATOM     74  C   UNL A   1      40.145  24.081  26.657  1.00  0.00     0.134 A 
ATOM     75  F   UNL A   1      42.705  23.238  29.085  1.00  0.00    -0.206 F 
ATOM     76  C   UNL A   1      41.156  21.861  27.982  1.00  0.00     0.040 A 
ATOM     77  C   UNL A   1      39.590  22.821  26.425  1.00  0.00     0.040 A 
ATOM     78  F   UNL A   1      39.637  25.126  25.986  1.00  0.00    -0.206 F 
ATOM     79  C   UNL A   1      40.102  21.705  27.084  1.00  0.00     0.006 A 
ENDBRANCH  51  72
BRANCH  63  80
ATOM     80  C   UNL A   1      47.184  27.250  25.574  1.00  0.00     0.057 A 
ATOM     81  C   UNL A   1      47.318  27.538  24.210  1.00  0.00     0.134 A 
ATOM     82  C   UNL A   1      48.232  26.555  26.194  1.00  0.00     0.134 A 
ATOM     83  F   UNL A   1      46.349  28.194  23.555  1.00  0.00    -0.206 F 
ATOM     84  C   UNL A   1      48.445  27.140  23.489  1.00  0.00     0.040 A 
ATOM     85  C   UNL A   1      49.377  26.178  25.489  1.00  0.00     0.040 A 
ATOM     86  F   UNL A   1      48.175  26.258  27.500  1.00  0.00    -0.206 F 
ATOM     87  C   UNL A   1      49.483  26.468  24.131  1.00  0.00     0.006 A 
ENDBRANCH  63  80
ENDBRANCH  37  38
ENDBRANCH  30  32
ENDBRANCH  29  30
ENDBRANCH  28  29
ENDBRANCH  27  28
ENDBRANCH  26  27
ENDBRANCH   1  26
TORSDOF 18
ENDMDL
MODEL 3
REMARK VINA RESULT:     -10.8      3.588      6.076
REMARK SMILES Cc1cc2c(c(C)c1Br)C=C(C(=O)OCCOCCOCCOC(=O)c1ccc(-c3c4nc(c(-c5c(F)cccc5F)c5ccc([nH]5)c(-c5c(F)cccc5F)c5nc(c(-c6c(F)cccc6F)c6ccc3[nH]6)C=C5)C=C4)cc1)[C@@H](C(F)(F)F)O2
REMARK SMILES IDX 19 1 18 2 17 3 16 4 15 5 14 6 12 7 13 8 11 9 1 10 2 11 3 12
REMARK SMILES IDX 8 13 4 14 6 15 9 16 5 17 85 18 7 19 10 20 80 21 81 22 82 23
REMARK SMILES IDX 83 24 84 25 20 26 21 27 22 28 23 29 24 30 25 31 26 32 27 33
REMARK SMILES IDX 79 34 28 35 78 36 29 37 30 38 31 39 72 40 32 41 77 42 71 43
REMARK SMILES IDX 73 44 33 45 76 46 70 47 69 48 34 50 60 51 43 52 59 53 44 54
REMARK SMILES IDX 47 55 58 56 74 57 45 58 46 59 57 61 75 62 48 63 35 64 36 65
REMARK SMILES IDX 41 66 37 67 38 68 40 69 42 70 39 71 61 72 62 73 67 74 63 75
REMARK SMILES IDX 64 76 66 77 68 78 65 79 49 80 50 81 55 82 51 83 52 84 54 85
REMARK SMILES IDX 56 86 53 87
REMARK H PARENT 73 49 47 60
REMARK Flexibility Score: inf
ROOT
ATOM      1  C   UNL A   1      33.182  19.674  24.217  1.00  0.00     0.188 C 
ENDROOT
BRANCH   1   2
ATOM      2  C   UNL A   1      32.853  21.169  24.023  1.00  0.00     0.188 C 
BRANCH   2   3
ATOM      3  O   UNL A   1      31.912  21.810  24.859  1.00  0.00    -0.376 OA
BRANCH   3   4
ATOM      4  C   UNL A   1      32.256  22.211  26.174  1.00  0.00     0.202 C 
BRANCH   4   5
ATOM      5  C   UNL A   1      33.562  22.945  26.517  1.00  0.00     0.261 C 
BRANCH   5   6
ATOM      6  O   UNL A   1      33.502  24.376  26.476  1.00  0.00    -0.460 OA
BRANCH   6   7
ATOM      7  C   UNL A   1      33.690  24.927  25.254  1.00  0.00     0.338 C 
ATOM      8  O   UNL A   1      34.089  24.361  24.249  1.00  0.00    -0.246 OA
BRANCH   7   9
ATOM      9  C   UNL A   1      33.185  26.314  25.254  1.00  0.00     0.087 C 
ATOM     10  C   UNL A   1      31.342  32.310  26.793  1.00  0.00     0.046 C 
ATOM     11  C   UNL A   1      32.123  31.049  26.530  1.00  0.00    -0.033 A 
ATOM     12  C   UNL A   1      31.564  30.101  25.665  1.00  0.00     0.051 A 
ATOM     13  C   UNL A   1      33.390  30.792  27.094  1.00  0.00     0.024 A 
ATOM     14  C   UNL A   1      32.183  28.873  25.451  1.00  0.00     0.128 A 
ATOM     15  C   UNL A   1      34.045  29.555  26.873  1.00  0.00    -0.026 A 
ATOM     16  Br  UNL A   1      34.194  32.149  28.179  1.00  0.00    -0.050 Br
ATOM     17  C   UNL A   1      33.390  28.570  26.087  1.00  0.00     0.021 A 
ATOM     18  O   UNL A   1      31.518  28.034  24.602  1.00  0.00    -0.475 OA
ATOM     19  C   UNL A   1      35.410  29.248  27.452  1.00  0.00     0.046 C 
ATOM     20  C   UNL A   1      33.891  27.202  25.967  1.00  0.00     0.027 C 
ATOM     21  C   UNL A   1      31.946  26.654  24.480  1.00  0.00     0.316 C 
BRANCH  21  22
ATOM     22  C   UNL A   1      30.759  25.750  24.841  1.00  0.00     0.430 C 
ATOM     23  F   UNL A   1      29.582  26.329  24.507  1.00  0.00    -0.167 F 
ATOM     24  F   UNL A   1      30.811  24.568  24.185  1.00  0.00    -0.167 F 
ATOM     25  F   UNL A   1      30.717  25.476  26.165  1.00  0.00    -0.167 F 
ENDBRANCH  21  22
ENDBRANCH   7   9
ENDBRANCH   6   7
ENDBRANCH   5   6
ENDBRANCH   4   5
ENDBRANCH   3   4
ENDBRANCH   2   3
ENDBRANCH   1   2
BRANCH   1  26
ATOM     26  O   UNL A   1      34.470  19.316  24.650  1.00  0.00    -0.376 OA
BRANCH  26  27
ATOM     27  C   UNL A   1      35.405  20.315  25.025  1.00  0.00     0.202 C 
BRANCH  27  28
ATOM     28  C   UNL A   1      36.941  20.182  24.979  1.00  0.00     0.261 C 
BRANCH  28  29
ATOM     29  O   UNL A   1      37.730  21.333  25.292  1.00  0.00    -0.460 OA
BRANCH  29  30
ATOM     30  C   UNL A   1      38.904  21.080  25.926  1.00  0.00     0.338 C 
ATOM     31  O   UNL A   1      39.543  20.046  25.920  1.00  0.00    -0.246 OA
BRANCH  30  32
ATOM     32  C   UNL A   1      39.414  22.345  26.490  1.00  0.00     0.060 A 
ATOM     33  C   UNL A   1      38.833  23.551  26.073  1.00  0.00     0.016 A 
ATOM     34  C   UNL A   1      40.472  22.342  27.399  1.00  0.00     0.016 A 
ATOM     35  C   UNL A   1      39.316  24.763  26.561  1.00  0.00     0.010 A 
ATOM     36  C   UNL A   1      40.974  23.561  27.865  1.00  0.00     0.010 A 
ATOM     37  C   UNL A   1      40.412  24.776  27.432  1.00  0.00    -0.014 A 
BRANCH  37  38
ATOM     38  C   UNL A   1      41.084  26.058  27.751  1.00  0.00     0.031 A 
ATOM     39  C   UNL A   1      42.506  26.252  27.302  1.00  0.00     0.074 A 
ATOM     40  C   UNL A   1      40.442  27.041  28.405  1.00  0.00     0.049 A 
ATOM     41  N   UNL A   1      43.316  27.255  27.522  1.00  0.00    -0.248 NA
ATOM     42  C   UNL A   1      43.091  25.171  26.491  1.00  0.00     0.031 C 
ATOM     43  C   UNL A   1      39.047  26.998  28.839  1.00  0.00     0.029 A 
ATOM     44  N   UNL A   1      40.889  28.269  28.826  1.00  0.00    -0.354 N 
ATOM     45  C   UNL A   1      44.502  26.927  26.878  1.00  0.00     0.074 A 
ATOM     46  C   UNL A   1      44.319  25.622  26.283  1.00  0.00     0.031 C 
ATOM     47  C   UNL A   1      38.754  28.146  29.476  1.00  0.00     0.029 A 
ATOM     48  C   UNL A   1      39.951  28.985  29.529  1.00  0.00     0.049 A 
ATOM     49  H   UNL A   1      41.796  28.604  28.642  1.00  0.00     0.167 HD
ATOM     50  C   UNL A   1      45.639  27.656  26.784  1.00  0.00     0.037 A 
ATOM     51  C   UNL A   1      40.056  30.171  30.162  1.00  0.00     0.037 A 
ATOM     52  C   UNL A   1      45.823  28.951  27.383  1.00  0.00     0.049 A 
ATOM     53  C   UNL A   1      41.369  30.916  30.130  1.00  0.00     0.074 A 
ATOM     54  C   UNL A   1      46.944  29.761  27.348  1.00  0.00     0.029 A 
ATOM     55  N   UNL A   1      44.865  29.622  28.127  1.00  0.00    -0.354 N 
ATOM     56  N   UNL A   1      42.484  30.600  29.519  1.00  0.00    -0.248 NA
ATOM     57  C   UNL A   1      41.435  32.182  30.876  1.00  0.00     0.031 C 
ATOM     58  C   UNL A   1      46.683  30.899  28.115  1.00  0.00     0.029 A 
ATOM     59  C   UNL A   1      45.378  30.827  28.575  1.00  0.00     0.049 A 
ATOM     60  H   UNL A   1      43.956  29.291  28.309  1.00  0.00     0.167 HD
ATOM     61  C   UNL A   1      43.370  31.641  29.776  1.00  0.00     0.074 A 
ATOM     62  C   UNL A   1      42.660  32.603  30.591  1.00  0.00     0.031 C 
ATOM     63  C   UNL A   1      44.656  31.787  29.370  1.00  0.00     0.037 A 
BRANCH  50  64
ATOM     64  C   UNL A   1      46.785  27.070  26.014  1.00  0.00     0.057 A 
ATOM     65  C   UNL A   1      46.978  27.350  24.656  1.00  0.00     0.134 A 
ATOM     66  C   UNL A   1      47.749  26.284  26.658  1.00  0.00     0.134 A 
ATOM     67  F   UNL A   1      46.082  28.083  23.977  1.00  0.00    -0.206 F 
ATOM     68  C   UNL A   1      48.091  26.868  23.964  1.00  0.00     0.040 A 
ATOM     69  C   UNL A   1      48.878  25.818  25.984  1.00  0.00     0.040 A 
ATOM     70  F   UNL A   1      47.623  25.982  27.959  1.00  0.00    -0.206 F 
ATOM     71  C   UNL A   1      49.051  26.111  24.632  1.00  0.00     0.006 A 
ENDBRANCH  50  64
BRANCH  51  72
ATOM     72  C   UNL A   1      38.892  30.733  30.894  1.00  0.00     0.057 A 
ATOM     73  C   UNL A   1      37.996  31.608  30.267  1.00  0.00     0.134 A 
ATOM     74  C   UNL A   1      38.657  30.430  32.241  1.00  0.00     0.134 A 
ATOM     75  F   UNL A   1      38.181  31.960  28.986  1.00  0.00    -0.206 F 
ATOM     76  C   UNL A   1      36.919  32.171  30.955  1.00  0.00     0.040 A 
ATOM     77  C   UNL A   1      37.569  30.963  32.934  1.00  0.00     0.040 A 
ATOM     78  F   UNL A   1      39.480  29.603  32.903  1.00  0.00    -0.206 F 
ATOM     79  C   UNL A   1      36.700  31.842  32.291  1.00  0.00     0.006 A 
ENDBRANCH  51  72
BRANCH  63  80
ATOM     80  C   UNL A   1      45.378  33.047  29.755  1.00  0.00     0.057 A 
ATOM     81  C   UNL A   1      45.258  34.227  29.012  1.00  0.00     0.134 A 
ATOM     82  C   UNL A   1      46.135  33.098  30.934  1.00  0.00     0.134 A 
ATOM     83  F   UNL A   1      44.554  34.246  27.872  1.00  0.00    -0.206 F 
ATOM     84  C   UNL A   1      45.878  35.411  29.421  1.00  0.00     0.040 A 
ATOM     85  C   UNL A   1      46.734  34.282  31.366  1.00  0.00     0.040 A 
ATOM     86  F   UNL A   1      46.280  32.007  31.700  1.00  0.00    -0.206 F 
ATOM     87  C   UNL A   1      46.609  35.442  30.606  1.00  0.00     0.006 A 
ENDBRANCH  63  80
ENDBRANCH  37  38
ENDBRANCH  30  32
ENDBRANCH  29  30
ENDBRANCH  28  29
ENDBRANCH  27  28
ENDBRANCH  26  27
ENDBRANCH   1  26
TORSDOF 18
ENDMDL
