MODEL 1
REMARK VINA RESULT:     -11.9      0.000      0.000
REMARK SMILES Cc1c(C(=O)OCCOCCOCCOC(=O)c2ccc(-c3c4nc(c(-c5c(F)cccc5F)c5ccc([nH]5)c(-c5c(F)cccc5F)c5nc(c(-c6c(F)cccc6F)c6ccc3[nH]6)C=C5)C=C4)cc2)sc2c1=C(CSc1nncn1-c1ccccc1)CC(=O)N=2
REMARK SMILES IDX 10 1 9 2 8 3 7 4 6 5 4 6 5 7 3 8 1 9 2 10 74 11 72 12 73 13
REMARK SMILES IDX 75 14 92 15 89 16 90 17 91 18 76 19 77 20 78 21 79 22 82 23
REMARK SMILES IDX 80 24 81 25 83 26 84 27 88 28 85 29 87 30 86 31 11 32 12 33
REMARK SMILES IDX 13 34 14 35 15 36 16 37 17 38 18 39 19 40 71 41 20 42 70 43
REMARK SMILES IDX 21 44 22 45 23 46 64 47 24 48 69 49 63 50 65 51 25 52 68 53
REMARK SMILES IDX 62 54 61 55 26 57 52 58 35 59 51 60 36 61 39 62 50 63 66 64
REMARK SMILES IDX 37 65 38 66 49 68 67 69 40 70 27 71 28 72 33 73 29 74 30 75
REMARK SMILES IDX 32 76 34 77 31 78 53 79 54 80 59 81 55 82 56 83 58 84 60 85
REMARK SMILES IDX 57 86 41 87 42 88 47 89 43 90 44 91 46 92 48 93 45 94
REMARK H PARENT 65 56 39 67
REMARK Flexibility Score: inf
ROOT
ATOM      1  C   UNL A   1      41.114  20.725  27.123  1.00  0.00     0.188 C 
ENDROOT
BRANCH   1   2
ATOM      2  O   UNL A   1      40.929  21.754  26.166  1.00  0.00    -0.376 OA
BRANCH   2   3
ATOM      3  C   UNL A   1      39.641  22.363  26.174  1.00  0.00     0.202 C 
BRANCH   3   4
ATOM      4  C   UNL A   1      38.527  21.503  25.568  1.00  0.00     0.261 C 
BRANCH   4   5
ATOM      5  O   UNL A   1      37.187  21.880  25.936  1.00  0.00    -0.459 OA
BRANCH   5   6
ATOM      6  C   UNL A   1      36.166  21.154  25.417  1.00  0.00     0.348 C 
ATOM      7  O   UNL A   1      36.284  20.038  24.963  1.00  0.00    -0.245 OA
BRANCH   6   8
ATOM      8  C   UNL A   1      34.873  21.906  25.496  1.00  0.00     0.118 A 
ATOM      9  C   UNL A   1      35.422  24.356  24.900  1.00  0.00     0.047 C 
ATOM     10  C   UNL A   1      34.549  23.170  25.155  1.00  0.00    -0.016 A 
ATOM     11  C   UNL A   1      33.136  23.445  25.306  1.00  0.00     0.016 A 
ATOM     12  S   UNL A   1      33.546  21.087  26.330  1.00  0.00    -0.108 S 
ATOM     13  C   UNL A   1      32.484  22.485  26.225  1.00  0.00     0.128 A 
ATOM     14  C   UNL A   1      32.225  24.079  24.546  1.00  0.00    -0.040 C 
ATOM     15  N   UNL A   1      31.332  22.545  26.781  1.00  0.00    -0.202 NA
ATOM     16  C   UNL A   1      30.932  24.474  25.239  1.00  0.00     0.135 C 
ATOM     17  C   UNL A   1      30.592  23.671  26.502  1.00  0.00     0.251 C 
ATOM     18  O   UNL A   1      29.649  24.027  27.204  1.00  0.00    -0.272 OA
BRANCH  14  19
ATOM     19  C   UNL A   1      32.256  24.467  23.082  1.00  0.00     0.110 C 
BRANCH  19  20
ATOM     20  S   UNL A   1      33.243  25.933  22.656  1.00  0.00    -0.081 SA
BRANCH  20  21
ATOM     21  C   UNL A   1      31.966  27.114  22.662  1.00  0.00     0.195 A 
ATOM     22  N   UNL A   1      31.052  27.189  21.719  1.00  0.00    -0.123 NA
ATOM     23  N   UNL A   1      31.563  27.834  23.772  1.00  0.00    -0.277 N 
ATOM     24  N   UNL A   1      30.003  27.922  22.209  1.00  0.00    -0.138 NA
ATOM     25  C   UNL A   1      30.302  28.266  23.441  1.00  0.00     0.231 A 
BRANCH  23  26
ATOM     26  C   UNL A   1      32.209  28.028  25.019  1.00  0.00     0.049 A 
ATOM     27  C   UNL A   1      31.523  27.801  26.219  1.00  0.00     0.027 A 
ATOM     28  C   UNL A   1      33.522  28.522  25.042  1.00  0.00     0.027 A 
ATOM     29  C   UNL A   1      32.139  28.102  27.435  1.00  0.00     0.002 A 
ATOM     30  C   UNL A   1      34.112  28.857  26.262  1.00  0.00     0.002 A 
ATOM     31  C   UNL A   1      33.422  28.651  27.455  1.00  0.00     0.000 A 
ENDBRANCH  23  26
ENDBRANCH  20  21
ENDBRANCH  19  20
ENDBRANCH  14  19
ENDBRANCH   6   8
ENDBRANCH   5   6
ENDBRANCH   4   5
ENDBRANCH   3   4
ENDBRANCH   2   3
ENDBRANCH   1   2
BRANCH   1  32
ATOM     32  C   UNL A   1      41.803  19.448  26.601  1.00  0.00     0.188 C 
BRANCH  32  33
ATOM     33  O   UNL A   1      42.444  19.378  25.330  1.00  0.00    -0.376 OA
BRANCH  33  34
ATOM     34  C   UNL A   1      43.723  18.782  25.167  1.00  0.00     0.202 C 
BRANCH  34  35
ATOM     35  C   UNL A   1      44.643  19.267  24.055  1.00  0.00     0.261 C 
BRANCH  35  36
ATOM     36  O   UNL A   1      44.472  20.636  23.737  1.00  0.00    -0.460 OA
BRANCH  36  37
ATOM     37  C   UNL A   1      45.289  21.458  24.425  1.00  0.00     0.338 C 
ATOM     38  O   UNL A   1      46.510  21.463  24.427  1.00  0.00    -0.246 OA
BRANCH  37  39
ATOM     39  C   UNL A   1      44.477  22.354  25.250  1.00  0.00     0.060 A 
ATOM     40  C   UNL A   1      43.782  23.369  24.587  1.00  0.00     0.016 A 
ATOM     41  C   UNL A   1      44.605  22.328  26.646  1.00  0.00     0.016 A 
ATOM     42  C   UNL A   1      43.397  24.477  25.306  1.00  0.00     0.010 A 
ATOM     43  C   UNL A   1      44.235  23.440  27.361  1.00  0.00     0.010 A 
ATOM     44  C   UNL A   1      43.719  24.533  26.662  1.00  0.00    -0.014 A 
BRANCH  44  45
ATOM     45  C   UNL A   1      43.573  25.805  27.335  1.00  0.00     0.031 A 
ATOM     46  C   UNL A   1      44.625  26.795  27.046  1.00  0.00     0.074 A 
ATOM     47  C   UNL A   1      42.473  26.071  28.064  1.00  0.00     0.049 A 
ATOM     48  N   UNL A   1      45.415  27.381  27.882  1.00  0.00    -0.248 NA
ATOM     49  C   UNL A   1      44.888  27.112  25.634  1.00  0.00     0.031 C 
ATOM     50  C   UNL A   1      41.252  25.261  28.148  1.00  0.00     0.029 A 
ATOM     51  N   UNL A   1      42.161  27.185  28.782  1.00  0.00    -0.354 N 
ATOM     52  C   UNL A   1      46.131  28.301  27.125  1.00  0.00     0.074 A 
ATOM     53  C   UNL A   1      45.894  27.978  25.744  1.00  0.00     0.031 C 
ATOM     54  C   UNL A   1      40.265  26.010  28.685  1.00  0.00     0.029 A 
ATOM     55  C   UNL A   1      40.809  27.300  29.074  1.00  0.00     0.049 A 
ATOM     56  H   UNL A   1      42.831  27.847  29.067  1.00  0.00     0.167 HD
ATOM     57  C   UNL A   1      46.616  29.436  27.692  1.00  0.00     0.037 A 
ATOM     58  C   UNL A   1      40.169  28.408  29.518  1.00  0.00     0.037 A 
ATOM     59  C   UNL A   1      46.769  29.298  29.118  1.00  0.00     0.049 A 
ATOM     60  C   UNL A   1      41.188  29.337  30.062  1.00  0.00     0.074 A 
ATOM     61  C   UNL A   1      47.436  28.418  29.950  1.00  0.00     0.029 A 
ATOM     62  N   UNL A   1      45.905  29.991  29.928  1.00  0.00    -0.354 N 
ATOM     63  N   UNL A   1      41.843  29.156  31.174  1.00  0.00    -0.248 NA
ATOM     64  C   UNL A   1      41.756  30.334  29.164  1.00  0.00     0.031 C 
ATOM     65  C   UNL A   1      46.631  28.320  31.122  1.00  0.00     0.029 A 
ATOM     66  C   UNL A   1      45.530  29.159  30.949  1.00  0.00     0.049 A 
ATOM     67  H   UNL A   1      45.608  30.921  29.798  1.00  0.00     0.167 HD
ATOM     68  C   UNL A   1      43.104  29.678  30.928  1.00  0.00     0.074 A 
ATOM     69  C   UNL A   1      42.946  30.509  29.742  1.00  0.00     0.031 C 
ATOM     70  C   UNL A   1      44.210  29.155  31.534  1.00  0.00     0.037 A 
BRANCH  57  71
ATOM     71  C   UNL A   1      46.529  30.785  27.013  1.00  0.00     0.057 A 
ATOM     72  C   UNL A   1      47.664  31.613  27.007  1.00  0.00     0.134 A 
ATOM     73  C   UNL A   1      45.319  31.423  26.665  1.00  0.00     0.134 A 
ATOM     74  F   UNL A   1      48.871  31.126  27.332  1.00  0.00    -0.206 F 
ATOM     75  C   UNL A   1      47.583  32.991  26.773  1.00  0.00     0.040 A 
ATOM     76  C   UNL A   1      45.238  32.786  26.373  1.00  0.00     0.040 A 
ATOM     77  F   UNL A   1      44.136  30.797  26.687  1.00  0.00    -0.206 F 
ATOM     78  C   UNL A   1      46.364  33.583  26.465  1.00  0.00     0.006 A 
ENDBRANCH  57  71
BRANCH  58  79
ATOM     79  C   UNL A   1      38.764  28.820  29.294  1.00  0.00     0.057 A 
ATOM     80  C   UNL A   1      37.850  28.870  30.355  1.00  0.00     0.134 A 
ATOM     81  C   UNL A   1      38.338  29.406  28.087  1.00  0.00     0.134 A 
ATOM     82  F   UNL A   1      38.175  28.382  31.560  1.00  0.00    -0.206 F 
ATOM     83  C   UNL A   1      36.594  29.478  30.229  1.00  0.00     0.040 A 
ATOM     84  C   UNL A   1      37.080  29.999  27.943  1.00  0.00     0.040 A 
ATOM     85  F   UNL A   1      39.156  29.503  27.031  1.00  0.00    -0.206 F 
ATOM     86  C   UNL A   1      36.207  30.049  29.021  1.00  0.00     0.006 A 
ENDBRANCH  58  79
BRANCH  70  87
ATOM     87  C   UNL A   1      44.000  28.284  32.738  1.00  0.00     0.057 A 
ATOM     88  C   UNL A   1      43.805  26.898  32.682  1.00  0.00     0.134 A 
ATOM     89  C   UNL A   1      44.116  28.861  34.010  1.00  0.00     0.134 A 
ATOM     90  F   UNL A   1      43.789  26.245  31.512  1.00  0.00    -0.206 F 
ATOM     91  C   UNL A   1      43.669  26.129  33.842  1.00  0.00     0.040 A 
ATOM     92  C   UNL A   1      44.017  28.099  35.174  1.00  0.00     0.040 A 
ATOM     93  F   UNL A   1      44.363  30.175  34.138  1.00  0.00    -0.206 F 
ATOM     94  C   UNL A   1      43.779  26.730  35.093  1.00  0.00     0.006 A 
ENDBRANCH  70  87
ENDBRANCH  44  45
ENDBRANCH  37  39
ENDBRANCH  36  37
ENDBRANCH  35  36
ENDBRANCH  34  35
ENDBRANCH  33  34
ENDBRANCH  32  33
ENDBRANCH   1  32
TORSDOF 21
ENDMDL
MODEL 2
REMARK VINA RESULT:     -11.4      1.645      2.807
REMARK SMILES Cc1c(C(=O)OCCOCCOCCOC(=O)c2ccc(-c3c4nc(c(-c5c(F)cccc5F)c5ccc([nH]5)c(-c5c(F)cccc5F)c5nc(c(-c6c(F)cccc6F)c6ccc3[nH]6)C=C5)C=C4)cc2)sc2c1=C(CSc1nncn1-c1ccccc1)CC(=O)N=2
REMARK SMILES IDX 10 1 9 2 8 3 7 4 6 5 4 6 5 7 3 8 1 9 2 10 74 11 72 12 73 13
REMARK SMILES IDX 75 14 92 15 89 16 90 17 91 18 76 19 77 20 78 21 79 22 82 23
REMARK SMILES IDX 80 24 81 25 83 26 84 27 88 28 85 29 87 30 86 31 11 32 12 33
REMARK SMILES IDX 13 34 14 35 15 36 16 37 17 38 18 39 19 40 71 41 20 42 70 43
REMARK SMILES IDX 21 44 22 45 23 46 64 47 24 48 69 49 63 50 65 51 25 52 68 53
REMARK SMILES IDX 62 54 61 55 26 57 52 58 35 59 51 60 36 61 39 62 50 63 66 64
REMARK SMILES IDX 37 65 38 66 49 68 67 69 40 70 27 71 28 72 33 73 29 74 30 75
REMARK SMILES IDX 32 76 34 77 31 78 53 79 54 80 59 81 55 82 56 83 58 84 60 85
REMARK SMILES IDX 57 86 41 87 42 88 47 89 43 90 44 91 46 92 48 93 45 94
REMARK H PARENT 65 56 39 67
REMARK Flexibility Score: inf
ROOT
ATOM      1  C   UNL A   1      37.630  21.753  25.281  1.00  0.00     0.188 C 
ENDROOT
BRANCH   1   2
ATOM      2  O   UNL A   1      36.553  22.450  25.884  1.00  0.00    -0.376 OA
BRANCH   2   3
ATOM      3  C   UNL A   1      35.439  21.642  26.252  1.00  0.00     0.202 C 
BRANCH   3   4
ATOM      4  C   UNL A   1      34.238  22.423  26.795  1.00  0.00     0.261 C 
BRANCH   4   5
ATOM      5  O   UNL A   1      32.982  21.720  26.771  1.00  0.00    -0.459 OA
BRANCH   5   6
ATOM      6  C   UNL A   1      32.487  21.363  25.561  1.00  0.00     0.348 C 
ATOM      7  O   UNL A   1      31.997  20.284  25.315  1.00  0.00    -0.245 OA
BRANCH   6   8
ATOM      8  C   UNL A   1      32.609  22.484  24.575  1.00  0.00     0.118 A 
ATOM      9  C   UNL A   1      31.151  24.409  25.484  1.00  0.00     0.047 C 
ATOM     10  C   UNL A   1      32.178  23.762  24.613  1.00  0.00    -0.016 A 
ATOM     11  C   UNL A   1      32.617  24.533  23.469  1.00  0.00     0.016 A 
ATOM     12  S   UNL A   1      33.284  22.062  22.995  1.00  0.00    -0.108 S 
ATOM     13  C   UNL A   1      32.994  23.665  22.331  1.00  0.00     0.128 A 
ATOM     14  C   UNL A   1      33.125  25.770  23.320  1.00  0.00    -0.040 C 
ATOM     15  N   UNL A   1      33.197  23.972  21.105  1.00  0.00    -0.202 NA
ATOM     16  C   UNL A   1      33.103  26.338  21.912  1.00  0.00     0.135 C 
ATOM     17  C   UNL A   1      33.022  25.300  20.786  1.00  0.00     0.251 C 
ATOM     18  O   UNL A   1      32.847  25.679  19.631  1.00  0.00    -0.272 OA
BRANCH  14  19
ATOM     19  C   UNL A   1      33.741  26.714  24.333  1.00  0.00     0.110 C 
BRANCH  19  20
ATOM     20  S   UNL A   1      33.896  28.453  23.825  1.00  0.00    -0.081 SA
BRANCH  20  21
ATOM     21  C   UNL A   1      33.096  29.190  25.182  1.00  0.00     0.195 A 
ATOM     22  N   UNL A   1      33.743  29.776  26.166  1.00  0.00    -0.123 NA
ATOM     23  N   UNL A   1      31.761  29.552  25.209  1.00  0.00    -0.277 N 
ATOM     24  N   UNL A   1      32.853  30.578  26.833  1.00  0.00    -0.138 NA
ATOM     25  C   UNL A   1      31.691  30.465  26.233  1.00  0.00     0.231 A 
BRANCH  23  26
ATOM     26  C   UNL A   1      30.697  29.181  24.349  1.00  0.00     0.049 A 
ATOM     27  C   UNL A   1      29.944  30.158  23.686  1.00  0.00     0.027 A 
ATOM     28  C   UNL A   1      30.356  27.826  24.224  1.00  0.00     0.027 A 
ATOM     29  C   UNL A   1      28.832  29.781  22.931  1.00  0.00     0.002 A 
ATOM     30  C   UNL A   1      29.218  27.464  23.500  1.00  0.00     0.002 A 
ATOM     31  C   UNL A   1      28.457  28.439  22.857  1.00  0.00     0.000 A 
ENDBRANCH  23  26
ENDBRANCH  20  21
ENDBRANCH  19  20
ENDBRANCH  14  19
ENDBRANCH   6   8
ENDBRANCH   5   6
ENDBRANCH   4   5
ENDBRANCH   3   4
ENDBRANCH   2   3
ENDBRANCH   1   2
BRANCH   1  32
ATOM     32  C   UNL A   1      38.981  21.853  26.017  1.00  0.00     0.188 C 
BRANCH  32  33
ATOM     33  O   UNL A   1      39.861  20.743  26.175  1.00  0.00    -0.376 OA
BRANCH  33  34
ATOM     34  C   UNL A   1      40.850  20.710  27.194  1.00  0.00     0.202 C 
BRANCH  34  35
ATOM     35  C   UNL A   1      42.254  20.222  26.864  1.00  0.00     0.261 C 
BRANCH  35  36
ATOM     36  O   UNL A   1      42.615  20.412  25.508  1.00  0.00    -0.460 OA
BRANCH  36  37
ATOM     37  C   UNL A   1      43.928  20.656  25.327  1.00  0.00     0.338 C 
ATOM     38  O   UNL A   1      44.821  19.841  25.159  1.00  0.00    -0.246 OA
BRANCH  37  39
ATOM     39  C   UNL A   1      44.159  22.100  25.415  1.00  0.00     0.060 A 
ATOM     40  C   UNL A   1      45.181  22.526  26.266  1.00  0.00     0.016 A 
ATOM     41  C   UNL A   1      43.231  22.991  24.858  1.00  0.00     0.016 A 
ATOM     42  C   UNL A   1      45.146  23.820  26.735  1.00  0.00     0.010 A 
ATOM     43  C   UNL A   1      43.187  24.277  25.337  1.00  0.00     0.010 A 
ATOM     44  C   UNL A   1      44.091  24.642  26.336  1.00  0.00    -0.014 A 
BRANCH  44  45
ATOM     45  C   UNL A   1      43.902  25.885  27.049  1.00  0.00     0.031 A 
ATOM     46  C   UNL A   1      44.911  26.925  26.782  1.00  0.00     0.074 A 
ATOM     47  C   UNL A   1      42.799  26.086  27.796  1.00  0.00     0.049 A 
ATOM     48  N   UNL A   1      45.686  27.516  27.629  1.00  0.00    -0.248 NA
ATOM     49  C   UNL A   1      45.148  27.295  25.379  1.00  0.00     0.031 C 
ATOM     50  C   UNL A   1      41.611  25.226  27.864  1.00  0.00     0.029 A 
ATOM     51  N   UNL A   1      42.450  27.164  28.550  1.00  0.00    -0.354 N 
ATOM     52  C   UNL A   1      46.357  28.486  26.895  1.00  0.00     0.074 A 
ATOM     53  C   UNL A   1      46.120  28.197  25.507  1.00  0.00     0.031 C 
ATOM     54  C   UNL A   1      40.601  25.918  28.433  1.00  0.00     0.029 A 
ATOM     55  C   UNL A   1      41.098  27.216  28.857  1.00  0.00     0.049 A 
ATOM     56  H   UNL A   1      43.096  27.843  28.850  1.00  0.00     0.167 HD
ATOM     57  C   UNL A   1      46.803  29.621  27.493  1.00  0.00     0.037 A 
ATOM     58  C   UNL A   1      40.419  28.283  29.340  1.00  0.00     0.037 A 
ATOM     59  C   UNL A   1      46.975  29.445  28.913  1.00  0.00     0.049 A 
ATOM     60  C   UNL A   1      41.406  29.236  29.904  1.00  0.00     0.074 A 
ATOM     61  C   UNL A   1      47.683  28.568  29.712  1.00  0.00     0.029 A 
ATOM     62  N   UNL A   1      46.092  30.079  29.751  1.00  0.00    -0.354 N 
ATOM     63  N   UNL A   1      42.078  29.046  31.004  1.00  0.00    -0.248 NA
ATOM     64  C   UNL A   1      41.926  30.281  29.033  1.00  0.00     0.031 C 
ATOM     65  C   UNL A   1      46.894  28.402  30.887  1.00  0.00     0.029 A 
ATOM     66  C   UNL A   1      45.760  29.202  30.749  1.00  0.00     0.049 A 
ATOM     67  H   UNL A   1      45.757  31.000  29.652  1.00  0.00     0.167 HD
ATOM     68  C   UNL A   1      43.315  29.625  30.765  1.00  0.00     0.074 A 
ATOM     69  C   UNL A   1      43.114  30.485  29.607  1.00  0.00     0.031 C 
ATOM     70  C   UNL A   1      44.447  29.128  31.345  1.00  0.00     0.037 A 
BRANCH  57  71
ATOM     71  C   UNL A   1      46.657  30.986  26.858  1.00  0.00     0.057 A 
ATOM     72  C   UNL A   1      47.763  31.852  26.852  1.00  0.00     0.134 A 
ATOM     73  C   UNL A   1      45.419  31.592  26.554  1.00  0.00     0.134 A 
ATOM     74  F   UNL A   1      48.993  31.397  27.138  1.00  0.00    -0.206 F 
ATOM     75  C   UNL A   1      47.631  33.232  26.662  1.00  0.00     0.040 A 
ATOM     76  C   UNL A   1      45.286  32.960  26.304  1.00  0.00     0.040 A 
ATOM     77  F   UNL A   1      44.258  30.927  26.582  1.00  0.00    -0.206 F 
ATOM     78  C   UNL A   1      46.388  33.792  26.398  1.00  0.00     0.006 A 
ENDBRANCH  57  71
BRANCH  58  79
ATOM     79  C   UNL A   1      38.997  28.647  29.141  1.00  0.00     0.057 A 
ATOM     80  C   UNL A   1      38.096  28.650  30.214  1.00  0.00     0.134 A 
ATOM     81  C   UNL A   1      38.533  29.232  27.948  1.00  0.00     0.134 A 
ATOM     82  F   UNL A   1      38.456  28.158  31.408  1.00  0.00    -0.206 F 
ATOM     83  C   UNL A   1      36.818  29.212  30.114  1.00  0.00     0.040 A 
ATOM     84  C   UNL A   1      37.252  29.780  27.829  1.00  0.00     0.040 A 
ATOM     85  F   UNL A   1      39.331  29.372  26.882  1.00  0.00    -0.206 F 
ATOM     86  C   UNL A   1      36.393  29.784  28.919  1.00  0.00     0.006 A 
ENDBRANCH  58  79
BRANCH  70  87
ATOM     87  C   UNL A   1      44.283  28.213  32.523  1.00  0.00     0.057 A 
ATOM     88  C   UNL A   1      44.075  26.831  32.422  1.00  0.00     0.134 A 
ATOM     89  C   UNL A   1      44.457  28.739  33.809  1.00  0.00     0.134 A 
ATOM     90  F   UNL A   1      44.005  26.223  31.230  1.00  0.00    -0.206 F 
ATOM     91  C   UNL A   1      43.984  26.019  33.558  1.00  0.00     0.040 A 
ATOM     92  C   UNL A   1      44.402  27.934  34.947  1.00  0.00     0.040 A 
ATOM     93  F   UNL A   1      44.718  30.046  33.976  1.00  0.00    -0.206 F 
ATOM     94  C   UNL A   1      44.152  26.571  34.825  1.00  0.00     0.006 A 
ENDBRANCH  70  87
ENDBRANCH  44  45
ENDBRANCH  37  39
ENDBRANCH  36  37
ENDBRANCH  35  36
ENDBRANCH  34  35
ENDBRANCH  33  34
ENDBRANCH  32  33
ENDBRANCH   1  32
TORSDOF 21
ENDMDL
MODEL 3
REMARK VINA RESULT:     -10.9      1.342      2.069
REMARK SMILES Cc1c(C(=O)OCCOCCOCCOC(=O)c2ccc(-c3c4nc(c(-c5c(F)cccc5F)c5ccc([nH]5)c(-c5c(F)cccc5F)c5nc(c(-c6c(F)cccc6F)c6ccc3[nH]6)C=C5)C=C4)cc2)sc2c1=C(CSc1nncn1-c1ccccc1)CC(=O)N=2
REMARK SMILES IDX 10 1 9 2 8 3 7 4 6 5 4 6 5 7 3 8 1 9 2 10 74 11 72 12 73 13
REMARK SMILES IDX 75 14 92 15 89 16 90 17 91 18 76 19 77 20 78 21 79 22 82 23
REMARK SMILES IDX 80 24 81 25 83 26 84 27 88 28 85 29 87 30 86 31 11 32 12 33
REMARK SMILES IDX 13 34 14 35 15 36 16 37 17 38 18 39 19 40 71 41 20 42 70 43
REMARK SMILES IDX 21 44 22 45 23 46 64 47 24 48 69 49 63 50 65 51 25 52 68 53
REMARK SMILES IDX 62 54 61 55 26 57 52 58 35 59 51 60 36 61 39 62 50 63 66 64
REMARK SMILES IDX 37 65 38 66 49 68 67 69 40 70 27 71 28 72 33 73 29 74 30 75
REMARK SMILES IDX 32 76 34 77 31 78 53 79 54 80 59 81 55 82 56 83 58 84 60 85
REMARK SMILES IDX 57 86 41 87 42 88 47 89 43 90 44 91 46 92 48 93 45 94
REMARK H PARENT 65 56 39 67
REMARK Flexibility Score: inf
ROOT
ATOM      1  C   UNL A   1      38.917  23.286  26.370  1.00  0.00     0.188 C 
ENDROOT
BRANCH   1   2
ATOM      2  O   UNL A   1      37.556  23.507  26.043  1.00  0.00    -0.376 OA
BRANCH   2   3
ATOM      3  C   UNL A   1      36.831  22.344  25.654  1.00  0.00     0.202 C 
BRANCH   3   4
ATOM      4  C   UNL A   1      35.492  22.630  24.965  1.00  0.00     0.261 C 
BRANCH   4   5
ATOM      5  O   UNL A   1      34.910  21.517  24.261  1.00  0.00    -0.459 OA
BRANCH   5   6
ATOM      6  C   UNL A   1      33.646  21.156  24.595  1.00  0.00     0.348 C 
ATOM      7  O   UNL A   1      33.295  20.018  24.810  1.00  0.00    -0.245 OA
BRANCH   6   8
ATOM      8  C   UNL A   1      32.747  22.352  24.680  1.00  0.00     0.118 A 
ATOM      9  C   UNL A   1      32.211  22.678  27.183  1.00  0.00     0.047 C 
ATOM     10  C   UNL A   1      32.278  23.047  25.737  1.00  0.00    -0.016 A 
ATOM     11  C   UNL A   1      31.515  24.212  25.344  1.00  0.00     0.016 A 
ATOM     12  S   UNL A   1      32.011  22.882  23.162  1.00  0.00    -0.108 S 
ATOM     13  C   UNL A   1      31.023  24.105  23.952  1.00  0.00     0.128 A 
ATOM     14  C   UNL A   1      31.476  25.487  25.771  1.00  0.00    -0.040 C 
ATOM     15  N   UNL A   1      30.139  24.804  23.344  1.00  0.00    -0.202 NA
ATOM     16  C   UNL A   1      30.267  26.302  25.344  1.00  0.00     0.135 C 
ATOM     17  C   UNL A   1      29.539  25.790  24.094  1.00  0.00     0.251 C 
ATOM     18  O   UNL A   1      28.468  26.298  23.773  1.00  0.00    -0.272 OA
BRANCH  14  19
ATOM     19  C   UNL A   1      32.457  26.278  26.614  1.00  0.00     0.110 C 
BRANCH  19  20
ATOM     20  S   UNL A   1      34.132  26.471  25.934  1.00  0.00    -0.081 SA
BRANCH  20  21
ATOM     21  C   UNL A   1      33.709  27.183  24.404  1.00  0.00     0.195 A 
ATOM     22  N   UNL A   1      33.655  26.497  23.283  1.00  0.00    -0.123 NA
ATOM     23  N   UNL A   1      33.063  28.397  24.251  1.00  0.00    -0.277 N 
ATOM     24  N   UNL A   1      32.926  27.227  22.380  1.00  0.00    -0.138 NA
ATOM     25  C   UNL A   1      32.549  28.333  22.978  1.00  0.00     0.231 A 
BRANCH  23  26
ATOM     26  C   UNL A   1      32.860  29.447  25.180  1.00  0.00     0.049 A 
ATOM     27  C   UNL A   1      33.840  29.756  26.131  1.00  0.00     0.027 A 
ATOM     28  C   UNL A   1      31.634  30.129  25.187  1.00  0.00     0.027 A 
ATOM     29  C   UNL A   1      33.579  30.719  27.107  1.00  0.00     0.002 A 
ATOM     30  C   UNL A   1      31.368  31.061  26.192  1.00  0.00     0.002 A 
ATOM     31  C   UNL A   1      32.337  31.353  27.152  1.00  0.00     0.000 A 
ENDBRANCH  23  26
ENDBRANCH  20  21
ENDBRANCH  19  20
ENDBRANCH  14  19
ENDBRANCH   6   8
ENDBRANCH   5   6
ENDBRANCH   4   5
ENDBRANCH   3   4
ENDBRANCH   2   3
ENDBRANCH   1   2
BRANCH   1  32
ATOM     32  C   UNL A   1      39.426  21.846  26.158  1.00  0.00     0.188 C 
BRANCH  32  33
ATOM     33  O   UNL A   1      40.029  21.077  27.195  1.00  0.00    -0.376 OA
BRANCH  33  34
ATOM     34  C   UNL A   1      41.435  21.068  27.401  1.00  0.00     0.202 C 
BRANCH  34  35
ATOM     35  C   UNL A   1      42.291  20.016  26.707  1.00  0.00     0.261 C 
BRANCH  35  36
ATOM     36  O   UNL A   1      42.666  20.373  25.389  1.00  0.00    -0.460 OA
BRANCH  36  37
ATOM     37  C   UNL A   1      43.990  20.586  25.244  1.00  0.00     0.338 C 
ATOM     38  O   UNL A   1      44.865  19.752  25.083  1.00  0.00    -0.246 OA
BRANCH  37  39
ATOM     39  C   UNL A   1      44.255  22.022  25.363  1.00  0.00     0.060 A 
ATOM     40  C   UNL A   1      45.257  22.408  26.256  1.00  0.00     0.016 A 
ATOM     41  C   UNL A   1      43.371  22.946  24.789  1.00  0.00     0.016 A 
ATOM     42  C   UNL A   1      45.240  23.695  26.744  1.00  0.00     0.010 A 
ATOM     43  C   UNL A   1      43.343  24.225  25.287  1.00  0.00     0.010 A 
ATOM     44  C   UNL A   1      44.221  24.550  26.322  1.00  0.00    -0.014 A 
BRANCH  44  45
ATOM     45  C   UNL A   1      44.039  25.788  27.048  1.00  0.00     0.031 A 
ATOM     46  C   UNL A   1      45.053  26.825  26.789  1.00  0.00     0.074 A 
ATOM     47  C   UNL A   1      42.939  25.986  27.799  1.00  0.00     0.049 A 
ATOM     48  N   UNL A   1      45.832  27.403  27.641  1.00  0.00    -0.248 NA
ATOM     49  C   UNL A   1      45.290  27.208  25.389  1.00  0.00     0.031 C 
ATOM     50  C   UNL A   1      41.747  25.131  27.861  1.00  0.00     0.029 A 
ATOM     51  N   UNL A   1      42.596  27.058  28.564  1.00  0.00    -0.354 N 
ATOM     52  C   UNL A   1      46.507  28.378  26.916  1.00  0.00     0.074 A 
ATOM     53  C   UNL A   1      46.266  28.104  25.525  1.00  0.00     0.031 C 
ATOM     54  C   UNL A   1      40.741  25.822  28.438  1.00  0.00     0.029 A 
ATOM     55  C   UNL A   1      41.245  27.114  28.875  1.00  0.00     0.049 A 
ATOM     56  H   UNL A   1      43.247  27.731  28.870  1.00  0.00     0.167 HD
ATOM     57  C   UNL A   1      46.960  29.504  27.524  1.00  0.00     0.037 A 
ATOM     58  C   UNL A   1      40.573  28.180  29.370  1.00  0.00     0.037 A 
ATOM     59  C   UNL A   1      47.133  29.313  28.942  1.00  0.00     0.049 A 
ATOM     60  C   UNL A   1      41.566  29.121  29.941  1.00  0.00     0.074 A 
ATOM     61  C   UNL A   1      47.839  28.424  29.731  1.00  0.00     0.029 A 
ATOM     62  N   UNL A   1      46.255  29.943  29.788  1.00  0.00    -0.354 N 
ATOM     63  N   UNL A   1      42.239  28.917  31.038  1.00  0.00    -0.248 NA
ATOM     64  C   UNL A   1      42.089  30.173  29.080  1.00  0.00     0.031 C 
ATOM     65  C   UNL A   1      47.051  28.250  30.905  1.00  0.00     0.029 A 
ATOM     66  C   UNL A   1      45.921  29.058  30.777  1.00  0.00     0.049 A 
ATOM     67  H   UNL A   1      45.925  30.866  29.699  1.00  0.00     0.167 HD
ATOM     68  C   UNL A   1      43.478  29.493  30.803  1.00  0.00     0.074 A 
ATOM     69  C   UNL A   1      43.279  30.365  29.653  1.00  0.00     0.031 C 
ATOM     70  C   UNL A   1      44.608  28.983  31.375  1.00  0.00     0.037 A 
BRANCH  57  71
ATOM     71  C   UNL A   1      46.819  30.876  26.903  1.00  0.00     0.057 A 
ATOM     72  C   UNL A   1      47.921  31.747  26.930  1.00  0.00     0.134 A 
ATOM     73  C   UNL A   1      45.584  31.480  26.582  1.00  0.00     0.134 A 
ATOM     74  F   UNL A   1      49.147  31.295  27.234  1.00  0.00    -0.206 F 
ATOM     75  C   UNL A   1      47.786  33.130  26.754  1.00  0.00     0.040 A 
ATOM     76  C   UNL A   1      45.449  32.851  26.347  1.00  0.00     0.040 A 
ATOM     77  F   UNL A   1      44.427  30.809  26.579  1.00  0.00    -0.206 F 
ATOM     78  C   UNL A   1      46.545  33.686  26.472  1.00  0.00     0.006 A 
ENDBRANCH  57  71
BRANCH  58  79
ATOM     79  C   UNL A   1      39.152  28.552  29.177  1.00  0.00     0.057 A 
ATOM     80  C   UNL A   1      38.256  28.561  30.255  1.00  0.00     0.134 A 
ATOM     81  C   UNL A   1      38.686  29.140  27.986  1.00  0.00     0.134 A 
ATOM     82  F   UNL A   1      38.619  28.068  31.447  1.00  0.00    -0.206 F 
ATOM     83  C   UNL A   1      36.981  29.132  30.160  1.00  0.00     0.040 A 
ATOM     84  C   UNL A   1      37.408  29.696  27.873  1.00  0.00     0.040 A 
ATOM     85  F   UNL A   1      39.481  29.275  26.916  1.00  0.00    -0.206 F 
ATOM     86  C   UNL A   1      36.554  29.706  28.967  1.00  0.00     0.006 A 
ENDBRANCH  58  79
BRANCH  70  87
ATOM     87  C   UNL A   1      44.442  28.058  32.544  1.00  0.00     0.057 A 
ATOM     88  C   UNL A   1      44.205  26.681  32.430  1.00  0.00     0.134 A 
ATOM     89  C   UNL A   1      44.643  28.565  33.834  1.00  0.00     0.134 A 
ATOM     90  F   UNL A   1      44.107  26.090  31.231  1.00  0.00    -0.206 F 
ATOM     91  C   UNL A   1      44.114  25.857  33.556  1.00  0.00     0.040 A 
ATOM     92  C   UNL A   1      44.588  27.747  34.963  1.00  0.00     0.040 A 
ATOM     93  F   UNL A   1      44.933  29.864  34.013  1.00  0.00    -0.206 F 
ATOM     94  C   UNL A   1      44.309  26.390  34.828  1.00  0.00     0.006 A 
ENDBRANCH  70  87
ENDBRANCH  44  45
ENDBRANCH  37  39
ENDBRANCH  36  37
ENDBRANCH  35  36
ENDBRANCH  34  35
ENDBRANCH  33  34
ENDBRANCH  32  33
ENDBRANCH   1  32
TORSDOF 21
ENDMDL
