MODEL 1
REMARK VINA RESULT:     -12.4      0.000      0.000
REMARK SMILES Cc1c(NC(=O)c2ccc(Br)cc2N)cccc1C(=O)OCCOCCOCCOC(=O)c1ccc(-c2c3nc(c(-c4c(F)cccc4F)c4ccc([nH]4)c(-c4c(F)cccc4F)c4nc(c(-c5c(F)cccc5F)c5ccc2[nH]5)C=C4)C=C3)cc1
REMARK SMILES IDX 25 1 24 2 23 3 22 4 21 5 19 6 20 7 18 8 1 9 2 10 3 11 15 12
REMARK SMILES IDX 17 13 16 14 4 15 5 16 6 18 7 19 8 20 13 21 9 22 12 23 10 24
REMARK SMILES IDX 11 25 14 26 26 29 27 30 28 31 29 32 30 33 31 34 32 35 33 36
REMARK SMILES IDX 34 37 86 38 35 39 85 40 36 41 37 42 38 43 79 44 39 45 84 46
REMARK SMILES IDX 78 47 80 48 40 49 83 50 77 51 76 52 41 54 67 55 50 56 66 57
REMARK SMILES IDX 51 58 54 59 65 60 81 61 52 62 53 63 64 65 82 66 55 67 42 68
REMARK SMILES IDX 43 69 48 70 44 71 45 72 47 73 49 74 46 75 68 76 69 77 74 78
REMARK SMILES IDX 70 79 71 80 73 81 75 82 72 83 56 84 57 85 62 86 58 87 59 88
REMARK SMILES IDX 61 89 63 90 60 91
REMARK H PARENT 4 17 14 27 14 28 80 53 54 64
REMARK Flexibility Score: inf
ROOT
ATOM      1  C   UNL A   1      33.856  33.967  28.119  1.00  0.00     0.188 C 
ENDROOT
BRANCH   1   2
ATOM      2  O   UNL A   1      34.197  32.750  28.814  1.00  0.00    -0.376 OA
BRANCH   2   3
ATOM      3  C   UNL A   1      34.676  31.523  28.237  1.00  0.00     0.202 C 
BRANCH   3   4
ATOM      4  C   UNL A   1      33.857  30.366  27.256  1.00  0.00     0.261 C 
BRANCH   4   5
ATOM      5  O   UNL A   1      32.848  30.505  25.842  1.00  0.00    -0.460 OA
BRANCH   5   6
ATOM      6  C   UNL A   1      31.793  29.774  25.168  1.00  0.00     0.338 C 
ATOM      7  O   UNL A   1      30.680  30.171  24.805  1.00  0.00    -0.246 OA
BRANCH   6   8
ATOM      8  C   UNL A   1      31.741  28.363  24.792  1.00  0.00     0.065 A 
ATOM      9  C   UNL A   1      31.769  27.723  27.207  1.00  0.00     0.047 C 
ATOM     10  C   UNL A   1      31.419  27.453  25.778  1.00  0.00    -0.013 A 
ATOM     11  C   UNL A   1      30.726  26.297  25.373  1.00  0.00     0.045 A 
ATOM     12  C   UNL A   1      30.307  26.079  24.045  1.00  0.00     0.026 A 
ATOM     13  C   UNL A   1      31.365  28.102  23.424  1.00  0.00     0.016 A 
ATOM     14  C   UNL A   1      30.637  26.981  23.055  1.00  0.00     0.003 A 
BRANCH  11  15
ATOM     15  N   UNL A   1      30.517  25.317  26.340  1.00  0.00    -0.322 N 
ATOM     16  C   UNL A   1      31.225  24.152  26.514  1.00  0.00     0.257 C 
ATOM     17  H   UNL A   1      29.779  25.477  26.971  1.00  0.00     0.170 HD
ATOM     18  O   UNL A   1      30.855  23.353  27.372  1.00  0.00    -0.269 OA
BRANCH  16  19
ATOM     19  C   UNL A   1      32.439  23.852  25.704  1.00  0.00     0.063 A 
ATOM     20  C   UNL A   1      33.629  24.373  26.237  1.00  0.00     0.017 A 
ATOM     21  C   UNL A   1      32.466  23.093  24.508  1.00  0.00     0.045 A 
ATOM     22  C   UNL A   1      34.846  24.150  25.599  1.00  0.00     0.016 A 
ATOM     23  C   UNL A   1      33.705  22.876  23.887  1.00  0.00     0.042 A 
ATOM     24  C   UNL A   1      34.879  23.400  24.429  1.00  0.00     0.020 A 
ATOM     25  Br  UNL A   1      36.523  23.118  23.543  1.00  0.00    -0.051 Br
BRANCH  21  26
ATOM     26  N   UNL A   1      31.332  22.658  23.819  1.00  0.00    -0.398 N 
ATOM     27  H   UNL A   1      31.324  21.768  23.397  1.00  0.00     0.156 HD
ATOM     28  H   UNL A   1      30.541  23.240  23.756  1.00  0.00     0.156 HD
ENDBRANCH  21  26
ENDBRANCH  16  19
ENDBRANCH  11  15
ENDBRANCH   6   8
ENDBRANCH   5   6
ENDBRANCH   4   5
ENDBRANCH   3   4
ENDBRANCH   2   3
ENDBRANCH   1   2
BRANCH   1  29
ATOM     29  C   UNL A   1      33.247  35.198  28.786  1.00  0.00     0.188 C 
BRANCH  29  30
ATOM     30  O   UNL A   1      33.000  34.954  30.153  1.00  0.00    -0.376 OA
BRANCH  30  31
ATOM     31  C   UNL A   1      32.475  36.042  30.890  1.00  0.00     0.202 C 
BRANCH  31  32
ATOM     32  C   UNL A   1      33.083  36.200  32.302  1.00  0.00     0.261 C 
BRANCH  32  33
ATOM     33  O   UNL A   1      34.488  35.840  32.326  1.00  0.00    -0.460 OA
BRANCH  33  34
ATOM     34  C   UNL A   1      34.935  34.981  33.313  1.00  0.00     0.338 C 
ATOM     35  O   UNL A   1      35.081  35.275  34.475  1.00  0.00    -0.246 OA
BRANCH  34  36
ATOM     36  C   UNL A   1      35.465  33.717  32.676  1.00  0.00     0.060 A 
ATOM     37  C   UNL A   1      35.734  32.491  33.308  1.00  0.00     0.016 A 
ATOM     38  C   UNL A   1      36.138  33.929  31.534  1.00  0.00     0.016 A 
ATOM     39  C   UNL A   1      36.847  31.634  32.891  1.00  0.00     0.010 A 
ATOM     40  C   UNL A   1      37.376  33.312  31.496  1.00  0.00     0.010 A 
ATOM     41  C   UNL A   1      37.818  32.064  31.986  1.00  0.00    -0.014 A 
BRANCH  41  42
ATOM     42  C   UNL A   1      39.278  31.321  31.564  1.00  0.00     0.031 A 
ATOM     43  C   UNL A   1      39.679  29.894  30.636  1.00  0.00     0.074 A 
ATOM     44  C   UNL A   1      40.362  31.880  32.144  1.00  0.00     0.049 A 
ATOM     45  N   UNL A   1      40.706  29.107  30.884  1.00  0.00    -0.248 NA
ATOM     46  C   UNL A   1      38.893  29.148  29.534  1.00  0.00     0.031 C 
ATOM     47  C   UNL A   1      41.774  31.594  31.918  1.00  0.00     0.029 A 
ATOM     48  N   UNL A   1      40.373  32.804  33.196  1.00  0.00    -0.354 N 
ATOM     49  C   UNL A   1      40.659  28.039  29.972  1.00  0.00     0.074 A 
ATOM     50  C   UNL A   1      39.346  27.913  29.523  1.00  0.00     0.031 C 
ATOM     51  C   UNL A   1      42.466  32.030  32.985  1.00  0.00     0.029 A 
ATOM     52  C   UNL A   1      41.495  32.484  33.968  1.00  0.00     0.049 A 
ATOM     53  H   UNL A   1      39.726  33.529  33.359  1.00  0.00     0.167 HD
ATOM     54  C   UNL A   1      41.743  27.438  29.424  1.00  0.00     0.037 A 
ATOM     55  C   UNL A   1      41.324  32.007  35.229  1.00  0.00     0.037 A 
ATOM     56  C   UNL A   1      42.831  27.649  30.336  1.00  0.00     0.049 A 
ATOM     57  C   UNL A   1      41.910  30.618  35.353  1.00  0.00     0.074 A 
ATOM     58  C   UNL A   1      43.805  28.618  30.427  1.00  0.00     0.029 A 
ATOM     59  N   UNL A   1      42.649  27.133  31.613  1.00  0.00    -0.354 N 
ATOM     60  N   UNL A   1      42.142  29.820  34.340  1.00  0.00    -0.248 NA
ATOM     61  C   UNL A   1      42.362  30.055  36.619  1.00  0.00     0.031 C 
ATOM     62  C   UNL A   1      44.048  28.819  31.823  1.00  0.00     0.029 A 
ATOM     63  C   UNL A   1      43.284  27.917  32.553  1.00  0.00     0.049 A 
ATOM     64  H   UNL A   1      42.136  26.318  31.818  1.00  0.00     0.167 HD
ATOM     65  C   UNL A   1      42.743  28.674  34.784  1.00  0.00     0.074 A 
ATOM     66  C   UNL A   1      42.874  28.882  36.215  1.00  0.00     0.031 C 
ATOM     67  C   UNL A   1      43.087  27.628  33.973  1.00  0.00     0.037 A 
BRANCH  54  68
ATOM     68  C   UNL A   1      41.768  26.762  28.043  1.00  0.00     0.057 A 
ATOM     69  C   UNL A   1      42.155  25.417  27.934  1.00  0.00     0.134 A 
ATOM     70  C   UNL A   1      41.549  27.376  26.772  1.00  0.00     0.134 A 
ATOM     71  F   UNL A   1      42.466  24.703  29.024  1.00  0.00    -0.206 F 
ATOM     72  C   UNL A   1      42.280  24.745  26.698  1.00  0.00     0.040 A 
ATOM     73  C   UNL A   1      41.600  26.698  25.542  1.00  0.00     0.040 A 
ATOM     74  F   UNL A   1      41.351  28.690  26.611  1.00  0.00    -0.206 F 
ATOM     75  C   UNL A   1      41.980  25.375  25.498  1.00  0.00     0.006 A 
ENDBRANCH  54  68
BRANCH  55  76
ATOM     76  C   UNL A   1      40.154  32.618  35.951  1.00  0.00     0.057 A 
ATOM     77  C   UNL A   1      38.984  31.829  36.094  1.00  0.00     0.134 A 
ATOM     78  C   UNL A   1      40.215  33.758  36.755  1.00  0.00     0.134 A 
ATOM     79  F   UNL A   1      38.820  30.728  35.342  1.00  0.00    -0.206 F 
ATOM     80  C   UNL A   1      38.016  32.069  37.077  1.00  0.00     0.040 A 
ATOM     81  C   UNL A   1      39.223  34.033  37.723  1.00  0.00     0.040 A 
ATOM     82  F   UNL A   1      41.291  34.556  36.733  1.00  0.00    -0.206 F 
ATOM     83  C   UNL A   1      38.147  33.164  37.915  1.00  0.00     0.006 A 
ENDBRANCH  55  76
BRANCH  67  84
ATOM     84  C   UNL A   1      43.262  26.209  34.481  1.00  0.00     0.057 A 
ATOM     85  C   UNL A   1      42.223  25.452  35.047  1.00  0.00     0.134 A 
ATOM     86  C   UNL A   1      44.453  25.485  34.242  1.00  0.00     0.134 A 
ATOM     87  F   UNL A   1      40.988  25.947  35.206  1.00  0.00    -0.206 F 
ATOM     88  C   UNL A   1      42.380  24.114  35.429  1.00  0.00     0.040 A 
ATOM     89  C   UNL A   1      44.590  24.125  34.534  1.00  0.00     0.040 A 
ATOM     90  F   UNL A   1      45.528  26.055  33.679  1.00  0.00    -0.206 F 
ATOM     91  C   UNL A   1      43.560  23.440  35.157  1.00  0.00     0.006 A 
ENDBRANCH  67  84
ENDBRANCH  41  42
ENDBRANCH  34  36
ENDBRANCH  33  34
ENDBRANCH  32  33
ENDBRANCH  31  32
ENDBRANCH  30  31
ENDBRANCH  29  30
ENDBRANCH   1  29
TORSDOF 20
ENDMDL
MODEL 2
REMARK VINA RESULT:     -12.1      1.350      2.058
REMARK SMILES Cc1c(NC(=O)c2ccc(Br)cc2N)cccc1C(=O)OCCOCCOCCOC(=O)c1ccc(-c2c3nc(c(-c4c(F)cccc4F)c4ccc([nH]4)c(-c4c(F)cccc4F)c4nc(c(-c5c(F)cccc5F)c5ccc2[nH]5)C=C4)C=C3)cc1
REMARK SMILES IDX 25 1 24 2 23 3 22 4 21 5 19 6 20 7 18 8 1 9 2 10 3 11 15 12
REMARK SMILES IDX 17 13 16 14 4 15 5 16 6 18 7 19 8 20 13 21 9 22 12 23 10 24
REMARK SMILES IDX 11 25 14 26 26 29 27 30 28 31 29 32 30 33 31 34 32 35 33 36
REMARK SMILES IDX 34 37 86 38 35 39 85 40 36 41 37 42 38 43 79 44 39 45 84 46
REMARK SMILES IDX 78 47 80 48 40 49 83 50 77 51 76 52 41 54 67 55 50 56 66 57
REMARK SMILES IDX 51 58 54 59 65 60 81 61 52 62 53 63 64 65 82 66 55 67 42 68
REMARK SMILES IDX 43 69 48 70 44 71 45 72 47 73 49 74 46 75 68 76 69 77 74 78
REMARK SMILES IDX 70 79 71 80 73 81 75 82 72 83 56 84 57 85 62 86 58 87 59 88
REMARK SMILES IDX 61 89 63 90 60 91
REMARK H PARENT 4 17 14 27 14 28 80 53 54 64
REMARK Flexibility Score: inf
ROOT
ATOM      1  C   UNL A   1      34.172  35.679  28.378  1.00  0.00     0.188 C 
ENDROOT
BRANCH   1   2
ATOM      2  O   UNL A   1      34.966  34.510  28.669  1.00  0.00    -0.376 OA
BRANCH   2   3
ATOM      3  C   UNL A   1      35.026  33.290  27.911  1.00  0.00     0.202 C 
BRANCH   3   4
ATOM      4  C   UNL A   1      34.028  31.885  27.993  1.00  0.00     0.261 C 
BRANCH   4   5
ATOM      5  O   UNL A   1      33.616  30.649  26.837  1.00  0.00    -0.460 OA
BRANCH   5   6
ATOM      6  C   UNL A   1      32.474  30.203  26.064  1.00  0.00     0.338 C 
ATOM      7  O   UNL A   1      31.420  30.799  25.816  1.00  0.00    -0.246 OA
BRANCH   6   8
ATOM      8  C   UNL A   1      32.240  28.910  25.424  1.00  0.00     0.065 A 
ATOM      9  C   UNL A   1      31.771  27.893  27.659  1.00  0.00     0.047 C 
ATOM     10  C   UNL A   1      31.613  27.933  26.171  1.00  0.00    -0.013 A 
ATOM     11  C   UNL A   1      30.804  27.019  25.471  1.00  0.00     0.045 A 
ATOM     12  C   UNL A   1      30.571  27.107  24.084  1.00  0.00     0.026 A 
ATOM     13  C   UNL A   1      32.048  28.954  23.995  1.00  0.00     0.016 A 
ATOM     14  C   UNL A   1      31.205  28.074  23.332  1.00  0.00     0.003 A 
BRANCH  11  15
ATOM     15  N   UNL A   1      30.278  25.957  26.201  1.00  0.00    -0.322 N 
ATOM     16  C   UNL A   1      30.699  24.649  26.192  1.00  0.00     0.257 C 
ATOM     17  H   UNL A   1      29.518  26.166  26.790  1.00  0.00     0.170 HD
ATOM     18  O   UNL A   1      30.067  23.815  26.839  1.00  0.00    -0.269 OA
BRANCH  16  19
ATOM     19  C   UNL A   1      31.913  24.228  25.437  1.00  0.00     0.063 A 
ATOM     20  C   UNL A   1      33.115  24.392  26.143  1.00  0.00     0.017 A 
ATOM     21  C   UNL A   1      31.923  23.680  24.131  1.00  0.00     0.045 A 
ATOM     22  C   UNL A   1      34.327  24.018  25.571  1.00  0.00     0.016 A 
ATOM     23  C   UNL A   1      33.156  23.304  23.578  1.00  0.00     0.042 A 
ATOM     24  C   UNL A   1      34.342  23.473  24.293  1.00  0.00     0.020 A 
ATOM     25  Br  UNL A   1      35.987  22.989  23.498  1.00  0.00    -0.051 Br
BRANCH  21  26
ATOM     26  N   UNL A   1      30.809  23.612  23.290  1.00  0.00    -0.398 N 
ATOM     27  H   UNL A   1      29.969  24.055  23.550  1.00  0.00     0.156 HD
ATOM     28  H   UNL A   1      30.865  23.122  22.438  1.00  0.00     0.156 HD
ENDBRANCH  21  26
ENDBRANCH  16  19
ENDBRANCH  11  15
ENDBRANCH   6   8
ENDBRANCH   5   6
ENDBRANCH   4   5
ENDBRANCH   3   4
ENDBRANCH   2   3
ENDBRANCH   1   2
BRANCH   1  29
ATOM     29  C   UNL A   1      32.904  36.070  29.134  1.00  0.00     0.188 C 
BRANCH  29  30
ATOM     30  O   UNL A   1      32.689  35.204  30.227  1.00  0.00    -0.376 OA
BRANCH  30  31
ATOM     31  C   UNL A   1      32.972  35.740  31.506  1.00  0.00     0.202 C 
BRANCH  31  32
ATOM     32  C   UNL A   1      34.010  34.931  32.315  1.00  0.00     0.261 C 
BRANCH  32  33
ATOM     33  O   UNL A   1      34.354  33.685  31.656  1.00  0.00    -0.460 OA
BRANCH  33  34
ATOM     34  C   UNL A   1      35.028  32.718  32.378  1.00  0.00     0.338 C 
ATOM     35  O   UNL A   1      35.154  32.709  33.578  1.00  0.00    -0.246 OA
BRANCH  34  36
ATOM     36  C   UNL A   1      35.802  31.833  31.428  1.00  0.00     0.060 A 
ATOM     37  C   UNL A   1      35.948  30.436  31.491  1.00  0.00     0.016 A 
ATOM     38  C   UNL A   1      36.770  32.477  30.757  1.00  0.00     0.016 A 
ATOM     39  C   UNL A   1      37.188  29.769  31.082  1.00  0.00     0.010 A 
ATOM     40  C   UNL A   1      37.999  31.845  30.812  1.00  0.00     0.010 A 
ATOM     41  C   UNL A   1      38.354  30.479  30.796  1.00  0.00    -0.014 A 
BRANCH  41  42
ATOM     42  C   UNL A   1      39.918  29.887  30.536  1.00  0.00     0.031 A 
ATOM     43  C   UNL A   1      40.552  28.493  29.691  1.00  0.00     0.074 A 
ATOM     44  C   UNL A   1      40.876  30.570  31.197  1.00  0.00     0.049 A 
ATOM     45  N   UNL A   1      41.628  27.826  30.058  1.00  0.00    -0.248 NA
ATOM     46  C   UNL A   1      39.959  27.646  28.544  1.00  0.00     0.031 C 
ATOM     47  C   UNL A   1      42.326  30.432  31.114  1.00  0.00     0.029 A 
ATOM     48  N   UNL A   1      40.689  31.511  32.218  1.00  0.00    -0.354 N 
ATOM     49  C   UNL A   1      41.780  26.740  29.178  1.00  0.00     0.074 A 
ATOM     50  C   UNL A   1      40.537  26.467  28.612  1.00  0.00     0.031 C 
ATOM     51  C   UNL A   1      42.863  30.961  32.228  1.00  0.00     0.029 A 
ATOM     52  C   UNL A   1      41.759  31.327  33.101  1.00  0.00     0.049 A 
ATOM     53  H   UNL A   1      39.957  32.165  32.298  1.00  0.00     0.167 HD
ATOM     54  C   UNL A   1      42.969  26.248  28.752  1.00  0.00     0.037 A 
ATOM     55  C   UNL A   1      41.518  30.860  34.355  1.00  0.00     0.037 A 
ATOM     56  C   UNL A   1      43.936  26.592  29.756  1.00  0.00     0.049 A 
ATOM     57  C   UNL A   1      42.231  29.543  34.574  1.00  0.00     0.074 A 
ATOM     58  C   UNL A   1      44.791  27.661  29.909  1.00  0.00     0.029 A 
ATOM     59  N   UNL A   1      43.687  26.085  31.025  1.00  0.00    -0.354 N 
ATOM     60  N   UNL A   1      42.642  28.755  33.612  1.00  0.00    -0.248 NA
ATOM     61  C   UNL A   1      42.615  29.057  35.893  1.00  0.00     0.031 C 
ATOM     62  C   UNL A   1      44.875  27.914  31.315  1.00  0.00     0.029 A 
ATOM     63  C   UNL A   1      44.143  26.950  31.997  1.00  0.00     0.049 A 
ATOM     64  H   UNL A   1      43.245  25.223  31.205  1.00  0.00     0.167 HD
ATOM     65  C   UNL A   1      43.313  27.689  34.144  1.00  0.00     0.074 A 
ATOM     66  C   UNL A   1      43.283  27.938  35.574  1.00  0.00     0.031 C 
ATOM     67  C   UNL A   1      43.841  26.670  33.400  1.00  0.00     0.037 A 
BRANCH  54  68
ATOM     68  C   UNL A   1      43.198  25.552  27.400  1.00  0.00     0.057 A 
ATOM     69  C   UNL A   1      43.001  24.166  27.290  1.00  0.00     0.134 A 
ATOM     70  C   UNL A   1      43.720  26.130  26.204  1.00  0.00     0.134 A 
ATOM     71  F   UNL A   1      42.578  23.449  28.340  1.00  0.00    -0.206 F 
ATOM     72  C   UNL A   1      43.262  23.439  26.108  1.00  0.00     0.040 A 
ATOM     73  C   UNL A   1      43.915  25.430  25.001  1.00  0.00     0.040 A 
ATOM     74  F   UNL A   1      44.157  27.393  26.124  1.00  0.00    -0.206 F 
ATOM     75  C   UNL A   1      43.698  24.070  24.951  1.00  0.00     0.006 A 
ENDBRANCH  54  68
BRANCH  55  76
ATOM     76  C   UNL A   1      40.226  31.356  34.944  1.00  0.00     0.057 A 
ATOM     77  C   UNL A   1      40.237  32.620  35.585  1.00  0.00     0.134 A 
ATOM     78  C   UNL A   1      38.961  30.839  34.653  1.00  0.00     0.134 A 
ATOM     79  F   UNL A   1      41.405  33.187  35.933  1.00  0.00    -0.206 F 
ATOM     80  C   UNL A   1      39.082  33.388  35.782  1.00  0.00     0.040 A 
ATOM     81  C   UNL A   1      37.786  31.587  34.884  1.00  0.00     0.040 A 
ATOM     82  F   UNL A   1      38.830  29.669  34.011  1.00  0.00    -0.206 F 
ATOM     83  C   UNL A   1      37.849  32.881  35.407  1.00  0.00     0.006 A 
ENDBRANCH  55  76
BRANCH  67  84
ATOM     84  C   UNL A   1      44.113  25.288  33.964  1.00  0.00     0.057 A 
ATOM     85  C   UNL A   1      45.388  24.697  33.993  1.00  0.00     0.134 A 
ATOM     86  C   UNL A   1      43.119  24.576  34.675  1.00  0.00     0.134 A 
ATOM     87  F   UNL A   1      46.467  25.312  33.493  1.00  0.00    -0.206 F 
ATOM     88  C   UNL A   1      45.636  23.459  34.597  1.00  0.00     0.040 A 
ATOM     89  C   UNL A   1      43.378  23.385  35.360  1.00  0.00     0.040 A 
ATOM     90  F   UNL A   1      41.859  25.021  34.769  1.00  0.00    -0.206 F 
ATOM     91  C   UNL A   1      44.635  22.806  35.300  1.00  0.00     0.006 A 
ENDBRANCH  67  84
ENDBRANCH  41  42
ENDBRANCH  34  36
ENDBRANCH  33  34
ENDBRANCH  32  33
ENDBRANCH  31  32
ENDBRANCH  30  31
ENDBRANCH  29  30
ENDBRANCH   1  29
TORSDOF 20
ENDMDL
MODEL 3
REMARK VINA RESULT:     -12.1      4.997     10.638
REMARK SMILES Cc1c(NC(=O)c2ccc(Br)cc2N)cccc1C(=O)OCCOCCOCCOC(=O)c1ccc(-c2c3nc(c(-c4c(F)cccc4F)c4ccc([nH]4)c(-c4c(F)cccc4F)c4nc(c(-c5c(F)cccc5F)c5ccc2[nH]5)C=C4)C=C3)cc1
REMARK SMILES IDX 25 1 24 2 23 3 22 4 21 5 19 6 20 7 18 8 1 9 2 10 3 11 15 12
REMARK SMILES IDX 17 13 16 14 4 15 5 16 6 18 7 19 8 20 13 21 9 22 12 23 10 24
REMARK SMILES IDX 11 25 14 26 26 29 27 30 28 31 29 32 30 33 31 34 32 35 33 36
REMARK SMILES IDX 34 37 86 38 35 39 85 40 36 41 37 42 38 43 79 44 39 45 84 46
REMARK SMILES IDX 78 47 80 48 40 49 83 50 77 51 76 52 41 54 67 55 50 56 66 57
REMARK SMILES IDX 51 58 54 59 65 60 81 61 52 62 53 63 64 65 82 66 55 67 42 68
REMARK SMILES IDX 43 69 48 70 44 71 45 72 47 73 49 74 46 75 68 76 69 77 74 78
REMARK SMILES IDX 70 79 71 80 73 81 75 82 72 83 56 84 57 85 62 86 58 87 59 88
REMARK SMILES IDX 61 89 63 90 60 91
REMARK H PARENT 4 17 14 27 14 28 80 53 54 64
REMARK Flexibility Score: inf
ROOT
ATOM      1  C   UNL A   1      40.372  21.060  26.529  1.00  0.00     0.188 C 
ENDROOT
BRANCH   1   2
ATOM      2  O   UNL A   1      39.298  21.989  26.278  1.00  0.00    -0.376 OA
BRANCH   2   3
ATOM      3  C   UNL A   1      38.189  21.813  25.380  1.00  0.00     0.202 C 
BRANCH   3   4
ATOM      4  C   UNL A   1      36.588  21.252  25.693  1.00  0.00     0.261 C 
BRANCH   4   5
ATOM      5  O   UNL A   1      35.246  20.843  24.660  1.00  0.00    -0.460 OA
BRANCH   5   6
ATOM      6  C   UNL A   1      33.813  21.043  24.587  1.00  0.00     0.338 C 
ATOM      7  O   UNL A   1      32.921  20.215  24.370  1.00  0.00    -0.246 OA
BRANCH   6   8
ATOM      8  C   UNL A   1      33.046  22.282  24.693  1.00  0.00     0.065 A 
ATOM      9  C   UNL A   1      33.852  22.968  22.429  1.00  0.00     0.047 C 
ATOM     10  C   UNL A   1      32.847  23.009  23.536  1.00  0.00    -0.013 A 
ATOM     11  C   UNL A   1      31.651  23.744  23.447  1.00  0.00     0.045 A 
ATOM     12  C   UNL A   1      30.653  23.711  24.443  1.00  0.00     0.026 A 
ATOM     13  C   UNL A   1      32.050  22.306  25.736  1.00  0.00     0.016 A 
ATOM     14  C   UNL A   1      30.855  22.997  25.605  1.00  0.00     0.003 A 
BRANCH  11  15
ATOM     15  N   UNL A   1      31.506  24.580  22.343  1.00  0.00    -0.322 N 
ATOM     16  C   UNL A   1      31.626  25.948  22.311  1.00  0.00     0.257 C 
ATOM     17  H   UNL A   1      31.295  24.141  21.488  1.00  0.00     0.170 HD
ATOM     18  O   UNL A   1      31.385  26.543  21.261  1.00  0.00    -0.269 OA
BRANCH  16  19
ATOM     19  C   UNL A   1      32.061  26.719  23.509  1.00  0.00     0.063 A 
ATOM     20  C   UNL A   1      33.382  26.463  23.909  1.00  0.00     0.017 A 
ATOM     21  C   UNL A   1      31.272  27.661  24.215  1.00  0.00     0.045 A 
ATOM     22  C   UNL A   1      33.932  27.130  25.000  1.00  0.00     0.016 A 
ATOM     23  C   UNL A   1      31.850  28.326  25.307  1.00  0.00     0.042 A 
ATOM     24  C   UNL A   1      33.165  28.061  25.692  1.00  0.00     0.020 A 
ATOM     25  Br  UNL A   1      33.896  28.949  27.191  1.00  0.00    -0.051 Br
BRANCH  21  26
ATOM     26  N   UNL A   1      29.910  27.881  23.995  1.00  0.00    -0.398 N 
ATOM     27  H   UNL A   1      29.556  28.799  23.981  1.00  0.00     0.156 HD
ATOM     28  H   UNL A   1      29.306  27.117  23.852  1.00  0.00     0.156 HD
ENDBRANCH  21  26
ENDBRANCH  16  19
ENDBRANCH  11  15
ENDBRANCH   6   8
ENDBRANCH   5   6
ENDBRANCH   4   5
ENDBRANCH   3   4
ENDBRANCH   2   3
ENDBRANCH   1   2
BRANCH   1  29
ATOM     29  C   UNL A   1      40.402  19.620  26.023  1.00  0.00     0.188 C 
BRANCH  29  30
ATOM     30  O   UNL A   1      41.580  19.375  25.288  1.00  0.00    -0.376 OA
BRANCH  30  31
ATOM     31  C   UNL A   1      42.712  18.986  26.044  1.00  0.00     0.202 C 
BRANCH  31  32
ATOM     32  C   UNL A   1      44.056  19.148  25.299  1.00  0.00     0.261 C 
BRANCH  32  33
ATOM     33  O   UNL A   1      44.124  20.407  24.580  1.00  0.00    -0.460 OA
BRANCH  33  34
ATOM     34  C   UNL A   1      44.992  21.383  25.034  1.00  0.00     0.338 C 
ATOM     35  O   UNL A   1      46.105  21.181  25.456  1.00  0.00    -0.246 OA
BRANCH  34  36
ATOM     36  C   UNL A   1      44.245  22.690  25.176  1.00  0.00     0.060 A 
ATOM     37  C   UNL A   1      44.674  23.965  24.770  1.00  0.00     0.016 A 
ATOM     38  C   UNL A   1      43.324  22.683  26.151  1.00  0.00     0.016 A 
ATOM     39  C   UNL A   1      44.334  25.173  25.527  1.00  0.00     0.010 A 
ATOM     40  C   UNL A   1      43.419  23.761  27.013  1.00  0.00     0.010 A 
ATOM     41  C   UNL A   1      43.741  25.117  26.789  1.00  0.00    -0.014 A 
BRANCH  41  42
ATOM     42  C   UNL A   1      43.488  26.368  27.898  1.00  0.00     0.031 A 
ATOM     43  C   UNL A   1      42.124  27.403  28.255  1.00  0.00     0.074 A 
ATOM     44  C   UNL A   1      44.594  26.717  28.589  1.00  0.00     0.049 A 
ATOM     45  N   UNL A   1      42.223  28.657  28.648  1.00  0.00    -0.248 NA
ATOM     46  C   UNL A   1      40.611  27.202  28.021  1.00  0.00     0.031 C 
ATOM     47  C   UNL A   1      44.726  27.649  29.703  1.00  0.00     0.029 A 
ATOM     48  N   UNL A   1      45.914  26.336  28.316  1.00  0.00    -0.354 N 
ATOM     49  C   UNL A   1      40.921  29.173  28.769  1.00  0.00     0.074 A 
ATOM     50  C   UNL A   1      40.077  28.404  27.971  1.00  0.00     0.031 C 
ATOM     51  C   UNL A   1      46.014  28.027  29.783  1.00  0.00     0.029 A 
ATOM     52  C   UNL A   1      46.702  27.444  28.643  1.00  0.00     0.049 A 
ATOM     53  H   UNL A   1      46.223  25.468  27.966  1.00  0.00     0.167 HD
ATOM     54  C   UNL A   1      40.525  30.068  29.707  1.00  0.00     0.037 A 
ATOM     55  C   UNL A   1      47.361  28.110  27.657  1.00  0.00     0.037 A 
ATOM     56  C   UNL A   1      41.700  30.790  30.103  1.00  0.00     0.049 A 
ATOM     57  C   UNL A   1      46.891  29.546  27.584  1.00  0.00     0.074 A 
ATOM     58  C   UNL A   1      42.617  30.610  31.115  1.00  0.00     0.029 A 
ATOM     59  N   UNL A   1      42.346  31.485  29.088  1.00  0.00    -0.354 N 
ATOM     60  N   UNL A   1      45.750  29.977  28.063  1.00  0.00    -0.248 NA
ATOM     61  C   UNL A   1      47.709  30.624  27.045  1.00  0.00     0.031 C 
ATOM     62  C   UNL A   1      43.884  31.023  30.593  1.00  0.00     0.029 A 
ATOM     63  C   UNL A   1      43.706  31.524  29.308  1.00  0.00     0.049 A 
ATOM     64  H   UNL A   1      41.892  31.895  28.316  1.00  0.00     0.167 HD
ATOM     65  C   UNL A   1      45.665  31.333  27.904  1.00  0.00     0.074 A 
ATOM     66  C   UNL A   1      46.925  31.689  27.279  1.00  0.00     0.031 C 
ATOM     67  C   UNL A   1      44.581  32.079  28.276  1.00  0.00     0.037 A 
BRANCH  54  68
ATOM     68  C   UNL A   1      39.099  30.174  30.272  1.00  0.00     0.057 A 
ATOM     69  C   UNL A   1      38.659  29.245  31.228  1.00  0.00     0.134 A 
ATOM     70  C   UNL A   1      38.065  31.066  29.854  1.00  0.00     0.134 A 
ATOM     71  F   UNL A   1      39.480  28.290  31.683  1.00  0.00    -0.206 F 
ATOM     72  C   UNL A   1      37.342  29.225  31.739  1.00  0.00     0.040 A 
ATOM     73  C   UNL A   1      36.773  31.102  30.408  1.00  0.00     0.040 A 
ATOM     74  F   UNL A   1      38.192  31.915  28.828  1.00  0.00    -0.206 F 
ATOM     75  C   UNL A   1      36.400  30.167  31.349  1.00  0.00     0.006 A 
ENDBRANCH  54  68
BRANCH  55  76
ATOM     76  C   UNL A   1      47.867  27.214  26.560  1.00  0.00     0.057 A 
ATOM     77  C   UNL A   1      47.243  27.310  25.291  1.00  0.00     0.134 A 
ATOM     78  C   UNL A   1      49.084  26.528  26.583  1.00  0.00     0.134 A 
ATOM     79  F   UNL A   1      46.055  27.925  25.171  1.00  0.00    -0.206 F 
ATOM     80  C   UNL A   1      47.857  26.891  24.103  1.00  0.00     0.040 A 
ATOM     81  C   UNL A   1      49.694  26.065  25.397  1.00  0.00     0.040 A 
ATOM     82  F   UNL A   1      49.784  26.412  27.721  1.00  0.00    -0.206 F 
ATOM     83  C   UNL A   1      49.102  26.286  24.151  1.00  0.00     0.006 A 
ENDBRANCH  55  76
BRANCH  67  84
ATOM     84  C   UNL A   1      44.257  33.430  27.666  1.00  0.00     0.057 A 
ATOM     85  C   UNL A   1      43.834  33.602  26.337  1.00  0.00     0.134 A 
ATOM     86  C   UNL A   1      44.181  34.596  28.462  1.00  0.00     0.134 A 
ATOM     87  F   UNL A   1      43.709  32.570  25.492  1.00  0.00    -0.206 F 
ATOM     88  C   UNL A   1      43.454  34.845  25.817  1.00  0.00     0.040 A 
ATOM     89  C   UNL A   1      43.714  35.821  27.977  1.00  0.00     0.040 A 
ATOM     90  F   UNL A   1      44.519  34.592  29.760  1.00  0.00    -0.206 F 
ATOM     91  C   UNL A   1      43.375  35.957  26.641  1.00  0.00     0.006 A 
ENDBRANCH  67  84
ENDBRANCH  41  42
ENDBRANCH  34  36
ENDBRANCH  33  34
ENDBRANCH  32  33
ENDBRANCH  31  32
ENDBRANCH  30  31
ENDBRANCH  29  30
ENDBRANCH   1  29
TORSDOF 20
ENDMDL
