MODEL 1
REMARK VINA RESULT:     -11.3      0.000      0.000
REMARK SMILES C=CC[NH+](CC(=O)OCCOCCOCCOC(=O)c1ccc(-c2c3nc(c(-c4c(F)cccc4F)c4ccc([nH]4)c(-c4c(F)cccc4F)c4nc(c(-c5c(F)cccc5F)c5ccc2[nH]5)C=C4)C=C3)cc1)Cc1cccc2ccccc12
REMARK SMILES IDX 12 1 11 2 10 3 9 4 8 5 6 6 7 7 5 8 4 9 3 11 2 12 1 13 74 14
REMARK SMILES IDX 75 15 76 16 84 17 77 18 79 19 83 20 78 21 80 22 82 23 81 24
REMARK SMILES IDX 13 25 14 26 15 27 16 28 17 29 18 30 19 31 20 32 21 33 73 34
REMARK SMILES IDX 22 35 72 36 23 37 24 38 25 39 66 40 26 41 71 42 65 43 67 44
REMARK SMILES IDX 27 45 70 46 64 47 63 48 28 50 54 51 37 52 53 53 38 54 41 55
REMARK SMILES IDX 52 56 68 57 39 58 40 59 51 61 69 62 42 63 29 64 30 65 35 66
REMARK SMILES IDX 31 67 32 68 34 69 36 70 33 71 55 72 56 73 61 74 57 75 58 76
REMARK SMILES IDX 60 77 62 78 59 79 43 80 44 81 49 82 45 83 46 84 48 85 50 86
REMARK SMILES IDX 47 87
REMARK H PARENT 4 10 67 49 41 60
REMARK Flexibility Score: inf
ROOT
ATOM      1  C   UNL A   1      33.839  33.053  28.063  1.00  0.00     0.188 C 
ENDROOT
BRANCH   1   2
ATOM      2  O   UNL A   1      34.031  31.579  28.421  1.00  0.00    -0.376 OA
BRANCH   2   3
ATOM      3  C   UNL A   1      34.433  30.714  27.340  1.00  0.00     0.202 C 
BRANCH   3   4
ATOM      4  C   UNL A   1      33.423  29.939  26.433  1.00  0.00     0.261 C 
BRANCH   4   5
ATOM      5  O   UNL A   1      32.186  29.438  27.025  1.00  0.00    -0.459 OA
BRANCH   5   6
ATOM      6  C   UNL A   1      32.042  28.077  27.124  1.00  0.00     0.361 C 
ATOM      7  O   UNL A   1      31.244  27.523  27.875  1.00  0.00    -0.245 OA
BRANCH   6   8
ATOM      8  C   UNL A   1      32.976  27.291  26.176  1.00  0.00     0.387 C 
BRANCH   8   9
ATOM      9  N   UNL A   1      32.321  26.675  25.018  1.00  0.00    -0.319 N 
ATOM     10  H   UNL A   1      31.647  27.286  24.556  1.00  0.00     0.349 HD
BRANCH   9  11
ATOM     11  C   UNL A   1      32.364  27.313  23.716  1.00  0.00     0.291 C 
BRANCH  11  12
ATOM     12  C   UNL A   1      33.736  27.589  23.148  1.00  0.00     0.025 C 
ATOM     13  C   UNL A   1      34.195  28.784  22.746  1.00  0.00     0.010 C 
ENDBRANCH  11  12
ENDBRANCH   9  11
BRANCH   9  14
ATOM     14  C   UNL A   1      31.677  25.408  25.198  1.00  0.00     0.300 C 
BRANCH  14  15
ATOM     15  C   UNL A   1      32.573  24.339  25.764  1.00  0.00     0.014 A 
ATOM     16  C   UNL A   1      31.924  23.599  27.259  1.00  0.00     0.010 A 
ATOM     17  C   UNL A   1      34.174  23.764  25.035  1.00  0.00    -0.010 A 
ATOM     18  C   UNL A   1      32.821  22.262  28.057  1.00  0.00     0.001 A 
ATOM     19  C   UNL A   1      35.091  22.479  25.884  1.00  0.00    -0.018 A 
ATOM     20  C   UNL A   1      34.690  23.980  23.747  1.00  0.00     0.009 A 
ATOM     21  C   UNL A   1      34.394  21.745  27.398  1.00  0.00     0.009 A 
ATOM     22  C   UNL A   1      36.296  22.069  25.314  1.00  0.00     0.009 A 
ATOM     23  C   UNL A   1      35.824  23.311  23.246  1.00  0.00     0.001 A 
ATOM     24  C   UNL A   1      36.631  22.456  24.016  1.00  0.00     0.001 A 
ENDBRANCH  14  15
ENDBRANCH   9  14
ENDBRANCH   8   9
ENDBRANCH   6   8
ENDBRANCH   5   6
ENDBRANCH   4   5
ENDBRANCH   3   4
ENDBRANCH   2   3
ENDBRANCH   1   2
BRANCH   1  25
ATOM     25  C   UNL A   1      33.294  34.816  29.228  1.00  0.00     0.188 C 
BRANCH  25  26
ATOM     26  O   UNL A   1      32.765  35.034  30.660  1.00  0.00    -0.376 OA
BRANCH  26  27
ATOM     27  C   UNL A   1      33.588  35.587  31.691  1.00  0.00     0.202 C 
BRANCH  27  28
ATOM     28  C   UNL A   1      34.858  34.897  32.242  1.00  0.00     0.261 C 
BRANCH  28  29
ATOM     29  O   UNL A   1      35.305  33.691  31.593  1.00  0.00    -0.460 OA
BRANCH  29  30
ATOM     30  C   UNL A   1      35.821  32.736  32.416  1.00  0.00     0.338 C 
ATOM     31  O   UNL A   1      35.476  32.504  33.564  1.00  0.00    -0.246 OA
BRANCH  30  32
ATOM     32  C   UNL A   1      36.802  31.876  31.700  1.00  0.00     0.060 A 
ATOM     33  C   UNL A   1      37.608  31.021  32.469  1.00  0.00     0.016 A 
ATOM     34  C   UNL A   1      36.944  31.887  30.309  1.00  0.00     0.016 A 
ATOM     35  C   UNL A   1      38.530  30.163  31.859  1.00  0.00     0.010 A 
ATOM     36  C   UNL A   1      37.905  31.064  29.699  1.00  0.00     0.010 A 
ATOM     37  C   UNL A   1      38.718  30.213  30.473  1.00  0.00    -0.014 A 
BRANCH  37  38
ATOM     38  C   UNL A   1      39.967  29.647  29.894  1.00  0.00     0.031 A 
ATOM     39  C   UNL A   1      41.138  30.588  29.768  1.00  0.00     0.074 A 
ATOM     40  C   UNL A   1      40.098  28.359  29.525  1.00  0.00     0.049 A 
ATOM     41  N   UNL A   1      42.305  30.408  29.208  1.00  0.00    -0.248 NA
ATOM     42  C   UNL A   1      40.957  31.923  30.367  1.00  0.00     0.031 C 
ATOM     43  C   UNL A   1      39.084  27.319  29.687  1.00  0.00     0.029 A 
ATOM     44  N   UNL A   1      41.153  27.706  28.928  1.00  0.00    -0.354 N 
ATOM     45  C   UNL A   1      42.986  31.609  29.373  1.00  0.00     0.074 A 
ATOM     46  C   UNL A   1      42.103  32.513  30.073  1.00  0.00     0.031 C 
ATOM     47  C   UNL A   1      39.558  26.165  29.182  1.00  0.00     0.029 A 
ATOM     48  C   UNL A   1      40.888  26.393  28.617  1.00  0.00     0.049 A 
ATOM     49  H   UNL A   1      42.016  28.140  28.742  1.00  0.00     0.167 HD
ATOM     50  C   UNL A   1      44.236  31.936  28.972  1.00  0.00     0.037 A 
ATOM     51  C   UNL A   1      41.624  25.497  27.922  1.00  0.00     0.037 A 
ATOM     52  C   UNL A   1      45.104  31.039  28.260  1.00  0.00     0.049 A 
ATOM     53  C   UNL A   1      42.972  25.917  27.382  1.00  0.00     0.074 A 
ATOM     54  C   UNL A   1      46.380  31.273  27.784  1.00  0.00     0.029 A 
ATOM     55  N   UNL A   1      44.775  29.737  27.915  1.00  0.00    -0.354 N 
ATOM     56  N   UNL A   1      43.602  27.060  27.520  1.00  0.00    -0.248 NA
ATOM     57  C   UNL A   1      43.708  24.928  26.579  1.00  0.00     0.031 C 
ATOM     58  C   UNL A   1      46.797  30.133  27.092  1.00  0.00     0.029 A 
ATOM     59  C   UNL A   1      45.813  29.163  27.203  1.00  0.00     0.049 A 
ATOM     60  H   UNL A   1      43.928  29.288  28.144  1.00  0.00     0.167 HD
ATOM     61  C   UNL A   1      44.815  26.917  26.853  1.00  0.00     0.074 A 
ATOM     62  C   UNL A   1      44.839  25.571  26.321  1.00  0.00     0.031 C 
ATOM     63  C   UNL A   1      45.818  27.815  26.694  1.00  0.00     0.037 A 
BRANCH  50  64
ATOM     64  C   UNL A   1      44.698  33.340  29.233  1.00  0.00     0.057 A 
ATOM     65  C   UNL A   1      45.390  33.697  30.399  1.00  0.00     0.134 A 
ATOM     66  C   UNL A   1      44.434  34.356  28.305  1.00  0.00     0.134 A 
ATOM     67  F   UNL A   1      45.652  32.780  31.343  1.00  0.00    -0.206 F 
ATOM     68  C   UNL A   1      45.775  35.018  30.644  1.00  0.00     0.040 A 
ATOM     69  C   UNL A   1      44.843  35.671  28.523  1.00  0.00     0.040 A 
ATOM     70  F   UNL A   1      43.772  34.086  27.170  1.00  0.00    -0.206 F 
ATOM     71  C   UNL A   1      45.508  36.007  29.700  1.00  0.00     0.006 A 
ENDBRANCH  50  64
BRANCH  51  72
ATOM     72  C   UNL A   1      41.094  24.131  27.641  1.00  0.00     0.057 A 
ATOM     73  C   UNL A   1      41.597  22.997  28.293  1.00  0.00     0.134 A 
ATOM     74  C   UNL A   1      40.105  23.920  26.672  1.00  0.00     0.134 A 
ATOM     75  F   UNL A   1      42.572  23.119  29.206  1.00  0.00    -0.206 F 
ATOM     76  C   UNL A   1      41.150  21.709  27.982  1.00  0.00     0.040 A 
ATOM     77  C   UNL A   1      39.626  22.642  26.373  1.00  0.00     0.040 A 
ATOM     78  F   UNL A   1      39.588  24.955  25.995  1.00  0.00    -0.206 F 
ATOM     79  C   UNL A   1      40.155  21.530  27.023  1.00  0.00     0.006 A 
ENDBRANCH  51  72
BRANCH  63  80
ATOM     80  C   UNL A   1      47.049  27.364  25.958  1.00  0.00     0.057 A 
ATOM     81  C   UNL A   1      48.116  26.732  26.607  1.00  0.00     0.134 A 
ATOM     82  C   UNL A   1      47.130  27.504  24.565  1.00  0.00     0.134 A 
ATOM     83  F   UNL A   1      48.105  26.572  27.939  1.00  0.00    -0.206 F 
ATOM     84  C   UNL A   1      49.230  26.274  25.900  1.00  0.00     0.040 A 
ATOM     85  C   UNL A   1      48.223  27.021  23.844  1.00  0.00     0.040 A 
ATOM     86  F   UNL A   1      46.135  28.086  23.879  1.00  0.00    -0.206 F 
ATOM     87  C   UNL A   1      49.280  26.410  24.514  1.00  0.00     0.006 A 
ENDBRANCH  63  80
ENDBRANCH  37  38
ENDBRANCH  30  32
ENDBRANCH  29  30
ENDBRANCH  28  29
ENDBRANCH  27  28
ENDBRANCH  26  27
ENDBRANCH  25  26
ENDBRANCH   1  25
TORSDOF 22
ENDMDL
MODEL 2
REMARK VINA RESULT:     -11.0      4.855     10.123
REMARK SMILES C=CC[NH+](CC(=O)OCCOCCOCCOC(=O)c1ccc(-c2c3nc(c(-c4c(F)cccc4F)c4ccc([nH]4)c(-c4c(F)cccc4F)c4nc(c(-c5c(F)cccc5F)c5ccc2[nH]5)C=C4)C=C3)cc1)Cc1cccc2ccccc12
REMARK SMILES IDX 12 1 11 2 10 3 9 4 8 5 6 6 7 7 5 8 4 9 3 11 2 12 1 13 74 14
REMARK SMILES IDX 75 15 76 16 84 17 77 18 79 19 83 20 78 21 80 22 82 23 81 24
REMARK SMILES IDX 13 25 14 26 15 27 16 28 17 29 18 30 19 31 20 32 21 33 73 34
REMARK SMILES IDX 22 35 72 36 23 37 24 38 25 39 66 40 26 41 71 42 65 43 67 44
REMARK SMILES IDX 27 45 70 46 64 47 63 48 28 50 54 51 37 52 53 53 38 54 41 55
REMARK SMILES IDX 52 56 68 57 39 58 40 59 51 61 69 62 42 63 29 64 30 65 35 66
REMARK SMILES IDX 31 67 32 68 34 69 36 70 33 71 55 72 56 73 61 74 57 75 58 76
REMARK SMILES IDX 60 77 62 78 59 79 43 80 44 81 49 82 45 83 46 84 48 85 50 86
REMARK SMILES IDX 47 87
REMARK H PARENT 4 10 67 49 41 60
REMARK Flexibility Score: inf
ROOT
ATOM      1  C   UNL A   1      40.589  21.032  27.124  1.00  0.00     0.188 C 
ENDROOT
BRANCH   1   2
ATOM      2  O   UNL A   1      39.730  22.223  26.700  1.00  0.00    -0.376 OA
BRANCH   2   3
ATOM      3  C   UNL A   1      38.768  21.967  25.655  1.00  0.00     0.202 C 
BRANCH   3   4
ATOM      4  C   UNL A   1      37.303  22.510  25.680  1.00  0.00     0.261 C 
BRANCH   4   5
ATOM      5  O   UNL A   1      36.218  21.594  26.021  1.00  0.00    -0.459 OA
BRANCH   5   6
ATOM      6  C   UNL A   1      34.956  22.124  26.125  1.00  0.00     0.361 C 
ATOM      7  O   UNL A   1      34.174  21.862  27.034  1.00  0.00    -0.245 OA
BRANCH   6   8
ATOM      8  C   UNL A   1      34.610  23.111  24.987  1.00  0.00     0.387 C 
BRANCH   8   9
ATOM      9  N   UNL A   1      33.285  22.937  24.386  1.00  0.00    -0.319 N 
ATOM     10  H   UNL A   1      33.301  22.885  23.368  1.00  0.00     0.349 HD
BRANCH   9  11
ATOM     11  C   UNL A   1      33.015  21.825  23.494  1.00  0.00     0.291 C 
BRANCH  11  12
ATOM     12  C   UNL A   1      32.340  20.622  24.107  1.00  0.00     0.025 C 
ATOM     13  C   UNL A   1      32.632  19.338  23.845  1.00  0.00     0.010 C 
ENDBRANCH  11  12
ENDBRANCH   9  11
BRANCH   9  14
ATOM     14  C   UNL A   1      32.254  23.869  24.737  1.00  0.00     0.300 C 
BRANCH  14  15
ATOM     15  C   UNL A   1      32.572  25.298  24.383  1.00  0.00     0.014 A 
ATOM     16  C   UNL A   1      33.040  25.506  22.668  1.00  0.00     0.010 A 
ATOM     17  C   UNL A   1      32.479  26.748  25.528  1.00  0.00    -0.010 A 
ATOM     18  C   UNL A   1      33.403  27.149  22.035  1.00  0.00     0.001 A 
ATOM     19  C   UNL A   1      32.915  28.368  24.897  1.00  0.00    -0.018 A 
ATOM     20  C   UNL A   1      31.853  26.850  26.781  1.00  0.00     0.009 A 
ATOM     21  C   UNL A   1      33.377  28.543  23.144  1.00  0.00     0.009 A 
ATOM     22  C   UNL A   1      32.839  29.442  25.784  1.00  0.00     0.009 A 
ATOM     23  C   UNL A   1      31.674  28.072  27.458  1.00  0.00     0.001 A 
ATOM     24  C   UNL A   1      32.206  29.296  27.018  1.00  0.00     0.001 A 
ENDBRANCH  14  15
ENDBRANCH   9  14
ENDBRANCH   8   9
ENDBRANCH   6   8
ENDBRANCH   5   6
ENDBRANCH   4   5
ENDBRANCH   3   4
ENDBRANCH   2   3
ENDBRANCH   1   2
BRANCH   1  25
ATOM     25  C   UNL A   1      41.496  19.377  26.030  1.00  0.00     0.188 C 
BRANCH  25  26
ATOM     26  O   UNL A   1      42.777  19.223  25.185  1.00  0.00    -0.376 OA
BRANCH  26  27
ATOM     27  C   UNL A   1      43.950  19.998  25.448  1.00  0.00     0.202 C 
BRANCH  27  28
ATOM     28  C   UNL A   1      44.155  21.447  24.948  1.00  0.00     0.261 C 
BRANCH  28  29
ATOM     29  O   UNL A   1      43.455  22.503  25.636  1.00  0.00    -0.460 OA
BRANCH  29  30
ATOM     30  C   UNL A   1      44.140  23.673  25.771  1.00  0.00     0.338 C 
ATOM     31  O   UNL A   1      45.199  23.960  25.235  1.00  0.00    -0.246 OA
BRANCH  30  32
ATOM     32  C   UNL A   1      43.369  24.662  26.572  1.00  0.00     0.060 A 
ATOM     33  C   UNL A   1      43.750  26.011  26.489  1.00  0.00     0.016 A 
ATOM     34  C   UNL A   1      42.292  24.301  27.387  1.00  0.00     0.016 A 
ATOM     35  C   UNL A   1      43.050  26.999  27.191  1.00  0.00     0.010 A 
ATOM     36  C   UNL A   1      41.620  25.284  28.131  1.00  0.00     0.010 A 
ATOM     37  C   UNL A   1      42.009  26.636  28.055  1.00  0.00    -0.014 A 
BRANCH  37  38
ATOM     38  C   UNL A   1      41.574  27.597  29.105  1.00  0.00     0.031 A 
ATOM     39  C   UNL A   1      42.336  27.563  30.405  1.00  0.00     0.074 A 
ATOM     40  C   UNL A   1      40.584  28.492  28.929  1.00  0.00     0.049 A 
ATOM     41  N   UNL A   1      42.117  28.200  31.525  1.00  0.00    -0.248 NA
ATOM     42  C   UNL A   1      43.518  26.683  30.436  1.00  0.00     0.031 C 
ATOM     43  C   UNL A   1      39.837  28.703  27.692  1.00  0.00     0.029 A 
ATOM     44  N   UNL A   1      40.034  29.395  29.811  1.00  0.00    -0.354 N 
ATOM     45  C   UNL A   1      43.120  27.784  32.393  1.00  0.00     0.074 A 
ATOM     46  C   UNL A   1      43.941  26.834  31.678  1.00  0.00     0.031 C 
ATOM     47  C   UNL A   1      38.911  29.658  27.899  1.00  0.00     0.029 A 
ATOM     48  C   UNL A   1      38.966  30.093  29.295  1.00  0.00     0.049 A 
ATOM     49  H   UNL A   1      40.373  29.529  30.724  1.00  0.00     0.167 HD
ATOM     50  C   UNL A   1      43.337  28.153  33.676  1.00  0.00     0.037 A 
ATOM     51  C   UNL A   1      38.114  30.951  29.898  1.00  0.00     0.037 A 
ATOM     52  C   UNL A   1      42.507  29.085  34.388  1.00  0.00     0.049 A 
ATOM     53  C   UNL A   1      38.304  31.264  31.365  1.00  0.00     0.074 A 
ATOM     54  C   UNL A   1      42.620  29.513  35.697  1.00  0.00     0.029 A 
ATOM     55  N   UNL A   1      41.402  29.724  33.846  1.00  0.00    -0.354 N 
ATOM     56  N   UNL A   1      39.239  30.849  32.187  1.00  0.00    -0.248 NA
ATOM     57  C   UNL A   1      37.315  32.154  31.992  1.00  0.00     0.031 C 
ATOM     58  C   UNL A   1      41.542  30.361  35.968  1.00  0.00     0.029 A 
ATOM     59  C   UNL A   1      40.804  30.521  34.805  1.00  0.00     0.049 A 
ATOM     60  H   UNL A   1      41.091  29.626  32.917  1.00  0.00     0.167 HD
ATOM     61  C   UNL A   1      38.970  31.451  33.413  1.00  0.00     0.074 A 
ATOM     62  C   UNL A   1      37.792  32.270  33.224  1.00  0.00     0.031 C 
ATOM     63  C   UNL A   1      39.637  31.338  34.589  1.00  0.00     0.037 A 
BRANCH  50  64
ATOM     64  C   UNL A   1      44.472  27.490  34.401  1.00  0.00     0.057 A 
ATOM     65  C   UNL A   1      45.758  28.046  34.449  1.00  0.00     0.134 A 
ATOM     66  C   UNL A   1      44.276  26.265  35.052  1.00  0.00     0.134 A 
ATOM     67  F   UNL A   1      46.023  29.204  33.824  1.00  0.00    -0.206 F 
ATOM     68  C   UNL A   1      46.812  27.393  35.094  1.00  0.00     0.040 A 
ATOM     69  C   UNL A   1      45.312  25.621  35.727  1.00  0.00     0.040 A 
ATOM     70  F   UNL A   1      43.072  25.674  35.042  1.00  0.00    -0.206 F 
ATOM     71  C   UNL A   1      46.588  26.181  35.742  1.00  0.00     0.006 A 
ENDBRANCH  50  64
BRANCH  51  72
ATOM     72  C   UNL A   1      36.967  31.539  29.146  1.00  0.00     0.057 A 
ATOM     73  C   UNL A   1      36.981  32.869  28.703  1.00  0.00     0.134 A 
ATOM     74  C   UNL A   1      35.804  30.800  28.898  1.00  0.00     0.134 A 
ATOM     75  F   UNL A   1      38.047  33.648  28.938  1.00  0.00    -0.206 F 
ATOM     76  C   UNL A   1      35.881  33.442  28.059  1.00  0.00     0.040 A 
ATOM     77  C   UNL A   1      34.709  31.350  28.227  1.00  0.00     0.040 A 
ATOM     78  F   UNL A   1      35.711  29.526  29.307  1.00  0.00    -0.206 F 
ATOM     79  C   UNL A   1      34.742  32.679  27.813  1.00  0.00     0.006 A 
ENDBRANCH  51  72
BRANCH  63  80
ATOM     80  C   UNL A   1      39.142  32.152  35.752  1.00  0.00     0.057 A 
ATOM     81  C   UNL A   1      38.301  31.614  36.733  1.00  0.00     0.134 A 
ATOM     82  C   UNL A   1      39.577  33.474  35.926  1.00  0.00     0.134 A 
ATOM     83  F   UNL A   1      37.843  30.358  36.625  1.00  0.00    -0.206 F 
ATOM     84  C   UNL A   1      37.891  32.369  37.834  1.00  0.00     0.040 A 
ATOM     85  C   UNL A   1      39.201  34.226  37.039  1.00  0.00     0.040 A 
ATOM     86  F   UNL A   1      40.398  34.045  35.032  1.00  0.00    -0.206 F 
ATOM     87  C   UNL A   1      38.349  33.676  37.994  1.00  0.00     0.006 A 
ENDBRANCH  63  80
ENDBRANCH  37  38
ENDBRANCH  30  32
ENDBRANCH  29  30
ENDBRANCH  28  29
ENDBRANCH  27  28
ENDBRANCH  26  27
ENDBRANCH  25  26
ENDBRANCH   1  25
TORSDOF 22
ENDMDL
MODEL 3
REMARK VINA RESULT:     -11.0      4.783     10.043
REMARK SMILES C=CC[NH+](CC(=O)OCCOCCOCCOC(=O)c1ccc(-c2c3nc(c(-c4c(F)cccc4F)c4ccc([nH]4)c(-c4c(F)cccc4F)c4nc(c(-c5c(F)cccc5F)c5ccc2[nH]5)C=C4)C=C3)cc1)Cc1cccc2ccccc12
REMARK SMILES IDX 12 1 11 2 10 3 9 4 8 5 6 6 7 7 5 8 4 9 3 11 2 12 1 13 74 14
REMARK SMILES IDX 75 15 76 16 84 17 77 18 79 19 83 20 78 21 80 22 82 23 81 24
REMARK SMILES IDX 13 25 14 26 15 27 16 28 17 29 18 30 19 31 20 32 21 33 73 34
REMARK SMILES IDX 22 35 72 36 23 37 24 38 25 39 66 40 26 41 71 42 65 43 67 44
REMARK SMILES IDX 27 45 70 46 64 47 63 48 28 50 54 51 37 52 53 53 38 54 41 55
REMARK SMILES IDX 52 56 68 57 39 58 40 59 51 61 69 62 42 63 29 64 30 65 35 66
REMARK SMILES IDX 31 67 32 68 34 69 36 70 33 71 55 72 56 73 61 74 57 75 58 76
REMARK SMILES IDX 60 77 62 78 59 79 43 80 44 81 49 82 45 83 46 84 48 85 50 86
REMARK SMILES IDX 47 87
REMARK H PARENT 4 10 67 49 41 60
REMARK Flexibility Score: inf
ROOT
ATOM      1  C   UNL A   1      40.441  21.016  26.875  1.00  0.00     0.188 C 
ENDROOT
BRANCH   1   2
ATOM      2  O   UNL A   1      39.443  22.023  26.303  1.00  0.00    -0.376 OA
BRANCH   2   3
ATOM      3  C   UNL A   1      38.372  21.470  25.511  1.00  0.00     0.202 C 
BRANCH   3   4
ATOM      4  C   UNL A   1      37.049  22.240  25.192  1.00  0.00     0.261 C 
BRANCH   4   5
ATOM      5  O   UNL A   1      35.793  21.737  25.740  1.00  0.00    -0.459 OA
BRANCH   5   6
ATOM      6  C   UNL A   1      34.973  22.643  26.365  1.00  0.00     0.361 C 
ATOM      7  O   UNL A   1      34.545  22.509  27.509  1.00  0.00    -0.245 OA
BRANCH   6   8
ATOM      8  C   UNL A   1      34.645  23.877  25.493  1.00  0.00     0.387 C 
BRANCH   8   9
ATOM      9  N   UNL A   1      33.226  24.065  25.179  1.00  0.00    -0.319 N 
ATOM     10  H   UNL A   1      33.060  24.439  24.245  1.00  0.00     0.349 HD
BRANCH   9  11
ATOM     11  C   UNL A   1      32.638  23.446  24.005  1.00  0.00     0.291 C 
BRANCH  11  12
ATOM     12  C   UNL A   1      33.115  23.957  22.667  1.00  0.00     0.025 C 
ATOM     13  C   UNL A   1      32.467  24.833  21.883  1.00  0.00     0.010 C 
ENDBRANCH  11  12
ENDBRANCH   9  11
BRANCH   9  14
ATOM     14  C   UNL A   1      32.428  24.839  26.083  1.00  0.00     0.300 C 
BRANCH  14  15
ATOM     15  C   UNL A   1      32.397  26.311  25.768  1.00  0.00     0.014 A 
ATOM     16  C   UNL A   1      33.831  27.189  26.382  1.00  0.00     0.010 A 
ATOM     17  C   UNL A   1      31.074  27.192  24.822  1.00  0.00    -0.010 A 
ATOM     18  C   UNL A   1      34.007  28.948  26.059  1.00  0.00     0.001 A 
ATOM     19  C   UNL A   1      31.231  28.960  24.571  1.00  0.00    -0.018 A 
ATOM     20  C   UNL A   1      30.060  26.660  24.009  1.00  0.00     0.009 A 
ATOM     21  C   UNL A   1      32.709  29.818  25.203  1.00  0.00     0.009 A 
ATOM     22  C   UNL A   1      30.217  29.599  23.858  1.00  0.00     0.009 A 
ATOM     23  C   UNL A   1      29.244  27.448  23.174  1.00  0.00     0.001 A 
ATOM     24  C   UNL A   1      29.270  28.853  23.155  1.00  0.00     0.001 A 
ENDBRANCH  14  15
ENDBRANCH   9  14
ENDBRANCH   8   9
ENDBRANCH   6   8
ENDBRANCH   5   6
ENDBRANCH   4   5
ENDBRANCH   3   4
ENDBRANCH   2   3
ENDBRANCH   1   2
BRANCH   1  25
ATOM     25  C   UNL A   1      41.552  19.352  26.003  1.00  0.00     0.188 C 
BRANCH  25  26
ATOM     26  O   UNL A   1      42.812  19.249  25.119  1.00  0.00    -0.376 OA
BRANCH  26  27
ATOM     27  C   UNL A   1      43.960  20.071  25.347  1.00  0.00     0.202 C 
BRANCH  27  28
ATOM     28  C   UNL A   1      44.093  21.524  24.834  1.00  0.00     0.261 C 
BRANCH  28  29
ATOM     29  O   UNL A   1      43.371  22.556  25.536  1.00  0.00    -0.460 OA
BRANCH  29  30
ATOM     30  C   UNL A   1      43.890  23.811  25.434  1.00  0.00     0.338 C 
ATOM     31  O   UNL A   1      44.778  24.170  24.676  1.00  0.00    -0.246 OA
BRANCH  30  32
ATOM     32  C   UNL A   1      43.143  24.776  26.285  1.00  0.00     0.060 A 
ATOM     33  C   UNL A   1      43.471  26.137  26.175  1.00  0.00     0.016 A 
ATOM     34  C   UNL A   1      42.139  24.381  27.174  1.00  0.00     0.016 A 
ATOM     35  C   UNL A   1      42.788  27.103  26.922  1.00  0.00     0.010 A 
ATOM     36  C   UNL A   1      41.487  25.344  27.962  1.00  0.00     0.010 A 
ATOM     37  C   UNL A   1      41.823  26.708  27.857  1.00  0.00    -0.014 A 
BRANCH  37  38
ATOM     38  C   UNL A   1      41.430  27.657  28.934  1.00  0.00     0.031 A 
ATOM     39  C   UNL A   1      42.240  27.607  30.203  1.00  0.00     0.074 A 
ATOM     40  C   UNL A   1      40.436  28.555  28.806  1.00  0.00     0.049 A 
ATOM     41  N   UNL A   1      42.064  28.231  31.338  1.00  0.00    -0.248 NA
ATOM     42  C   UNL A   1      43.420  26.725  30.180  1.00  0.00     0.031 C 
ATOM     43  C   UNL A   1      39.642  28.782  27.600  1.00  0.00     0.029 A 
ATOM     44  N   UNL A   1      39.920  29.449  29.718  1.00  0.00    -0.354 N 
ATOM     45  C   UNL A   1      43.098  27.804  32.163  1.00  0.00     0.074 A 
ATOM     46  C   UNL A   1      43.890  26.861  31.408  1.00  0.00     0.031 C 
ATOM     47  C   UNL A   1      38.727  29.736  27.853  1.00  0.00     0.029 A 
ATOM     48  C   UNL A   1      38.835  30.154  29.250  1.00  0.00     0.049 A 
ATOM     49  H   UNL A   1      40.294  29.572  30.619  1.00  0.00     0.167 HD
ATOM     50  C   UNL A   1      43.364  28.158  33.442  1.00  0.00     0.037 A 
ATOM     51  C   UNL A   1      38.008  31.006  29.894  1.00  0.00     0.037 A 
ATOM     52  C   UNL A   1      42.563  29.083  34.195  1.00  0.00     0.049 A 
ATOM     53  C   UNL A   1      38.253  31.302  31.357  1.00  0.00     0.074 A 
ATOM     54  C   UNL A   1      42.726  29.495  35.504  1.00  0.00     0.029 A 
ATOM     55  N   UNL A   1      41.440  29.730  33.702  1.00  0.00    -0.354 N 
ATOM     56  N   UNL A   1      39.217  30.877  32.139  1.00  0.00    -0.248 NA
ATOM     57  C   UNL A   1      37.290  32.186  32.031  1.00  0.00     0.031 C 
ATOM     58  C   UNL A   1      41.660  30.342  35.824  1.00  0.00     0.029 A 
ATOM     59  C   UNL A   1      40.879  30.516  34.692  1.00  0.00     0.049 A 
ATOM     60  H   UNL A   1      41.094  29.643  32.784  1.00  0.00     0.167 HD
ATOM     61  C   UNL A   1      38.997  31.464  33.381  1.00  0.00     0.074 A 
ATOM     62  C   UNL A   1      37.813  32.287  33.246  1.00  0.00     0.031 C 
ATOM     63  C   UNL A   1      39.706  31.337  34.529  1.00  0.00     0.037 A 
BRANCH  50  64
ATOM     64  C   UNL A   1      44.524  27.485  34.116  1.00  0.00     0.057 A 
ATOM     65  C   UNL A   1      44.396  26.257  34.781  1.00  0.00     0.134 A 
ATOM     66  C   UNL A   1      45.791  28.084  34.108  1.00  0.00     0.134 A 
ATOM     67  F   UNL A   1      43.206  25.641  34.850  1.00  0.00    -0.206 F 
ATOM     68  C   UNL A   1      45.479  25.667  35.438  1.00  0.00     0.040 A 
ATOM     69  C   UNL A   1      46.886  27.487  34.732  1.00  0.00     0.040 A 
ATOM     70  F   UNL A   1      45.984  29.261  33.494  1.00  0.00    -0.206 F 
ATOM     71  C   UNL A   1      46.730  26.279  35.407  1.00  0.00     0.006 A 
ENDBRANCH  50  64
BRANCH  51  72
ATOM     72  C   UNL A   1      36.835  31.605  29.193  1.00  0.00     0.057 A 
ATOM     73  C   UNL A   1      35.681  30.858  28.918  1.00  0.00     0.134 A 
ATOM     74  C   UNL A   1      36.860  32.927  28.731  1.00  0.00     0.134 A 
ATOM     75  F   UNL A   1      35.601  29.574  29.298  1.00  0.00    -0.206 F 
ATOM     76  C   UNL A   1      34.609  31.396  28.201  1.00  0.00     0.040 A 
ATOM     77  C   UNL A   1      35.783  33.488  28.041  1.00  0.00     0.040 A 
ATOM     78  F   UNL A   1      37.937  33.697  28.942  1.00  0.00    -0.206 F 
ATOM     79  C   UNL A   1      34.655  32.719  27.766  1.00  0.00     0.006 A 
ENDBRANCH  51  72
BRANCH  63  80
ATOM     80  C   UNL A   1      39.257  32.138  35.720  1.00  0.00     0.057 A 
ATOM     81  C   UNL A   1      39.632  33.474  35.903  1.00  0.00     0.134 A 
ATOM     82  C   UNL A   1      38.378  31.578  36.657  1.00  0.00     0.134 A 
ATOM     83  F   UNL A   1      40.476  34.069  35.047  1.00  0.00    -0.206 F 
ATOM     84  C   UNL A   1      39.165  34.219  36.988  1.00  0.00     0.040 A 
ATOM     85  C   UNL A   1      37.879  32.322  37.728  1.00  0.00     0.040 A 
ATOM     86  F   UNL A   1      37.966  30.308  36.532  1.00  0.00    -0.206 F 
ATOM     87  C   UNL A   1      38.279  33.645  37.898  1.00  0.00     0.006 A 
ENDBRANCH  63  80
ENDBRANCH  37  38
ENDBRANCH  30  32
ENDBRANCH  29  30
ENDBRANCH  28  29
ENDBRANCH  27  28
ENDBRANCH  26  27
ENDBRANCH  25  26
ENDBRANCH   1  25
TORSDOF 22
ENDMDL
