MODEL 1
REMARK VINA RESULT:     -12.0      0.000      0.000
REMARK SMILES Cc1c(CC(=O)OCCOCCOCCOC(=O)c2ccc(-c3c4nc(c(-c5c(F)cccc5F)c5ccc([nH]5)c(-c5c(F)cccc5F)c5nc(c(-c6c(F)cccc6F)c6ccc3[nH]6)C=C5)C=C4)cc2)cccc1-c1ccn(C(F)F)c(=O)c1
REMARK SMILES IDX 11 1 10 2 9 3 8 4 7 5 5 6 6 7 4 8 3 9 1 10 2 11 76 12 73 13
REMARK SMILES IDX 75 14 74 15 77 16 78 17 86 18 79 19 84 20 80 21 85 22 81 23
REMARK SMILES IDX 82 24 83 25 12 26 13 27 14 28 15 29 16 30 17 31 18 32 19 33
REMARK SMILES IDX 20 34 72 35 21 36 71 37 22 38 23 39 24 40 65 41 25 42 70 43
REMARK SMILES IDX 64 44 66 45 26 46 69 47 63 48 62 49 27 51 53 52 36 53 52 54
REMARK SMILES IDX 37 55 40 56 51 57 67 58 38 59 39 60 50 62 68 63 41 64 28 65
REMARK SMILES IDX 29 66 34 67 30 68 31 69 33 70 35 71 32 72 54 73 55 74 60 75
REMARK SMILES IDX 56 76 57 77 59 78 61 79 58 80 42 81 43 82 48 83 44 84 45 85
REMARK SMILES IDX 47 86 49 87 46 88
REMARK H PARENT 66 50 40 61
REMARK Flexibility Score: inf
ROOT
ATOM      1  C   UNL A   1      36.550  21.802  25.697  1.00  0.00     0.188 C 
ENDROOT
BRANCH   1   2
ATOM      2  O   UNL A   1      35.778  23.026  25.764  1.00  0.00    -0.376 OA
BRANCH   2   3
ATOM      3  C   UNL A   1      35.721  24.037  24.746  1.00  0.00     0.202 C 
BRANCH   3   4
ATOM      4  C   UNL A   1      34.310  24.821  24.215  1.00  0.00     0.261 C 
BRANCH   4   5
ATOM      5  O   UNL A   1      33.372  24.562  22.836  1.00  0.00    -0.463 OA
BRANCH   5   6
ATOM      6  C   UNL A   1      32.857  25.252  21.696  1.00  0.00     0.310 C 
ATOM      7  O   UNL A   1      33.141  25.138  20.500  1.00  0.00    -0.252 OA
BRANCH   6   8
ATOM      8  C   UNL A   1      31.754  26.237  21.833  1.00  0.00     0.158 C 
BRANCH   8   9
ATOM      9  C   UNL A   1      31.336  26.484  23.214  1.00  0.00    -0.033 A 
ATOM     10  C   UNL A   1      32.816  28.568  23.303  1.00  0.00     0.045 C 
ATOM     11  C   UNL A   1      31.902  27.536  23.950  1.00  0.00    -0.039 A 
ATOM     12  C   UNL A   1      31.519  27.631  25.290  1.00  0.00    -0.015 A 
ATOM     13  C   UNL A   1      30.389  25.607  23.749  1.00  0.00     0.004 A 
ATOM     14  C   UNL A   1      30.605  26.718  25.846  1.00  0.00     0.009 A 
ATOM     15  C   UNL A   1      30.028  25.718  25.072  1.00  0.00     0.001 A 
BRANCH  12  16
ATOM     16  C   UNL A   1      32.069  28.711  26.106  1.00  0.00    -0.011 A 
ATOM     17  C   UNL A   1      31.512  30.044  26.064  1.00  0.00     0.027 A 
ATOM     18  C   UNL A   1      33.226  28.473  26.744  1.00  0.00     0.080 A 
ATOM     19  C   UNL A   1      32.172  31.056  26.631  1.00  0.00     0.095 A 
ATOM     20  C   UNL A   1      33.942  29.583  27.419  1.00  0.00     0.255 A 
ATOM     21  N   UNL A   1      33.366  30.839  27.293  1.00  0.00    -0.258 N 
ATOM     22  O   UNL A   1      34.987  29.328  28.008  1.00  0.00    -0.269 OA
BRANCH  21  23
ATOM     23  C   UNL A   1      34.061  31.935  27.906  1.00  0.00     0.451 C 
ATOM     24  F   UNL A   1      33.385  33.094  27.729  1.00  0.00    -0.185 F 
ATOM     25  F   UNL A   1      34.214  31.733  29.238  1.00  0.00    -0.185 F 
ENDBRANCH  21  23
ENDBRANCH  12  16
ENDBRANCH   8   9
ENDBRANCH   6   8
ENDBRANCH   5   6
ENDBRANCH   4   5
ENDBRANCH   3   4
ENDBRANCH   2   3
ENDBRANCH   1   2
BRANCH   1  26
ATOM     26  C   UNL A   1      37.982  21.700  25.152  1.00  0.00     0.188 C 
BRANCH  26  27
ATOM     27  O   UNL A   1      38.917  22.203  26.090  1.00  0.00    -0.376 OA
BRANCH  27  28
ATOM     28  C   UNL A   1      39.970  21.316  26.445  1.00  0.00     0.202 C 
BRANCH  28  29
ATOM     29  C   UNL A   1      41.371  21.829  26.041  1.00  0.00     0.261 C 
BRANCH  29  30
ATOM     30  O   UNL A   1      41.708  23.045  26.755  1.00  0.00    -0.460 OA
BRANCH  30  31
ATOM     31  C   UNL A   1      42.071  24.142  26.015  1.00  0.00     0.338 C 
ATOM     32  O   UNL A   1      43.092  24.229  25.345  1.00  0.00    -0.246 OA
BRANCH  31  33
ATOM     33  C   UNL A   1      41.172  25.303  26.337  1.00  0.00     0.060 A 
ATOM     34  C   UNL A   1      41.271  26.613  25.842  1.00  0.00     0.016 A 
ATOM     35  C   UNL A   1      40.441  25.168  27.464  1.00  0.00     0.016 A 
ATOM     36  C   UNL A   1      40.799  27.770  26.603  1.00  0.00     0.010 A 
ATOM     37  C   UNL A   1      40.300  26.314  28.240  1.00  0.00     0.010 A 
ATOM     38  C   UNL A   1      40.377  27.686  27.935  1.00  0.00    -0.014 A 
BRANCH  38  39
ATOM     39  C   UNL A   1      40.274  28.919  29.030  1.00  0.00     0.031 A 
ATOM     40  C   UNL A   1      39.177  30.175  29.375  1.00  0.00     0.074 A 
ATOM     41  C   UNL A   1      41.357  28.981  29.844  1.00  0.00     0.049 A 
ATOM     42  N   UNL A   1      39.504  31.269  30.050  1.00  0.00    -0.248 NA
ATOM     43  C   UNL A   1      37.739  30.402  28.963  1.00  0.00     0.031 C 
ATOM     44  C   UNL A   1      41.560  29.784  31.045  1.00  0.00     0.029 A 
ATOM     45  N   UNL A   1      42.621  28.420  29.610  1.00  0.00    -0.354 N 
ATOM     46  C   UNL A   1      38.366  32.058  30.241  1.00  0.00     0.074 A 
ATOM     47  C   UNL A   1      37.401  31.620  29.330  1.00  0.00     0.031 C 
ATOM     48  C   UNL A   1      42.877  29.971  31.212  1.00  0.00     0.029 A 
ATOM     49  C   UNL A   1      43.551  29.361  30.083  1.00  0.00     0.049 A 
ATOM     50  H   UNL A   1      42.817  27.546  29.199  1.00  0.00     0.167 HD
ATOM     51  C   UNL A   1      38.196  32.992  31.211  1.00  0.00     0.037 A 
ATOM     52  C   UNL A   1      44.416  29.955  29.215  1.00  0.00     0.037 A 
ATOM     53  C   UNL A   1      39.484  33.472  31.631  1.00  0.00     0.049 A 
ATOM     54  C   UNL A   1      44.244  31.460  29.136  1.00  0.00     0.074 A 
ATOM     55  C   UNL A   1      40.334  33.218  32.683  1.00  0.00     0.029 A 
ATOM     56  N   UNL A   1      40.234  34.109  30.659  1.00  0.00    -0.354 N 
ATOM     57  N   UNL A   1      43.453  32.161  29.903  1.00  0.00    -0.248 NA
ATOM     58  C   UNL A   1      44.890  32.284  28.112  1.00  0.00     0.031 C 
ATOM     59  C   UNL A   1      41.657  33.527  32.228  1.00  0.00     0.029 A 
ATOM     60  C   UNL A   1      41.581  34.027  30.937  1.00  0.00     0.049 A 
ATOM     61  H   UNL A   1      39.856  34.562  29.871  1.00  0.00     0.167 HD
ATOM     62  C   UNL A   1      43.376  33.438  29.418  1.00  0.00     0.074 A 
ATOM     63  C   UNL A   1      44.314  33.478  28.314  1.00  0.00     0.031 C 
ATOM     64  C   UNL A   1      42.514  34.382  29.885  1.00  0.00     0.037 A 
BRANCH  51  65
ATOM     65  C   UNL A   1      36.826  33.442  31.727  1.00  0.00     0.057 A 
ATOM     66  C   UNL A   1      36.401  33.097  33.020  1.00  0.00     0.134 A 
ATOM     67  C   UNL A   1      35.826  34.110  30.966  1.00  0.00     0.134 A 
ATOM     68  F   UNL A   1      37.199  32.406  33.845  1.00  0.00    -0.206 F 
ATOM     69  C   UNL A   1      35.122  33.419  33.518  1.00  0.00     0.040 A 
ATOM     70  C   UNL A   1      34.580  34.507  31.477  1.00  0.00     0.040 A 
ATOM     71  F   UNL A   1      35.956  34.359  29.656  1.00  0.00    -0.206 F 
ATOM     72  C   UNL A   1      34.215  34.146  32.758  1.00  0.00     0.006 A 
ENDBRANCH  51  65
BRANCH  52  73
ATOM     73  C   UNL A   1      44.884  29.039  28.128  1.00  0.00     0.057 A 
ATOM     74  C   UNL A   1      45.822  28.036  28.459  1.00  0.00     0.134 A 
ATOM     75  C   UNL A   1      44.264  28.915  26.881  1.00  0.00     0.134 A 
ATOM     76  F   UNL A   1      46.461  28.072  29.641  1.00  0.00    -0.206 F 
ATOM     77  C   UNL A   1      46.050  26.919  27.649  1.00  0.00     0.040 A 
ATOM     78  C   UNL A   1      44.509  27.813  26.042  1.00  0.00     0.040 A 
ATOM     79  F   UNL A   1      43.309  29.772  26.496  1.00  0.00    -0.206 F 
ATOM     80  C   UNL A   1      45.379  26.799  26.439  1.00  0.00     0.006 A 
ENDBRANCH  52  73
BRANCH  64  81
ATOM     81  C   UNL A   1      42.516  35.760  29.311  1.00  0.00     0.057 A 
ATOM     82  C   UNL A   1      41.728  36.055  28.193  1.00  0.00     0.134 A 
ATOM     83  C   UNL A   1      43.378  36.770  29.763  1.00  0.00     0.134 A 
ATOM     84  F   UNL A   1      40.871  35.146  27.703  1.00  0.00    -0.206 F 
ATOM     85  C   UNL A   1      41.807  37.288  27.542  1.00  0.00     0.040 A 
ATOM     86  C   UNL A   1      43.493  37.994  29.101  1.00  0.00     0.040 A 
ATOM     87  F   UNL A   1      44.137  36.598  30.857  1.00  0.00    -0.206 F 
ATOM     88  C   UNL A   1      42.707  38.253  27.983  1.00  0.00     0.006 A 
ENDBRANCH  64  81
ENDBRANCH  38  39
ENDBRANCH  31  33
ENDBRANCH  30  31
ENDBRANCH  29  30
ENDBRANCH  28  29
ENDBRANCH  27  28
ENDBRANCH  26  27
ENDBRANCH   1  26
TORSDOF 20
ENDMDL
MODEL 2
REMARK VINA RESULT:     -11.6      4.214      6.412
REMARK SMILES Cc1c(CC(=O)OCCOCCOCCOC(=O)c2ccc(-c3c4nc(c(-c5c(F)cccc5F)c5ccc([nH]5)c(-c5c(F)cccc5F)c5nc(c(-c6c(F)cccc6F)c6ccc3[nH]6)C=C5)C=C4)cc2)cccc1-c1ccn(C(F)F)c(=O)c1
REMARK SMILES IDX 11 1 10 2 9 3 8 4 7 5 5 6 6 7 4 8 3 9 1 10 2 11 76 12 73 13
REMARK SMILES IDX 75 14 74 15 77 16 78 17 86 18 79 19 84 20 80 21 85 22 81 23
REMARK SMILES IDX 82 24 83 25 12 26 13 27 14 28 15 29 16 30 17 31 18 32 19 33
REMARK SMILES IDX 20 34 72 35 21 36 71 37 22 38 23 39 24 40 65 41 25 42 70 43
REMARK SMILES IDX 64 44 66 45 26 46 69 47 63 48 62 49 27 51 53 52 36 53 52 54
REMARK SMILES IDX 37 55 40 56 51 57 67 58 38 59 39 60 50 62 68 63 41 64 28 65
REMARK SMILES IDX 29 66 34 67 30 68 31 69 33 70 35 71 32 72 54 73 55 74 60 75
REMARK SMILES IDX 56 76 57 77 59 78 61 79 58 80 42 81 43 82 48 83 44 84 45 85
REMARK SMILES IDX 47 86 49 87 46 88
REMARK H PARENT 66 50 40 61
REMARK Flexibility Score: inf
ROOT
ATOM      1  C   UNL A   1      42.314  19.438  26.988  1.00  0.00     0.188 C 
ENDROOT
BRANCH   1   2
ATOM      2  O   UNL A   1      40.908  19.784  26.943  1.00  0.00    -0.376 OA
BRANCH   2   3
ATOM      3  C   UNL A   1      40.368  21.110  27.061  1.00  0.00     0.202 C 
BRANCH   3   4
ATOM      4  C   UNL A   1      39.369  21.870  25.915  1.00  0.00     0.261 C 
BRANCH   4   5
ATOM      5  O   UNL A   1      38.168  23.038  26.119  1.00  0.00    -0.463 OA
BRANCH   5   6
ATOM      6  C   UNL A   1      36.870  23.394  25.642  1.00  0.00     0.310 C 
ATOM      7  O   UNL A   1      35.950  23.993  26.207  1.00  0.00    -0.252 OA
BRANCH   6   8
ATOM      8  C   UNL A   1      36.468  23.116  24.240  1.00  0.00     0.158 C 
BRANCH   8   9
ATOM      9  C   UNL A   1      35.112  22.581  24.097  1.00  0.00    -0.033 A 
ATOM     10  C   UNL A   1      35.901  20.311  24.970  1.00  0.00     0.045 C 
ATOM     11  C   UNL A   1      34.852  21.227  24.356  1.00  0.00    -0.039 A 
ATOM     12  C   UNL A   1      33.553  20.785  24.093  1.00  0.00    -0.015 A 
ATOM     13  C   UNL A   1      34.129  23.475  23.664  1.00  0.00     0.004 A 
ATOM     14  C   UNL A   1      32.573  21.670  23.608  1.00  0.00     0.009 A 
ATOM     15  C   UNL A   1      32.857  23.017  23.410  1.00  0.00     0.001 A 
BRANCH  12  16
ATOM     16  C   UNL A   1      33.218  19.387  24.351  1.00  0.00    -0.011 A 
ATOM     17  C   UNL A   1      32.662  18.967  25.616  1.00  0.00     0.027 A 
ATOM     18  C   UNL A   1      33.626  18.480  23.448  1.00  0.00     0.080 A 
ATOM     19  C   UNL A   1      32.588  17.667  25.910  1.00  0.00     0.095 A 
ATOM     20  C   UNL A   1      33.502  17.032  23.745  1.00  0.00     0.255 A 
ATOM     21  N   UNL A   1      33.002  16.713  25.000  1.00  0.00    -0.258 N 
ATOM     22  O   UNL A   1      33.868  16.230  22.892  1.00  0.00    -0.269 OA
BRANCH  21  23
ATOM     23  C   UNL A   1      32.908  15.317  25.324  1.00  0.00     0.451 C 
ATOM     24  F   UNL A   1      34.137  14.783  25.513  1.00  0.00    -0.185 F 
ATOM     25  F   UNL A   1      32.183  15.125  26.453  1.00  0.00    -0.185 F 
ENDBRANCH  21  23
ENDBRANCH  12  16
ENDBRANCH   8   9
ENDBRANCH   6   8
ENDBRANCH   5   6
ENDBRANCH   4   5
ENDBRANCH   3   4
ENDBRANCH   2   3
ENDBRANCH   1   2
BRANCH   1  26
ATOM     26  C   UNL A   1      42.889  18.065  26.614  1.00  0.00     0.188 C 
BRANCH  26  27
ATOM     27  O   UNL A   1      43.567  18.121  25.371  1.00  0.00    -0.376 OA
BRANCH  27  28
ATOM     28  C   UNL A   1      44.913  18.578  25.425  1.00  0.00     0.202 C 
BRANCH  28  29
ATOM     29  C   UNL A   1      45.302  19.490  24.239  1.00  0.00     0.261 C 
BRANCH  29  30
ATOM     30  O   UNL A   1      44.580  20.746  24.289  1.00  0.00    -0.460 OA
BRANCH  30  31
ATOM     31  C   UNL A   1      45.202  21.819  24.877  1.00  0.00     0.338 C 
ATOM     32  O   UNL A   1      46.352  21.819  25.297  1.00  0.00    -0.246 OA
BRANCH  31  33
ATOM     33  C   UNL A   1      44.202  22.905  25.156  1.00  0.00     0.060 A 
ATOM     34  C   UNL A   1      44.227  24.223  24.673  1.00  0.00     0.016 A 
ATOM     35  C   UNL A   1      43.425  22.707  26.242  1.00  0.00     0.016 A 
ATOM     36  C   UNL A   1      43.629  25.335  25.413  1.00  0.00     0.010 A 
ATOM     37  C   UNL A   1      43.157  23.833  27.015  1.00  0.00     0.010 A 
ATOM     38  C   UNL A   1      43.145  25.208  26.720  1.00  0.00    -0.014 A 
BRANCH  38  39
ATOM     39  C   UNL A   1      42.891  26.421  27.813  1.00  0.00     0.031 A 
ATOM     40  C   UNL A   1      41.653  27.541  28.149  1.00  0.00     0.074 A 
ATOM     41  C   UNL A   1      43.954  26.608  28.636  1.00  0.00     0.049 A 
ATOM     42  N   UNL A   1      41.845  28.665  28.825  1.00  0.00    -0.248 NA
ATOM     43  C   UNL A   1      40.202  27.599  27.726  1.00  0.00     0.031 C 
ATOM     44  C   UNL A   1      44.052  27.429  29.837  1.00  0.00     0.029 A 
ATOM     45  N   UNL A   1      45.276  26.198  28.411  1.00  0.00    -0.354 N 
ATOM     46  C   UNL A   1      40.622  29.317  29.007  1.00  0.00     0.074 A 
ATOM     47  C   UNL A   1      39.721  28.769  28.090  1.00  0.00     0.031 C 
ATOM     48  C   UNL A   1      45.338  27.768  30.014  1.00  0.00     0.029 A 
ATOM     49  C   UNL A   1      46.087  27.240  28.891  1.00  0.00     0.049 A 
ATOM     50  H   UNL A   1      45.575  25.353  28.002  1.00  0.00     0.167 HD
ATOM     51  C   UNL A   1      40.338  30.224  29.976  1.00  0.00     0.037 A 
ATOM     52  C   UNL A   1      46.883  27.931  28.028  1.00  0.00     0.037 A 
ATOM     53  C   UNL A   1      41.558  30.851  30.405  1.00  0.00     0.049 A 
ATOM     54  C   UNL A   1      46.538  29.406  27.947  1.00  0.00     0.074 A 
ATOM     55  C   UNL A   1      42.424  30.697  31.463  1.00  0.00     0.029 A 
ATOM     56  N   UNL A   1      42.236  31.571  29.438  1.00  0.00    -0.354 N 
ATOM     57  N   UNL A   1      45.665  30.011  28.708  1.00  0.00    -0.248 NA
ATOM     58  C   UNL A   1      47.091  30.300  26.927  1.00  0.00     0.031 C 
ATOM     59  C   UNL A   1      43.705  31.158  31.018  1.00  0.00     0.029 A 
ATOM     60  C   UNL A   1      43.581  31.646  29.727  1.00  0.00     0.049 A 
ATOM     61  H   UNL A   1      41.813  31.977  28.647  1.00  0.00     0.167 HD
ATOM     62  C   UNL A   1      45.443  31.269  28.221  1.00  0.00     0.074 A 
ATOM     63  C   UNL A   1      46.379  31.419  27.124  1.00  0.00     0.031 C 
ATOM     64  C   UNL A   1      44.475  32.108  28.681  1.00  0.00     0.037 A 
BRANCH  51  65
ATOM     65  C   UNL A   1      38.921  30.512  30.481  1.00  0.00     0.057 A 
ATOM     66  C   UNL A   1      38.367  29.754  31.526  1.00  0.00     0.134 A 
ATOM     67  C   UNL A   1      38.002  31.436  29.909  1.00  0.00     0.134 A 
ATOM     68  F   UNL A   1      39.079  28.793  32.130  1.00  0.00    -0.206 F 
ATOM     69  C   UNL A   1      37.043  29.925  31.978  1.00  0.00     0.040 A 
ATOM     70  C   UNL A   1      36.709  31.671  30.403  1.00  0.00     0.040 A 
ATOM     71  F   UNL A   1      38.264  32.119  28.786  1.00  0.00    -0.206 F 
ATOM     72  C   UNL A   1      36.216  30.900  31.436  1.00  0.00     0.006 A 
ENDBRANCH  51  65
BRANCH  52  73
ATOM     73  C   UNL A   1      47.463  27.076  26.946  1.00  0.00     0.057 A 
ATOM     74  C   UNL A   1      46.851  27.107  25.672  1.00  0.00     0.134 A 
ATOM     75  C   UNL A   1      48.720  26.467  27.010  1.00  0.00     0.134 A 
ATOM     76  F   UNL A   1      45.645  27.679  25.516  1.00  0.00    -0.206 F 
ATOM     77  C   UNL A   1      47.495  26.658  24.515  1.00  0.00     0.040 A 
ATOM     78  C   UNL A   1      49.365  25.983  25.858  1.00  0.00     0.040 A 
ATOM     79  F   UNL A   1      49.418  26.446  28.153  1.00  0.00    -0.206 F 
ATOM     80  C   UNL A   1      48.765  26.105  24.605  1.00  0.00     0.006 A 
ENDBRANCH  52  73
BRANCH  64  81
ATOM     81  C   UNL A   1      44.321  33.476  28.106  1.00  0.00     0.057 A 
ATOM     82  C   UNL A   1      43.939  33.637  26.769  1.00  0.00     0.134 A 
ATOM     83  C   UNL A   1      44.664  34.640  28.810  1.00  0.00     0.134 A 
ATOM     84  F   UNL A   1      43.586  32.575  26.028  1.00  0.00    -0.206 F 
ATOM     85  C   UNL A   1      43.920  34.890  26.155  1.00  0.00     0.040 A 
ATOM     86  C   UNL A   1      44.683  35.895  28.199  1.00  0.00     0.040 A 
ATOM     87  F   UNL A   1      44.997  34.592  30.110  1.00  0.00    -0.206 F 
ATOM     88  C   UNL A   1      44.314  36.021  26.864  1.00  0.00     0.006 A 
ENDBRANCH  64  81
ENDBRANCH  38  39
ENDBRANCH  31  33
ENDBRANCH  30  31
ENDBRANCH  29  30
ENDBRANCH  28  29
ENDBRANCH  27  28
ENDBRANCH  26  27
ENDBRANCH   1  26
TORSDOF 20
ENDMDL
MODEL 3
REMARK VINA RESULT:     -11.6      4.459      9.973
REMARK SMILES Cc1c(CC(=O)OCCOCCOCCOC(=O)c2ccc(-c3c4nc(c(-c5c(F)cccc5F)c5ccc([nH]5)c(-c5c(F)cccc5F)c5nc(c(-c6c(F)cccc6F)c6ccc3[nH]6)C=C5)C=C4)cc2)cccc1-c1ccn(C(F)F)c(=O)c1
REMARK SMILES IDX 11 1 10 2 9 3 8 4 7 5 5 6 6 7 4 8 3 9 1 10 2 11 76 12 73 13
REMARK SMILES IDX 75 14 74 15 77 16 78 17 86 18 79 19 84 20 80 21 85 22 81 23
REMARK SMILES IDX 82 24 83 25 12 26 13 27 14 28 15 29 16 30 17 31 18 32 19 33
REMARK SMILES IDX 20 34 72 35 21 36 71 37 22 38 23 39 24 40 65 41 25 42 70 43
REMARK SMILES IDX 64 44 66 45 26 46 69 47 63 48 62 49 27 51 53 52 36 53 52 54
REMARK SMILES IDX 37 55 40 56 51 57 67 58 38 59 39 60 50 62 68 63 41 64 28 65
REMARK SMILES IDX 29 66 34 67 30 68 31 69 33 70 35 71 32 72 54 73 55 74 60 75
REMARK SMILES IDX 56 76 57 77 59 78 61 79 58 80 42 81 43 82 48 83 44 84 45 85
REMARK SMILES IDX 47 86 49 87 46 88
REMARK H PARENT 66 50 40 61
REMARK Flexibility Score: inf
ROOT
ATOM      1  C   UNL A   1      32.007  29.673  26.782  1.00  0.00     0.188 C 
ENDROOT
BRANCH   1   2
ATOM      2  O   UNL A   1      32.620  28.850  25.760  1.00  0.00    -0.376 OA
BRANCH   2   3
ATOM      3  C   UNL A   1      33.382  29.333  24.642  1.00  0.00     0.202 C 
BRANCH   3   4
ATOM      4  C   UNL A   1      33.105  28.930  23.015  1.00  0.00     0.261 C 
BRANCH   4   5
ATOM      5  O   UNL A   1      32.489  27.514  22.332  1.00  0.00    -0.463 OA
BRANCH   5   6
ATOM      6  C   UNL A   1      32.802  26.130  22.169  1.00  0.00     0.310 C 
ATOM      7  O   UNL A   1      33.720  25.589  21.546  1.00  0.00    -0.252 OA
BRANCH   6   8
ATOM      8  C   UNL A   1      32.015  25.081  22.867  1.00  0.00     0.158 C 
BRANCH   8   9
ATOM      9  C   UNL A   1      32.742  24.397  23.939  1.00  0.00    -0.033 A 
ATOM     10  C   UNL A   1      32.547  22.183  22.675  1.00  0.00     0.045 C 
ATOM     11  C   UNL A   1      32.921  23.006  23.899  1.00  0.00    -0.039 A 
ATOM     12  C   UNL A   1      33.535  22.429  25.014  1.00  0.00    -0.015 A 
ATOM     13  C   UNL A   1      33.202  25.193  24.991  1.00  0.00     0.004 A 
ATOM     14  C   UNL A   1      33.953  23.221  26.099  1.00  0.00     0.009 A 
ATOM     15  C   UNL A   1      33.801  24.603  26.079  1.00  0.00     0.001 A 
BRANCH  12  16
ATOM     16  C   UNL A   1      33.757  20.985  25.028  1.00  0.00    -0.011 A 
ATOM     17  C   UNL A   1      35.085  20.427  24.928  1.00  0.00     0.027 A 
ATOM     18  C   UNL A   1      32.675  20.196  24.941  1.00  0.00     0.080 A 
ATOM     19  C   UNL A   1      35.241  19.120  24.707  1.00  0.00     0.095 A 
ATOM     20  C   UNL A   1      32.838  18.734  24.744  1.00  0.00     0.255 A 
ATOM     21  N   UNL A   1      34.144  18.285  24.611  1.00  0.00    -0.258 N 
ATOM     22  O   UNL A   1      31.829  18.039  24.684  1.00  0.00    -0.269 OA
BRANCH  21  23
ATOM     23  C   UNL A   1      34.325  16.879  24.382  1.00  0.00     0.451 C 
ATOM     24  F   UNL A   1      34.268  16.595  23.059  1.00  0.00    -0.185 F 
ATOM     25  F   UNL A   1      35.523  16.457  24.854  1.00  0.00    -0.185 F 
ENDBRANCH  21  23
ENDBRANCH  12  16
ENDBRANCH   8   9
ENDBRANCH   6   8
ENDBRANCH   5   6
ENDBRANCH   4   5
ENDBRANCH   3   4
ENDBRANCH   2   3
ENDBRANCH   1   2
BRANCH   1  26
ATOM     26  C   UNL A   1      31.626  31.150  26.604  1.00  0.00     0.188 C 
BRANCH  26  27
ATOM     27  O   UNL A   1      32.716  31.996  26.925  1.00  0.00    -0.376 OA
BRANCH  27  28
ATOM     28  C   UNL A   1      33.637  31.479  27.877  1.00  0.00     0.202 C 
BRANCH  28  29
ATOM     29  C   UNL A   1      34.249  32.562  28.795  1.00  0.00     0.261 C 
BRANCH  29  30
ATOM     30  O   UNL A   1      35.632  32.262  29.106  1.00  0.00    -0.460 OA
BRANCH  30  31
ATOM     31  C   UNL A   1      35.886  31.475  30.201  1.00  0.00     0.338 C 
ATOM     32  O   UNL A   1      35.762  31.833  31.365  1.00  0.00    -0.246 OA
BRANCH  31  33
ATOM     33  C   UNL A   1      36.568  30.205  29.777  1.00  0.00     0.060 A 
ATOM     34  C   UNL A   1      36.974  29.145  30.604  1.00  0.00     0.016 A 
ATOM     35  C   UNL A   1      37.162  30.247  28.566  1.00  0.00     0.016 A 
ATOM     36  C   UNL A   1      38.106  28.283  30.264  1.00  0.00     0.010 A 
ATOM     37  C   UNL A   1      38.387  29.596  28.463  1.00  0.00     0.010 A 
ATOM     38  C   UNL A   1      38.969  28.543  29.193  1.00  0.00    -0.014 A 
BRANCH  38  39
ATOM     39  C   UNL A   1      40.500  27.960  28.980  1.00  0.00     0.031 A 
ATOM     40  C   UNL A   1      41.202  26.518  28.406  1.00  0.00     0.074 A 
ATOM     41  C   UNL A   1      41.450  28.830  29.404  1.00  0.00     0.049 A 
ATOM     42  N   UNL A   1      42.440  26.141  28.694  1.00  0.00    -0.248 NA
ATOM     43  C   UNL A   1      40.636  25.371  27.600  1.00  0.00     0.031 C 
ATOM     44  C   UNL A   1      42.895  28.777  29.214  1.00  0.00     0.029 A 
ATOM     45  N   UNL A   1      41.277  29.897  30.298  1.00  0.00    -0.354 N 
ATOM     46  C   UNL A   1      42.744  24.965  28.002  1.00  0.00     0.074 A 
ATOM     47  C   UNL A   1      41.533  24.407  27.584  1.00  0.00     0.031 C 
ATOM     48  C   UNL A   1      43.478  29.466  30.207  1.00  0.00     0.029 A 
ATOM     49  C   UNL A   1      42.430  29.913  31.102  1.00  0.00     0.049 A 
ATOM     50  H   UNL A   1      40.507  30.509  30.351  1.00  0.00     0.167 HD
ATOM     51  C   UNL A   1      43.989  24.519  27.695  1.00  0.00     0.037 A 
ATOM     52  C   UNL A   1      42.327  29.678  32.440  1.00  0.00     0.037 A 
ATOM     53  C   UNL A   1      44.928  25.064  28.636  1.00  0.00     0.049 A 
ATOM     54  C   UNL A   1      43.087  28.446  32.891  1.00  0.00     0.074 A 
ATOM     55  C   UNL A   1      45.819  26.112  28.643  1.00  0.00     0.029 A 
ATOM     56  N   UNL A   1      44.740  24.694  29.955  1.00  0.00    -0.354 N 
ATOM     57  N   UNL A   1      43.878  27.738  32.129  1.00  0.00    -0.248 NA
ATOM     58  C   UNL A   1      42.938  27.861  34.225  1.00  0.00     0.031 C 
ATOM     59  C   UNL A   1      45.992  26.498  30.011  1.00  0.00     0.029 A 
ATOM     60  C   UNL A   1      45.262  25.637  30.815  1.00  0.00     0.049 A 
ATOM     61  H   UNL A   1      44.291  23.867  30.244  1.00  0.00     0.167 HD
ATOM     62  C   UNL A   1      44.217  26.586  32.785  1.00  0.00     0.074 A 
ATOM     63  C   UNL A   1      43.632  26.719  34.106  1.00  0.00     0.031 C 
ATOM     64  C   UNL A   1      44.896  25.553  32.217  1.00  0.00     0.037 A 
BRANCH  51  65
ATOM     65  C   UNL A   1      44.288  23.570  26.530  1.00  0.00     0.057 A 
ATOM     66  C   UNL A   1      44.766  24.067  25.308  1.00  0.00     0.134 A 
ATOM     67  C   UNL A   1      44.015  22.173  26.501  1.00  0.00     0.134 A 
ATOM     68  F   UNL A   1      45.012  25.375  25.146  1.00  0.00    -0.206 F 
ATOM     69  C   UNL A   1      44.985  23.249  24.180  1.00  0.00     0.040 A 
ATOM     70  C   UNL A   1      44.304  21.336  25.412  1.00  0.00     0.040 A 
ATOM     71  F   UNL A   1      43.380  21.537  27.495  1.00  0.00    -0.206 F 
ATOM     72  C   UNL A   1      44.779  21.877  24.235  1.00  0.00     0.006 A 
ENDBRANCH  51  65
BRANCH  52  73
ATOM     73  C   UNL A   1      41.081  30.245  33.044  1.00  0.00     0.057 A 
ATOM     74  C   UNL A   1      40.993  31.646  33.200  1.00  0.00     0.134 A 
ATOM     75  C   UNL A   1      39.889  29.531  33.209  1.00  0.00     0.134 A 
ATOM     76  F   UNL A   1      42.087  32.413  33.053  1.00  0.00    -0.206 F 
ATOM     77  C   UNL A   1      39.777  32.308  33.399  1.00  0.00     0.040 A 
ATOM     78  C   UNL A   1      38.665  30.183  33.441  1.00  0.00     0.040 A 
ATOM     79  F   UNL A   1      39.846  28.206  33.014  1.00  0.00    -0.206 F 
ATOM     80  C   UNL A   1      38.604  31.574  33.507  1.00  0.00     0.006 A 
ENDBRANCH  52  73
BRANCH  64  81
ATOM     81  C   UNL A   1      45.246  24.343  33.017  1.00  0.00     0.057 A 
ATOM     82  C   UNL A   1      44.357  23.264  33.082  1.00  0.00     0.134 A 
ATOM     83  C   UNL A   1      46.388  24.273  33.829  1.00  0.00     0.134 A 
ATOM     84  F   UNL A   1      43.245  23.251  32.331  1.00  0.00    -0.206 F 
ATOM     85  C   UNL A   1      44.581  22.177  33.929  1.00  0.00     0.040 A 
ATOM     86  C   UNL A   1      46.606  23.209  34.705  1.00  0.00     0.040 A 
ATOM     87  F   UNL A   1      47.322  25.237  33.798  1.00  0.00    -0.206 F 
ATOM     88  C   UNL A   1      45.697  22.157  34.760  1.00  0.00     0.006 A 
ENDBRANCH  64  81
ENDBRANCH  38  39
ENDBRANCH  31  33
ENDBRANCH  30  31
ENDBRANCH  29  30
ENDBRANCH  28  29
ENDBRANCH  27  28
ENDBRANCH  26  27
ENDBRANCH   1  26
TORSDOF 20
ENDMDL
