MODEL 1
REMARK VINA RESULT:     -11.0      0.000      0.000
REMARK SMILES O=C(OCCOCCOCCOC(=O)c1cccc(N2C(=O)C[C@H]([NH+]3CCOCC3)C2=O)c1)c1ccc(-c2c3nc(c(-c4c(F)cccc4F)c4ccc([nH]4)c(-c4c(F)cccc4F)c4nc(c(-c5c(F)cccc5F)c5ccc2[nH]5)C=C4)C=C3)cc1
REMARK SMILES IDX 7 1 6 2 5 3 4 4 3 5 2 6 1 7 34 8 35 9 87 10 36 11 86 12
REMARK SMILES IDX 37 13 38 14 39 15 80 16 40 17 85 18 79 19 81 20 41 21 84 22
REMARK SMILES IDX 78 23 77 24 42 26 68 27 51 28 67 29 52 30 55 31 66 32 82 33
REMARK SMILES IDX 53 34 54 35 65 37 83 38 56 39 43 40 44 41 49 42 45 43 46 44
REMARK SMILES IDX 48 45 50 46 47 47 69 48 70 49 75 50 71 51 72 52 74 53 76 54
REMARK SMILES IDX 73 55 57 56 58 57 63 58 59 59 60 60 62 61 64 62 61 63 8 64
REMARK SMILES IDX 9 65 10 66 11 67 12 68 13 69 14 70 15 71 16 72 33 73 17 74
REMARK SMILES IDX 19 75 18 76 20 77 21 78 31 79 22 80 23 81 24 82 32 83 25 84
REMARK SMILES IDX 26 85 30 86 27 88 29 89 28 90
REMARK H PARENT 81 25 55 36 25 87
REMARK Flexibility Score: inf
ROOT
ATOM      1  C   UNL A   1      33.513  34.562  28.254  1.00  0.00     0.188 C 
ENDROOT
BRANCH   1   2
ATOM      2  O   UNL A   1      32.799  34.452  29.486  1.00  0.00    -0.376 OA
BRANCH   2   3
ATOM      3  C   UNL A   1      33.189  35.397  30.487  1.00  0.00     0.202 C 
BRANCH   3   4
ATOM      4  C   UNL A   1      34.003  34.841  31.669  1.00  0.00     0.261 C 
BRANCH   4   5
ATOM      5  O   UNL A   1      34.458  33.485  31.509  1.00  0.00    -0.460 OA
BRANCH   5   6
ATOM      6  C   UNL A   1      35.273  32.746  32.301  1.00  0.00     0.338 C 
ATOM      7  O   UNL A   1      35.026  32.684  33.503  1.00  0.00    -0.246 OA
BRANCH   6   8
ATOM      8  C   UNL A   1      36.464  32.001  31.801  1.00  0.00     0.060 A 
ATOM      9  C   UNL A   1      37.338  31.264  32.597  1.00  0.00     0.016 A 
ATOM     10  C   UNL A   1      36.658  31.958  30.411  1.00  0.00     0.016 A 
ATOM     11  C   UNL A   1      38.431  30.591  32.065  1.00  0.00     0.010 A 
ATOM     12  C   UNL A   1      37.723  31.239  29.857  1.00  0.00     0.010 A 
ATOM     13  C   UNL A   1      38.638  30.580  30.692  1.00  0.00    -0.014 A 
BRANCH  13  14
ATOM     14  C   UNL A   1      39.885  29.994  30.162  1.00  0.00     0.031 A 
ATOM     15  C   UNL A   1      41.055  30.902  29.936  1.00  0.00     0.074 A 
ATOM     16  C   UNL A   1      39.996  28.670  29.941  1.00  0.00     0.049 A 
ATOM     17  N   UNL A   1      42.215  30.636  29.399  1.00  0.00    -0.248 NA
ATOM     18  C   UNL A   1      40.911  32.292  30.404  1.00  0.00     0.031 C 
ATOM     19  C   UNL A   1      38.979  27.667  30.253  1.00  0.00     0.029 A 
ATOM     20  N   UNL A   1      41.012  27.942  29.374  1.00  0.00    -0.354 N 
ATOM     21  C   UNL A   1      42.926  31.826  29.442  1.00  0.00     0.074 A 
ATOM     22  C   UNL A   1      42.072  32.820  30.048  1.00  0.00     0.031 C 
ATOM     23  C   UNL A   1      39.386  26.477  29.784  1.00  0.00     0.029 A 
ATOM     24  C   UNL A   1      40.659  26.638  29.108  1.00  0.00     0.049 A 
ATOM     25  H   UNL A   1      41.901  28.314  29.179  1.00  0.00     0.167 HD
ATOM     26  C   UNL A   1      44.185  32.058  29.009  1.00  0.00     0.037 A 
ATOM     27  C   UNL A   1      41.279  25.715  28.353  1.00  0.00     0.037 A 
ATOM     28  C   UNL A   1      45.032  31.056  28.426  1.00  0.00     0.049 A 
ATOM     29  C   UNL A   1      42.638  26.041  27.818  1.00  0.00     0.074 A 
ATOM     30  C   UNL A   1      46.333  31.180  27.971  1.00  0.00     0.029 A 
ATOM     31  N   UNL A   1      44.650  29.744  28.201  1.00  0.00    -0.354 N 
ATOM     32  N   UNL A   1      43.342  27.133  27.965  1.00  0.00    -0.248 NA
ATOM     33  C   UNL A   1      43.310  24.978  27.059  1.00  0.00     0.031 C 
ATOM     34  C   UNL A   1      46.714  29.959  27.407  1.00  0.00     0.029 A 
ATOM     35  C   UNL A   1      45.668  29.066  27.557  1.00  0.00     0.049 A 
ATOM     36  H   UNL A   1      43.784  29.353  28.461  1.00  0.00     0.167 HD
ATOM     37  C   UNL A   1      44.549  26.873  27.343  1.00  0.00     0.074 A 
ATOM     38  C   UNL A   1      44.509  25.501  26.887  1.00  0.00     0.031 C 
ATOM     39  C   UNL A   1      45.595  27.701  27.131  1.00  0.00     0.037 A 
BRANCH  26  40
ATOM     40  C   UNL A   1      44.689  33.463  29.080  1.00  0.00     0.057 A 
ATOM     41  C   UNL A   1      45.374  33.963  30.194  1.00  0.00     0.134 A 
ATOM     42  C   UNL A   1      44.499  34.324  27.991  1.00  0.00     0.134 A 
ATOM     43  F   UNL A   1      45.562  33.197  31.278  1.00  0.00    -0.206 F 
ATOM     44  C   UNL A   1      45.847  35.276  30.224  1.00  0.00     0.040 A 
ATOM     45  C   UNL A   1      44.987  35.628  28.000  1.00  0.00     0.040 A 
ATOM     46  F   UNL A   1      43.842  33.903  26.900  1.00  0.00    -0.206 F 
ATOM     47  C   UNL A   1      45.661  36.109  29.120  1.00  0.00     0.006 A 
ENDBRANCH  26  40
BRANCH  27  48
ATOM     48  C   UNL A   1      40.668  24.428  27.937  1.00  0.00     0.057 A 
ATOM     49  C   UNL A   1      41.176  23.204  28.381  1.00  0.00     0.134 A 
ATOM     50  C   UNL A   1      39.758  24.396  26.873  1.00  0.00     0.134 A 
ATOM     51  F   UNL A   1      42.111  23.173  29.345  1.00  0.00    -0.206 F 
ATOM     52  C   UNL A   1      40.830  22.000  27.762  1.00  0.00     0.040 A 
ATOM     53  C   UNL A   1      39.351  23.190  26.292  1.00  0.00     0.040 A 
ATOM     54  F   UNL A   1      39.272  25.538  26.362  1.00  0.00    -0.206 F 
ATOM     55  C   UNL A   1      39.895  21.986  26.731  1.00  0.00     0.006 A 
ENDBRANCH  27  48
BRANCH  39  56
ATOM     56  C   UNL A   1      46.744  27.109  26.384  1.00  0.00     0.057 A 
ATOM     57  C   UNL A   1      46.805  27.159  24.984  1.00  0.00     0.134 A 
ATOM     58  C   UNL A   1      47.757  26.426  27.063  1.00  0.00     0.134 A 
ATOM     59  F   UNL A   1      45.834  27.763  24.281  1.00  0.00    -0.206 F 
ATOM     60  C   UNL A   1      47.817  26.511  24.282  1.00  0.00     0.040 A 
ATOM     61  C   UNL A   1      48.794  25.806  26.371  1.00  0.00     0.040 A 
ATOM     62  F   UNL A   1      47.741  26.335  28.401  1.00  0.00    -0.206 F 
ATOM     63  C   UNL A   1      48.818  25.837  24.977  1.00  0.00     0.006 A 
ENDBRANCH  39  56
ENDBRANCH  13  14
ENDBRANCH   6   8
ENDBRANCH   5   6
ENDBRANCH   4   5
ENDBRANCH   3   4
ENDBRANCH   2   3
ENDBRANCH   1   2
BRANCH   1  64
ATOM     64  C   UNL A   1      34.441  33.381  27.983  1.00  0.00     0.188 C 
BRANCH  64  65
ATOM     65  O   UNL A   1      33.966  32.081  28.316  1.00  0.00    -0.376 OA
BRANCH  65  66
ATOM     66  C   UNL A   1      34.195  31.025  27.393  1.00  0.00     0.202 C 
BRANCH  66  67
ATOM     67  C   UNL A   1      34.860  29.734  27.890  1.00  0.00     0.261 C 
BRANCH  67  68
ATOM     68  O   UNL A   1      34.911  28.650  26.955  1.00  0.00    -0.460 OA
BRANCH  68  69
ATOM     69  C   UNL A   1      33.685  28.224  26.576  1.00  0.00     0.338 C 
ATOM     70  O   UNL A   1      32.730  27.967  27.289  1.00  0.00    -0.246 OA
BRANCH  69  71
ATOM     71  C   UNL A   1      33.687  27.901  25.151  1.00  0.00     0.062 A 
ATOM     72  C   UNL A   1      33.792  28.830  24.120  1.00  0.00     0.016 A 
ATOM     73  C   UNL A   1      33.416  26.565  24.887  1.00  0.00     0.042 A 
ATOM     74  C   UNL A   1      33.619  28.385  22.807  1.00  0.00     0.003 A 
ATOM     75  C   UNL A   1      33.206  26.109  23.590  1.00  0.00     0.053 A 
ATOM     76  C   UNL A   1      33.338  27.031  22.541  1.00  0.00     0.027 A 
BRANCH  75  77
ATOM     77  N   UNL A   1      32.904  24.737  23.424  1.00  0.00    -0.245 N 
ATOM     78  C   UNL A   1      31.637  24.214  23.528  1.00  0.00     0.240 C 
ATOM     79  C   UNL A   1      33.791  23.758  23.082  1.00  0.00     0.292 C 
ATOM     80  O   UNL A   1      30.573  24.798  23.678  1.00  0.00    -0.274 OA
ATOM     81  C   UNL A   1      31.690  22.742  23.297  1.00  0.00     0.176 C 
ATOM     82  C   UNL A   1      33.158  22.410  23.413  1.00  0.00     0.284 C 
ATOM     83  O   UNL A   1      34.895  23.907  22.579  1.00  0.00    -0.267 OA
BRANCH  82  84
ATOM     84  N   UNL A   1      33.656  21.818  24.672  1.00  0.00    -0.320 N 
ATOM     85  C   UNL A   1      32.698  21.897  25.793  1.00  0.00     0.291 C 
ATOM     86  C   UNL A   1      35.004  22.138  25.173  1.00  0.00     0.291 C 
ATOM     87  H   UNL A   1      33.758  20.866  24.321  1.00  0.00     0.348 HD
ATOM     88  C   UNL A   1      32.802  23.161  26.653  1.00  0.00     0.221 C 
ATOM     89  C   UNL A   1      35.085  23.394  26.059  1.00  0.00     0.221 C 
ATOM     90  O   UNL A   1      34.134  23.363  27.128  1.00  0.00    -0.370 OA
ENDBRANCH  82  84
ENDBRANCH  75  77
ENDBRANCH  69  71
ENDBRANCH  68  69
ENDBRANCH  67  68
ENDBRANCH  66  67
ENDBRANCH  65  66
ENDBRANCH  64  65
ENDBRANCH   1  64
TORSDOF 19
ENDMDL
MODEL 2
REMARK VINA RESULT:     -10.5      1.249      2.197
REMARK SMILES O=C(OCCOCCOCCOC(=O)c1cccc(N2C(=O)C[C@H]([NH+]3CCOCC3)C2=O)c1)c1ccc(-c2c3nc(c(-c4c(F)cccc4F)c4ccc([nH]4)c(-c4c(F)cccc4F)c4nc(c(-c5c(F)cccc5F)c5ccc2[nH]5)C=C4)C=C3)cc1
REMARK SMILES IDX 7 1 6 2 5 3 4 4 3 5 2 6 1 7 34 8 35 9 87 10 36 11 86 12
REMARK SMILES IDX 37 13 38 14 39 15 80 16 40 17 85 18 79 19 81 20 41 21 84 22
REMARK SMILES IDX 78 23 77 24 42 26 68 27 51 28 67 29 52 30 55 31 66 32 82 33
REMARK SMILES IDX 53 34 54 35 65 37 83 38 56 39 43 40 44 41 49 42 45 43 46 44
REMARK SMILES IDX 48 45 50 46 47 47 69 48 70 49 75 50 71 51 72 52 74 53 76 54
REMARK SMILES IDX 73 55 57 56 58 57 63 58 59 59 60 60 62 61 64 62 61 63 8 64
REMARK SMILES IDX 9 65 10 66 11 67 12 68 13 69 14 70 15 71 16 72 33 73 17 74
REMARK SMILES IDX 19 75 18 76 20 77 21 78 31 79 22 80 23 81 24 82 32 83 25 84
REMARK SMILES IDX 26 85 30 86 27 88 29 89 28 90
REMARK H PARENT 81 25 55 36 25 87
REMARK Flexibility Score: inf
ROOT
ATOM      1  C   UNL A   1      33.066  35.842  30.153  1.00  0.00     0.188 C 
ENDROOT
BRANCH   1   2
ATOM      2  O   UNL A   1      32.882  34.943  31.247  1.00  0.00    -0.376 OA
BRANCH   2   3
ATOM      3  C   UNL A   1      33.310  35.452  32.514  1.00  0.00     0.202 C 
BRANCH   3   4
ATOM      4  C   UNL A   1      34.627  34.883  33.070  1.00  0.00     0.261 C 
BRANCH   4   5
ATOM      5  O   UNL A   1      35.453  34.209  32.102  1.00  0.00    -0.460 OA
BRANCH   5   6
ATOM      6  C   UNL A   1      35.719  32.888  31.962  1.00  0.00     0.338 C 
ATOM      7  O   UNL A   1      34.880  32.075  32.346  1.00  0.00    -0.246 OA
BRANCH   6   8
ATOM      8  C   UNL A   1      36.979  32.352  31.369  1.00  0.00     0.060 A 
ATOM      9  C   UNL A   1      37.269  32.316  30.007  1.00  0.00     0.016 A 
ATOM     10  C   UNL A   1      37.985  31.947  32.260  1.00  0.00     0.016 A 
ATOM     11  C   UNL A   1      38.466  31.803  29.522  1.00  0.00     0.010 A 
ATOM     12  C   UNL A   1      39.216  31.479  31.786  1.00  0.00     0.010 A 
ATOM     13  C   UNL A   1      39.445  31.371  30.406  1.00  0.00    -0.014 A 
BRANCH  13  14
ATOM     14  C   UNL A   1      40.640  30.688  29.872  1.00  0.00     0.031 A 
ATOM     15  C   UNL A   1      41.842  31.518  29.540  1.00  0.00     0.074 A 
ATOM     16  C   UNL A   1      40.679  29.348  29.741  1.00  0.00     0.049 A 
ATOM     17  N   UNL A   1      42.965  31.159  28.980  1.00  0.00    -0.248 NA
ATOM     18  C   UNL A   1      41.783  32.943  29.915  1.00  0.00     0.031 C 
ATOM     19  C   UNL A   1      39.629  28.422  30.159  1.00  0.00     0.029 A 
ATOM     20  N   UNL A   1      41.635  28.533  29.189  1.00  0.00    -0.354 N 
ATOM     21  C   UNL A   1      43.733  32.311  28.913  1.00  0.00     0.074 A 
ATOM     22  C   UNL A   1      42.952  33.386  29.480  1.00  0.00     0.031 C 
ATOM     23  C   UNL A   1      39.959  27.183  29.760  1.00  0.00     0.029 A 
ATOM     24  C   UNL A   1      41.210  27.234  29.028  1.00  0.00     0.049 A 
ATOM     25  H   UNL A   1      42.533  28.845  28.935  1.00  0.00     0.167 HD
ATOM     26  C   UNL A   1      44.983  32.450  28.419  1.00  0.00     0.037 A 
ATOM     27  C   UNL A   1      41.755  26.231  28.317  1.00  0.00     0.037 A 
ATOM     28  C   UNL A   1      45.757  31.369  27.877  1.00  0.00     0.049 A 
ATOM     29  C   UNL A   1      43.104  26.452  27.710  1.00  0.00     0.074 A 
ATOM     30  C   UNL A   1      47.043  31.396  27.366  1.00  0.00     0.029 A 
ATOM     31  N   UNL A   1      45.304  30.066  27.759  1.00  0.00    -0.354 N 
ATOM     32  N   UNL A   1      43.866  27.514  27.754  1.00  0.00    -0.248 NA
ATOM     33  C   UNL A   1      43.695  25.307  27.003  1.00  0.00     0.031 C 
ATOM     34  C   UNL A   1      47.342  30.122  26.875  1.00  0.00     0.029 A 
ATOM     35  C   UNL A   1      46.263  29.295  27.126  1.00  0.00     0.049 A 
ATOM     36  H   UNL A   1      44.432  29.738  28.077  1.00  0.00     0.167 HD
ATOM     37  C   UNL A   1      45.033  27.151  27.108  1.00  0.00     0.074 A 
ATOM     38  C   UNL A   1      44.909  25.756  26.751  1.00  0.00     0.031 C 
ATOM     39  C   UNL A   1      46.108  27.909  26.799  1.00  0.00     0.037 A 
BRANCH  26  40
ATOM     40  C   UNL A   1      45.556  33.830  28.373  1.00  0.00     0.057 A 
ATOM     41  C   UNL A   1      45.367  34.689  27.284  1.00  0.00     0.134 A 
ATOM     42  C   UNL A   1      46.293  34.310  29.462  1.00  0.00     0.134 A 
ATOM     43  F   UNL A   1      44.693  34.277  26.199  1.00  0.00    -0.206 F 
ATOM     44  C   UNL A   1      45.901  35.978  27.277  1.00  0.00     0.040 A 
ATOM     45  C   UNL A   1      46.811  35.603  29.477  1.00  0.00     0.040 A 
ATOM     46  F   UNL A   1      46.515  33.529  30.530  1.00  0.00    -0.206 F 
ATOM     47  C   UNL A   1      46.617  36.441  28.381  1.00  0.00     0.006 A 
ENDBRANCH  26  40
BRANCH  27  48
ATOM     48  C   UNL A   1      41.066  24.951  28.014  1.00  0.00     0.057 A 
ATOM     49  C   UNL A   1      41.551  23.733  28.499  1.00  0.00     0.134 A 
ATOM     50  C   UNL A   1      40.091  24.900  27.011  1.00  0.00     0.134 A 
ATOM     51  F   UNL A   1      42.543  23.715  29.405  1.00  0.00    -0.206 F 
ATOM     52  C   UNL A   1      41.118  22.512  27.974  1.00  0.00     0.040 A 
ATOM     53  C   UNL A   1      39.600  23.682  26.528  1.00  0.00     0.040 A 
ATOM     54  F   UNL A   1      39.621  26.031  26.464  1.00  0.00    -0.206 F 
ATOM     55  C   UNL A   1      40.121  22.481  27.003  1.00  0.00     0.006 A 
ENDBRANCH  27  48
BRANCH  39  56
ATOM     56  C   UNL A   1      47.196  27.211  26.054  1.00  0.00     0.057 A 
ATOM     57  C   UNL A   1      48.245  26.572  26.729  1.00  0.00     0.134 A 
ATOM     58  C   UNL A   1      47.230  27.237  24.657  1.00  0.00     0.134 A 
ATOM     59  F   UNL A   1      48.284  26.558  28.070  1.00  0.00    -0.206 F 
ATOM     60  C   UNL A   1      49.317  26.018  26.035  1.00  0.00     0.040 A 
ATOM     61  C   UNL A   1      48.280  26.653  23.953  1.00  0.00     0.040 A 
ATOM     62  F   UNL A   1      46.258  27.847  23.961  1.00  0.00    -0.206 F 
ATOM     63  C   UNL A   1      49.333  26.053  24.643  1.00  0.00     0.006 A 
ENDBRANCH  39  56
ENDBRANCH  13  14
ENDBRANCH   6   8
ENDBRANCH   5   6
ENDBRANCH   4   5
ENDBRANCH   3   4
ENDBRANCH   2   3
ENDBRANCH   1   2
BRANCH   1  64
ATOM     64  C   UNL A   1      34.017  35.311  29.084  1.00  0.00     0.188 C 
BRANCH  64  65
ATOM     65  O   UNL A   1      33.589  34.189  28.320  1.00  0.00    -0.376 OA
BRANCH  65  66
ATOM     66  C   UNL A   1      33.997  32.895  28.739  1.00  0.00     0.202 C 
BRANCH  66  67
ATOM     67  C   UNL A   1      34.434  31.873  27.680  1.00  0.00     0.261 C 
BRANCH  67  68
ATOM     68  O   UNL A   1      33.435  30.938  27.256  1.00  0.00    -0.460 OA
BRANCH  68  69
ATOM     69  C   UNL A   1      33.955  29.751  26.869  1.00  0.00     0.338 C 
ATOM     70  O   UNL A   1      35.029  29.269  27.183  1.00  0.00    -0.246 OA
BRANCH  69  71
ATOM     71  C   UNL A   1      33.125  29.159  25.822  1.00  0.00     0.062 A 
ATOM     72  C   UNL A   1      31.950  29.713  25.324  1.00  0.00     0.016 A 
ATOM     73  C   UNL A   1      33.530  27.884  25.451  1.00  0.00     0.042 A 
ATOM     74  C   UNL A   1      31.183  28.954  24.436  1.00  0.00     0.003 A 
ATOM     75  C   UNL A   1      32.764  27.098  24.598  1.00  0.00     0.053 A 
ATOM     76  C   UNL A   1      31.592  27.657  24.067  1.00  0.00     0.027 A 
BRANCH  75  77
ATOM     77  N   UNL A   1      33.242  25.800  24.304  1.00  0.00    -0.245 N 
ATOM     78  C   UNL A   1      33.747  25.428  23.081  1.00  0.00     0.240 C 
ATOM     79  C   UNL A   1      33.331  24.761  25.184  1.00  0.00     0.292 C 
ATOM     80  O   UNL A   1      33.962  26.120  22.095  1.00  0.00    -0.274 OA
ATOM     81  C   UNL A   1      34.152  23.995  23.128  1.00  0.00     0.176 C 
ATOM     82  C   UNL A   1      33.494  23.474  24.382  1.00  0.00     0.284 C 
ATOM     83  O   UNL A   1      33.308  24.826  26.405  1.00  0.00    -0.267 OA
BRANCH  82  84
ATOM     84  N   UNL A   1      32.246  22.693  24.260  1.00  0.00    -0.320 N 
ATOM     85  C   UNL A   1      31.954  21.839  25.429  1.00  0.00     0.291 C 
ATOM     86  C   UNL A   1      31.947  21.938  23.031  1.00  0.00     0.291 C 
ATOM     87  H   UNL A   1      31.614  23.492  24.202  1.00  0.00     0.348 HD
ATOM     88  C   UNL A   1      32.537  20.423  25.364  1.00  0.00     0.221 C 
ATOM     89  C   UNL A   1      32.515  20.508  22.995  1.00  0.00     0.221 C 
ATOM     90  O   UNL A   1      32.158  19.755  24.159  1.00  0.00    -0.370 OA
ENDBRANCH  82  84
ENDBRANCH  75  77
ENDBRANCH  69  71
ENDBRANCH  68  69
ENDBRANCH  67  68
ENDBRANCH  66  67
ENDBRANCH  65  66
ENDBRANCH  64  65
ENDBRANCH   1  64
TORSDOF 19
ENDMDL
MODEL 3
REMARK VINA RESULT:     -10.3      2.864      8.572
REMARK SMILES O=C(OCCOCCOCCOC(=O)c1cccc(N2C(=O)C[C@H]([NH+]3CCOCC3)C2=O)c1)c1ccc(-c2c3nc(c(-c4c(F)cccc4F)c4ccc([nH]4)c(-c4c(F)cccc4F)c4nc(c(-c5c(F)cccc5F)c5ccc2[nH]5)C=C4)C=C3)cc1
REMARK SMILES IDX 7 1 6 2 5 3 4 4 3 5 2 6 1 7 34 8 35 9 87 10 36 11 86 12
REMARK SMILES IDX 37 13 38 14 39 15 80 16 40 17 85 18 79 19 81 20 41 21 84 22
REMARK SMILES IDX 78 23 77 24 42 26 68 27 51 28 67 29 52 30 55 31 66 32 82 33
REMARK SMILES IDX 53 34 54 35 65 37 83 38 56 39 43 40 44 41 49 42 45 43 46 44
REMARK SMILES IDX 48 45 50 46 47 47 69 48 70 49 75 50 71 51 72 52 74 53 76 54
REMARK SMILES IDX 73 55 57 56 58 57 63 58 59 59 60 60 62 61 64 62 61 63 8 64
REMARK SMILES IDX 9 65 10 66 11 67 12 68 13 69 14 70 15 71 16 72 33 73 17 74
REMARK SMILES IDX 19 75 18 76 20 77 21 78 31 79 22 80 23 81 24 82 32 83 25 84
REMARK SMILES IDX 26 85 30 86 27 88 29 89 28 90
REMARK H PARENT 81 25 55 36 25 87
REMARK Flexibility Score: inf
ROOT
ATOM      1  C   UNL A   1      36.813  22.260  25.753  1.00  0.00     0.188 C 
ENDROOT
BRANCH   1   2
ATOM      2  O   UNL A   1      38.015  21.522  25.530  1.00  0.00    -0.376 OA
BRANCH   2   3
ATOM      3  C   UNL A   1      37.817  20.205  25.006  1.00  0.00     0.202 C 
BRANCH   3   4
ATOM      4  C   UNL A   1      38.731  19.102  25.566  1.00  0.00     0.261 C 
BRANCH   4   5
ATOM      5  O   UNL A   1      40.141  19.350  25.420  1.00  0.00    -0.460 OA
BRANCH   5   6
ATOM      6  C   UNL A   1      41.056  19.721  26.349  1.00  0.00     0.338 C 
ATOM      7  O   UNL A   1      41.625  18.844  26.995  1.00  0.00    -0.246 OA
BRANCH   6   8
ATOM      8  C   UNL A   1      41.415  21.138  26.643  1.00  0.00     0.060 A 
ATOM      9  C   UNL A   1      41.275  22.199  25.751  1.00  0.00     0.016 A 
ATOM     10  C   UNL A   1      41.830  21.438  27.950  1.00  0.00     0.016 A 
ATOM     11  C   UNL A   1      41.630  23.500  26.091  1.00  0.00     0.010 A 
ATOM     12  C   UNL A   1      42.137  22.752  28.322  1.00  0.00     0.010 A 
ATOM     13  C   UNL A   1      42.072  23.785  27.375  1.00  0.00    -0.014 A 
BRANCH  13  14
ATOM     14  C   UNL A   1      42.589  25.137  27.670  1.00  0.00     0.031 A 
ATOM     15  C   UNL A   1      41.658  26.130  28.294  1.00  0.00     0.074 A 
ATOM     16  C   UNL A   1      43.877  25.456  27.443  1.00  0.00     0.049 A 
ATOM     17  N   UNL A   1      41.856  27.393  28.560  1.00  0.00    -0.248 NA
ATOM     18  C   UNL A   1      40.333  25.628  28.701  1.00  0.00     0.031 C 
ATOM     19  C   UNL A   1      44.912  24.538  26.971  1.00  0.00     0.029 A 
ATOM     20  N   UNL A   1      44.531  26.658  27.555  1.00  0.00    -0.354 N 
ATOM     21  C   UNL A   1      40.678  27.840  29.140  1.00  0.00     0.074 A 
ATOM     22  C   UNL A   1      39.765  26.722  29.183  1.00  0.00     0.031 C 
ATOM     23  C   UNL A   1      46.037  25.233  26.743  1.00  0.00     0.029 A 
ATOM     24  C   UNL A   1      45.795  26.638  27.009  1.00  0.00     0.049 A 
ATOM     25  H   UNL A   1      44.137  27.452  27.981  1.00  0.00     0.167 HD
ATOM     26  C   UNL A   1      40.394  29.081  29.594  1.00  0.00     0.037 A 
ATOM     27  C   UNL A   1      46.621  27.657  26.712  1.00  0.00     0.037 A 
ATOM     28  C   UNL A   1      41.318  30.179  29.564  1.00  0.00     0.049 A 
ATOM     29  C   UNL A   1      46.231  29.031  27.156  1.00  0.00     0.074 A 
ATOM     30  C   UNL A   1      41.139  31.474  30.016  1.00  0.00     0.029 A 
ATOM     31  N   UNL A   1      42.595  30.111  29.032  1.00  0.00    -0.354 N 
ATOM     32  N   UNL A   1      45.162  29.417  27.804  1.00  0.00    -0.248 NA
ATOM     33  C   UNL A   1      47.195  30.103  26.875  1.00  0.00     0.031 C 
ATOM     34  C   UNL A   1      42.284  32.209  29.695  1.00  0.00     0.029 A 
ATOM     35  C   UNL A   1      43.190  31.359  29.089  1.00  0.00     0.049 A 
ATOM     36  H   UNL A   1      43.015  29.298  28.668  1.00  0.00     0.167 HD
ATOM     37  C   UNL A   1      45.345  30.768  28.033  1.00  0.00     0.074 A 
ATOM     38  C   UNL A   1      46.653  31.116  27.525  1.00  0.00     0.031 C 
ATOM     39  C   UNL A   1      44.495  31.662  28.584  1.00  0.00     0.037 A 
BRANCH  26  40
ATOM     40  C   UNL A   1      39.006  29.331  30.088  1.00  0.00     0.057 A 
ATOM     41  C   UNL A   1      37.963  29.726  29.242  1.00  0.00     0.134 A 
ATOM     42  C   UNL A   1      38.709  29.145  31.444  1.00  0.00     0.134 A 
ATOM     43  F   UNL A   1      38.190  29.946  27.938  1.00  0.00    -0.206 F 
ATOM     44  C   UNL A   1      36.673  29.936  29.730  1.00  0.00     0.040 A 
ATOM     45  C   UNL A   1      37.421  29.329  31.939  1.00  0.00     0.040 A 
ATOM     46  F   UNL A   1      39.670  28.776  32.305  1.00  0.00    -0.206 F 
ATOM     47  C   UNL A   1      36.398  29.728  31.082  1.00  0.00     0.006 A 
ENDBRANCH  26  40
BRANCH  27  48
ATOM     48  C   UNL A   1      47.851  27.523  25.892  1.00  0.00     0.057 A 
ATOM     49  C   UNL A   1      47.791  27.470  24.496  1.00  0.00     0.134 A 
ATOM     50  C   UNL A   1      49.061  27.160  26.496  1.00  0.00     0.134 A 
ATOM     51  F   UNL A   1      46.637  27.729  23.861  1.00  0.00    -0.206 F 
ATOM     52  C   UNL A   1      48.877  27.030  23.734  1.00  0.00     0.040 A 
ATOM     53  C   UNL A   1      50.176  26.785  25.738  1.00  0.00     0.040 A 
ATOM     54  F   UNL A   1      49.170  27.138  27.833  1.00  0.00    -0.206 F 
ATOM     55  C   UNL A   1      50.083  26.709  24.351  1.00  0.00     0.006 A 
ENDBRANCH  27  48
BRANCH  39  56
ATOM     56  C   UNL A   1      44.992  33.068  28.649  1.00  0.00     0.057 A 
ATOM     57  C   UNL A   1      45.714  33.534  29.757  1.00  0.00     0.134 A 
ATOM     58  C   UNL A   1      44.689  33.976  27.632  1.00  0.00     0.134 A 
ATOM     59  F   UNL A   1      45.993  32.714  30.782  1.00  0.00    -0.206 F 
ATOM     60  C   UNL A   1      46.080  34.872  29.868  1.00  0.00     0.040 A 
ATOM     61  C   UNL A   1      45.083  35.309  27.716  1.00  0.00     0.040 A 
ATOM     62  F   UNL A   1      43.988  33.587  26.555  1.00  0.00    -0.206 F 
ATOM     63  C   UNL A   1      45.770  35.762  28.843  1.00  0.00     0.006 A 
ENDBRANCH  39  56
ENDBRANCH  13  14
ENDBRANCH   6   8
ENDBRANCH   5   6
ENDBRANCH   4   5
ENDBRANCH   3   4
ENDBRANCH   2   3
ENDBRANCH   1   2
BRANCH   1  64
ATOM     64  C   UNL A   1      35.563  21.555  25.235  1.00  0.00     0.188 C 
BRANCH  64  65
ATOM     65  O   UNL A   1      34.609  21.114  26.196  1.00  0.00    -0.376 OA
BRANCH  65  66
ATOM     66  C   UNL A   1      34.259  22.000  27.250  1.00  0.00     0.202 C 
BRANCH  66  67
ATOM     67  C   UNL A   1      32.788  22.104  27.676  1.00  0.00     0.261 C 
BRANCH  67  68
ATOM     68  O   UNL A   1      31.997  23.074  26.979  1.00  0.00    -0.460 OA
BRANCH  68  69
ATOM     69  C   UNL A   1      31.221  22.526  26.016  1.00  0.00     0.338 C 
ATOM     70  O   UNL A   1      30.232  21.829  26.161  1.00  0.00    -0.246 OA
BRANCH  69  71
ATOM     71  C   UNL A   1      31.843  22.712  24.707  1.00  0.00     0.062 A 
ATOM     72  C   UNL A   1      32.200  21.686  23.838  1.00  0.00     0.016 A 
ATOM     73  C   UNL A   1      32.201  24.028  24.447  1.00  0.00     0.042 A 
ATOM     74  C   UNL A   1      32.930  22.011  22.691  1.00  0.00     0.003 A 
ATOM     75  C   UNL A   1      32.958  24.369  23.331  1.00  0.00     0.053 A 
ATOM     76  C   UNL A   1      33.299  23.346  22.434  1.00  0.00     0.027 A 
BRANCH  75  77
ATOM     77  N   UNL A   1      33.302  25.731  23.169  1.00  0.00    -0.245 N 
ATOM     78  C   UNL A   1      33.767  26.530  24.186  1.00  0.00     0.240 C 
ATOM     79  C   UNL A   1      33.283  26.427  21.995  1.00  0.00     0.292 C 
ATOM     80  O   UNL A   1      34.052  26.224  25.335  1.00  0.00    -0.274 OA
ATOM     81  C   UNL A   1      34.024  27.900  23.660  1.00  0.00     0.176 C 
ATOM     82  C   UNL A   1      33.316  27.915  22.327  1.00  0.00     0.284 C 
ATOM     83  O   UNL A   1      33.266  25.963  20.864  1.00  0.00    -0.267 OA
BRANCH  82  84
ATOM     84  N   UNL A   1      31.994  28.569  22.231  1.00  0.00    -0.320 N 
ATOM     85  C   UNL A   1      31.763  29.609  23.254  1.00  0.00     0.291 C 
ATOM     86  C   UNL A   1      30.767  27.769  22.079  1.00  0.00     0.291 C 
ATOM     87  H   UNL A   1      32.128  28.968  21.302  1.00  0.00     0.348 HD
ATOM     88  C   UNL A   1      31.130  29.112  24.559  1.00  0.00     0.221 C 
ATOM     89  C   UNL A   1      30.128  27.302  23.399  1.00  0.00     0.221 C 
ATOM     90  O   UNL A   1      29.924  28.386  24.313  1.00  0.00    -0.370 OA
ENDBRANCH  82  84
ENDBRANCH  75  77
ENDBRANCH  69  71
ENDBRANCH  68  69
ENDBRANCH  67  68
ENDBRANCH  66  67
ENDBRANCH  65  66
ENDBRANCH  64  65
ENDBRANCH   1  64
TORSDOF 19
ENDMDL
