MODEL 1
REMARK VINA RESULT:      -9.5      0.000      0.000
REMARK SMILES CC[C@@H](Sc1cccc(N)c1)C(=O)OCCOCCOCCOC(=O)c1ccc(-c2c3nc(c(-c4c(F)cccc4F)c4ccc([nH]4)c(-c4c(F)cccc4F)c4nc(c(-c5c(F)cccc5F)c5ccc2[nH]5)C=C4)C=C3)cc1
REMARK SMILES IDX 18 1 17 2 16 3 15 4 14 5 12 6 13 7 3 8 2 9 1 10 4 11 5 12
REMARK SMILES IDX 6 13 11 14 7 15 9 16 8 17 10 18 19 21 20 22 21 23 22 24
REMARK SMILES IDX 23 25 24 26 25 27 26 28 27 29 79 30 28 31 78 32 29 33 30 34
REMARK SMILES IDX 31 35 72 36 32 37 77 38 71 39 73 40 33 41 76 42 70 43 69 44
REMARK SMILES IDX 34 46 60 47 43 48 59 49 44 50 47 51 58 52 74 53 45 54 46 55
REMARK SMILES IDX 57 57 75 58 48 59 35 60 36 61 41 62 37 63 38 64 40 65 42 66
REMARK SMILES IDX 39 67 61 68 62 69 67 70 63 71 64 72 66 73 68 74 65 75 49 76
REMARK SMILES IDX 50 77 55 78 51 79 52 80 54 81 56 82 53 83
REMARK H PARENT 10 19 10 20 73 45 47 56
REMARK Flexibility Score: inf
ROOT
ATOM      1  C   UNL A   1      39.598  21.599  26.127  1.00  0.00     0.188 C 
ENDROOT
BRANCH   1   2
ATOM      2  O   UNL A   1      38.397  21.388  25.396  1.00  0.00    -0.376 OA
BRANCH   2   3
ATOM      3  C   UNL A   1      37.290  22.233  25.706  1.00  0.00     0.202 C 
BRANCH   3   4
ATOM      4  C   UNL A   1      36.982  23.377  24.727  1.00  0.00     0.261 C 
BRANCH   4   5
ATOM      5  O   UNL A   1      35.697  24.010  24.889  1.00  0.00    -0.462 OA
BRANCH   5   6
ATOM      6  C   UNL A   1      34.832  23.878  23.841  1.00  0.00     0.319 C 
ATOM      7  O   UNL A   1      35.175  23.543  22.710  1.00  0.00    -0.251 OA
BRANCH   6   8
ATOM      8  C   UNL A   1      33.357  24.127  24.218  1.00  0.00     0.161 C 
BRANCH   8   9
ATOM      9  C   UNL A   1      32.461  22.878  24.103  1.00  0.00     0.023 C 
ATOM     10  C   UNL A   1      32.036  22.242  25.422  1.00  0.00     0.006 C 
ENDBRANCH   8   9
BRANCH   8  11
ATOM     11  S   UNL A   1      33.433  24.878  25.908  1.00  0.00    -0.111 SA
BRANCH  11  12
ATOM     12  C   UNL A   1      33.148  26.614  25.646  1.00  0.00     0.010 A 
ATOM     13  C   UNL A   1      32.256  27.225  26.533  1.00  0.00     0.015 A 
ATOM     14  C   UNL A   1      33.733  27.379  24.631  1.00  0.00     0.040 A 
ATOM     15  C   UNL A   1      31.901  28.559  26.368  1.00  0.00     0.003 A 
ATOM     16  C   UNL A   1      33.385  28.724  24.456  1.00  0.00     0.032 A 
ATOM     17  C   UNL A   1      32.445  29.296  25.317  1.00  0.00     0.025 A 
BRANCH  16  18
ATOM     18  N   UNL A   1      33.851  29.443  23.365  1.00  0.00    -0.399 N 
ATOM     19  H   UNL A   1      33.833  29.041  22.466  1.00  0.00     0.156 HD
ATOM     20  H   UNL A   1      34.201  30.354  23.490  1.00  0.00     0.156 HD
ENDBRANCH  16  18
ENDBRANCH  11  12
ENDBRANCH   8  11
ENDBRANCH   6   8
ENDBRANCH   5   6
ENDBRANCH   4   5
ENDBRANCH   3   4
ENDBRANCH   2   3
ENDBRANCH   1   2
BRANCH   1  21
ATOM     21  C   UNL A   1      40.454  20.366  26.399  1.00  0.00     0.188 C 
BRANCH  21  22
ATOM     22  O   UNL A   1      41.790  20.605  26.804  1.00  0.00    -0.376 OA
BRANCH  22  23
ATOM     23  C   UNL A   1      42.816  20.166  25.908  1.00  0.00     0.202 C 
BRANCH  23  24
ATOM     24  C   UNL A   1      43.827  21.220  25.392  1.00  0.00     0.261 C 
BRANCH  24  25
ATOM     25  O   UNL A   1      44.004  22.410  26.198  1.00  0.00    -0.460 OA
BRANCH  25  26
ATOM     26  C   UNL A   1      43.968  23.613  25.579  1.00  0.00     0.338 C 
ATOM     27  O   UNL A   1      44.226  23.826  24.406  1.00  0.00    -0.246 OA
BRANCH  26  28
ATOM     28  C   UNL A   1      43.286  24.598  26.473  1.00  0.00     0.060 A 
ATOM     29  C   UNL A   1      43.842  25.883  26.581  1.00  0.00     0.016 A 
ATOM     30  C   UNL A   1      42.088  24.314  27.137  1.00  0.00     0.016 A 
ATOM     31  C   UNL A   1      43.234  26.862  27.376  1.00  0.00     0.010 A 
ATOM     32  C   UNL A   1      41.490  25.289  27.952  1.00  0.00     0.010 A 
ATOM     33  C   UNL A   1      42.078  26.559  28.105  1.00  0.00    -0.014 A 
BRANCH  33  34
ATOM     34  C   UNL A   1      41.617  27.480  29.182  1.00  0.00     0.031 A 
ATOM     35  C   UNL A   1      42.360  27.464  30.495  1.00  0.00     0.074 A 
ATOM     36  C   UNL A   1      40.594  28.341  29.017  1.00  0.00     0.049 A 
ATOM     37  N   UNL A   1      42.123  28.127  31.599  1.00  0.00    -0.248 NA
ATOM     38  C   UNL A   1      43.530  26.576  30.567  1.00  0.00     0.031 C 
ATOM     39  C   UNL A   1      39.816  28.513  27.793  1.00  0.00     0.029 A 
ATOM     40  N   UNL A   1      40.029  29.231  29.902  1.00  0.00    -0.354 N 
ATOM     41  C   UNL A   1      43.106  27.729  32.496  1.00  0.00     0.074 A 
ATOM     42  C   UNL A   1      43.925  26.747  31.819  1.00  0.00     0.031 C 
ATOM     43  C   UNL A   1      38.865  29.440  28.008  1.00  0.00     0.029 A 
ATOM     44  C   UNL A   1      38.943  29.904  29.394  1.00  0.00     0.049 A 
ATOM     45  H   UNL A   1      40.371  29.373  30.814  1.00  0.00     0.167 HD
ATOM     46  C   UNL A   1      43.317  28.144  33.768  1.00  0.00     0.037 A 
ATOM     47  C   UNL A   1      38.095  30.772  29.984  1.00  0.00     0.037 A 
ATOM     48  C   UNL A   1      42.512  29.119  34.453  1.00  0.00     0.049 A 
ATOM     49  C   UNL A   1      38.295  31.152  31.433  1.00  0.00     0.074 A 
ATOM     50  C   UNL A   1      42.663  29.611  35.738  1.00  0.00     0.029 A 
ATOM     51  N   UNL A   1      41.398  29.744  33.915  1.00  0.00    -0.354 N 
ATOM     52  N   UNL A   1      39.240  30.785  32.265  1.00  0.00    -0.248 NA
ATOM     53  C   UNL A   1      37.308  32.070  32.024  1.00  0.00     0.031 C 
ATOM     54  C   UNL A   1      41.607  30.489  35.999  1.00  0.00     0.029 A 
ATOM     55  C   UNL A   1      40.835  30.594  34.853  1.00  0.00     0.049 A 
ATOM     56  H   UNL A   1      41.057  29.604  33.002  1.00  0.00     0.167 HD
ATOM     57  C   UNL A   1      38.981  31.452  33.459  1.00  0.00     0.074 A 
ATOM     58  C   UNL A   1      37.798  32.255  33.241  1.00  0.00     0.031 C 
ATOM     59  C   UNL A   1      39.665  31.404  34.629  1.00  0.00     0.037 A 
BRANCH  46  60
ATOM     60  C   UNL A   1      44.456  27.516  34.520  1.00  0.00     0.057 A 
ATOM     61  C   UNL A   1      45.738  28.079  34.535  1.00  0.00     0.134 A 
ATOM     62  C   UNL A   1      44.254  26.347  35.266  1.00  0.00     0.134 A 
ATOM     63  F   UNL A   1      46.002  29.188  33.827  1.00  0.00    -0.206 F 
ATOM     64  C   UNL A   1      46.784  27.490  35.248  1.00  0.00     0.040 A 
ATOM     65  C   UNL A   1      45.284  25.767  36.006  1.00  0.00     0.040 A 
ATOM     66  F   UNL A   1      43.049  25.758  35.298  1.00  0.00    -0.206 F 
ATOM     67  C   UNL A   1      46.556  26.336  35.993  1.00  0.00     0.006 A 
ENDBRANCH  46  60
BRANCH  47  68
ATOM     68  C   UNL A   1      36.946  31.337  29.226  1.00  0.00     0.057 A 
ATOM     69  C   UNL A   1      35.826  30.558  28.910  1.00  0.00     0.134 A 
ATOM     70  C   UNL A   1      36.966  32.654  28.750  1.00  0.00     0.134 A 
ATOM     71  F   UNL A   1      35.761  29.278  29.306  1.00  0.00    -0.206 F 
ATOM     72  C   UNL A   1      34.779  31.059  28.133  1.00  0.00     0.040 A 
ATOM     73  C   UNL A   1      35.913  33.178  27.997  1.00  0.00     0.040 A 
ATOM     74  F   UNL A   1      38.012  33.452  29.008  1.00  0.00    -0.206 F 
ATOM     75  C   UNL A   1      34.819  32.376  27.678  1.00  0.00     0.006 A 
ENDBRANCH  47  68
BRANCH  59  76
ATOM     76  C   UNL A   1      39.189  32.279  35.755  1.00  0.00     0.057 A 
ATOM     77  C   UNL A   1      38.315  31.813  36.746  1.00  0.00     0.134 A 
ATOM     78  C   UNL A   1      39.654  33.596  35.876  1.00  0.00     0.134 A 
ATOM     79  F   UNL A   1      37.824  30.565  36.687  1.00  0.00    -0.206 F 
ATOM     80  C   UNL A   1      37.902  32.631  37.799  1.00  0.00     0.040 A 
ATOM     81  C   UNL A   1      39.272  34.413  36.941  1.00  0.00     0.040 A 
ATOM     82  F   UNL A   1      40.504  34.106  34.972  1.00  0.00    -0.206 F 
ATOM     83  C   UNL A   1      38.387  33.933  37.903  1.00  0.00     0.006 A 
ENDBRANCH  59  76
ENDBRANCH  33  34
ENDBRANCH  26  28
ENDBRANCH  25  26
ENDBRANCH  24  25
ENDBRANCH  23  24
ENDBRANCH  22  23
ENDBRANCH  21  22
ENDBRANCH   1  21
TORSDOF 21
ENDMDL
MODEL 2
REMARK VINA RESULT:      -9.4      4.537      7.039
REMARK SMILES CC[C@@H](Sc1cccc(N)c1)C(=O)OCCOCCOCCOC(=O)c1ccc(-c2c3nc(c(-c4c(F)cccc4F)c4ccc([nH]4)c(-c4c(F)cccc4F)c4nc(c(-c5c(F)cccc5F)c5ccc2[nH]5)C=C4)C=C3)cc1
REMARK SMILES IDX 18 1 17 2 16 3 15 4 14 5 12 6 13 7 3 8 2 9 1 10 4 11 5 12
REMARK SMILES IDX 6 13 11 14 7 15 9 16 8 17 10 18 19 21 20 22 21 23 22 24
REMARK SMILES IDX 23 25 24 26 25 27 26 28 27 29 79 30 28 31 78 32 29 33 30 34
REMARK SMILES IDX 31 35 72 36 32 37 77 38 71 39 73 40 33 41 76 42 70 43 69 44
REMARK SMILES IDX 34 46 60 47 43 48 59 49 44 50 47 51 58 52 74 53 45 54 46 55
REMARK SMILES IDX 57 57 75 58 48 59 35 60 36 61 41 62 37 63 38 64 40 65 42 66
REMARK SMILES IDX 39 67 61 68 62 69 67 70 63 71 64 72 66 73 68 74 65 75 49 76
REMARK SMILES IDX 50 77 55 78 51 79 52 80 54 81 56 82 53 83
REMARK H PARENT 10 19 10 20 73 45 47 56
REMARK Flexibility Score: inf
ROOT
ATOM      1  C   UNL A   1      45.827  23.540  24.691  1.00  0.00     0.188 C 
ENDROOT
BRANCH   1   2
ATOM      2  O   UNL A   1      46.548  24.524  25.420  1.00  0.00    -0.376 OA
BRANCH   2   3
ATOM      3  C   UNL A   1      46.352  25.886  25.043  1.00  0.00     0.202 C 
BRANCH   3   4
ATOM      4  C   UNL A   1      45.325  26.698  25.848  1.00  0.00     0.261 C 
BRANCH   4   5
ATOM      5  O   UNL A   1      45.282  28.111  25.562  1.00  0.00    -0.462 OA
BRANCH   5   6
ATOM      6  C   UNL A   1      45.222  28.937  26.648  1.00  0.00     0.319 C 
ATOM      7  O   UNL A   1      45.869  28.760  27.677  1.00  0.00    -0.251 OA
BRANCH   6   8
ATOM      8  C   UNL A   1      44.311  30.164  26.445  1.00  0.00     0.161 C 
BRANCH   8   9
ATOM      9  C   UNL A   1      42.860  29.954  26.924  1.00  0.00     0.023 C 
ATOM     10  C   UNL A   1      42.021  28.988  26.094  1.00  0.00     0.006 C 
ENDBRANCH   8   9
BRANCH   8  11
ATOM     11  S   UNL A   1      45.212  31.551  27.277  1.00  0.00    -0.111 SA
BRANCH  11  12
ATOM     12  C   UNL A   1      44.269  33.006  26.880  1.00  0.00     0.010 A 
ATOM     13  C   UNL A   1      44.093  33.266  25.517  1.00  0.00     0.015 A 
ATOM     14  C   UNL A   1      43.720  33.887  27.819  1.00  0.00     0.040 A 
ATOM     15  C   UNL A   1      43.441  34.420  25.097  1.00  0.00     0.003 A 
ATOM     16  C   UNL A   1      43.058  35.051  27.408  1.00  0.00     0.032 A 
ATOM     17  C   UNL A   1      42.950  35.320  26.041  1.00  0.00     0.025 A 
BRANCH  16  18
ATOM     18  N   UNL A   1      42.643  35.997  28.334  1.00  0.00    -0.399 N 
ATOM     19  H   UNL A   1      41.917  35.785  28.964  1.00  0.00     0.156 HD
ATOM     20  H   UNL A   1      43.074  36.882  28.359  1.00  0.00     0.156 HD
ENDBRANCH  16  18
ENDBRANCH  11  12
ENDBRANCH   8  11
ENDBRANCH   6   8
ENDBRANCH   5   6
ENDBRANCH   4   5
ENDBRANCH   3   4
ENDBRANCH   2   3
ENDBRANCH   1   2
BRANCH   1  21
ATOM     21  C   UNL A   1      46.007  22.093  25.140  1.00  0.00     0.188 C 
BRANCH  21  22
ATOM     22  O   UNL A   1      45.470  21.098  24.287  1.00  0.00    -0.376 OA
BRANCH  22  23
ATOM     23  C   UNL A   1      45.592  19.743  24.731  1.00  0.00     0.202 C 
BRANCH  23  24
ATOM     24  C   UNL A   1      44.305  18.885  24.803  1.00  0.00     0.261 C 
BRANCH  24  25
ATOM     25  O   UNL A   1      43.504  19.002  26.005  1.00  0.00    -0.460 OA
BRANCH  25  26
ATOM     26  C   UNL A   1      42.253  19.505  25.893  1.00  0.00     0.338 C 
ATOM     27  O   UNL A   1      41.260  18.891  25.541  1.00  0.00    -0.246 OA
BRANCH  26  28
ATOM     28  C   UNL A   1      42.212  20.851  26.543  1.00  0.00     0.060 A 
ATOM     29  C   UNL A   1      42.467  21.976  25.741  1.00  0.00     0.016 A 
ATOM     30  C   UNL A   1      41.859  21.034  27.883  1.00  0.00     0.016 A 
ATOM     31  C   UNL A   1      42.413  23.266  26.280  1.00  0.00     0.010 A 
ATOM     32  C   UNL A   1      41.827  22.328  28.429  1.00  0.00     0.010 A 
ATOM     33  C   UNL A   1      42.137  23.451  27.639  1.00  0.00    -0.014 A 
BRANCH  33  34
ATOM     34  C   UNL A   1      42.390  24.775  28.275  1.00  0.00     0.031 A 
ATOM     35  C   UNL A   1      43.780  25.063  28.787  1.00  0.00     0.074 A 
ATOM     36  C   UNL A   1      41.443  25.727  28.378  1.00  0.00     0.049 A 
ATOM     37  N   UNL A   1      44.237  26.112  29.422  1.00  0.00    -0.248 NA
ATOM     38  C   UNL A   1      44.788  24.019  28.545  1.00  0.00     0.031 C 
ATOM     39  C   UNL A   1      40.072  25.620  27.884  1.00  0.00     0.029 A 
ATOM     40  N   UNL A   1      41.497  26.978  28.950  1.00  0.00    -0.354 N 
ATOM     41  C   UNL A   1      45.580  25.850  29.664  1.00  0.00     0.074 A 
ATOM     42  C   UNL A   1      45.857  24.533  29.134  1.00  0.00     0.031 C 
ATOM     43  C   UNL A   1      39.411  26.753  28.186  1.00  0.00     0.029 A 
ATOM     44  C   UNL A   1      40.298  27.651  28.926  1.00  0.00     0.049 A 
ATOM     45  H   UNL A   1      42.317  27.356  29.340  1.00  0.00     0.167 HD
ATOM     46  C   UNL A   1      46.505  26.634  30.268  1.00  0.00     0.037 A 
ATOM     47  C   UNL A   1      39.950  28.840  29.460  1.00  0.00     0.037 A 
ATOM     48  C   UNL A   1      46.244  27.944  30.800  1.00  0.00     0.049 A 
ATOM     49  C   UNL A   1      40.976  29.658  30.210  1.00  0.00     0.074 A 
ATOM     50  C   UNL A   1      47.126  28.816  31.415  1.00  0.00     0.029 A 
ATOM     51  N   UNL A   1      45.007  28.570  30.791  1.00  0.00    -0.354 N 
ATOM     52  N   UNL A   1      42.248  29.410  30.414  1.00  0.00    -0.248 NA
ATOM     53  C   UNL A   1      40.516  30.924  30.803  1.00  0.00     0.031 C 
ATOM     54  C   UNL A   1      46.411  29.943  31.830  1.00  0.00     0.029 A 
ATOM     55  C   UNL A   1      45.097  29.803  31.416  1.00  0.00     0.049 A 
ATOM     56  H   UNL A   1      44.186  28.193  30.398  1.00  0.00     0.167 HD
ATOM     57  C   UNL A   1      42.742  30.500  31.125  1.00  0.00     0.074 A 
ATOM     58  C   UNL A   1      41.638  31.417  31.306  1.00  0.00     0.031 C 
ATOM     59  C   UNL A   1      43.999  30.720  31.582  1.00  0.00     0.037 A 
BRANCH  46  60
ATOM     60  C   UNL A   1      47.892  26.076  30.416  1.00  0.00     0.057 A 
ATOM     61  C   UNL A   1      48.808  26.067  29.356  1.00  0.00     0.134 A 
ATOM     62  C   UNL A   1      48.326  25.572  31.649  1.00  0.00     0.134 A 
ATOM     63  F   UNL A   1      48.449  26.520  28.144  1.00  0.00    -0.206 F 
ATOM     64  C   UNL A   1      50.098  25.557  29.510  1.00  0.00     0.040 A 
ATOM     65  C   UNL A   1      49.623  25.087  31.823  1.00  0.00     0.040 A 
ATOM     66  F   UNL A   1      47.502  25.554  32.706  1.00  0.00    -0.206 F 
ATOM     67  C   UNL A   1      50.510  25.073  30.750  1.00  0.00     0.006 A 
ENDBRANCH  46  60
BRANCH  47  68
ATOM     68  C   UNL A   1      38.553  29.341  29.340  1.00  0.00     0.057 A 
ATOM     69  C   UNL A   1      37.662  29.281  30.418  1.00  0.00     0.134 A 
ATOM     70  C   UNL A   1      38.061  29.838  28.127  1.00  0.00     0.134 A 
ATOM     71  F   UNL A   1      38.061  28.783  31.598  1.00  0.00    -0.206 F 
ATOM     72  C   UNL A   1      36.329  29.677  30.290  1.00  0.00     0.040 A 
ATOM     73  C   UNL A   1      36.738  30.265  27.993  1.00  0.00     0.040 A 
ATOM     74  F   UNL A   1      38.858  29.913  27.052  1.00  0.00    -0.206 F 
ATOM     75  C   UNL A   1      35.865  30.177  29.074  1.00  0.00     0.006 A 
ENDBRANCH  47  68
BRANCH  59  76
ATOM     76  C   UNL A   1      44.273  32.024  32.280  1.00  0.00     0.057 A 
ATOM     77  C   UNL A   1      44.830  33.125  31.616  1.00  0.00     0.134 A 
ATOM     78  C   UNL A   1      43.927  32.194  33.628  1.00  0.00     0.134 A 
ATOM     79  F   UNL A   1      45.192  33.029  30.328  1.00  0.00    -0.206 F 
ATOM     80  C   UNL A   1      45.055  34.337  32.272  1.00  0.00     0.040 A 
ATOM     81  C   UNL A   1      44.119  33.410  34.286  1.00  0.00     0.040 A 
ATOM     82  F   UNL A   1      43.376  31.187  34.323  1.00  0.00    -0.206 F 
ATOM     83  C   UNL A   1      44.692  34.484  33.610  1.00  0.00     0.006 A 
ENDBRANCH  59  76
ENDBRANCH  33  34
ENDBRANCH  26  28
ENDBRANCH  25  26
ENDBRANCH  24  25
ENDBRANCH  23  24
ENDBRANCH  22  23
ENDBRANCH  21  22
ENDBRANCH   1  21
TORSDOF 21
ENDMDL
MODEL 3
REMARK VINA RESULT:      -9.3      4.834      9.583
REMARK SMILES CC[C@@H](Sc1cccc(N)c1)C(=O)OCCOCCOCCOC(=O)c1ccc(-c2c3nc(c(-c4c(F)cccc4F)c4ccc([nH]4)c(-c4c(F)cccc4F)c4nc(c(-c5c(F)cccc5F)c5ccc2[nH]5)C=C4)C=C3)cc1
REMARK SMILES IDX 18 1 17 2 16 3 15 4 14 5 12 6 13 7 3 8 2 9 1 10 4 11 5 12
REMARK SMILES IDX 6 13 11 14 7 15 9 16 8 17 10 18 19 21 20 22 21 23 22 24
REMARK SMILES IDX 23 25 24 26 25 27 26 28 27 29 79 30 28 31 78 32 29 33 30 34
REMARK SMILES IDX 31 35 72 36 32 37 77 38 71 39 73 40 33 41 76 42 70 43 69 44
REMARK SMILES IDX 34 46 60 47 43 48 59 49 44 50 47 51 58 52 74 53 45 54 46 55
REMARK SMILES IDX 57 57 75 58 48 59 35 60 36 61 41 62 37 63 38 64 40 65 42 66
REMARK SMILES IDX 39 67 61 68 62 69 67 70 63 71 64 72 66 73 68 74 65 75 49 76
REMARK SMILES IDX 50 77 55 78 51 79 52 80 54 81 56 82 53 83
REMARK H PARENT 10 19 10 20 73 45 47 56
REMARK Flexibility Score: inf
ROOT
ATOM      1  C   UNL A   1      46.006  23.301  24.645  1.00  0.00     0.188 C 
ENDROOT
BRANCH   1   2
ATOM      2  O   UNL A   1      46.689  24.262  25.438  1.00  0.00    -0.376 OA
BRANCH   2   3
ATOM      3  C   UNL A   1      46.676  25.612  24.979  1.00  0.00     0.202 C 
BRANCH   3   4
ATOM      4  C   UNL A   1      45.585  26.537  25.543  1.00  0.00     0.261 C 
BRANCH   4   5
ATOM      5  O   UNL A   1      45.517  27.853  24.959  1.00  0.00    -0.462 OA
BRANCH   5   6
ATOM      6  C   UNL A   1      46.252  28.820  25.585  1.00  0.00     0.319 C 
ATOM      7  O   UNL A   1      47.480  28.854  25.582  1.00  0.00    -0.251 OA
BRANCH   6   8
ATOM      8  C   UNL A   1      45.395  29.917  26.250  1.00  0.00     0.161 C 
BRANCH   8   9
ATOM      9  C   UNL A   1      44.256  29.372  27.135  1.00  0.00     0.023 C 
ATOM     10  C   UNL A   1      42.856  29.446  26.534  1.00  0.00     0.006 C 
ENDBRANCH   8   9
BRANCH   8  11
ATOM     11  S   UNL A   1      46.621  30.989  27.130  1.00  0.00    -0.111 SA
BRANCH  11  12
ATOM     12  C   UNL A   1      46.279  32.636  26.552  1.00  0.00     0.010 A 
ATOM     13  C   UNL A   1      47.307  33.568  26.724  1.00  0.00     0.015 A 
ATOM     14  C   UNL A   1      45.077  33.047  25.965  1.00  0.00     0.040 A 
ATOM     15  C   UNL A   1      47.116  34.902  26.381  1.00  0.00     0.003 A 
ATOM     16  C   UNL A   1      44.873  34.387  25.612  1.00  0.00     0.032 A 
ATOM     17  C   UNL A   1      45.893  35.311  25.851  1.00  0.00     0.025 A 
BRANCH  16  18
ATOM     18  N   UNL A   1      43.634  34.824  25.168  1.00  0.00    -0.399 N 
ATOM     19  H   UNL A   1      42.823  34.621  25.688  1.00  0.00     0.156 HD
ATOM     20  H   UNL A   1      43.565  35.336  24.330  1.00  0.00     0.156 HD
ENDBRANCH  16  18
ENDBRANCH  11  12
ENDBRANCH   8  11
ENDBRANCH   6   8
ENDBRANCH   5   6
ENDBRANCH   4   5
ENDBRANCH   3   4
ENDBRANCH   2   3
ENDBRANCH   1   2
BRANCH   1  21
ATOM     21  C   UNL A   1      46.019  21.863  25.156  1.00  0.00     0.188 C 
BRANCH  21  22
ATOM     22  O   UNL A   1      45.384  20.898  24.336  1.00  0.00    -0.376 OA
BRANCH  22  23
ATOM     23  C   UNL A   1      45.362  19.556  24.832  1.00  0.00     0.202 C 
BRANCH  23  24
ATOM     24  C   UNL A   1      44.010  18.802  24.825  1.00  0.00     0.261 C 
BRANCH  24  25
ATOM     25  O   UNL A   1      43.180  18.931  26.005  1.00  0.00    -0.460 OA
BRANCH  25  26
ATOM     26  C   UNL A   1      42.003  19.590  25.891  1.00  0.00     0.338 C 
ATOM     27  O   UNL A   1      40.942  19.109  25.532  1.00  0.00    -0.246 OA
BRANCH  26  28
ATOM     28  C   UNL A   1      42.131  20.928  26.545  1.00  0.00     0.060 A 
ATOM     29  C   UNL A   1      42.424  22.034  25.730  1.00  0.00     0.016 A 
ATOM     30  C   UNL A   1      41.899  21.128  27.910  1.00  0.00     0.016 A 
ATOM     31  C   UNL A   1      42.526  23.318  26.275  1.00  0.00     0.010 A 
ATOM     32  C   UNL A   1      42.023  22.414  28.460  1.00  0.00     0.010 A 
ATOM     33  C   UNL A   1      42.371  23.514  27.653  1.00  0.00    -0.014 A 
BRANCH  33  34
ATOM     34  C   UNL A   1      42.788  24.804  28.271  1.00  0.00     0.031 A 
ATOM     35  C   UNL A   1      41.734  25.861  28.486  1.00  0.00     0.074 A 
ATOM     36  C   UNL A   1      44.051  25.046  28.671  1.00  0.00     0.049 A 
ATOM     37  N   UNL A   1      41.852  27.078  28.954  1.00  0.00    -0.248 NA
ATOM     38  C   UNL A   1      40.358  25.487  28.122  1.00  0.00     0.031 C 
ATOM     39  C   UNL A   1      45.167  24.107  28.581  1.00  0.00     0.029 A 
ATOM     40  N   UNL A   1      44.607  26.175  29.230  1.00  0.00    -0.354 N 
ATOM     41  C   UNL A   1      40.571  27.617  28.930  1.00  0.00     0.074 A 
ATOM     42  C   UNL A   1      39.696  26.606  28.377  1.00  0.00     0.031 C 
ATOM     43  C   UNL A   1      46.277  24.703  29.054  1.00  0.00     0.029 A 
ATOM     44  C   UNL A   1      45.961  26.076  29.448  1.00  0.00     0.049 A 
ATOM     45  H   UNL A   1      44.084  26.978  29.452  1.00  0.00     0.167 HD
ATOM     46  C   UNL A   1      40.154  28.840  29.336  1.00  0.00     0.037 A 
ATOM     47  C   UNL A   1      46.846  26.995  29.889  1.00  0.00     0.037 A 
ATOM     48  C   UNL A   1      41.012  29.853  29.888  1.00  0.00     0.049 A 
ATOM     49  C   UNL A   1      46.373  28.383  30.251  1.00  0.00     0.074 A 
ATOM     50  C   UNL A   1      40.672  31.116  30.341  1.00  0.00     0.029 A 
ATOM     51  N   UNL A   1      42.383  29.726  30.053  1.00  0.00    -0.354 N 
ATOM     52  N   UNL A   1      45.157  28.875  30.244  1.00  0.00    -0.248 NA
ATOM     53  C   UNL A   1      47.400  29.346  30.684  1.00  0.00     0.031 C 
ATOM     54  C   UNL A   1      41.843  31.775  30.725  1.00  0.00     0.029 A 
ATOM     55  C   UNL A   1      42.906  30.899  30.573  1.00  0.00     0.049 A 
ATOM     56  H   UNL A   1      42.906  28.922  29.833  1.00  0.00     0.167 HD
ATOM     57  C   UNL A   1      45.270  30.184  30.702  1.00  0.00     0.074 A 
ATOM     58  C   UNL A   1      46.669  30.408  30.989  1.00  0.00     0.031 C 
ATOM     59  C   UNL A   1      44.298  31.115  30.872  1.00  0.00     0.037 A 
BRANCH  46  60
ATOM     60  C   UNL A   1      38.697  29.163  29.168  1.00  0.00     0.057 A 
ATOM     61  C   UNL A   1      37.793  29.101  30.236  1.00  0.00     0.134 A 
ATOM     62  C   UNL A   1      38.201  29.576  27.925  1.00  0.00     0.134 A 
ATOM     63  F   UNL A   1      38.200  28.697  31.449  1.00  0.00    -0.206 F 
ATOM     64  C   UNL A   1      36.443  29.416  30.068  1.00  0.00     0.040 A 
ATOM     65  C   UNL A   1      36.860  29.922  27.752  1.00  0.00     0.040 A 
ATOM     66  F   UNL A   1      39.013  29.661  26.861  1.00  0.00    -0.206 F 
ATOM     67  C   UNL A   1      35.977  29.837  28.825  1.00  0.00     0.006 A 
ENDBRANCH  46  60
BRANCH  47  68
ATOM     68  C   UNL A   1      48.292  26.657  29.995  1.00  0.00     0.057 A 
ATOM     69  C   UNL A   1      48.849  26.205  31.198  1.00  0.00     0.134 A 
ATOM     70  C   UNL A   1      49.161  26.833  28.912  1.00  0.00     0.134 A 
ATOM     71  F   UNL A   1      48.077  26.049  32.283  1.00  0.00    -0.206 F 
ATOM     72  C   UNL A   1      50.218  25.960  31.326  1.00  0.00     0.040 A 
ATOM     73  C   UNL A   1      50.527  26.563  29.016  1.00  0.00     0.040 A 
ATOM     74  F   UNL A   1      48.695  27.272  27.734  1.00  0.00    -0.206 F 
ATOM     75  C   UNL A   1      51.061  26.134  30.229  1.00  0.00     0.006 A 
ENDBRANCH  47  68
BRANCH  59  76
ATOM     76  C   UNL A   1      44.697  32.449  31.441  1.00  0.00     0.057 A 
ATOM     77  C   UNL A   1      44.988  33.551  30.626  1.00  0.00     0.134 A 
ATOM     78  C   UNL A   1      44.743  32.644  32.828  1.00  0.00     0.134 A 
ATOM     79  F   UNL A   1      44.972  33.432  29.290  1.00  0.00    -0.206 F 
ATOM     80  C   UNL A   1      45.333  34.790  31.170  1.00  0.00     0.040 A 
ATOM     81  C   UNL A   1      45.056  33.886  33.383  1.00  0.00     0.040 A 
ATOM     82  F   UNL A   1      44.463  31.637  33.669  1.00  0.00    -0.206 F 
ATOM     83  C   UNL A   1      45.360  34.962  32.553  1.00  0.00     0.006 A 
ENDBRANCH  59  76
ENDBRANCH  33  34
ENDBRANCH  26  28
ENDBRANCH  25  26
ENDBRANCH  24  25
ENDBRANCH  23  24
ENDBRANCH  22  23
ENDBRANCH  21  22
ENDBRANCH   1  21
TORSDOF 21
ENDMDL
