MODEL 1
REMARK VINA RESULT:     -10.6      0.000      0.000
REMARK SMILES O=C(OCCOCCOCCOC(=O)[C@H]1CC[C@H]2CCCC[C@@H]2N1C(=O)c1ccn[nH]1)c1ccc(-c2c3nc(c(-c4c(F)cccc4F)c4ccc([nH]4)c(-c4c(F)cccc4F)c4nc(c(-c5c(F)cccc5F)c5ccc2[nH]5)C=C4)C=C3)cc1
REMARK SMILES IDX 7 1 6 2 5 3 4 4 3 5 2 6 1 7 32 8 33 9 85 10 34 11 84 12
REMARK SMILES IDX 35 13 36 14 37 15 78 16 38 17 83 18 77 19 79 20 39 21 82 22
REMARK SMILES IDX 76 23 75 24 40 26 66 27 49 28 65 29 50 30 53 31 64 32 80 33
REMARK SMILES IDX 51 34 52 35 63 37 81 38 54 39 41 40 42 41 47 42 43 43 44 44
REMARK SMILES IDX 46 45 48 46 45 47 67 48 68 49 73 50 69 51 70 52 72 53 74 54
REMARK SMILES IDX 71 55 55 56 56 57 61 58 57 59 58 60 60 61 62 62 59 63 8 64
REMARK SMILES IDX 9 65 10 66 11 67 12 68 13 69 14 70 15 71 16 72 24 73 17 74
REMARK SMILES IDX 23 75 18 76 22 77 19 78 21 79 20 80 25 81 26 82 27 83 28 84
REMARK SMILES IDX 31 85 29 86 30 87
REMARK H PARENT 79 25 53 36 31 88
REMARK Flexibility Score: inf
ROOT
ATOM      1  C   UNL A   1      31.119  27.808  24.889  1.00  0.00     0.188 C 
ENDROOT
BRANCH   1   2
ATOM      2  O   UNL A   1      31.674  28.982  25.507  1.00  0.00    -0.376 OA
BRANCH   2   3
ATOM      3  C   UNL A   1      33.068  29.125  25.210  1.00  0.00     0.202 C 
BRANCH   3   4
ATOM      4  C   UNL A   1      33.945  28.804  26.424  1.00  0.00     0.261 C 
BRANCH   4   5
ATOM      5  O   UNL A   1      33.737  29.764  27.479  1.00  0.00    -0.460 OA
BRANCH   5   6
ATOM      6  C   UNL A   1      34.680  30.654  27.887  1.00  0.00     0.338 C 
ATOM      7  O   UNL A   1      34.389  31.816  28.151  1.00  0.00    -0.246 OA
BRANCH   6   8
ATOM      8  C   UNL A   1      36.012  30.142  28.282  1.00  0.00     0.060 A 
ATOM      9  C   UNL A   1      36.274  29.565  29.526  1.00  0.00     0.016 A 
ATOM     10  C   UNL A   1      37.018  30.165  27.307  1.00  0.00     0.016 A 
ATOM     11  C   UNL A   1      37.568  29.133  29.841  1.00  0.00     0.010 A 
ATOM     12  C   UNL A   1      38.292  29.674  27.600  1.00  0.00     0.010 A 
ATOM     13  C   UNL A   1      38.591  29.188  28.883  1.00  0.00    -0.014 A 
BRANCH  13  14
ATOM     14  C   UNL A   1      39.977  28.751  29.194  1.00  0.00     0.031 A 
ATOM     15  C   UNL A   1      40.958  29.718  29.798  1.00  0.00     0.074 A 
ATOM     16  C   UNL A   1      40.385  27.505  28.885  1.00  0.00     0.049 A 
ATOM     17  N   UNL A   1      42.233  29.554  30.047  1.00  0.00    -0.248 NA
ATOM     18  C   UNL A   1      40.434  31.036  30.187  1.00  0.00     0.031 C 
ATOM     19  C   UNL A   1      39.543  26.449  28.331  1.00  0.00     0.029 A 
ATOM     20  N   UNL A   1      41.630  26.933  28.959  1.00  0.00    -0.354 N 
ATOM     21  C   UNL A   1      42.656  30.732  30.645  1.00  0.00     0.074 A 
ATOM     22  C   UNL A   1      41.519  31.628  30.667  1.00  0.00     0.031 C 
ATOM     23  C   UNL A   1      40.305  25.384  28.042  1.00  0.00     0.029 A 
ATOM     24  C   UNL A   1      41.687  25.680  28.401  1.00  0.00     0.049 A 
ATOM     25  H   UNL A   1      42.406  27.378  29.372  1.00  0.00     0.167 HD
ATOM     26  C   UNL A   1      43.869  31.030  31.169  1.00  0.00     0.037 A 
ATOM     27  C   UNL A   1      42.734  24.867  28.183  1.00  0.00     0.037 A 
ATOM     28  C   UNL A   1      45.002  30.146  31.173  1.00  0.00     0.049 A 
ATOM     29  C   UNL A   1      44.102  25.270  28.640  1.00  0.00     0.074 A 
ATOM     30  C   UNL A   1      46.243  30.329  31.760  1.00  0.00     0.029 A 
ATOM     31  N   UNL A   1      45.033  28.909  30.549  1.00  0.00    -0.354 N 
ATOM     32  N   UNL A   1      44.473  26.366  29.251  1.00  0.00    -0.248 NA
ATOM     33  C   UNL A   1      45.192  24.314  28.394  1.00  0.00     0.031 C 
ATOM     34  C   UNL A   1      47.033  29.208  31.473  1.00  0.00     0.029 A 
ATOM     35  C   UNL A   1      46.279  28.327  30.716  1.00  0.00     0.049 A 
ATOM     36  H   UNL A   1      44.281  28.504  30.060  1.00  0.00     0.167 HD
ATOM     37  C   UNL A   1      45.828  26.216  29.506  1.00  0.00     0.074 A 
ATOM     38  C   UNL A   1      46.223  24.937  28.951  1.00  0.00     0.031 C 
ATOM     39  C   UNL A   1      46.661  27.055  30.165  1.00  0.00     0.037 A 
BRANCH  26  40
ATOM     40  C   UNL A   1      44.007  32.364  31.827  1.00  0.00     0.057 A 
ATOM     41  C   UNL A   1      43.688  32.535  33.180  1.00  0.00     0.134 A 
ATOM     42  C   UNL A   1      44.460  33.480  31.116  1.00  0.00     0.134 A 
ATOM     43  F   UNL A   1      43.235  31.502  33.906  1.00  0.00    -0.206 F 
ATOM     44  C   UNL A   1      43.803  33.777  33.802  1.00  0.00     0.040 A 
ATOM     45  C   UNL A   1      44.587  34.727  31.730  1.00  0.00     0.040 A 
ATOM     46  F   UNL A   1      44.773  33.378  29.816  1.00  0.00    -0.206 F 
ATOM     47  C   UNL A   1      44.256  34.878  33.077  1.00  0.00     0.006 A 
ENDBRANCH  26  40
BRANCH  27  48
ATOM     48  C   UNL A   1      42.523  23.583  27.479  1.00  0.00     0.057 A 
ATOM     49  C   UNL A   1      42.625  23.495  26.089  1.00  0.00     0.134 A 
ATOM     50  C   UNL A   1      42.223  22.416  28.190  1.00  0.00     0.134 A 
ATOM     51  F   UNL A   1      42.909  24.584  25.361  1.00  0.00    -0.206 F 
ATOM     52  C   UNL A   1      42.427  22.285  25.423  1.00  0.00     0.040 A 
ATOM     53  C   UNL A   1      42.028  21.200  27.537  1.00  0.00     0.040 A 
ATOM     54  F   UNL A   1      42.117  22.446  29.526  1.00  0.00    -0.206 F 
ATOM     55  C   UNL A   1      42.131  21.132  26.149  1.00  0.00     0.006 A 
ENDBRANCH  27  48
BRANCH  39  56
ATOM     56  C   UNL A   1      48.067  26.591  30.363  1.00  0.00     0.057 A 
ATOM     57  C   UNL A   1      48.443  25.862  31.497  1.00  0.00     0.134 A 
ATOM     58  C   UNL A   1      49.050  26.866  29.406  1.00  0.00     0.134 A 
ATOM     59  F   UNL A   1      47.545  25.584  32.454  1.00  0.00    -0.206 F 
ATOM     60  C   UNL A   1      49.756  25.427  31.674  1.00  0.00     0.040 A 
ATOM     61  C   UNL A   1      50.365  26.430  29.570  1.00  0.00     0.040 A 
ATOM     62  F   UNL A   1      48.748  27.566  28.302  1.00  0.00    -0.206 F 
ATOM     63  C   UNL A   1      50.721  25.708  30.708  1.00  0.00     0.006 A 
ENDBRANCH  39  56
ENDBRANCH  13  14
ENDBRANCH   6   8
ENDBRANCH   5   6
ENDBRANCH   4   5
ENDBRANCH   3   4
ENDBRANCH   2   3
ENDBRANCH   1   2
BRANCH   1  64
ATOM     64  C   UNL A   1      30.947  26.680  25.908  1.00  0.00     0.188 C 
BRANCH  64  65
ATOM     65  O   UNL A   1      30.560  25.458  25.267  1.00  0.00    -0.376 OA
BRANCH  65  66
ATOM     66  C   UNL A   1      30.512  25.531  23.840  1.00  0.00     0.202 C 
BRANCH  66  67
ATOM     67  C   UNL A   1      30.635  24.139  23.226  1.00  0.00     0.261 C 
BRANCH  67  68
ATOM     68  O   UNL A   1      31.459  23.313  24.063  1.00  0.00    -0.462 OA
BRANCH  68  69
ATOM     69  C   UNL A   1      32.522  22.767  23.423  1.00  0.00     0.328 C 
ATOM     70  O   UNL A   1      32.457  22.130  22.374  1.00  0.00    -0.250 OA
BRANCH  69  71
ATOM     71  C   UNL A   1      33.851  23.069  24.135  1.00  0.00     0.195 C 
ATOM     72  C   UNL A   1      33.939  24.359  24.961  1.00  0.00     0.037 C 
ATOM     73  N   UNL A   1      34.279  21.911  24.936  1.00  0.00    -0.320 N 
ATOM     74  C   UNL A   1      35.288  24.478  25.697  1.00  0.00     0.008 C 
ATOM     75  C   UNL A   1      35.659  21.965  25.438  1.00  0.00     0.089 C 
ATOM     76  C   UNL A   1      36.279  23.380  25.291  1.00  0.00     0.012 C 
ATOM     77  C   UNL A   1      36.606  20.959  24.774  1.00  0.00     0.025 C 
ATOM     78  C   UNL A   1      37.591  23.434  26.080  1.00  0.00     0.006 C 
ATOM     79  C   UNL A   1      37.974  20.989  25.461  1.00  0.00     0.002 C 
ATOM     80  C   UNL A   1      38.575  22.393  25.541  1.00  0.00     0.000 C 
BRANCH  73  81
ATOM     81  C   UNL A   1      33.315  21.340  25.778  1.00  0.00     0.272 C 
ATOM     82  O   UNL A   1      32.772  21.986  26.679  1.00  0.00    -0.267 OA
BRANCH  81  83
ATOM     83  C   UNL A   1      32.960  19.982  25.484  1.00  0.00     0.123 A 
ATOM     84  C   UNL A   1      32.791  19.333  24.277  1.00  0.00     0.055 A 
ATOM     85  N   UNL A   1      32.858  18.999  26.432  1.00  0.00    -0.273 N 
ATOM     86  C   UNL A   1      32.501  18.000  24.617  1.00  0.00     0.135 A 
ATOM     87  N   UNL A   1      32.505  17.800  25.936  1.00  0.00    -0.183 NA
ATOM     88  H   UNL A   1      33.028  19.157  27.390  1.00  0.00     0.190 HD
ENDBRANCH  81  83
ENDBRANCH  73  81
ENDBRANCH  69  71
ENDBRANCH  68  69
ENDBRANCH  67  68
ENDBRANCH  66  67
ENDBRANCH  65  66
ENDBRANCH  64  65
ENDBRANCH   1  64
TORSDOF 19
ENDMDL
MODEL 2
REMARK VINA RESULT:     -10.5      3.453      7.792
REMARK SMILES O=C(OCCOCCOCCOC(=O)[C@H]1CC[C@H]2CCCC[C@@H]2N1C(=O)c1ccn[nH]1)c1ccc(-c2c3nc(c(-c4c(F)cccc4F)c4ccc([nH]4)c(-c4c(F)cccc4F)c4nc(c(-c5c(F)cccc5F)c5ccc2[nH]5)C=C4)C=C3)cc1
REMARK SMILES IDX 7 1 6 2 5 3 4 4 3 5 2 6 1 7 32 8 33 9 85 10 34 11 84 12
REMARK SMILES IDX 35 13 36 14 37 15 78 16 38 17 83 18 77 19 79 20 39 21 82 22
REMARK SMILES IDX 76 23 75 24 40 26 66 27 49 28 65 29 50 30 53 31 64 32 80 33
REMARK SMILES IDX 51 34 52 35 63 37 81 38 54 39 41 40 42 41 47 42 43 43 44 44
REMARK SMILES IDX 46 45 48 46 45 47 67 48 68 49 73 50 69 51 70 52 72 53 74 54
REMARK SMILES IDX 71 55 55 56 56 57 61 58 57 59 58 60 60 61 62 62 59 63 8 64
REMARK SMILES IDX 9 65 10 66 11 67 12 68 13 69 14 70 15 71 16 72 24 73 17 74
REMARK SMILES IDX 23 75 18 76 22 77 19 78 21 79 20 80 25 81 26 82 27 83 28 84
REMARK SMILES IDX 31 85 29 86 30 87
REMARK H PARENT 79 25 53 36 31 88
REMARK Flexibility Score: inf
ROOT
ATOM      1  C   UNL A   1      33.221  30.330  26.280  1.00  0.00     0.188 C 
ENDROOT
BRANCH   1   2
ATOM      2  O   UNL A   1      31.894  30.682  25.850  1.00  0.00    -0.376 OA
BRANCH   2   3
ATOM      3  C   UNL A   1      31.404  31.834  26.544  1.00  0.00     0.202 C 
BRANCH   3   4
ATOM      4  C   UNL A   1      32.523  32.574  27.283  1.00  0.00     0.261 C 
BRANCH   4   5
ATOM      5  O   UNL A   1      32.099  33.897  27.670  1.00  0.00    -0.460 OA
BRANCH   5   6
ATOM      6  C   UNL A   1      32.862  34.750  28.402  1.00  0.00     0.338 C 
ATOM      7  O   UNL A   1      32.423  35.830  28.786  1.00  0.00    -0.246 OA
BRANCH   6   8
ATOM      8  C   UNL A   1      34.133  34.249  28.974  1.00  0.00     0.060 A 
ATOM      9  C   UNL A   1      35.382  34.488  28.395  1.00  0.00     0.016 A 
ATOM     10  C   UNL A   1      34.059  33.585  30.205  1.00  0.00     0.016 A 
ATOM     11  C   UNL A   1      36.538  33.952  28.977  1.00  0.00     0.010 A 
ATOM     12  C   UNL A   1      35.220  33.108  30.817  1.00  0.00     0.010 A 
ATOM     13  C   UNL A   1      36.467  33.253  30.190  1.00  0.00    -0.014 A 
BRANCH  13  14
ATOM     14  C   UNL A   1      37.676  32.662  30.822  1.00  0.00     0.031 A 
ATOM     15  C   UNL A   1      38.278  31.399  30.269  1.00  0.00     0.074 A 
ATOM     16  C   UNL A   1      38.208  33.216  31.927  1.00  0.00     0.049 A 
ATOM     17  N   UNL A   1      39.265  30.679  30.739  1.00  0.00    -0.248 NA
ATOM     18  C   UNL A   1      37.703  30.885  29.015  1.00  0.00     0.031 C 
ATOM     19  C   UNL A   1      37.760  34.454  32.557  1.00  0.00     0.029 A 
ATOM     20  N   UNL A   1      39.224  32.779  32.740  1.00  0.00    -0.354 N 
ATOM     21  C   UNL A   1      39.450  29.649  29.828  1.00  0.00     0.074 A 
ATOM     22  C   UNL A   1      38.432  29.798  28.809  1.00  0.00     0.031 C 
ATOM     23  C   UNL A   1      38.440  34.640  33.698  1.00  0.00     0.029 A 
ATOM     24  C   UNL A   1      39.379  33.539  33.873  1.00  0.00     0.049 A 
ATOM     25  H   UNL A   1      39.785  31.996  32.533  1.00  0.00     0.167 HD
ATOM     26  C   UNL A   1      40.405  28.689  29.815  1.00  0.00     0.037 A 
ATOM     27  C   UNL A   1      40.173  33.362  34.943  1.00  0.00     0.037 A 
ATOM     28  C   UNL A   1      41.433  28.539  30.808  1.00  0.00     0.049 A 
ATOM     29  C   UNL A   1      41.129  32.210  34.982  1.00  0.00     0.074 A 
ATOM     30  C   UNL A   1      42.496  27.651  30.829  1.00  0.00     0.029 A 
ATOM     31  N   UNL A   1      41.521  29.295  31.965  1.00  0.00    -0.354 N 
ATOM     32  N   UNL A   1      41.325  31.275  34.088  1.00  0.00    -0.248 NA
ATOM     33  C   UNL A   1      41.987  32.100  36.172  1.00  0.00     0.031 C 
ATOM     34  C   UNL A   1      43.216  27.858  32.012  1.00  0.00     0.029 A 
ATOM     35  C   UNL A   1      42.606  28.879  32.720  1.00  0.00     0.049 A 
ATOM     36  H   UNL A   1      40.904  30.020  32.215  1.00  0.00     0.167 HD
ATOM     37  C   UNL A   1      42.359  30.492  34.580  1.00  0.00     0.074 A 
ATOM     38  C   UNL A   1      42.725  31.041  35.871  1.00  0.00     0.031 C 
ATOM     39  C   UNL A   1      42.964  29.431  33.999  1.00  0.00     0.037 A 
BRANCH  26  40
ATOM     40  C   UNL A   1      40.400  27.752  28.651  1.00  0.00     0.057 A 
ATOM     41  C   UNL A   1      39.685  26.549  28.699  1.00  0.00     0.134 A 
ATOM     42  C   UNL A   1      41.106  28.047  27.480  1.00  0.00     0.134 A 
ATOM     43  F   UNL A   1      39.003  26.208  29.803  1.00  0.00    -0.206 F 
ATOM     44  C   UNL A   1      39.682  25.662  27.623  1.00  0.00     0.040 A 
ATOM     45  C   UNL A   1      41.103  27.171  26.393  1.00  0.00     0.040 A 
ATOM     46  F   UNL A   1      41.814  29.181  27.380  1.00  0.00    -0.206 F 
ATOM     47  C   UNL A   1      40.391  25.974  26.465  1.00  0.00     0.006 A 
ENDBRANCH  26  40
BRANCH  27  48
ATOM     48  C   UNL A   1      40.082  34.305  36.079  1.00  0.00     0.057 A 
ATOM     49  C   UNL A   1      39.265  34.036  37.179  1.00  0.00     0.134 A 
ATOM     50  C   UNL A   1      40.822  35.492  36.086  1.00  0.00     0.134 A 
ATOM     51  F   UNL A   1      38.534  32.913  37.220  1.00  0.00    -0.206 F 
ATOM     52  C   UNL A   1      39.178  34.924  38.252  1.00  0.00     0.040 A 
ATOM     53  C   UNL A   1      40.749  36.386  37.154  1.00  0.00     0.040 A 
ATOM     54  F   UNL A   1      41.625  35.796  35.056  1.00  0.00    -0.206 F 
ATOM     55  C   UNL A   1      39.925  36.101  38.242  1.00  0.00     0.006 A 
ENDBRANCH  27  48
BRANCH  39  56
ATOM     56  C   UNL A   1      44.117  28.827  34.732  1.00  0.00     0.057 A 
ATOM     57  C   UNL A   1      45.422  29.301  34.561  1.00  0.00     0.134 A 
ATOM     58  C   UNL A   1      43.916  27.769  35.627  1.00  0.00     0.134 A 
ATOM     59  F   UNL A   1      45.674  30.302  33.704  1.00  0.00    -0.206 F 
ATOM     60  C   UNL A   1      46.493  28.736  35.253  1.00  0.00     0.040 A 
ATOM     61  C   UNL A   1      44.980  27.201  36.329  1.00  0.00     0.040 A 
ATOM     62  F   UNL A   1      42.687  27.271  35.826  1.00  0.00    -0.206 F 
ATOM     63  C   UNL A   1      46.273  27.685  36.142  1.00  0.00     0.006 A 
ENDBRANCH  39  56
ENDBRANCH  13  14
ENDBRANCH   6   8
ENDBRANCH   5   6
ENDBRANCH   4   5
ENDBRANCH   3   4
ENDBRANCH   2   3
ENDBRANCH   1   2
BRANCH   1  64
ATOM     64  C   UNL A   1      33.520  28.858  25.991  1.00  0.00     0.188 C 
BRANCH  64  65
ATOM     65  O   UNL A   1      33.269  28.043  27.143  1.00  0.00    -0.376 OA
BRANCH  65  66
ATOM     66  C   UNL A   1      31.885  27.797  27.400  1.00  0.00     0.202 C 
BRANCH  66  67
ATOM     67  C   UNL A   1      31.331  26.766  26.421  1.00  0.00     0.261 C 
BRANCH  67  68
ATOM     68  O   UNL A   1      32.273  25.694  26.263  1.00  0.00    -0.462 OA
BRANCH  68  69
ATOM     69  C   UNL A   1      31.733  24.460  26.419  1.00  0.00     0.328 C 
ATOM     70  O   UNL A   1      30.566  24.240  26.735  1.00  0.00    -0.250 OA
BRANCH  69  71
ATOM     71  C   UNL A   1      32.741  23.339  26.114  1.00  0.00     0.195 C 
ATOM     72  C   UNL A   1      32.288  21.893  26.345  1.00  0.00     0.037 C 
ATOM     73  N   UNL A   1      33.292  23.500  24.759  1.00  0.00    -0.320 N 
ATOM     74  C   UNL A   1      33.360  20.878  25.901  1.00  0.00     0.008 C 
ATOM     75  C   UNL A   1      34.462  22.665  24.450  1.00  0.00     0.089 C 
ATOM     76  C   UNL A   1      34.680  21.550  25.507  1.00  0.00     0.012 C 
ATOM     77  C   UNL A   1      35.771  23.451  24.308  1.00  0.00     0.025 C 
ATOM     78  C   UNL A   1      35.725  20.561  24.981  1.00  0.00     0.006 C 
ATOM     79  C   UNL A   1      36.897  22.523  23.844  1.00  0.00     0.002 C 
ATOM     80  C   UNL A   1      37.051  21.281  24.723  1.00  0.00     0.000 C 
BRANCH  73  81
ATOM     81  C   UNL A   1      32.368  23.711  23.726  1.00  0.00     0.272 C 
ATOM     82  O   UNL A   1      31.318  23.066  23.649  1.00  0.00    -0.267 OA
BRANCH  81  83
ATOM     83  C   UNL A   1      32.694  24.763  22.808  1.00  0.00     0.123 A 
ATOM     84  C   UNL A   1      33.203  26.028  23.026  1.00  0.00     0.055 A 
ATOM     85  N   UNL A   1      32.679  24.617  21.446  1.00  0.00    -0.273 N 
ATOM     86  C   UNL A   1      33.366  26.583  21.744  1.00  0.00     0.135 A 
ATOM     87  N   UNL A   1      33.012  25.735  20.776  1.00  0.00    -0.183 NA
ATOM     88  H   UNL A   1      32.447  23.770  20.999  1.00  0.00     0.190 HD
ENDBRANCH  81  83
ENDBRANCH  73  81
ENDBRANCH  69  71
ENDBRANCH  68  69
ENDBRANCH  67  68
ENDBRANCH  66  67
ENDBRANCH  65  66
ENDBRANCH  64  65
ENDBRANCH   1  64
TORSDOF 19
ENDMDL
MODEL 3
REMARK VINA RESULT:     -10.3      2.588      7.420
REMARK SMILES O=C(OCCOCCOCCOC(=O)[C@H]1CC[C@H]2CCCC[C@@H]2N1C(=O)c1ccn[nH]1)c1ccc(-c2c3nc(c(-c4c(F)cccc4F)c4ccc([nH]4)c(-c4c(F)cccc4F)c4nc(c(-c5c(F)cccc5F)c5ccc2[nH]5)C=C4)C=C3)cc1
REMARK SMILES IDX 7 1 6 2 5 3 4 4 3 5 2 6 1 7 32 8 33 9 85 10 34 11 84 12
REMARK SMILES IDX 35 13 36 14 37 15 78 16 38 17 83 18 77 19 79 20 39 21 82 22
REMARK SMILES IDX 76 23 75 24 40 26 66 27 49 28 65 29 50 30 53 31 64 32 80 33
REMARK SMILES IDX 51 34 52 35 63 37 81 38 54 39 41 40 42 41 47 42 43 43 44 44
REMARK SMILES IDX 46 45 48 46 45 47 67 48 68 49 73 50 69 51 70 52 72 53 74 54
REMARK SMILES IDX 71 55 55 56 56 57 61 58 57 59 58 60 60 61 62 62 59 63 8 64
REMARK SMILES IDX 9 65 10 66 11 67 12 68 13 69 14 70 15 71 16 72 24 73 17 74
REMARK SMILES IDX 23 75 18 76 22 77 19 78 21 79 20 80 25 81 26 82 27 83 28 84
REMARK SMILES IDX 31 85 29 86 30 87
REMARK H PARENT 79 25 53 36 31 88
REMARK Flexibility Score: inf
ROOT
ATOM      1  C   UNL A   1      36.463  21.557  25.422  1.00  0.00     0.188 C 
ENDROOT
BRANCH   1   2
ATOM      2  O   UNL A   1      37.093  20.763  24.402  1.00  0.00    -0.376 OA
BRANCH   2   3
ATOM      3  C   UNL A   1      37.791  19.644  24.960  1.00  0.00     0.202 C 
BRANCH   3   4
ATOM      4  C   UNL A   1      39.047  20.078  25.722  1.00  0.00     0.261 C 
BRANCH   4   5
ATOM      5  O   UNL A   1      40.043  19.036  25.710  1.00  0.00    -0.460 OA
BRANCH   5   6
ATOM      6  C   UNL A   1      41.350  19.238  26.025  1.00  0.00     0.338 C 
ATOM      7  O   UNL A   1      42.201  18.385  25.792  1.00  0.00    -0.246 OA
BRANCH   6   8
ATOM      8  C   UNL A   1      41.786  20.605  26.393  1.00  0.00     0.060 A 
ATOM      9  C   UNL A   1      42.150  21.572  25.454  1.00  0.00     0.016 A 
ATOM     10  C   UNL A   1      41.733  20.946  27.750  1.00  0.00     0.016 A 
ATOM     11  C   UNL A   1      42.584  22.834  25.879  1.00  0.00     0.010 A 
ATOM     12  C   UNL A   1      42.104  22.226  28.168  1.00  0.00     0.010 A 
ATOM     13  C   UNL A   1      42.571  23.171  27.240  1.00  0.00    -0.014 A 
BRANCH  13  14
ATOM     14  C   UNL A   1      43.039  24.497  27.721  1.00  0.00     0.031 A 
ATOM     15  C   UNL A   1      42.048  25.590  28.012  1.00  0.00     0.074 A 
ATOM     16  C   UNL A   1      44.355  24.752  27.843  1.00  0.00     0.049 A 
ATOM     17  N   UNL A   1      42.266  26.838  28.341  1.00  0.00    -0.248 NA
ATOM     18  C   UNL A   1      40.623  25.228  27.938  1.00  0.00     0.031 C 
ATOM     19  C   UNL A   1      45.431  23.788  27.633  1.00  0.00     0.029 A 
ATOM     20  N   UNL A   1      45.011  25.921  28.138  1.00  0.00    -0.354 N 
ATOM     21  C   UNL A   1      41.014  27.402  28.541  1.00  0.00     0.074 A 
ATOM     22  C   UNL A   1      40.036  26.379  28.236  1.00  0.00     0.031 C 
ATOM     23  C   UNL A   1      46.612  24.416  27.727  1.00  0.00     0.029 A 
ATOM     24  C   UNL A   1      46.375  25.826  28.016  1.00  0.00     0.049 A 
ATOM     25  H   UNL A   1      44.549  26.748  28.410  1.00  0.00     0.167 HD
ATOM     26  C   UNL A   1      40.704  28.645  28.979  1.00  0.00     0.037 A 
ATOM     27  C   UNL A   1      47.330  26.768  28.105  1.00  0.00     0.037 A 
ATOM     28  C   UNL A   1      41.662  29.665  29.305  1.00  0.00     0.049 A 
ATOM     29  C   UNL A   1      46.959  28.176  28.452  1.00  0.00     0.074 A 
ATOM     30  C   UNL A   1      41.442  30.923  29.841  1.00  0.00     0.029 A 
ATOM     31  N   UNL A   1      43.029  29.545  29.115  1.00  0.00    -0.354 N 
ATOM     32  N   UNL A   1      45.774  28.679  28.688  1.00  0.00    -0.248 NA
ATOM     33  C   UNL A   1      48.061  29.144  28.563  1.00  0.00     0.031 C 
ATOM     34  C   UNL A   1      42.678  31.573  29.957  1.00  0.00     0.029 A 
ATOM     35  C   UNL A   1      43.664  30.715  29.500  1.00  0.00     0.049 A 
ATOM     36  H   UNL A   1      43.482  28.747  28.758  1.00  0.00     0.167 HD
ATOM     37  C   UNL A   1      45.987  30.009  29.022  1.00  0.00     0.074 A 
ATOM     38  C   UNL A   1      47.414  30.245  28.922  1.00  0.00     0.031 C 
ATOM     39  C   UNL A   1      45.081  30.939  29.401  1.00  0.00     0.037 A 
BRANCH  26  40
ATOM     40  C   UNL A   1      39.253  28.945  29.176  1.00  0.00     0.057 A 
ATOM     41  C   UNL A   1      38.477  29.458  28.130  1.00  0.00     0.134 A 
ATOM     42  C   UNL A   1      38.627  28.723  30.406  1.00  0.00     0.134 A 
ATOM     43  F   UNL A   1      39.030  29.706  26.932  1.00  0.00    -0.206 F 
ATOM     44  C   UNL A   1      37.125  29.753  28.303  1.00  0.00     0.040 A 
ATOM     45  C   UNL A   1      37.272  29.005  30.590  1.00  0.00     0.040 A 
ATOM     46  F   UNL A   1      39.322  28.240  31.446  1.00  0.00    -0.206 F 
ATOM     47  C   UNL A   1      36.519  29.524  29.537  1.00  0.00     0.006 A 
ENDBRANCH  26  40
BRANCH  27  48
ATOM     48  C   UNL A   1      48.740  26.401  27.847  1.00  0.00     0.057 A 
ATOM     49  C   UNL A   1      49.266  26.420  26.553  1.00  0.00     0.134 A 
ATOM     50  C   UNL A   1      49.588  26.032  28.895  1.00  0.00     0.134 A 
ATOM     51  F   UNL A   1      48.493  26.763  25.514  1.00  0.00    -0.206 F 
ATOM     52  C   UNL A   1      50.595  26.075  26.307  1.00  0.00     0.040 A 
ATOM     53  C   UNL A   1      50.920  25.691  28.664  1.00  0.00     0.040 A 
ATOM     54  F   UNL A   1      49.133  26.002  30.156  1.00  0.00    -0.206 F 
ATOM     55  C   UNL A   1      51.427  25.713  27.366  1.00  0.00     0.006 A 
ENDBRANCH  27  48
BRANCH  39  56
ATOM     56  C   UNL A   1      45.614  32.281  29.784  1.00  0.00     0.057 A 
ATOM     57  C   UNL A   1      45.707  33.324  28.855  1.00  0.00     0.134 A 
ATOM     58  C   UNL A   1      46.027  32.536  31.097  1.00  0.00     0.134 A 
ATOM     59  F   UNL A   1      45.341  33.131  27.579  1.00  0.00    -0.206 F 
ATOM     60  C   UNL A   1      46.201  34.576  29.221  1.00  0.00     0.040 A 
ATOM     61  C   UNL A   1      46.516  33.786  31.475  1.00  0.00     0.040 A 
ATOM     62  F   UNL A   1      45.964  31.572  32.028  1.00  0.00    -0.206 F 
ATOM     63  C   UNL A   1      46.604  34.811  30.534  1.00  0.00     0.006 A 
ENDBRANCH  39  56
ENDBRANCH  13  14
ENDBRANCH   6   8
ENDBRANCH   5   6
ENDBRANCH   4   5
ENDBRANCH   3   4
ENDBRANCH   2   3
ENDBRANCH   1   2
BRANCH   1  64
ATOM     64  C   UNL A   1      35.000  21.151  25.610  1.00  0.00     0.188 C 
BRANCH  64  65
ATOM     65  O   UNL A   1      34.217  21.490  24.459  1.00  0.00    -0.376 OA
BRANCH  65  66
ATOM     66  C   UNL A   1      32.907  20.918  24.449  1.00  0.00     0.202 C 
BRANCH  66  67
ATOM     67  C   UNL A   1      32.059  21.494  25.579  1.00  0.00     0.261 C 
BRANCH  67  68
ATOM     68  O   UNL A   1      31.657  22.832  25.247  1.00  0.00    -0.462 OA
BRANCH  68  69
ATOM     69  C   UNL A   1      31.442  23.625  26.326  1.00  0.00     0.328 C 
ATOM     70  O   UNL A   1      30.681  23.357  27.253  1.00  0.00    -0.250 OA
BRANCH  69  71
ATOM     71  C   UNL A   1      32.298  24.902  26.290  1.00  0.00     0.195 C 
ATOM     72  C   UNL A   1      33.632  24.844  25.537  1.00  0.00     0.037 C 
ATOM     73  N   UNL A   1      31.493  26.046  25.832  1.00  0.00    -0.320 N 
ATOM     74  C   UNL A   1      34.329  26.219  25.498  1.00  0.00     0.008 C 
ATOM     75  C   UNL A   1      32.110  27.368  26.019  1.00  0.00     0.089 C 
ATOM     76  C   UNL A   1      33.619  27.264  26.366  1.00  0.00     0.012 C 
ATOM     77  C   UNL A   1      31.432  28.228  27.092  1.00  0.00     0.025 C 
ATOM     78  C   UNL A   1      34.250  28.656  26.268  1.00  0.00     0.006 C 
ATOM     79  C   UNL A   1      32.047  29.630  27.110  1.00  0.00     0.002 C 
ATOM     80  C   UNL A   1      33.570  29.615  27.248  1.00  0.00     0.000 C 
BRANCH  73  81
ATOM     81  C   UNL A   1      30.735  25.855  24.670  1.00  0.00     0.272 C 
ATOM     82  O   UNL A   1      29.506  25.746  24.704  1.00  0.00    -0.267 OA
BRANCH  81  83
ATOM     83  C   UNL A   1      31.473  25.859  23.440  1.00  0.00     0.123 A 
ATOM     84  C   UNL A   1      32.079  26.892  22.752  1.00  0.00     0.055 A 
ATOM     85  N   UNL A   1      31.839  24.723  22.769  1.00  0.00    -0.273 N 
ATOM     86  C   UNL A   1      32.695  26.281  21.645  1.00  0.00     0.135 A 
ATOM     87  N   UNL A   1      32.520  24.959  21.633  1.00  0.00    -0.183 NA
ATOM     88  H   UNL A   1      31.625  23.816  23.089  1.00  0.00     0.190 HD
ENDBRANCH  81  83
ENDBRANCH  73  81
ENDBRANCH  69  71
ENDBRANCH  68  69
ENDBRANCH  67  68
ENDBRANCH  66  67
ENDBRANCH  65  66
ENDBRANCH  64  65
ENDBRANCH   1  64
TORSDOF 19
ENDMDL
