MODEL 1
REMARK VINA RESULT:     -11.4      0.000      0.000
REMARK SMILES Nc1ccc(-c2cc(Cl)cc3c2O[C@H](C(F)(F)F)C(C(=O)OCCOCCOCCOC(=O)c2ccc(-c4c5nc(c(-c6c(F)cccc6F)c6ccc([nH]6)c(-c6c(F)cccc6F)c6nc(c(-c7c(F)cccc7F)c7ccc4[nH]7)C=C6)C=C5)cc2)=C3)cc1
REMARK SMILES IDX 26 1 25 2 24 3 23 4 22 5 20 6 21 7 19 8 6 9 7 10 12 11 8 12
REMARK SMILES IDX 11 13 13 14 9 15 10 16 88 17 14 18 5 19 2 20 3 21 90 22 4 23
REMARK SMILES IDX 89 24 1 25 15 28 16 29 17 30 18 31 27 32 28 33 29 34 30 35
REMARK SMILES IDX 31 36 32 37 33 38 34 39 35 40 87 41 36 42 86 43 37 44 38 45
REMARK SMILES IDX 39 46 80 47 40 48 85 49 79 50 81 51 41 52 84 53 78 54 77 55
REMARK SMILES IDX 42 57 68 58 51 59 67 60 52 61 55 62 66 63 82 64 53 65 54 66
REMARK SMILES IDX 65 68 83 69 56 70 43 71 44 72 49 73 45 74 46 75 48 76 50 77
REMARK SMILES IDX 47 78 69 79 70 80 75 81 71 82 72 83 74 84 76 85 73 86 57 87
REMARK SMILES IDX 58 88 63 89 59 90 60 91 62 92 64 93 61 94
REMARK H PARENT 1 26 1 27 81 56 55 67
REMARK Flexibility Score: inf
ROOT
ATOM      1  C   UNL A   1      41.046  20.172  26.790  1.00  0.00     0.188 C 
ENDROOT
BRANCH   1   2
ATOM      2  O   UNL A   1      40.275  21.260  27.252  1.00  0.00    -0.376 OA
BRANCH   2   3
ATOM      3  C   UNL A   1      39.486  22.037  26.365  1.00  0.00     0.202 C 
BRANCH   3   4
ATOM      4  C   UNL A   1      38.266  21.461  25.641  1.00  0.00     0.261 C 
BRANCH   4   5
ATOM      5  O   UNL A   1      37.054  22.198  25.841  1.00  0.00    -0.460 OA
BRANCH   5   6
ATOM      6  C   UNL A   1      35.928  21.559  25.443  1.00  0.00     0.338 C 
ATOM      7  O   UNL A   1      35.812  20.375  25.176  1.00  0.00    -0.246 OA
BRANCH   6   8
ATOM      8  C   UNL A   1      34.785  22.485  25.516  1.00  0.00     0.087 C 
ATOM      9  C   UNL A   1      31.348  24.877  25.418  1.00  0.00     0.026 A 
ATOM     10  C   UNL A   1      30.199  24.416  26.088  1.00  0.00     0.033 A 
ATOM     11  C   UNL A   1      32.534  24.115  25.530  1.00  0.00     0.135 A 
ATOM     12  C   UNL A   1      30.230  23.236  26.829  1.00  0.00     0.042 A 
ATOM     13  C   UNL A   1      32.542  22.904  26.233  1.00  0.00     0.019 A 
ATOM     14  O   UNL A   1      33.661  24.625  24.941  1.00  0.00    -0.475 OA
ATOM     15  Cl  UNL A   1      28.807  22.695  27.632  1.00  0.00    -0.084 Cl
ATOM     16  C   UNL A   1      31.391  22.474  26.899  1.00  0.00     0.032 A 
ATOM     17  C   UNL A   1      33.722  22.059  26.210  1.00  0.00     0.027 C 
ATOM     18  C   UNL A   1      34.859  23.817  24.825  1.00  0.00     0.316 C 
BRANCH   9  19
ATOM     19  C   UNL A   1      31.265  26.083  24.571  1.00  0.00    -0.014 A 
ATOM     20  C   UNL A   1      31.078  28.381  22.912  1.00  0.00     0.031 A 
ATOM     21  C   UNL A   1      31.199  27.110  22.355  1.00  0.00     0.026 A 
ATOM     22  C   UNL A   1      31.000  28.493  24.301  1.00  0.00     0.026 A 
ATOM     23  C   UNL A   1      31.297  25.979  23.170  1.00  0.00     0.011 A 
ATOM     24  C   UNL A   1      31.106  27.363  25.122  1.00  0.00     0.011 A 
BRANCH  20  25
ATOM     25  N   UNL A   1      30.905  29.490  22.101  1.00  0.00    -0.399 N 
ATOM     26  H   UNL A   1      30.471  29.394  21.222  1.00  0.00     0.156 HD
ATOM     27  H   UNL A   1      31.217  30.374  22.403  1.00  0.00     0.156 HD
ENDBRANCH  20  25
ENDBRANCH   9  19
BRANCH  18  28
ATOM     28  C   UNL A   1      35.211  23.691  23.337  1.00  0.00     0.430 C 
ATOM     29  F   UNL A   1      34.664  22.578  22.791  1.00  0.00    -0.167 F 
ATOM     30  F   UNL A   1      34.750  24.742  22.619  1.00  0.00    -0.167 F 
ATOM     31  F   UNL A   1      36.548  23.622  23.141  1.00  0.00    -0.167 F 
ENDBRANCH  18  28
ENDBRANCH   6   8
ENDBRANCH   5   6
ENDBRANCH   4   5
ENDBRANCH   3   4
ENDBRANCH   2   3
ENDBRANCH   1   2
BRANCH   1  32
ATOM     32  C   UNL A   1      42.587  20.236  26.742  1.00  0.00     0.188 C 
BRANCH  32  33
ATOM     33  O   UNL A   1      43.255  21.378  26.246  1.00  0.00    -0.376 OA
BRANCH  33  34
ATOM     34  C   UNL A   1      43.939  21.305  25.003  1.00  0.00     0.202 C 
BRANCH  34  35
ATOM     35  C   UNL A   1      44.249  22.568  24.194  1.00  0.00     0.261 C 
BRANCH  35  36
ATOM     36  O   UNL A   1      43.613  23.754  24.692  1.00  0.00    -0.460 OA
BRANCH  36  37
ATOM     37  C   UNL A   1      44.459  24.722  25.135  1.00  0.00     0.338 C 
ATOM     38  O   UNL A   1      45.517  25.058  24.655  1.00  0.00    -0.246 OA
BRANCH  37  39
ATOM     39  C   UNL A   1      43.782  25.474  26.212  1.00  0.00     0.060 A 
ATOM     40  C   UNL A   1      42.764  24.887  26.963  1.00  0.00     0.016 A 
ATOM     41  C   UNL A   1      44.182  26.794  26.458  1.00  0.00     0.016 A 
ATOM     42  C   UNL A   1      42.156  25.624  27.982  1.00  0.00     0.010 A 
ATOM     43  C   UNL A   1      43.562  27.534  27.465  1.00  0.00     0.010 A 
ATOM     44  C   UNL A   1      42.557  26.947  28.245  1.00  0.00    -0.014 A 
BRANCH  44  45
ATOM     45  C   UNL A   1      42.027  27.649  29.438  1.00  0.00     0.031 A 
ATOM     46  C   UNL A   1      42.684  27.536  30.779  1.00  0.00     0.074 A 
ATOM     47  C   UNL A   1      40.925  28.404  29.286  1.00  0.00     0.049 A 
ATOM     48  N   UNL A   1      42.401  28.177  31.886  1.00  0.00    -0.248 NA
ATOM     49  C   UNL A   1      43.791  26.580  30.898  1.00  0.00     0.031 C 
ATOM     50  C   UNL A   1      40.179  28.559  28.036  1.00  0.00     0.029 A 
ATOM     51  N   UNL A   1      40.246  29.190  30.182  1.00  0.00    -0.354 N 
ATOM     52  C   UNL A   1      43.313  27.726  32.830  1.00  0.00     0.074 A 
ATOM     53  C   UNL A   1      44.123  26.717  32.177  1.00  0.00     0.031 C 
ATOM     54  C   UNL A   1      39.158  29.406  28.240  1.00  0.00     0.029 A 
ATOM     55  C   UNL A   1      39.170  29.839  29.632  1.00  0.00     0.049 A 
ATOM     56  H   UNL A   1      40.507  29.278  31.127  1.00  0.00     0.167 HD
ATOM     57  C   UNL A   1      43.471  28.135  34.113  1.00  0.00     0.037 A 
ATOM     58  C   UNL A   1      38.295  30.697  30.188  1.00  0.00     0.037 A 
ATOM     59  C   UNL A   1      42.641  29.119  34.766  1.00  0.00     0.049 A 
ATOM     60  C   UNL A   1      38.461  31.088  31.628  1.00  0.00     0.074 A 
ATOM     61  C   UNL A   1      42.751  29.629  36.049  1.00  0.00     0.029 A 
ATOM     62  N   UNL A   1      41.532  29.727  34.194  1.00  0.00    -0.354 N 
ATOM     63  N   UNL A   1      39.389  30.734  32.482  1.00  0.00    -0.248 NA
ATOM     64  C   UNL A   1      37.458  32.012  32.178  1.00  0.00     0.031 C 
ATOM     65  C   UNL A   1      41.680  30.503  36.270  1.00  0.00     0.029 A 
ATOM     66  C   UNL A   1      40.931  30.579  35.109  1.00  0.00     0.049 A 
ATOM     67  H   UNL A   1      41.219  29.576  33.272  1.00  0.00     0.167 HD
ATOM     68  C   UNL A   1      39.099  31.408  33.660  1.00  0.00     0.074 A 
ATOM     69  C   UNL A   1      37.920  32.209  33.404  1.00  0.00     0.031 C 
ATOM     70  C   UNL A   1      39.751  31.366  34.848  1.00  0.00     0.037 A 
BRANCH  57  71
ATOM     71  C   UNL A   1      44.588  27.516  34.904  1.00  0.00     0.057 A 
ATOM     72  C   UNL A   1      45.875  28.068  34.887  1.00  0.00     0.134 A 
ATOM     73  C   UNL A   1      44.400  26.338  35.640  1.00  0.00     0.134 A 
ATOM     74  F   UNL A   1      46.129  29.187  34.192  1.00  0.00    -0.206 F 
ATOM     75  C   UNL A   1      46.934  27.472  35.576  1.00  0.00     0.040 A 
ATOM     76  C   UNL A   1      45.445  25.747  36.353  1.00  0.00     0.040 A 
ATOM     77  F   UNL A   1      43.191  25.759  35.700  1.00  0.00    -0.206 F 
ATOM     78  C   UNL A   1      46.718  26.312  36.317  1.00  0.00     0.006 A 
ENDBRANCH  57  71
BRANCH  58  79
ATOM     79  C   UNL A   1      37.196  31.266  29.371  1.00  0.00     0.057 A 
ATOM     80  C   UNL A   1      37.278  32.558  28.840  1.00  0.00     0.134 A 
ATOM     81  C   UNL A   1      36.049  30.520  29.085  1.00  0.00     0.134 A 
ATOM     82  F   UNL A   1      38.350  33.326  29.088  1.00  0.00    -0.206 F 
ATOM     83  C   UNL A   1      36.256  33.090  28.055  1.00  0.00     0.040 A 
ATOM     84  C   UNL A   1      35.030  31.029  28.278  1.00  0.00     0.040 A 
ATOM     85  F   UNL A   1      35.921  29.269  29.552  1.00  0.00    -0.206 F 
ATOM     86  C   UNL A   1      35.132  32.320  27.763  1.00  0.00     0.006 A 
ENDBRANCH  58  79
BRANCH  70  87
ATOM     87  C   UNL A   1      39.208  32.230  35.951  1.00  0.00     0.057 A 
ATOM     88  C   UNL A   1      38.264  31.727  36.855  1.00  0.00     0.134 A 
ATOM     89  C   UNL A   1      39.618  33.560  36.120  1.00  0.00     0.134 A 
ATOM     90  F   UNL A   1      37.823  30.465  36.749  1.00  0.00    -0.206 F 
ATOM     91  C   UNL A   1      37.751  32.513  37.889  1.00  0.00     0.040 A 
ATOM     92  C   UNL A   1      39.134  34.346  37.167  1.00  0.00     0.040 A 
ATOM     93  F   UNL A   1      40.533  34.097  35.300  1.00  0.00    -0.206 F 
ATOM     94  C   UNL A   1      38.194  33.824  38.053  1.00  0.00     0.006 A 
ENDBRANCH  70  87
ENDBRANCH  44  45
ENDBRANCH  37  39
ENDBRANCH  36  37
ENDBRANCH  35  36
ENDBRANCH  34  35
ENDBRANCH  33  34
ENDBRANCH  32  33
ENDBRANCH   1  32
TORSDOF 20
ENDMDL
MODEL 2
REMARK VINA RESULT:     -11.0      3.967      6.745
REMARK SMILES Nc1ccc(-c2cc(Cl)cc3c2O[C@H](C(F)(F)F)C(C(=O)OCCOCCOCCOC(=O)c2ccc(-c4c5nc(c(-c6c(F)cccc6F)c6ccc([nH]6)c(-c6c(F)cccc6F)c6nc(c(-c7c(F)cccc7F)c7ccc4[nH]7)C=C6)C=C5)cc2)=C3)cc1
REMARK SMILES IDX 26 1 25 2 24 3 23 4 22 5 20 6 21 7 19 8 6 9 7 10 12 11 8 12
REMARK SMILES IDX 11 13 13 14 9 15 10 16 88 17 14 18 5 19 2 20 3 21 90 22 4 23
REMARK SMILES IDX 89 24 1 25 15 28 16 29 17 30 18 31 27 32 28 33 29 34 30 35
REMARK SMILES IDX 31 36 32 37 33 38 34 39 35 40 87 41 36 42 86 43 37 44 38 45
REMARK SMILES IDX 39 46 80 47 40 48 85 49 79 50 81 51 41 52 84 53 78 54 77 55
REMARK SMILES IDX 42 57 68 58 51 59 67 60 52 61 55 62 66 63 82 64 53 65 54 66
REMARK SMILES IDX 65 68 83 69 56 70 43 71 44 72 49 73 45 74 46 75 48 76 50 77
REMARK SMILES IDX 47 78 69 79 70 80 75 81 71 82 72 83 74 84 76 85 73 86 57 87
REMARK SMILES IDX 58 88 63 89 59 90 60 91 62 92 64 93 61 94
REMARK H PARENT 1 26 1 27 81 56 55 67
REMARK Flexibility Score: inf
ROOT
ATOM      1  C   UNL A   1      32.984  22.745  22.769  1.00  0.00     0.188 C 
ENDROOT
BRANCH   1   2
ATOM      2  O   UNL A   1      32.346  22.273  23.936  1.00  0.00    -0.376 OA
BRANCH   2   3
ATOM      3  C   UNL A   1      33.053  21.533  24.917  1.00  0.00     0.202 C 
BRANCH   3   4
ATOM      4  C   UNL A   1      33.668  22.195  26.153  1.00  0.00     0.261 C 
BRANCH   4   5
ATOM      5  O   UNL A   1      33.613  23.627  26.149  1.00  0.00    -0.460 OA
BRANCH   5   6
ATOM      6  C   UNL A   1      32.461  24.153  26.628  1.00  0.00     0.338 C 
ATOM      7  O   UNL A   1      31.706  23.648  27.442  1.00  0.00    -0.246 OA
BRANCH   6   8
ATOM      8  C   UNL A   1      32.303  25.531  26.129  1.00  0.00     0.087 C 
ATOM      9  C   UNL A   1      31.553  29.497  25.014  1.00  0.00     0.026 A 
ATOM     10  C   UNL A   1      32.111  30.524  25.798  1.00  0.00     0.033 A 
ATOM     11  C   UNL A   1      31.883  28.160  25.335  1.00  0.00     0.135 A 
ATOM     12  C   UNL A   1      32.955  30.228  26.867  1.00  0.00     0.042 A 
ATOM     13  C   UNL A   1      32.689  27.870  26.443  1.00  0.00     0.019 A 
ATOM     14  O   UNL A   1      31.398  27.182  24.508  1.00  0.00    -0.475 OA
ATOM     15  Cl  UNL A   1      33.617  31.505  27.811  1.00  0.00    -0.084 Cl
ATOM     16  C   UNL A   1      33.240  28.908  27.199  1.00  0.00     0.032 A 
ATOM     17  C   UNL A   1      32.893  26.491  26.851  1.00  0.00     0.027 C 
ATOM     18  C   UNL A   1      31.509  25.785  24.880  1.00  0.00     0.316 C 
BRANCH   9  19
ATOM     19  C   UNL A   1      30.595  29.835  23.942  1.00  0.00    -0.014 A 
ATOM     20  C   UNL A   1      28.754  30.527  21.895  1.00  0.00     0.031 A 
ATOM     21  C   UNL A   1      28.625  31.060  23.175  1.00  0.00     0.026 A 
ATOM     22  C   UNL A   1      29.835  29.687  21.628  1.00  0.00     0.026 A 
ATOM     23  C   UNL A   1      29.528  30.715  24.185  1.00  0.00     0.011 A 
ATOM     24  C   UNL A   1      30.738  29.333  22.640  1.00  0.00     0.011 A 
BRANCH  20  25
ATOM     25  N   UNL A   1      27.903  30.930  20.879  1.00  0.00    -0.399 N 
ATOM     26  H   UNL A   1      28.159  30.792  19.938  1.00  0.00     0.156 HD
ATOM     27  H   UNL A   1      27.041  31.353  21.097  1.00  0.00     0.156 HD
ENDBRANCH  20  25
ENDBRANCH   9  19
BRANCH  18  28
ATOM     28  C   UNL A   1      30.095  25.192  24.949  1.00  0.00     0.430 C 
ATOM     29  F   UNL A   1      29.308  25.673  23.957  1.00  0.00    -0.167 F 
ATOM     30  F   UNL A   1      30.106  23.846  24.817  1.00  0.00    -0.167 F 
ATOM     31  F   UNL A   1      29.487  25.480  26.123  1.00  0.00    -0.167 F 
ENDBRANCH  18  28
ENDBRANCH   6   8
ENDBRANCH   5   6
ENDBRANCH   4   5
ENDBRANCH   3   4
ENDBRANCH   2   3
ENDBRANCH   1   2
BRANCH   1  32
ATOM     32  C   UNL A   1      34.305  23.541  22.835  1.00  0.00     0.188 C 
BRANCH  32  33
ATOM     33  O   UNL A   1      35.553  22.898  22.673  1.00  0.00    -0.376 OA
BRANCH  33  34
ATOM     34  C   UNL A   1      36.473  22.870  23.755  1.00  0.00     0.202 C 
BRANCH  34  35
ATOM     35  C   UNL A   1      36.987  21.544  24.325  1.00  0.00     0.261 C 
BRANCH  35  36
ATOM     36  O   UNL A   1      37.346  21.604  25.712  1.00  0.00    -0.460 OA
BRANCH  36  37
ATOM     37  C   UNL A   1      38.648  21.318  25.986  1.00  0.00     0.338 C 
ATOM     38  O   UNL A   1      39.256  20.308  25.718  1.00  0.00    -0.246 OA
BRANCH  37  39
ATOM     39  C   UNL A   1      39.295  22.544  26.500  1.00  0.00     0.060 A 
ATOM     40  C   UNL A   1      40.412  22.469  27.330  1.00  0.00     0.016 A 
ATOM     41  C   UNL A   1      38.754  23.785  26.137  1.00  0.00     0.016 A 
ATOM     42  C   UNL A   1      41.004  23.650  27.785  1.00  0.00     0.010 A 
ATOM     43  C   UNL A   1      39.336  24.962  26.606  1.00  0.00     0.010 A 
ATOM     44  C   UNL A   1      40.476  24.902  27.419  1.00  0.00    -0.014 A 
BRANCH  44  45
ATOM     45  C   UNL A   1      41.218  26.138  27.764  1.00  0.00     0.031 A 
ATOM     46  C   UNL A   1      42.637  26.355  27.336  1.00  0.00     0.074 A 
ATOM     47  C   UNL A   1      40.577  27.078  28.482  1.00  0.00     0.049 A 
ATOM     48  N   UNL A   1      43.377  27.427  27.468  1.00  0.00    -0.248 NA
ATOM     49  C   UNL A   1      43.314  25.227  26.686  1.00  0.00     0.031 C 
ATOM     50  C   UNL A   1      39.208  26.960  28.986  1.00  0.00     0.029 A 
ATOM     51  N   UNL A   1      40.985  28.317  28.902  1.00  0.00    -0.354 N 
ATOM     52  C   UNL A   1      44.601  27.118  26.890  1.00  0.00     0.074 A 
ATOM     53  C   UNL A   1      44.519  25.736  26.457  1.00  0.00     0.031 C 
ATOM     54  C   UNL A   1      38.882  28.091  29.630  1.00  0.00     0.029 A 
ATOM     55  C   UNL A   1      40.020  29.003  29.596  1.00  0.00     0.049 A 
ATOM     56  H   UNL A   1      41.883  28.678  28.724  1.00  0.00     0.167 HD
ATOM     57  C   UNL A   1      45.681  27.920  26.721  1.00  0.00     0.037 A 
ATOM     58  C   UNL A   1      40.048  30.235  30.136  1.00  0.00     0.037 A 
ATOM     59  C   UNL A   1      45.766  29.285  27.182  1.00  0.00     0.049 A 
ATOM     60  C   UNL A   1      41.279  31.080  29.981  1.00  0.00     0.074 A 
ATOM     61  C   UNL A   1      46.802  30.190  27.018  1.00  0.00     0.029 A 
ATOM     62  N   UNL A   1      44.786  29.936  27.918  1.00  0.00    -0.354 N 
ATOM     63  N   UNL A   1      42.392  30.814  29.344  1.00  0.00    -0.248 NA
ATOM     64  C   UNL A   1      41.249  32.406  30.614  1.00  0.00     0.031 C 
ATOM     65  C   UNL A   1      46.471  31.368  27.699  1.00  0.00     0.029 A 
ATOM     66  C   UNL A   1      45.208  31.217  28.245  1.00  0.00     0.049 A 
ATOM     67  H   UNL A   1      43.918  29.546  28.171  1.00  0.00     0.167 HD
ATOM     68  C   UNL A   1      43.186  31.945  29.477  1.00  0.00     0.074 A 
ATOM     69  C   UNL A   1      42.417  32.908  30.237  1.00  0.00     0.031 C 
ATOM     70  C   UNL A   1      44.440  32.166  29.011  1.00  0.00     0.037 A 
BRANCH  57  71
ATOM     71  C   UNL A   1      46.866  27.341  26.002  1.00  0.00     0.057 A 
ATOM     72  C   UNL A   1      47.897  26.707  26.707  1.00  0.00     0.134 A 
ATOM     73  C   UNL A   1      47.013  27.461  24.614  1.00  0.00     0.134 A 
ATOM     74  F   UNL A   1      47.828  26.569  28.040  1.00  0.00    -0.206 F 
ATOM     75  C   UNL A   1      49.029  26.211  26.057  1.00  0.00     0.040 A 
ATOM     76  C   UNL A   1      48.128  26.947  23.949  1.00  0.00     0.040 A 
ATOM     77  F   UNL A   1      46.061  28.055  23.878  1.00  0.00    -0.206 F 
ATOM     78  C   UNL A   1      49.143  26.324  24.672  1.00  0.00     0.006 A 
ENDBRANCH  57  71
BRANCH  58  79
ATOM     79  C   UNL A   1      38.858  30.755  30.853  1.00  0.00     0.057 A 
ATOM     80  C   UNL A   1      37.863  31.476  30.185  1.00  0.00     0.134 A 
ATOM     81  C   UNL A   1      38.681  30.520  32.221  1.00  0.00     0.134 A 
ATOM     82  F   UNL A   1      37.981  31.740  28.875  1.00  0.00    -0.206 F 
ATOM     83  C   UNL A   1      36.733  31.949  30.851  1.00  0.00     0.040 A 
ATOM     84  C   UNL A   1      37.542  30.965  32.895  1.00  0.00     0.040 A 
ATOM     85  F   UNL A   1      39.593  29.821  32.911  1.00  0.00    -0.206 F 
ATOM     86  C   UNL A   1      36.566  31.684  32.209  1.00  0.00     0.006 A 
ENDBRANCH  58  79
BRANCH  70  87
ATOM     87  C   UNL A   1      45.043  33.512  29.298  1.00  0.00     0.057 A 
ATOM     88  C   UNL A   1      44.836  34.589  28.427  1.00  0.00     0.134 A 
ATOM     89  C   UNL A   1      45.827  33.744  30.437  1.00  0.00     0.134 A 
ATOM     90  F   UNL A   1      44.101  34.437  27.316  1.00  0.00    -0.206 F 
ATOM     91  C   UNL A   1      45.384  35.848  28.680  1.00  0.00     0.040 A 
ATOM     92  C   UNL A   1      46.356  35.005  30.714  1.00  0.00     0.040 A 
ATOM     93  F   UNL A   1      46.048  32.760  31.321  1.00  0.00    -0.206 F 
ATOM     94  C   UNL A   1      46.138  36.061  29.832  1.00  0.00     0.006 A 
ENDBRANCH  70  87
ENDBRANCH  44  45
ENDBRANCH  37  39
ENDBRANCH  36  37
ENDBRANCH  35  36
ENDBRANCH  34  35
ENDBRANCH  33  34
ENDBRANCH  32  33
ENDBRANCH   1  32
TORSDOF 20
ENDMDL
MODEL 3
REMARK VINA RESULT:     -11.0      4.299      6.616
REMARK SMILES Nc1ccc(-c2cc(Cl)cc3c2O[C@H](C(F)(F)F)C(C(=O)OCCOCCOCCOC(=O)c2ccc(-c4c5nc(c(-c6c(F)cccc6F)c6ccc([nH]6)c(-c6c(F)cccc6F)c6nc(c(-c7c(F)cccc7F)c7ccc4[nH]7)C=C6)C=C5)cc2)=C3)cc1
REMARK SMILES IDX 26 1 25 2 24 3 23 4 22 5 20 6 21 7 19 8 6 9 7 10 12 11 8 12
REMARK SMILES IDX 11 13 13 14 9 15 10 16 88 17 14 18 5 19 2 20 3 21 90 22 4 23
REMARK SMILES IDX 89 24 1 25 15 28 16 29 17 30 18 31 27 32 28 33 29 34 30 35
REMARK SMILES IDX 31 36 32 37 33 38 34 39 35 40 87 41 36 42 86 43 37 44 38 45
REMARK SMILES IDX 39 46 80 47 40 48 85 49 79 50 81 51 41 52 84 53 78 54 77 55
REMARK SMILES IDX 42 57 68 58 51 59 67 60 52 61 55 62 66 63 82 64 53 65 54 66
REMARK SMILES IDX 65 68 83 69 56 70 43 71 44 72 49 73 45 74 46 75 48 76 50 77
REMARK SMILES IDX 47 78 69 79 70 80 75 81 71 82 72 83 74 84 76 85 73 86 57 87
REMARK SMILES IDX 58 88 63 89 59 90 60 91 62 92 64 93 61 94
REMARK H PARENT 1 26 1 27 81 56 55 67
REMARK Flexibility Score: inf
ROOT
ATOM      1  C   UNL A   1      35.162  20.994  25.001  1.00  0.00     0.188 C 
ENDROOT
BRANCH   1   2
ATOM      2  O   UNL A   1      34.092  20.139  24.660  1.00  0.00    -0.376 OA
BRANCH   2   3
ATOM      3  C   UNL A   1      32.782  20.361  25.153  1.00  0.00     0.202 C 
BRANCH   3   4
ATOM      4  C   UNL A   1      32.349  21.708  25.739  1.00  0.00     0.261 C 
BRANCH   4   5
ATOM      5  O   UNL A   1      31.432  22.444  24.920  1.00  0.00    -0.460 OA
BRANCH   5   6
ATOM      6  C   UNL A   1      32.012  23.221  23.974  1.00  0.00     0.338 C 
ATOM      7  O   UNL A   1      32.554  22.846  22.948  1.00  0.00    -0.246 OA
BRANCH   6   8
ATOM      8  C   UNL A   1      31.767  24.641  24.284  1.00  0.00     0.087 C 
ATOM      9  C   UNL A   1      31.344  28.769  24.846  1.00  0.00     0.026 A 
ATOM     10  C   UNL A   1      30.514  29.478  23.958  1.00  0.00     0.033 A 
ATOM     11  C   UNL A   1      31.412  27.363  24.713  1.00  0.00     0.135 A 
ATOM     12  C   UNL A   1      29.790  28.812  22.970  1.00  0.00     0.042 A 
ATOM     13  C   UNL A   1      30.723  26.708  23.685  1.00  0.00     0.019 A 
ATOM     14  O   UNL A   1      32.159  26.685  25.640  1.00  0.00    -0.475 OA
ATOM     15  Cl  UNL A   1      28.788  29.707  21.895  1.00  0.00    -0.084 Cl
ATOM     16  C   UNL A   1      29.897  27.433  22.823  1.00  0.00     0.032 A 
ATOM     17  C   UNL A   1      30.925  25.286  23.468  1.00  0.00     0.027 C 
ATOM     18  C   UNL A   1      32.454  25.277  25.457  1.00  0.00     0.316 C 
BRANCH   9  19
ATOM     19  C   UNL A   1      32.164  29.507  25.826  1.00  0.00    -0.014 A 
ATOM     20  C   UNL A   1      33.779  30.920  27.686  1.00  0.00     0.031 A 
ATOM     21  C   UNL A   1      34.249  29.761  27.075  1.00  0.00     0.026 A 
ATOM     22  C   UNL A   1      32.519  31.399  27.325  1.00  0.00     0.026 A 
ATOM     23  C   UNL A   1      33.453  29.061  26.163  1.00  0.00     0.011 A 
ATOM     24  C   UNL A   1      31.715  30.696  26.419  1.00  0.00     0.011 A 
BRANCH  20  25
ATOM     25  N   UNL A   1      34.599  31.651  28.530  1.00  0.00    -0.399 N 
ATOM     26  H   UNL A   1      35.551  31.772  28.308  1.00  0.00     0.156 HD
ATOM     27  H   UNL A   1      34.231  32.050  29.351  1.00  0.00     0.156 HD
ENDBRANCH  20  25
ENDBRANCH   9  19
BRANCH  18  28
ATOM     28  C   UNL A   1      33.979  25.109  25.410  1.00  0.00     0.430 C 
ATOM     29  F   UNL A   1      34.379  24.022  26.114  1.00  0.00    -0.167 F 
ATOM     30  F   UNL A   1      34.428  24.937  24.145  1.00  0.00    -0.167 F 
ATOM     31  F   UNL A   1      34.620  26.183  25.925  1.00  0.00    -0.167 F 
ENDBRANCH  18  28
ENDBRANCH   6   8
ENDBRANCH   5   6
ENDBRANCH   4   5
ENDBRANCH   3   4
ENDBRANCH   2   3
ENDBRANCH   1   2
BRANCH   1  32
ATOM     32  C   UNL A   1      36.624  20.497  25.006  1.00  0.00     0.188 C 
BRANCH  32  33
ATOM     33  O   UNL A   1      37.704  21.407  25.002  1.00  0.00    -0.376 OA
BRANCH  33  34
ATOM     34  C   UNL A   1      38.879  21.103  25.739  1.00  0.00     0.202 C 
BRANCH  34  35
ATOM     35  C   UNL A   1      39.432  19.675  25.794  1.00  0.00     0.261 C 
BRANCH  35  36
ATOM     36  O   UNL A   1      40.708  19.516  25.157  1.00  0.00    -0.460 OA
BRANCH  36  37
ATOM     37  C   UNL A   1      41.753  19.297  26.000  1.00  0.00     0.338 C 
ATOM     38  O   UNL A   1      42.275  18.242  26.274  1.00  0.00    -0.246 OA
BRANCH  37  39
ATOM     39  C   UNL A   1      42.311  20.607  26.397  1.00  0.00     0.060 A 
ATOM     40  C   UNL A   1      42.884  21.457  25.452  1.00  0.00     0.016 A 
ATOM     41  C   UNL A   1      42.258  20.972  27.749  1.00  0.00     0.016 A 
ATOM     42  C   UNL A   1      43.389  22.692  25.863  1.00  0.00     0.010 A 
ATOM     43  C   UNL A   1      42.778  22.200  28.160  1.00  0.00     0.010 A 
ATOM     44  C   UNL A   1      43.332  23.075  27.216  1.00  0.00    -0.014 A 
BRANCH  44  45
ATOM     45  C   UNL A   1      43.710  24.455  27.603  1.00  0.00     0.031 A 
ATOM     46  C   UNL A   1      45.133  24.922  27.577  1.00  0.00     0.074 A 
ATOM     47  C   UNL A   1      42.729  25.294  27.981  1.00  0.00     0.049 A 
ATOM     48  N   UNL A   1      45.603  26.127  27.782  1.00  0.00    -0.248 NA
ATOM     49  C   UNL A   1      46.159  23.910  27.297  1.00  0.00     0.031 C 
ATOM     50  C   UNL A   1      41.313  24.939  28.080  1.00  0.00     0.029 A 
ATOM     51  N   UNL A   1      42.771  26.616  28.343  1.00  0.00    -0.354 N 
ATOM     52  C   UNL A   1      46.979  26.030  27.625  1.00  0.00     0.074 A 
ATOM     53  C   UNL A   1      47.270  24.634  27.363  1.00  0.00     0.031 C 
ATOM     54  C   UNL A   1      40.617  26.024  28.455  1.00  0.00     0.029 A 
ATOM     55  C   UNL A   1      41.538  27.140  28.637  1.00  0.00     0.049 A 
ATOM     56  H   UNL A   1      43.605  27.137  28.387  1.00  0.00     0.167 HD
ATOM     57  C   UNL A   1      47.905  27.019  27.674  1.00  0.00     0.037 A 
ATOM     58  C   UNL A   1      41.188  28.387  29.003  1.00  0.00     0.037 A 
ATOM     59  C   UNL A   1      47.611  28.402  27.966  1.00  0.00     0.049 A 
ATOM     60  C   UNL A   1      42.244  29.449  29.105  1.00  0.00     0.074 A 
ATOM     61  C   UNL A   1      48.477  29.482  27.995  1.00  0.00     0.029 A 
ATOM     62  N   UNL A   1      46.356  28.892  28.301  1.00  0.00    -0.354 N 
ATOM     63  N   UNL A   1      43.527  29.368  28.854  1.00  0.00    -0.248 NA
ATOM     64  C   UNL A   1      41.796  30.782  29.531  1.00  0.00     0.031 C 
ATOM     65  C   UNL A   1      47.758  30.614  28.399  1.00  0.00     0.029 A 
ATOM     66  C   UNL A   1      46.433  30.251  28.572  1.00  0.00     0.049 A 
ATOM     67  H   UNL A   1      45.533  28.354  28.340  1.00  0.00     0.167 HD
ATOM     68  C   UNL A   1      44.037  30.642  29.067  1.00  0.00     0.074 A 
ATOM     69  C   UNL A   1      42.920  31.481  29.447  1.00  0.00     0.031 C 
ATOM     70  C   UNL A   1      45.317  31.077  28.959  1.00  0.00     0.037 A 
BRANCH  57  71
ATOM     71  C   UNL A   1      49.334  26.641  27.407  1.00  0.00     0.057 A 
ATOM     72  C   UNL A   1      49.814  26.518  26.097  1.00  0.00     0.134 A 
ATOM     73  C   UNL A   1      50.222  26.346  28.450  1.00  0.00     0.134 A 
ATOM     74  F   UNL A   1      49.015  26.772  25.051  1.00  0.00    -0.206 F 
ATOM     75  C   UNL A   1      51.126  26.117  25.835  1.00  0.00     0.040 A 
ATOM     76  C   UNL A   1      51.544  25.969  28.201  1.00  0.00     0.040 A 
ATOM     77  F   UNL A   1      49.827  26.447  29.729  1.00  0.00    -0.206 F 
ATOM     78  C   UNL A   1      51.997  25.848  26.890  1.00  0.00     0.006 A 
ENDBRANCH  57  71
BRANCH  58  79
ATOM     79  C   UNL A   1      39.765  28.705  29.276  1.00  0.00     0.057 A 
ATOM     80  C   UNL A   1      38.915  29.163  28.264  1.00  0.00     0.134 A 
ATOM     81  C   UNL A   1      39.221  28.537  30.553  1.00  0.00     0.134 A 
ATOM     82  F   UNL A   1      39.382  29.352  27.020  1.00  0.00    -0.206 F 
ATOM     83  C   UNL A   1      37.572  29.445  28.512  1.00  0.00     0.040 A 
ATOM     84  C   UNL A   1      37.872  28.789  30.810  1.00  0.00     0.040 A 
ATOM     85  F   UNL A   1      39.983  28.086  31.560  1.00  0.00    -0.206 F 
ATOM     86  C   UNL A   1      37.044  29.248  29.786  1.00  0.00     0.006 A 
ENDBRANCH  58  79
BRANCH  70  87
ATOM     87  C   UNL A   1      45.564  32.532  29.237  1.00  0.00     0.057 A 
ATOM     88  C   UNL A   1      45.450  33.485  28.216  1.00  0.00     0.134 A 
ATOM     89  C   UNL A   1      45.914  32.993  30.513  1.00  0.00     0.134 A 
ATOM     90  F   UNL A   1      45.123  33.113  26.969  1.00  0.00    -0.206 F 
ATOM     91  C   UNL A   1      45.670  34.843  28.457  1.00  0.00     0.040 A 
ATOM     92  C   UNL A   1      46.109  34.351  30.771  1.00  0.00     0.040 A 
ATOM     93  F   UNL A   1      46.022  32.136  31.539  1.00  0.00    -0.206 F 
ATOM     94  C   UNL A   1      45.991  35.280  29.740  1.00  0.00     0.006 A 
ENDBRANCH  70  87
ENDBRANCH  44  45
ENDBRANCH  37  39
ENDBRANCH  36  37
ENDBRANCH  35  36
ENDBRANCH  34  35
ENDBRANCH  33  34
ENDBRANCH  32  33
ENDBRANCH   1  32
TORSDOF 20
ENDMDL
