MODEL 1
REMARK VINA RESULT:     -10.6      0.000      0.000
REMARK SMILES CS(=O)(=O)c1ccc(N2N=C(C(=O)OCCOCCOCCOC(=O)c3ccc(-c4c5nc(c(-c6c(F)cccc6F)c6ccc([nH]6)c(-c6c(F)cccc6F)c6nc(c(-c7c(F)cccc7F)c7ccc4[nH]7)C=C6)C=C5)cc3)C[C@H]2c2ccco2)cc1
REMARK SMILES IDX 18 1 17 2 16 3 15 4 14 5 12 6 13 7 11 8 9 9 10 10 81 11
REMARK SMILES IDX 80 12 8 13 5 14 6 15 88 16 7 17 87 18 2 19 1 20 3 21 4 22
REMARK SMILES IDX 82 23 83 24 86 25 84 26 85 27 19 28 20 29 21 30 22 31 23 32
REMARK SMILES IDX 24 33 25 34 26 35 27 36 79 37 28 38 78 39 29 40 30 41 31 42
REMARK SMILES IDX 72 43 32 44 77 45 71 46 73 47 33 48 76 49 70 50 69 51 34 53
REMARK SMILES IDX 60 54 43 55 59 56 44 57 47 58 58 59 74 60 45 61 46 62 57 64
REMARK SMILES IDX 75 65 48 66 35 67 36 68 41 69 37 70 38 71 40 72 42 73 39 74
REMARK SMILES IDX 61 75 62 76 67 77 63 78 64 79 66 80 68 81 65 82 49 83 50 84
REMARK SMILES IDX 55 85 51 86 52 87 54 88 56 89 53 90
REMARK H PARENT 73 52 47 63
REMARK Flexibility Score: inf
ROOT
ATOM      1  C   UNL A   1      32.750  35.683  30.528  1.00  0.00     0.188 C 
ENDROOT
BRANCH   1   2
ATOM      2  O   UNL A   1      33.268  35.128  29.321  1.00  0.00    -0.376 OA
BRANCH   2   3
ATOM      3  C   UNL A   1      34.089  33.965  29.377  1.00  0.00     0.202 C 
BRANCH   3   4
ATOM      4  C   UNL A   1      34.353  33.197  28.073  1.00  0.00     0.261 C 
BRANCH   4   5
ATOM      5  O   UNL A   1      33.700  31.919  28.033  1.00  0.00    -0.459 OA
BRANCH   5   6
ATOM      6  C   UNL A   1      34.433  30.908  27.526  1.00  0.00     0.354 C 
ATOM      7  O   UNL A   1      35.645  30.815  27.464  1.00  0.00    -0.245 OA
BRANCH   6   8
ATOM      8  C   UNL A   1      33.515  29.776  27.141  1.00  0.00     0.148 C 
ATOM      9  N   UNL A   1      32.831  27.822  26.684  1.00  0.00    -0.254 N 
ATOM     10  N   UNL A   1      33.917  28.541  27.097  1.00  0.00    -0.169 NA
ATOM     11  C   UNL A   1      31.759  28.690  26.153  1.00  0.00     0.180 C 
ATOM     12  C   UNL A   1      32.062  30.010  26.882  1.00  0.00     0.101 C 
BRANCH   9  13
ATOM     13  C   UNL A   1      33.029  26.503  26.289  1.00  0.00     0.060 A 
ATOM     14  C   UNL A   1      33.387  23.830  25.481  1.00  0.00     0.067 A 
ATOM     15  C   UNL A   1      32.204  24.214  26.120  1.00  0.00     0.022 A 
ATOM     16  C   UNL A   1      34.405  24.759  25.274  1.00  0.00     0.022 A 
ATOM     17  C   UNL A   1      32.030  25.546  26.513  1.00  0.00     0.029 A 
ATOM     18  C   UNL A   1      34.226  26.079  25.699  1.00  0.00     0.029 A 
BRANCH  14  19
ATOM     19  S   UNL A   1      33.561  22.140  24.959  1.00  0.00     0.175 S 
ATOM     20  C   UNL A   1      32.164  21.777  23.932  1.00  0.00     0.163 C 
ATOM     21  O   UNL A   1      33.456  21.330  26.158  1.00  0.00    -0.224 OA
ATOM     22  O   UNL A   1      34.736  22.079  24.112  1.00  0.00    -0.224 OA
ENDBRANCH  14  19
ENDBRANCH   9  13
BRANCH  11  23
ATOM     23  C   UNL A   1      31.696  28.892  24.664  1.00  0.00     0.128 A 
ATOM     24  C   UNL A   1      32.655  28.893  23.669  1.00  0.00     0.048 A 
ATOM     25  O   UNL A   1      30.466  29.119  24.108  1.00  0.00    -0.467 OA
ATOM     26  C   UNL A   1      31.976  29.143  22.452  1.00  0.00     0.042 A 
ATOM     27  C   UNL A   1      30.645  29.258  22.772  1.00  0.00     0.195 A 
ENDBRANCH  11  23
ENDBRANCH   6   8
ENDBRANCH   5   6
ENDBRANCH   4   5
ENDBRANCH   3   4
ENDBRANCH   2   3
ENDBRANCH   1   2
BRANCH   1  28
ATOM     28  C   UNL A   1      33.725  36.090  31.654  1.00  0.00     0.188 C 
BRANCH  28  29
ATOM     29  O   UNL A   1      33.823  35.146  32.700  1.00  0.00    -0.376 OA
BRANCH  29  30
ATOM     30  C   UNL A   1      35.124  34.823  33.166  1.00  0.00     0.202 C 
BRANCH  30  31
ATOM     31  C   UNL A   1      35.303  33.644  34.140  1.00  0.00     0.261 C 
BRANCH  31  32
ATOM     32  O   UNL A   1      36.132  32.558  33.698  1.00  0.00    -0.460 OA
BRANCH  32  33
ATOM     33  C   UNL A   1      35.842  31.998  32.502  1.00  0.00     0.338 C 
ATOM     34  O   UNL A   1      34.752  31.926  31.968  1.00  0.00    -0.246 OA
BRANCH  33  35
ATOM     35  C   UNL A   1      37.126  31.644  31.857  1.00  0.00     0.060 A 
ATOM     36  C   UNL A   1      37.237  31.735  30.463  1.00  0.00     0.016 A 
ATOM     37  C   UNL A   1      38.217  31.239  32.629  1.00  0.00     0.016 A 
ATOM     38  C   UNL A   1      38.438  31.397  29.836  1.00  0.00     0.010 A 
ATOM     39  C   UNL A   1      39.412  30.882  31.997  1.00  0.00     0.010 A 
ATOM     40  C   UNL A   1      39.520  30.935  30.597  1.00  0.00    -0.014 A 
BRANCH  40  41
ATOM     41  C   UNL A   1      40.707  30.351  29.925  1.00  0.00     0.031 A 
ATOM     42  C   UNL A   1      41.892  31.236  29.660  1.00  0.00     0.074 A 
ATOM     43  C   UNL A   1      40.732  29.061  29.549  1.00  0.00     0.049 A 
ATOM     44  N   UNL A   1      43.010  30.968  29.036  1.00  0.00    -0.248 NA
ATOM     45  C   UNL A   1      41.798  32.615  30.165  1.00  0.00     0.031 C 
ATOM     46  C   UNL A   1      39.663  28.092  29.775  1.00  0.00     0.029 A 
ATOM     47  N   UNL A   1      41.700  28.350  28.882  1.00  0.00    -0.354 N 
ATOM     48  C   UNL A   1      43.749  32.144  29.069  1.00  0.00     0.074 A 
ATOM     49  C   UNL A   1      42.940  33.135  29.744  1.00  0.00     0.031 C 
ATOM     50  C   UNL A   1      40.026  26.913  29.238  1.00  0.00     0.029 A 
ATOM     51  C   UNL A   1      41.339  27.054  28.609  1.00  0.00     0.049 A 
ATOM     52  H   UNL A   1      42.570  28.734  28.625  1.00  0.00     0.167 HD
ATOM     53  C   UNL A   1      44.993  32.376  28.586  1.00  0.00     0.037 A 
ATOM     54  C   UNL A   1      41.984  26.101  27.908  1.00  0.00     0.037 A 
ATOM     55  C   UNL A   1      45.795  31.390  27.909  1.00  0.00     0.049 A 
ATOM     56  C   UNL A   1      43.338  26.399  27.320  1.00  0.00     0.074 A 
ATOM     57  C   UNL A   1      47.077  31.521  27.405  1.00  0.00     0.029 A 
ATOM     58  N   UNL A   1      45.384  30.095  27.632  1.00  0.00    -0.354 N 
ATOM     59  N   UNL A   1      44.042  27.503  27.378  1.00  0.00    -0.248 NA
ATOM     60  C   UNL A   1      43.988  25.314  26.569  1.00  0.00     0.031 C 
ATOM     61  C   UNL A   1      47.421  30.321  26.773  1.00  0.00     0.029 A 
ATOM     62  C   UNL A   1      46.376  29.425  26.933  1.00  0.00     0.049 A 
ATOM     63  H   UNL A   1      44.518  29.709  27.893  1.00  0.00     0.167 HD
ATOM     64  C   UNL A   1      45.226  27.240  26.700  1.00  0.00     0.074 A 
ATOM     65  C   UNL A   1      45.148  25.868  26.243  1.00  0.00     0.031 C 
ATOM     66  C   UNL A   1      46.284  28.060  26.481  1.00  0.00     0.037 A 
BRANCH  53  67
ATOM     67  C   UNL A   1      45.541  33.764  28.744  1.00  0.00     0.057 A 
ATOM     68  C   UNL A   1      45.244  34.788  27.834  1.00  0.00     0.134 A 
ATOM     69  C   UNL A   1      46.377  34.080  29.822  1.00  0.00     0.134 A 
ATOM     70  F   UNL A   1      44.464  34.548  26.769  1.00  0.00    -0.206 F 
ATOM     71  C   UNL A   1      45.786  36.067  27.973  1.00  0.00     0.040 A 
ATOM     72  C   UNL A   1      46.902  35.363  29.987  1.00  0.00     0.040 A 
ATOM     73  F   UNL A   1      46.699  33.148  30.731  1.00  0.00    -0.206 F 
ATOM     74  C   UNL A   1      46.614  36.358  29.056  1.00  0.00     0.006 A 
ENDBRANCH  53  67
BRANCH  54  75
ATOM     75  C   UNL A   1      41.348  24.774  27.714  1.00  0.00     0.057 A 
ATOM     76  C   UNL A   1      41.752  23.658  28.455  1.00  0.00     0.134 A 
ATOM     77  C   UNL A   1      40.320  24.592  26.780  1.00  0.00     0.134 A 
ATOM     78  F   UNL A   1      42.748  23.762  29.345  1.00  0.00    -0.206 F 
ATOM     79  C   UNL A   1      41.161  22.405  28.270  1.00  0.00     0.040 A 
ATOM     80  C   UNL A   1      39.705  23.351  26.602  1.00  0.00     0.040 A 
ATOM     81  F   UNL A   1      39.892  25.621  26.035  1.00  0.00    -0.206 F 
ATOM     82  C   UNL A   1      40.129  22.252  27.346  1.00  0.00     0.006 A 
ENDBRANCH  54  75
BRANCH  66  83
ATOM     83  C   UNL A   1      47.459  27.489  25.737  1.00  0.00     0.057 A 
ATOM     84  C   UNL A   1      47.568  27.578  24.344  1.00  0.00     0.134 A 
ATOM     85  C   UNL A   1      48.516  26.886  26.430  1.00  0.00     0.134 A 
ATOM     86  F   UNL A   1      46.585  28.134  23.618  1.00  0.00    -0.206 F 
ATOM     87  C   UNL A   1      48.677  27.069  23.664  1.00  0.00     0.040 A 
ATOM     88  C   UNL A   1      49.642  26.398  25.766  1.00  0.00     0.040 A 
ATOM     89  F   UNL A   1      48.481  26.778  27.767  1.00  0.00    -0.206 F 
ATOM     90  C   UNL A   1      49.723  26.484  24.378  1.00  0.00     0.006 A 
ENDBRANCH  66  83
ENDBRANCH  40  41
ENDBRANCH  33  35
ENDBRANCH  32  33
ENDBRANCH  31  32
ENDBRANCH  30  31
ENDBRANCH  29  30
ENDBRANCH  28  29
ENDBRANCH   1  28
TORSDOF 20
ENDMDL
MODEL 2
REMARK VINA RESULT:     -10.3      0.531      6.030
REMARK SMILES CS(=O)(=O)c1ccc(N2N=C(C(=O)OCCOCCOCCOC(=O)c3ccc(-c4c5nc(c(-c6c(F)cccc6F)c6ccc([nH]6)c(-c6c(F)cccc6F)c6nc(c(-c7c(F)cccc7F)c7ccc4[nH]7)C=C6)C=C5)cc3)C[C@H]2c2ccco2)cc1
REMARK SMILES IDX 18 1 17 2 16 3 15 4 14 5 12 6 13 7 11 8 9 9 10 10 81 11
REMARK SMILES IDX 80 12 8 13 5 14 6 15 88 16 7 17 87 18 2 19 1 20 3 21 4 22
REMARK SMILES IDX 82 23 83 24 86 25 84 26 85 27 19 28 20 29 21 30 22 31 23 32
REMARK SMILES IDX 24 33 25 34 26 35 27 36 79 37 28 38 78 39 29 40 30 41 31 42
REMARK SMILES IDX 72 43 32 44 77 45 71 46 73 47 33 48 76 49 70 50 69 51 34 53
REMARK SMILES IDX 60 54 43 55 59 56 44 57 47 58 58 59 74 60 45 61 46 62 57 64
REMARK SMILES IDX 75 65 48 66 35 67 36 68 41 69 37 70 38 71 40 72 42 73 39 74
REMARK SMILES IDX 61 75 62 76 67 77 63 78 64 79 66 80 68 81 65 82 49 83 50 84
REMARK SMILES IDX 55 85 51 86 52 87 54 88 56 89 53 90
REMARK H PARENT 73 52 47 63
REMARK Flexibility Score: inf
ROOT
ATOM      1  C   UNL A   1      32.807  35.637  30.575  1.00  0.00     0.188 C 
ENDROOT
BRANCH   1   2
ATOM      2  O   UNL A   1      33.250  35.069  29.346  1.00  0.00    -0.376 OA
BRANCH   2   3
ATOM      3  C   UNL A   1      34.154  33.968  29.364  1.00  0.00     0.202 C 
BRANCH   3   4
ATOM      4  C   UNL A   1      34.378  33.188  28.060  1.00  0.00     0.261 C 
BRANCH   4   5
ATOM      5  O   UNL A   1      33.711  31.916  28.046  1.00  0.00    -0.459 OA
BRANCH   5   6
ATOM      6  C   UNL A   1      34.398  30.907  27.475  1.00  0.00     0.354 C 
ATOM      7  O   UNL A   1      35.603  30.787  27.360  1.00  0.00    -0.245 OA
BRANCH   6   8
ATOM      8  C   UNL A   1      33.437  29.811  27.089  1.00  0.00     0.148 C 
ATOM      9  N   UNL A   1      32.672  27.882  26.653  1.00  0.00    -0.254 N 
ATOM     10  N   UNL A   1      33.780  28.558  27.080  1.00  0.00    -0.169 NA
ATOM     11  C   UNL A   1      31.657  28.788  26.076  1.00  0.00     0.180 C 
ATOM     12  C   UNL A   1      32.004  30.108  26.785  1.00  0.00     0.101 C 
BRANCH   9  13
ATOM     13  C   UNL A   1      32.817  26.547  26.291  1.00  0.00     0.060 A 
ATOM     14  C   UNL A   1      33.068  23.843  25.548  1.00  0.00     0.067 A 
ATOM     15  C   UNL A   1      31.887  24.297  26.144  1.00  0.00     0.022 A 
ATOM     16  C   UNL A   1      34.135  24.718  25.352  1.00  0.00     0.022 A 
ATOM     17  C   UNL A   1      31.767  25.644  26.505  1.00  0.00     0.029 A 
ATOM     18  C   UNL A   1      34.008  26.054  25.745  1.00  0.00     0.029 A 
BRANCH  14  19
ATOM     19  S   UNL A   1      33.175  22.136  25.065  1.00  0.00     0.175 S 
ATOM     20  C   UNL A   1      34.433  21.398  26.071  1.00  0.00     0.163 C 
ATOM     21  O   UNL A   1      33.642  22.130  23.692  1.00  0.00    -0.224 OA
ATOM     22  O   UNL A   1      31.918  21.514  25.434  1.00  0.00    -0.224 OA
ENDBRANCH  14  19
ENDBRANCH   9  13
BRANCH  11  23
ATOM     23  C   UNL A   1      31.642  28.961  24.582  1.00  0.00     0.128 A 
ATOM     24  C   UNL A   1      32.633  28.943  23.619  1.00  0.00     0.048 A 
ATOM     25  O   UNL A   1      30.431  29.174  23.982  1.00  0.00    -0.467 OA
ATOM     26  C   UNL A   1      31.994  29.168  22.376  1.00  0.00     0.042 A 
ATOM     27  C   UNL A   1      30.653  29.287  22.650  1.00  0.00     0.195 A 
ENDBRANCH  11  23
ENDBRANCH   6   8
ENDBRANCH   5   6
ENDBRANCH   4   5
ENDBRANCH   3   4
ENDBRANCH   2   3
ENDBRANCH   1   2
BRANCH   1  28
ATOM     28  C   UNL A   1      33.851  36.139  31.597  1.00  0.00     0.188 C 
BRANCH  28  29
ATOM     29  O   UNL A   1      34.135  35.216  32.629  1.00  0.00    -0.376 OA
BRANCH  29  30
ATOM     30  C   UNL A   1      35.503  34.948  32.904  1.00  0.00     0.202 C 
BRANCH  30  31
ATOM     31  C   UNL A   1      35.863  33.912  33.983  1.00  0.00     0.261 C 
BRANCH  31  32
ATOM     32  O   UNL A   1      36.586  32.750  33.551  1.00  0.00    -0.460 OA
BRANCH  32  33
ATOM     33  C   UNL A   1      36.056  32.026  32.539  1.00  0.00     0.338 C 
ATOM     34  O   UNL A   1      34.889  31.975  32.202  1.00  0.00    -0.246 OA
BRANCH  33  35
ATOM     35  C   UNL A   1      37.182  31.438  31.779  1.00  0.00     0.060 A 
ATOM     36  C   UNL A   1      38.237  30.838  32.479  1.00  0.00     0.016 A 
ATOM     37  C   UNL A   1      37.185  31.469  30.382  1.00  0.00     0.016 A 
ATOM     38  C   UNL A   1      39.313  30.286  31.779  1.00  0.00     0.010 A 
ATOM     39  C   UNL A   1      38.272  30.933  29.685  1.00  0.00     0.010 A 
ATOM     40  C   UNL A   1      39.352  30.362  30.380  1.00  0.00    -0.014 A 
BRANCH  40  41
ATOM     41  C   UNL A   1      40.591  29.997  29.650  1.00  0.00     0.031 A 
ATOM     42  C   UNL A   1      40.724  28.600  29.114  1.00  0.00     0.074 A 
ATOM     43  C   UNL A   1      41.583  30.885  29.470  1.00  0.00     0.049 A 
ATOM     44  N   UNL A   1      41.733  28.034  28.501  1.00  0.00    -0.248 NA
ATOM     45  C   UNL A   1      39.561  27.718  29.302  1.00  0.00     0.031 C 
ATOM     46  C   UNL A   1      41.564  32.277  29.913  1.00  0.00     0.029 A 
ATOM     47  N   UNL A   1      42.811  30.735  28.874  1.00  0.00    -0.354 N 
ATOM     48  C   UNL A   1      41.328  26.732  28.235  1.00  0.00     0.074 A 
ATOM     49  C   UNL A   1      39.997  26.582  28.782  1.00  0.00     0.031 C 
ATOM     50  C   UNL A   1      42.737  32.851  29.588  1.00  0.00     0.029 A 
ATOM     51  C   UNL A   1      43.595  31.860  28.941  1.00  0.00     0.049 A 
ATOM     52  H   UNL A   1      43.101  29.900  28.439  1.00  0.00     0.167 HD
ATOM     53  C   UNL A   1      42.001  25.752  27.587  1.00  0.00     0.037 A 
ATOM     54  C   UNL A   1      44.869  32.056  28.547  1.00  0.00     0.037 A 
ATOM     55  C   UNL A   1      43.328  25.902  27.048  1.00  0.00     0.049 A 
ATOM     56  C   UNL A   1      45.625  30.933  27.889  1.00  0.00     0.074 A 
ATOM     57  C   UNL A   1      44.085  24.975  26.353  1.00  0.00     0.029 A 
ATOM     58  N   UNL A   1      44.098  27.050  27.156  1.00  0.00    -0.354 N 
ATOM     59  N   UNL A   1      45.228  29.714  27.616  1.00  0.00    -0.248 NA
ATOM     60  C   UNL A   1      47.010  31.215  27.483  1.00  0.00     0.031 C 
ATOM     61  C   UNL A   1      45.336  25.545  26.089  1.00  0.00     0.029 A 
ATOM     62  C   UNL A   1      45.337  26.845  26.570  1.00  0.00     0.049 A 
ATOM     63  H   UNL A   1      43.808  27.886  27.585  1.00  0.00     0.167 HD
ATOM     64  C   UNL A   1      46.298  29.094  26.983  1.00  0.00     0.074 A 
ATOM     65  C   UNL A   1      47.362  30.074  26.906  1.00  0.00     0.031 C 
ATOM     66  C   UNL A   1      46.388  27.828  26.503  1.00  0.00     0.037 A 
BRANCH  53  67
ATOM     67  C   UNL A   1      41.320  24.421  27.463  1.00  0.00     0.057 A 
ATOM     68  C   UNL A   1      40.289  24.196  26.540  1.00  0.00     0.134 A 
ATOM     69  C   UNL A   1      41.702  23.348  28.278  1.00  0.00     0.134 A 
ATOM     70  F   UNL A   1      39.863  25.186  25.741  1.00  0.00    -0.206 F 
ATOM     71  C   UNL A   1      39.641  22.962  26.456  1.00  0.00     0.040 A 
ATOM     72  C   UNL A   1      41.081  22.102  28.184  1.00  0.00     0.040 A 
ATOM     73  F   UNL A   1      42.683  23.494  29.181  1.00  0.00    -0.206 F 
ATOM     74  C   UNL A   1      40.041  21.909  27.278  1.00  0.00     0.006 A 
ENDBRANCH  53  67
BRANCH  54  75
ATOM     75  C   UNL A   1      45.515  33.373  28.778  1.00  0.00     0.057 A 
ATOM     76  C   UNL A   1      45.510  34.368  27.794  1.00  0.00     0.134 A 
ATOM     77  C   UNL A   1      46.152  33.665  29.990  1.00  0.00     0.134 A 
ATOM     78  F   UNL A   1      44.939  34.139  26.603  1.00  0.00    -0.206 F 
ATOM     79  C   UNL A   1      46.124  35.605  28.005  1.00  0.00     0.040 A 
ATOM     80  C   UNL A   1      46.749  34.906  30.222  1.00  0.00     0.040 A 
ATOM     81  F   UNL A   1      46.196  32.752  30.971  1.00  0.00    -0.206 F 
ATOM     82  C   UNL A   1      46.739  35.880  29.225  1.00  0.00     0.006 A 
ENDBRANCH  54  75
BRANCH  66  83
ATOM     83  C   UNL A   1      47.671  27.435  25.826  1.00  0.00     0.057 A 
ATOM     84  C   UNL A   1      48.772  26.955  26.545  1.00  0.00     0.134 A 
ATOM     85  C   UNL A   1      47.786  27.493  24.431  1.00  0.00     0.134 A 
ATOM     86  F   UNL A   1      48.732  26.885  27.885  1.00  0.00    -0.206 F 
ATOM     87  C   UNL A   1      49.950  26.566  25.903  1.00  0.00     0.040 A 
ATOM     88  C   UNL A   1      48.947  27.082  23.775  1.00  0.00     0.040 A 
ATOM     89  F   UNL A   1      46.765  27.932  23.680  1.00  0.00    -0.206 F 
ATOM     90  C   UNL A   1      50.036  26.621  24.512  1.00  0.00     0.006 A 
ENDBRANCH  66  83
ENDBRANCH  40  41
ENDBRANCH  33  35
ENDBRANCH  32  33
ENDBRANCH  31  32
ENDBRANCH  30  31
ENDBRANCH  29  30
ENDBRANCH  28  29
ENDBRANCH   1  28
TORSDOF 20
ENDMDL
MODEL 3
REMARK VINA RESULT:     -10.2      2.199      4.056
REMARK SMILES CS(=O)(=O)c1ccc(N2N=C(C(=O)OCCOCCOCCOC(=O)c3ccc(-c4c5nc(c(-c6c(F)cccc6F)c6ccc([nH]6)c(-c6c(F)cccc6F)c6nc(c(-c7c(F)cccc7F)c7ccc4[nH]7)C=C6)C=C5)cc3)C[C@H]2c2ccco2)cc1
REMARK SMILES IDX 18 1 17 2 16 3 15 4 14 5 12 6 13 7 11 8 9 9 10 10 81 11
REMARK SMILES IDX 80 12 8 13 5 14 6 15 88 16 7 17 87 18 2 19 1 20 3 21 4 22
REMARK SMILES IDX 82 23 83 24 86 25 84 26 85 27 19 28 20 29 21 30 22 31 23 32
REMARK SMILES IDX 24 33 25 34 26 35 27 36 79 37 28 38 78 39 29 40 30 41 31 42
REMARK SMILES IDX 72 43 32 44 77 45 71 46 73 47 33 48 76 49 70 50 69 51 34 53
REMARK SMILES IDX 60 54 43 55 59 56 44 57 47 58 58 59 74 60 45 61 46 62 57 64
REMARK SMILES IDX 75 65 48 66 35 67 36 68 41 69 37 70 38 71 40 72 42 73 39 74
REMARK SMILES IDX 61 75 62 76 67 77 63 78 64 79 66 80 68 81 65 82 49 83 50 84
REMARK SMILES IDX 55 85 51 86 52 87 54 88 56 89 53 90
REMARK H PARENT 73 52 47 63
REMARK Flexibility Score: inf
ROOT
ATOM      1  C   UNL A   1      33.824  29.685  27.190  1.00  0.00     0.188 C 
ENDROOT
BRANCH   1   2
ATOM      2  O   UNL A   1      33.254  29.012  26.070  1.00  0.00    -0.376 OA
BRANCH   2   3
ATOM      3  C   UNL A   1      31.858  28.729  26.054  1.00  0.00     0.202 C 
BRANCH   3   4
ATOM      4  C   UNL A   1      31.372  27.426  26.707  1.00  0.00     0.261 C 
BRANCH   4   5
ATOM      5  O   UNL A   1      32.108  26.273  26.272  1.00  0.00    -0.459 OA
BRANCH   5   6
ATOM      6  C   UNL A   1      31.420  25.114  26.263  1.00  0.00     0.354 C 
ATOM      7  O   UNL A   1      30.396  24.843  26.863  1.00  0.00    -0.245 OA
BRANCH   6   8
ATOM      8  C   UNL A   1      32.037  24.180  25.254  1.00  0.00     0.148 C 
ATOM      9  N   UNL A   1      32.605  22.390  24.270  1.00  0.00    -0.254 N 
ATOM     10  N   UNL A   1      31.885  22.891  25.318  1.00  0.00    -0.169 NA
ATOM     11  C   UNL A   1      33.505  23.402  23.680  1.00  0.00     0.180 C 
ATOM     12  C   UNL A   1      32.781  24.702  24.068  1.00  0.00     0.101 C 
BRANCH   9  13
ATOM     13  C   UNL A   1      32.846  21.021  24.235  1.00  0.00     0.060 A 
ATOM     14  C   UNL A   1      33.335  18.248  24.207  1.00  0.00     0.067 A 
ATOM     15  C   UNL A   1      33.850  19.037  25.240  1.00  0.00     0.022 A 
ATOM     16  C   UNL A   1      32.609  18.835  23.172  1.00  0.00     0.022 A 
ATOM     17  C   UNL A   1      33.598  20.414  25.250  1.00  0.00     0.029 A 
ATOM     18  C   UNL A   1      32.391  20.216  23.184  1.00  0.00     0.029 A 
BRANCH  14  19
ATOM     19  S   UNL A   1      33.638  16.498  24.243  1.00  0.00     0.175 S 
ATOM     20  C   UNL A   1      35.060  16.246  25.270  1.00  0.00     0.163 C 
ATOM     21  O   UNL A   1      33.995  16.118  22.889  1.00  0.00    -0.224 OA
ATOM     22  O   UNL A   1      32.512  15.887  24.922  1.00  0.00    -0.224 OA
ENDBRANCH  14  19
ENDBRANCH   9  13
BRANCH  11  23
ATOM     23  C   UNL A   1      34.937  23.418  24.142  1.00  0.00     0.128 A 
ATOM     24  C   UNL A   1      35.603  24.115  25.133  1.00  0.00     0.048 A 
ATOM     25  O   UNL A   1      35.818  22.591  23.499  1.00  0.00    -0.467 OA
ATOM     26  C   UNL A   1      36.955  23.699  25.081  1.00  0.00     0.042 A 
ATOM     27  C   UNL A   1      37.030  22.761  24.081  1.00  0.00     0.195 A 
ENDBRANCH  11  23
ENDBRANCH   6   8
ENDBRANCH   5   6
ENDBRANCH   4   5
ENDBRANCH   3   4
ENDBRANCH   2   3
ENDBRANCH   1   2
BRANCH   1  28
ATOM     28  C   UNL A   1      33.267  31.063  27.610  1.00  0.00     0.188 C 
BRANCH  28  29
ATOM     29  O   UNL A   1      34.187  32.125  27.462  1.00  0.00    -0.376 OA
BRANCH  29  30
ATOM     30  C   UNL A   1      34.107  33.190  28.397  1.00  0.00     0.202 C 
BRANCH  30  31
ATOM     31  C   UNL A   1      35.393  33.937  28.797  1.00  0.00     0.261 C 
BRANCH  31  32
ATOM     32  O   UNL A   1      35.862  33.746  30.140  1.00  0.00    -0.460 OA
BRANCH  32  33
ATOM     33  C   UNL A   1      35.672  32.530  30.701  1.00  0.00     0.338 C 
ATOM     34  O   UNL A   1      34.665  32.121  31.247  1.00  0.00    -0.246 OA
BRANCH  33  35
ATOM     35  C   UNL A   1      36.853  31.701  30.371  1.00  0.00     0.060 A 
ATOM     36  C   UNL A   1      37.667  31.230  31.409  1.00  0.00     0.016 A 
ATOM     37  C   UNL A   1      37.142  31.382  29.042  1.00  0.00     0.016 A 
ATOM     38  C   UNL A   1      38.791  30.454  31.116  1.00  0.00     0.010 A 
ATOM     39  C   UNL A   1      38.278  30.621  28.750  1.00  0.00     0.010 A 
ATOM     40  C   UNL A   1      39.121  30.175  29.783  1.00  0.00    -0.014 A 
BRANCH  40  41
ATOM     41  C   UNL A   1      40.432  29.562  29.454  1.00  0.00     0.031 A 
ATOM     42  C   UNL A   1      41.656  30.432  29.464  1.00  0.00     0.074 A 
ATOM     43  C   UNL A   1      40.535  28.258  29.146  1.00  0.00     0.049 A 
ATOM     44  N   UNL A   1      42.892  30.137  29.151  1.00  0.00    -0.248 NA
ATOM     45  C   UNL A   1      41.456  31.831  29.876  1.00  0.00     0.031 C 
ATOM     46  C   UNL A   1      39.431  27.301  29.131  1.00  0.00     0.029 A 
ATOM     47  N   UNL A   1      41.630  27.519  28.771  1.00  0.00    -0.354 N 
ATOM     48  C   UNL A   1      43.614  31.311  29.326  1.00  0.00     0.074 A 
ATOM     49  C   UNL A   1      42.673  32.330  29.738  1.00  0.00     0.031 C 
ATOM     50  C   UNL A   1      39.903  26.101  28.747  1.00  0.00     0.029 A 
ATOM     51  C   UNL A   1      41.333  26.214  28.464  1.00  0.00     0.049 A 
ATOM     52  H   UNL A   1      42.542  27.889  28.727  1.00  0.00     0.167 HD
ATOM     53  C   UNL A   1      44.942  31.520  29.164  1.00  0.00     0.037 A 
ATOM     54  C   UNL A   1      42.122  25.232  27.986  1.00  0.00     0.037 A 
ATOM     55  C   UNL A   1      45.876  30.507  28.748  1.00  0.00     0.049 A 
ATOM     56  C   UNL A   1      43.583  25.502  27.747  1.00  0.00     0.074 A 
ATOM     57  C   UNL A   1      47.246  30.613  28.579  1.00  0.00     0.029 A 
ATOM     58  N   UNL A   1      45.532  29.202  28.425  1.00  0.00    -0.354 N 
ATOM     59  N   UNL A   1      44.265  26.606  27.939  1.00  0.00    -0.248 NA
ATOM     60  C   UNL A   1      44.388  24.387  27.225  1.00  0.00     0.031 C 
ATOM     61  C   UNL A   1      47.722  29.388  28.100  1.00  0.00     0.029 A 
ATOM     62  C   UNL A   1      46.659  28.502  28.025  1.00  0.00     0.049 A 
ATOM     63  H   UNL A   1      44.624  28.829  28.474  1.00  0.00     0.167 HD
ATOM     64  C   UNL A   1      45.577  26.313  27.591  1.00  0.00     0.074 A 
ATOM     65  C   UNL A   1      45.600  24.924  27.182  1.00  0.00     0.031 C 
ATOM     66  C   UNL A   1      46.667  27.121  27.616  1.00  0.00     0.037 A 
BRANCH  53  67
ATOM     67  C   UNL A   1      45.450  32.912  29.402  1.00  0.00     0.057 A 
ATOM     68  C   UNL A   1      45.432  33.892  28.400  1.00  0.00     0.134 A 
ATOM     69  C   UNL A   1      45.964  33.277  30.653  1.00  0.00     0.134 A 
ATOM     70  F   UNL A   1      44.970  33.603  27.174  1.00  0.00    -0.206 F 
ATOM     71  C   UNL A   1      45.937  35.174  28.624  1.00  0.00     0.040 A 
ATOM     72  C   UNL A   1      46.446  34.563  30.897  1.00  0.00     0.040 A 
ATOM     73  F   UNL A   1      46.008  32.389  31.657  1.00  0.00    -0.206 F 
ATOM     74  C   UNL A   1      46.442  35.514  29.878  1.00  0.00     0.006 A 
ENDBRANCH  53  67
BRANCH  54  75
ATOM     75  C   UNL A   1      41.538  23.900  27.687  1.00  0.00     0.057 A 
ATOM     76  C   UNL A   1      41.797  22.793  28.502  1.00  0.00     0.134 A 
ATOM     77  C   UNL A   1      40.708  23.705  26.576  1.00  0.00     0.134 A 
ATOM     78  F   UNL A   1      42.606  22.910  29.565  1.00  0.00    -0.206 F 
ATOM     79  C   UNL A   1      41.256  21.536  28.221  1.00  0.00     0.040 A 
ATOM     80  C   UNL A   1      40.142  22.459  26.296  1.00  0.00     0.040 A 
ATOM     81  F   UNL A   1      40.426  24.724  25.753  1.00  0.00    -0.206 F 
ATOM     82  C   UNL A   1      40.420  21.369  27.119  1.00  0.00     0.006 A 
ENDBRANCH  54  75
BRANCH  66  83
ATOM     83  C   UNL A   1      47.984  26.518  27.214  1.00  0.00     0.057 A 
ATOM     84  C   UNL A   1      48.489  26.640  25.914  1.00  0.00     0.134 A 
ATOM     85  C   UNL A   1      48.777  25.849  28.155  1.00  0.00     0.134 A 
ATOM     86  F   UNL A   1      47.774  27.259  24.961  1.00  0.00    -0.206 F 
ATOM     87  C   UNL A   1      49.727  26.100  25.558  1.00  0.00     0.040 A 
ATOM     88  C   UNL A   1      50.028  25.329  27.819  1.00  0.00     0.040 A 
ATOM     89  F   UNL A   1      48.359  25.706  29.421  1.00  0.00    -0.206 F 
ATOM     90  C   UNL A   1      50.504  25.449  26.515  1.00  0.00     0.006 A 
ENDBRANCH  66  83
ENDBRANCH  40  41
ENDBRANCH  33  35
ENDBRANCH  32  33
ENDBRANCH  31  32
ENDBRANCH  30  31
ENDBRANCH  29  30
ENDBRANCH  28  29
ENDBRANCH   1  28
TORSDOF 20
ENDMDL
