MODEL 1
REMARK VINA RESULT:     -12.9      0.000      0.000
REMARK SMILES Cc1c(C(=O)OCCOCCOCCOC(=O)c2ccc(-c3c4nc(c(-c5c(F)cccc5F)c5ccc([nH]5)c(-c5c(F)cccc5F)c5nc(c(-c6c(F)cccc6F)c6ccc3[nH]6)C=C5)C=C4)cc2)cccc1-n1c(C)cc(/C=C2/C(=O)NC(=S)N=C2O)c1C
REMARK SMILES IDX 10 1 9 2 8 3 7 4 6 5 4 6 5 7 3 8 1 9 2 10 75 11 72 12 74 13
REMARK SMILES IDX 73 14 76 15 77 16 91 17 78 18 79 19 80 20 92 21 81 22 82 23
REMARK SMILES IDX 83 24 89 25 84 26 85 27 88 28 86 29 87 31 90 32 11 34 12 35
REMARK SMILES IDX 13 36 14 37 15 38 16 39 17 40 18 41 19 42 71 43 20 44 70 45
REMARK SMILES IDX 21 46 22 47 23 48 64 49 24 50 69 51 63 52 65 53 25 54 68 55
REMARK SMILES IDX 62 56 61 57 26 59 52 60 35 61 51 62 36 63 39 64 50 65 66 66
REMARK SMILES IDX 37 67 38 68 49 70 67 71 40 72 27 73 28 74 33 75 29 76 30 77
REMARK SMILES IDX 32 78 34 79 31 80 53 81 54 82 59 83 55 84 56 85 58 86 60 87
REMARK SMILES IDX 57 88 41 89 42 90 47 91 43 92 44 93 46 94 48 95 45 96
REMARK H PARENT 85 30 90 33 65 58 39 69
REMARK Flexibility Score: inf
ROOT
ATOM      1  C   UNL A   1      33.608  33.056  28.135  1.00  0.00     0.188 C 
ENDROOT
BRANCH   1   2
ATOM      2  O   UNL A   1      34.234  31.764  27.954  1.00  0.00    -0.376 OA
BRANCH   2   3
ATOM      3  C   UNL A   1      33.781  30.776  27.029  1.00  0.00     0.202 C 
BRANCH   3   4
ATOM      4  C   UNL A   1      32.475  29.786  27.288  1.00  0.00     0.261 C 
BRANCH   4   5
ATOM      5  O   UNL A   1      31.423  29.037  26.214  1.00  0.00    -0.460 OA
BRANCH   5   6
ATOM      6  C   UNL A   1      31.045  29.085  24.853  1.00  0.00     0.338 C 
ATOM      7  O   UNL A   1      30.791  30.033  24.117  1.00  0.00    -0.246 OA
BRANCH   6   8
ATOM      8  C   UNL A   1      30.787  27.918  24.002  1.00  0.00     0.065 A 
ATOM      9  C   UNL A   1      33.262  27.731  23.995  1.00  0.00     0.047 C 
ATOM     10  C   UNL A   1      31.896  27.115  23.838  1.00  0.00    -0.012 A 
ATOM     11  C   UNL A   1      31.654  25.736  23.696  1.00  0.00     0.049 A 
ATOM     12  C   UNL A   1      29.486  27.313  24.038  1.00  0.00     0.016 A 
ATOM     13  C   UNL A   1      30.387  25.138  23.668  1.00  0.00     0.027 A 
ATOM     14  C   UNL A   1      29.282  25.943  23.845  1.00  0.00     0.003 A 
BRANCH  11  15
ATOM     15  N   UNL A   1      32.751  24.922  23.438  1.00  0.00    -0.318 N 
ATOM     16  C   UNL A   1      33.158  24.508  22.187  1.00  0.00     0.020 A 
ATOM     17  C   UNL A   1      33.273  24.104  24.420  1.00  0.00     0.027 A 
ATOM     18  C   UNL A   1      32.580  25.054  20.921  1.00  0.00     0.065 C 
ATOM     19  C   UNL A   1      34.085  23.506  22.391  1.00  0.00     0.031 A 
ATOM     20  C   UNL A   1      34.179  23.273  23.790  1.00  0.00    -0.003 A 
ATOM     21  C   UNL A   1      32.774  24.206  25.835  1.00  0.00     0.065 C 
BRANCH  20  22
ATOM     22  C   UNL A   1      34.914  22.222  24.402  1.00  0.00     0.029 C 
ATOM     23  C   UNL A   1      34.546  20.949  24.630  1.00  0.00     0.102 C 
ATOM     24  C   UNL A   1      35.633  20.019  25.002  1.00  0.00     0.262 C 
ATOM     25  C   UNL A   1      33.252  20.299  24.408  1.00  0.00     0.226 C 
ATOM     26  O   UNL A   1      36.731  20.370  25.421  1.00  0.00    -0.269 OA
ATOM     27  N   UNL A   1      35.332  18.705  24.764  1.00  0.00    -0.297 N 
ATOM     28  N   UNL A   1      33.047  19.043  24.250  1.00  0.00    -0.184 NA
ATOM     29  C   UNL A   1      34.128  18.206  24.328  1.00  0.00     0.203 C 
ATOM     30  H   UNL A   1      36.051  18.052  24.922  1.00  0.00     0.172 HD
ATOM     31  S   UNL A   1      34.050  16.572  23.969  1.00  0.00    -0.038 S 
BRANCH  25  32
ATOM     32  O   UNL A   1      32.174  21.088  24.424  1.00  0.00    -0.493 OA
ATOM     33  H   UNL A   1      32.275  22.019  24.397  1.00  0.00     0.295 HD
ENDBRANCH  25  32
ENDBRANCH  20  22
ENDBRANCH  11  15
ENDBRANCH   6   8
ENDBRANCH   5   6
ENDBRANCH   4   5
ENDBRANCH   3   4
ENDBRANCH   2   3
ENDBRANCH   1   2
BRANCH   1  34
ATOM     34  C   UNL A   1      34.106  34.086  29.157  1.00  0.00     0.188 C 
BRANCH  34  35
ATOM     35  O   UNL A   1      35.266  34.736  28.669  1.00  0.00    -0.376 OA
BRANCH  35  36
ATOM     36  C   UNL A   1      36.503  34.105  28.952  1.00  0.00     0.202 C 
BRANCH  36  37
ATOM     37  C   UNL A   1      36.701  33.877  30.460  1.00  0.00     0.261 C 
BRANCH  37  38
ATOM     38  O   UNL A   1      37.154  32.521  30.714  1.00  0.00    -0.460 OA
BRANCH  38  39
ATOM     39  C   UNL A   1      36.198  31.550  30.858  1.00  0.00     0.338 C 
ATOM     40  O   UNL A   1      35.202  31.648  31.565  1.00  0.00    -0.246 OA
BRANCH  39  41
ATOM     41  C   UNL A   1      36.669  30.256  30.245  1.00  0.00     0.060 A 
ATOM     42  C   UNL A   1      37.140  29.138  30.943  1.00  0.00     0.016 A 
ATOM     43  C   UNL A   1      37.060  30.327  28.956  1.00  0.00     0.016 A 
ATOM     44  C   UNL A   1      38.144  28.232  30.375  1.00  0.00     0.010 A 
ATOM     45  C   UNL A   1      38.248  29.651  28.665  1.00  0.00     0.010 A 
ATOM     46  C   UNL A   1      38.850  28.497  29.191  1.00  0.00    -0.014 A 
BRANCH  46  47
ATOM     47  C   UNL A   1      40.267  27.782  28.680  1.00  0.00     0.031 A 
ATOM     48  C   UNL A   1      40.729  26.264  28.079  1.00  0.00     0.074 A 
ATOM     49  C   UNL A   1      41.378  28.517  28.927  1.00  0.00     0.049 A 
ATOM     50  N   UNL A   1      41.773  25.577  28.528  1.00  0.00    -0.248 NA
ATOM     51  C   UNL A   1      40.079  25.380  27.049  1.00  0.00     0.031 C 
ATOM     52  C   UNL A   1      42.766  28.183  28.622  1.00  0.00     0.029 A 
ATOM     53  N   UNL A   1      41.481  29.648  29.745  1.00  0.00    -0.354 N 
ATOM     54  C   UNL A   1      41.838  24.334  27.881  1.00  0.00     0.074 A 
ATOM     55  C   UNL A   1      40.741  24.242  27.007  1.00  0.00     0.031 C 
ATOM     56  C   UNL A   1      43.548  28.789  29.528  1.00  0.00     0.029 A 
ATOM     57  C   UNL A   1      42.685  29.505  30.452  1.00  0.00     0.049 A 
ATOM     58  H   UNL A   1      40.841  30.393  29.812  1.00  0.00     0.167 HD
ATOM     59  C   UNL A   1      42.781  23.369  28.014  1.00  0.00     0.037 A 
ATOM     60  C   UNL A   1      42.706  29.466  31.811  1.00  0.00     0.037 A 
ATOM     61  C   UNL A   1      43.884  23.814  28.790  1.00  0.00     0.049 A 
ATOM     62  C   UNL A   1      43.360  28.227  32.381  1.00  0.00     0.074 A 
ATOM     63  C   UNL A   1      45.011  24.543  28.471  1.00  0.00     0.029 A 
ATOM     64  N   UNL A   1      43.705  23.899  30.146  1.00  0.00    -0.354 N 
ATOM     65  N   UNL A   1      43.791  27.216  31.676  1.00  0.00    -0.248 NA
ATOM     66  C   UNL A   1      43.484  27.993  33.823  1.00  0.00     0.031 C 
ATOM     67  C   UNL A   1      45.465  25.155  29.669  1.00  0.00     0.029 A 
ATOM     68  C   UNL A   1      44.648  24.730  30.702  1.00  0.00     0.049 A 
ATOM     69  H   UNL A   1      43.001  23.431  30.650  1.00  0.00     0.167 HD
ATOM     70  C   UNL A   1      44.160  26.210  32.529  1.00  0.00     0.074 A 
ATOM     71  C   UNL A   1      43.956  26.738  33.861  1.00  0.00     0.031 C 
ATOM     72  C   UNL A   1      44.571  24.983  32.117  1.00  0.00     0.037 A 
BRANCH  59  73
ATOM     73  C   UNL A   1      42.694  22.122  27.175  1.00  0.00     0.057 A 
ATOM     74  C   UNL A   1      41.859  21.064  27.550  1.00  0.00     0.134 A 
ATOM     75  C   UNL A   1      43.578  21.863  26.106  1.00  0.00     0.134 A 
ATOM     76  F   UNL A   1      40.980  21.208  28.550  1.00  0.00    -0.206 F 
ATOM     77  C   UNL A   1      41.954  19.795  26.956  1.00  0.00     0.040 A 
ATOM     78  C   UNL A   1      43.703  20.591  25.525  1.00  0.00     0.040 A 
ATOM     79  F   UNL A   1      44.422  22.814  25.671  1.00  0.00    -0.206 F 
ATOM     80  C   UNL A   1      42.898  19.546  25.964  1.00  0.00     0.006 A 
ENDBRANCH  59  73
BRANCH  60  81
ATOM     81  C   UNL A   1      41.641  30.269  32.485  1.00  0.00     0.057 A 
ATOM     82  C   UNL A   1      41.765  31.674  32.525  1.00  0.00     0.134 A 
ATOM     83  C   UNL A   1      40.403  29.745  32.877  1.00  0.00     0.134 A 
ATOM     84  F   UNL A   1      42.916  32.264  32.159  1.00  0.00    -0.206 F 
ATOM     85  C   UNL A   1      40.695  32.514  32.845  1.00  0.00     0.040 A 
ATOM     86  C   UNL A   1      39.328  30.577  33.224  1.00  0.00     0.040 A 
ATOM     87  F   UNL A   1      40.161  28.429  32.810  1.00  0.00    -0.206 F 
ATOM     88  C   UNL A   1      39.466  31.963  33.188  1.00  0.00     0.006 A 
ENDBRANCH  60  81
BRANCH  72  89
ATOM     89  C   UNL A   1      44.972  23.900  33.056  1.00  0.00     0.057 A 
ATOM     90  C   UNL A   1      44.041  22.961  33.505  1.00  0.00     0.134 A 
ATOM     91  C   UNL A   1      46.236  23.889  33.671  1.00  0.00     0.134 A 
ATOM     92  F   UNL A   1      42.807  22.916  32.981  1.00  0.00    -0.206 F 
ATOM     93  C   UNL A   1      44.346  22.061  34.528  1.00  0.00     0.040 A 
ATOM     94  C   UNL A   1      46.539  23.022  34.721  1.00  0.00     0.040 A 
ATOM     95  F   UNL A   1      47.211  24.723  33.275  1.00  0.00    -0.206 F 
ATOM     96  C   UNL A   1      45.590  22.105  35.154  1.00  0.00     0.006 A 
ENDBRANCH  72  89
ENDBRANCH  46  47
ENDBRANCH  39  41
ENDBRANCH  38  39
ENDBRANCH  37  38
ENDBRANCH  36  37
ENDBRANCH  35  36
ENDBRANCH  34  35
ENDBRANCH   1  34
TORSDOF 20
ENDMDL
MODEL 2
REMARK VINA RESULT:     -12.4      3.870     10.100
REMARK SMILES Cc1c(C(=O)OCCOCCOCCOC(=O)c2ccc(-c3c4nc(c(-c5c(F)cccc5F)c5ccc([nH]5)c(-c5c(F)cccc5F)c5nc(c(-c6c(F)cccc6F)c6ccc3[nH]6)C=C5)C=C4)cc2)cccc1-n1c(C)cc(/C=C2/C(=O)NC(=S)N=C2O)c1C
REMARK SMILES IDX 10 1 9 2 8 3 7 4 6 5 4 6 5 7 3 8 1 9 2 10 75 11 72 12 74 13
REMARK SMILES IDX 73 14 76 15 77 16 91 17 78 18 79 19 80 20 92 21 81 22 82 23
REMARK SMILES IDX 83 24 89 25 84 26 85 27 88 28 86 29 87 31 90 32 11 34 12 35
REMARK SMILES IDX 13 36 14 37 15 38 16 39 17 40 18 41 19 42 71 43 20 44 70 45
REMARK SMILES IDX 21 46 22 47 23 48 64 49 24 50 69 51 63 52 65 53 25 54 68 55
REMARK SMILES IDX 62 56 61 57 26 59 52 60 35 61 51 62 36 63 39 64 50 65 66 66
REMARK SMILES IDX 37 67 38 68 49 70 67 71 40 72 27 73 28 74 33 75 29 76 30 77
REMARK SMILES IDX 32 78 34 79 31 80 53 81 54 82 59 83 55 84 56 85 58 86 60 87
REMARK SMILES IDX 57 88 41 89 42 90 47 91 43 92 44 93 46 94 48 95 45 96
REMARK H PARENT 85 30 90 33 65 58 39 69
REMARK Flexibility Score: inf
ROOT
ATOM      1  C   UNL A   1      40.005  21.005  26.630  1.00  0.00     0.188 C 
ENDROOT
BRANCH   1   2
ATOM      2  O   UNL A   1      39.284  21.741  25.615  1.00  0.00    -0.376 OA
BRANCH   2   3
ATOM      3  C   UNL A   1      37.944  22.212  25.766  1.00  0.00     0.202 C 
BRANCH   3   4
ATOM      4  C   UNL A   1      36.691  21.789  24.766  1.00  0.00     0.261 C 
BRANCH   4   5
ATOM      5  O   UNL A   1      35.782  20.381  24.664  1.00  0.00    -0.460 OA
BRANCH   5   6
ATOM      6  C   UNL A   1      34.497  19.891  24.993  1.00  0.00     0.338 C 
ATOM      7  O   UNL A   1      34.144  18.864  25.563  1.00  0.00    -0.246 OA
BRANCH   6   8
ATOM      8  C   UNL A   1      33.226  20.526  24.624  1.00  0.00     0.065 A 
ATOM      9  C   UNL A   1      33.670  21.924  26.626  1.00  0.00     0.047 C 
ATOM     10  C   UNL A   1      33.003  21.712  25.293  1.00  0.00    -0.012 A 
ATOM     11  C   UNL A   1      32.290  22.701  24.591  1.00  0.00     0.049 A 
ATOM     12  C   UNL A   1      32.750  20.383  23.278  1.00  0.00     0.016 A 
ATOM     13  C   UNL A   1      31.765  22.554  23.299  1.00  0.00     0.027 A 
ATOM     14  C   UNL A   1      32.002  21.372  22.630  1.00  0.00     0.003 A 
BRANCH  11  15
ATOM     15  N   UNL A   1      31.974  23.867  25.279  1.00  0.00    -0.318 N 
ATOM     16  C   UNL A   1      30.874  24.037  26.093  1.00  0.00     0.020 A 
ATOM     17  C   UNL A   1      32.481  25.086  24.877  1.00  0.00     0.027 A 
ATOM     18  C   UNL A   1      29.982  22.910  26.501  1.00  0.00     0.065 C 
ATOM     19  C   UNL A   1      30.781  25.391  26.344  1.00  0.00     0.031 A 
ATOM     20  C   UNL A   1      31.805  26.045  25.605  1.00  0.00    -0.003 A 
ATOM     21  C   UNL A   1      33.522  25.154  23.793  1.00  0.00     0.065 C 
BRANCH  20  22
ATOM     22  C   UNL A   1      31.956  27.452  25.476  1.00  0.00     0.029 C 
ATOM     23  C   UNL A   1      31.349  28.297  24.624  1.00  0.00     0.102 C 
ATOM     24  C   UNL A   1      31.482  29.736  24.937  1.00  0.00     0.262 C 
ATOM     25  C   UNL A   1      30.434  28.007  23.518  1.00  0.00     0.226 C 
ATOM     26  O   UNL A   1      32.334  30.207  25.682  1.00  0.00    -0.269 OA
ATOM     27  N   UNL A   1      30.505  30.509  24.370  1.00  0.00    -0.297 N 
ATOM     28  N   UNL A   1      29.580  28.813  23.003  1.00  0.00    -0.184 NA
ATOM     29  C   UNL A   1      29.528  30.089  23.499  1.00  0.00     0.203 C 
ATOM     30  H   UNL A   1      30.503  31.464  24.610  1.00  0.00     0.172 HD
ATOM     31  S   UNL A   1      28.353  31.198  23.057  1.00  0.00    -0.038 S 
BRANCH  25  32
ATOM     32  O   UNL A   1      30.536  26.799  22.956  1.00  0.00    -0.493 OA
ATOM     33  H   UNL A   1      30.426  26.703  22.030  1.00  0.00     0.295 HD
ENDBRANCH  25  32
ENDBRANCH  20  22
ENDBRANCH  11  15
ENDBRANCH   6   8
ENDBRANCH   5   6
ENDBRANCH   4   5
ENDBRANCH   3   4
ENDBRANCH   2   3
ENDBRANCH   1   2
BRANCH   1  34
ATOM     34  C   UNL A   1      41.090  19.972  26.296  1.00  0.00     0.188 C 
BRANCH  34  35
ATOM     35  O   UNL A   1      42.280  20.268  27.004  1.00  0.00    -0.376 OA
BRANCH  35  36
ATOM     36  C   UNL A   1      42.589  21.642  27.163  1.00  0.00     0.202 C 
BRANCH  36  37
ATOM     37  C   UNL A   1      43.288  22.221  25.921  1.00  0.00     0.261 C 
BRANCH  37  38
ATOM     38  O   UNL A   1      42.472  23.260  25.317  1.00  0.00    -0.460 OA
BRANCH  38  39
ATOM     39  C   UNL A   1      42.965  24.539  25.325  1.00  0.00     0.338 C 
ATOM     40  O   UNL A   1      44.153  24.830  25.276  1.00  0.00    -0.246 OA
BRANCH  39  41
ATOM     41  C   UNL A   1      41.872  25.519  25.666  1.00  0.00     0.060 A 
ATOM     42  C   UNL A   1      41.878  26.889  25.384  1.00  0.00     0.016 A 
ATOM     43  C   UNL A   1      41.044  25.148  26.664  1.00  0.00     0.016 A 
ATOM     44  C   UNL A   1      41.195  27.864  26.241  1.00  0.00     0.010 A 
ATOM     45  C   UNL A   1      40.758  26.152  27.593  1.00  0.00     0.010 A 
ATOM     46  C   UNL A   1      40.649  27.549  27.495  1.00  0.00    -0.014 A 
BRANCH  46  47
ATOM     47  C   UNL A   1      40.239  28.611  28.713  1.00  0.00     0.031 A 
ATOM     48  C   UNL A   1      38.976  29.704  29.014  1.00  0.00     0.074 A 
ATOM     49  C   UNL A   1      41.204  28.782  29.648  1.00  0.00     0.049 A 
ATOM     50  N   UNL A   1      39.162  30.957  29.413  1.00  0.00    -0.248 NA
ATOM     51  C   UNL A   1      37.489  29.554  28.837  1.00  0.00     0.031 C 
ATOM     52  C   UNL A   1      41.174  29.640  30.828  1.00  0.00     0.029 A 
ATOM     53  N   UNL A   1      42.539  28.366  29.574  1.00  0.00    -0.354 N 
ATOM     54  C   UNL A   1      37.926  31.617  29.497  1.00  0.00     0.074 A 
ATOM     55  C   UNL A   1      36.926  30.719  29.087  1.00  0.00     0.031 C 
ATOM     56  C   UNL A   1      42.434  30.009  31.105  1.00  0.00     0.029 A 
ATOM     57  C   UNL A   1      43.300  29.421  30.099  1.00  0.00     0.049 A 
ATOM     58  H   UNL A   1      42.875  27.510  29.224  1.00  0.00     0.167 HD
ATOM     59  C   UNL A   1      37.680  32.882  29.918  1.00  0.00     0.037 A 
ATOM     60  C   UNL A   1      44.254  30.043  29.355  1.00  0.00     0.037 A 
ATOM     61  C   UNL A   1      38.836  33.485  30.479  1.00  0.00     0.049 A 
ATOM     62  C   UNL A   1      44.062  31.538  29.234  1.00  0.00     0.074 A 
ATOM     63  C   UNL A   1      39.398  33.426  31.738  1.00  0.00     0.029 A 
ATOM     64  N   UNL A   1      39.809  33.908  29.611  1.00  0.00    -0.354 N 
ATOM     65  N   UNL A   1      43.039  32.202  29.701  1.00  0.00    -0.248 NA
ATOM     66  C   UNL A   1      44.981  32.393  28.475  1.00  0.00     0.031 C 
ATOM     67  C   UNL A   1      40.775  33.739  31.596  1.00  0.00     0.029 A 
ATOM     68  C   UNL A   1      41.008  34.050  30.268  1.00  0.00     0.049 A 
ATOM     69  H   UNL A   1      39.668  34.085  28.653  1.00  0.00     0.167 HD
ATOM     70  C   UNL A   1      43.115  33.497  29.259  1.00  0.00     0.074 A 
ATOM     71  C   UNL A   1      44.345  33.574  28.500  1.00  0.00     0.031 C 
ATOM     72  C   UNL A   1      42.159  34.432  29.491  1.00  0.00     0.037 A 
BRANCH  59  73
ATOM     73  C   UNL A   1      36.261  33.381  29.987  1.00  0.00     0.057 A 
ATOM     74  C   UNL A   1      35.602  33.827  28.836  1.00  0.00     0.134 A 
ATOM     75  C   UNL A   1      35.599  33.621  31.211  1.00  0.00     0.134 A 
ATOM     76  F   UNL A   1      36.143  33.643  27.625  1.00  0.00    -0.206 F 
ATOM     77  C   UNL A   1      34.398  34.544  28.899  1.00  0.00     0.040 A 
ATOM     78  C   UNL A   1      34.410  34.363  31.288  1.00  0.00     0.040 A 
ATOM     79  F   UNL A   1      36.149  33.232  32.373  1.00  0.00    -0.206 F 
ATOM     80  C   UNL A   1      33.814  34.842  30.128  1.00  0.00     0.006 A 
ENDBRANCH  59  73
BRANCH  60  81
ATOM     81  C   UNL A   1      44.939  29.175  28.349  1.00  0.00     0.057 A 
ATOM     82  C   UNL A   1      45.868  28.212  28.796  1.00  0.00     0.134 A 
ATOM     83  C   UNL A   1      44.552  29.087  27.007  1.00  0.00     0.134 A 
ATOM     84  F   UNL A   1      46.291  28.218  30.071  1.00  0.00    -0.206 F 
ATOM     85  C   UNL A   1      46.315  27.166  27.984  1.00  0.00     0.040 A 
ATOM     86  C   UNL A   1      45.011  28.055  26.174  1.00  0.00     0.040 A 
ATOM     87  F   UNL A   1      43.624  29.911  26.503  1.00  0.00    -0.206 F 
ATOM     88  C   UNL A   1      45.878  27.081  26.668  1.00  0.00     0.006 A 
ENDBRANCH  60  81
BRANCH  72  89
ATOM     89  C   UNL A   1      42.257  35.836  29.008  1.00  0.00     0.057 A 
ATOM     90  C   UNL A   1      41.741  36.202  27.763  1.00  0.00     0.134 A 
ATOM     91  C   UNL A   1      43.029  36.796  29.685  1.00  0.00     0.134 A 
ATOM     92  F   UNL A   1      41.007  35.338  27.045  1.00  0.00    -0.206 F 
ATOM     93  C   UNL A   1      41.991  37.459  27.209  1.00  0.00     0.040 A 
ATOM     94  C   UNL A   1      43.319  38.040  29.124  1.00  0.00     0.040 A 
ATOM     95  F   UNL A   1      43.528  36.553  30.907  1.00  0.00    -0.206 F 
ATOM     96  C   UNL A   1      42.800  38.373  27.880  1.00  0.00     0.006 A 
ENDBRANCH  72  89
ENDBRANCH  46  47
ENDBRANCH  39  41
ENDBRANCH  38  39
ENDBRANCH  37  38
ENDBRANCH  36  37
ENDBRANCH  35  36
ENDBRANCH  34  35
ENDBRANCH   1  34
TORSDOF 20
ENDMDL
MODEL 3
REMARK VINA RESULT:     -12.3      2.641      4.255
REMARK SMILES Cc1c(C(=O)OCCOCCOCCOC(=O)c2ccc(-c3c4nc(c(-c5c(F)cccc5F)c5ccc([nH]5)c(-c5c(F)cccc5F)c5nc(c(-c6c(F)cccc6F)c6ccc3[nH]6)C=C5)C=C4)cc2)cccc1-n1c(C)cc(/C=C2/C(=O)NC(=S)N=C2O)c1C
REMARK SMILES IDX 10 1 9 2 8 3 7 4 6 5 4 6 5 7 3 8 1 9 2 10 75 11 72 12 74 13
REMARK SMILES IDX 73 14 76 15 77 16 91 17 78 18 79 19 80 20 92 21 81 22 82 23
REMARK SMILES IDX 83 24 89 25 84 26 85 27 88 28 86 29 87 31 90 32 11 34 12 35
REMARK SMILES IDX 13 36 14 37 15 38 16 39 17 40 18 41 19 42 71 43 20 44 70 45
REMARK SMILES IDX 21 46 22 47 23 48 64 49 24 50 69 51 63 52 65 53 25 54 68 55
REMARK SMILES IDX 62 56 61 57 26 59 52 60 35 61 51 62 36 63 39 64 50 65 66 66
REMARK SMILES IDX 37 67 38 68 49 70 67 71 40 72 27 73 28 74 33 75 29 76 30 77
REMARK SMILES IDX 32 78 34 79 31 80 53 81 54 82 59 83 55 84 56 85 58 86 60 87
REMARK SMILES IDX 57 88 41 89 42 90 47 91 43 92 44 93 46 94 48 95 45 96
REMARK H PARENT 85 30 90 33 65 58 39 69
REMARK Flexibility Score: inf
ROOT
ATOM      1  C   UNL A   1      33.300  33.532  27.959  1.00  0.00     0.188 C 
ENDROOT
BRANCH   1   2
ATOM      2  O   UNL A   1      32.860  32.293  27.356  1.00  0.00    -0.376 OA
BRANCH   2   3
ATOM      3  C   UNL A   1      33.578  31.062  27.440  1.00  0.00     0.202 C 
BRANCH   3   4
ATOM      4  C   UNL A   1      32.899  29.569  27.190  1.00  0.00     0.261 C 
BRANCH   4   5
ATOM      5  O   UNL A   1      31.607  29.087  26.231  1.00  0.00    -0.460 OA
BRANCH   5   6
ATOM      6  C   UNL A   1      31.163  29.159  24.891  1.00  0.00     0.338 C 
ATOM      7  O   UNL A   1      30.867  30.120  24.187  1.00  0.00    -0.246 OA
BRANCH   6   8
ATOM      8  C   UNL A   1      30.873  28.007  24.029  1.00  0.00     0.065 A 
ATOM      9  C   UNL A   1      33.342  27.756  24.015  1.00  0.00     0.047 C 
ATOM     10  C   UNL A   1      31.961  27.177  23.856  1.00  0.00    -0.012 A 
ATOM     11  C   UNL A   1      31.683  25.807  23.700  1.00  0.00     0.049 A 
ATOM     12  C   UNL A   1      29.557  27.436  24.062  1.00  0.00     0.016 A 
ATOM     13  C   UNL A   1      30.401  25.241  23.669  1.00  0.00     0.027 A 
ATOM     14  C   UNL A   1      29.318  26.074  23.856  1.00  0.00     0.003 A 
BRANCH  11  15
ATOM     15  N   UNL A   1      32.758  24.966  23.433  1.00  0.00    -0.318 N 
ATOM     16  C   UNL A   1      33.143  24.542  22.178  1.00  0.00     0.020 A 
ATOM     17  C   UNL A   1      33.269  24.136  24.410  1.00  0.00     0.027 A 
ATOM     18  C   UNL A   1      32.568  25.103  20.918  1.00  0.00     0.065 C 
ATOM     19  C   UNL A   1      34.049  23.519  22.374  1.00  0.00     0.031 A 
ATOM     20  C   UNL A   1      34.149  23.284  23.772  1.00  0.00    -0.003 A 
ATOM     21  C   UNL A   1      32.785  24.250  25.829  1.00  0.00     0.065 C 
BRANCH  20  22
ATOM     22  C   UNL A   1      34.864  22.216  24.377  1.00  0.00     0.029 C 
ATOM     23  C   UNL A   1      34.459  20.959  24.633  1.00  0.00     0.102 C 
ATOM     24  C   UNL A   1      35.524  19.997  24.987  1.00  0.00     0.262 C 
ATOM     25  C   UNL A   1      33.138  20.352  24.455  1.00  0.00     0.226 C 
ATOM     26  O   UNL A   1      36.644  20.314  25.371  1.00  0.00    -0.269 OA
ATOM     27  N   UNL A   1      35.171  18.691  24.775  1.00  0.00    -0.297 N 
ATOM     28  N   UNL A   1      32.885  19.102  24.320  1.00  0.00    -0.184 NA
ATOM     29  C   UNL A   1      33.938  18.229  24.379  1.00  0.00     0.203 C 
ATOM     30  H   UNL A   1      35.871  18.015  24.922  1.00  0.00     0.172 HD
ATOM     31  S   UNL A   1      33.794  16.594  24.044  1.00  0.00    -0.038 S 
BRANCH  25  32
ATOM     32  O   UNL A   1      32.088  21.178  24.490  1.00  0.00    -0.493 OA
ATOM     33  H   UNL A   1      31.840  21.585  25.297  1.00  0.00     0.295 HD
ENDBRANCH  25  32
ENDBRANCH  20  22
ENDBRANCH  11  15
ENDBRANCH   6   8
ENDBRANCH   5   6
ENDBRANCH   4   5
ENDBRANCH   3   4
ENDBRANCH   2   3
ENDBRANCH   1   2
BRANCH   1  34
ATOM     34  C   UNL A   1      34.675  33.693  28.621  1.00  0.00     0.188 C 
BRANCH  34  35
ATOM     35  O   UNL A   1      34.660  34.789  29.518  1.00  0.00    -0.376 OA
BRANCH  35  36
ATOM     36  C   UNL A   1      33.384  35.218  29.960  1.00  0.00     0.202 C 
BRANCH  36  37
ATOM     37  C   UNL A   1      33.453  36.569  30.692  1.00  0.00     0.261 C 
BRANCH  37  38
ATOM     38  O   UNL A   1      33.334  36.376  32.126  1.00  0.00    -0.460 OA
BRANCH  38  39
ATOM     39  C   UNL A   1      33.211  35.091  32.586  1.00  0.00     0.338 C 
ATOM     40  O   UNL A   1      32.150  34.550  32.874  1.00  0.00    -0.246 OA
BRANCH  39  41
ATOM     41  C   UNL A   1      34.564  34.529  32.940  1.00  0.00     0.060 A 
ATOM     42  C   UNL A   1      35.774  35.232  32.932  1.00  0.00     0.016 A 
ATOM     43  C   UNL A   1      34.684  33.189  32.847  1.00  0.00     0.016 A 
ATOM     44  C   UNL A   1      37.053  34.576  32.637  1.00  0.00     0.010 A 
ATOM     45  C   UNL A   1      35.856  32.747  32.226  1.00  0.00     0.010 A 
ATOM     46  C   UNL A   1      37.161  33.261  32.160  1.00  0.00    -0.014 A 
BRANCH  46  47
ATOM     47  C   UNL A   1      38.476  32.565  31.409  1.00  0.00     0.031 A 
ATOM     48  C   UNL A   1      38.750  31.221  30.410  1.00  0.00     0.074 A 
ATOM     49  C   UNL A   1      39.669  33.089  31.781  1.00  0.00     0.049 A 
ATOM     50  N   UNL A   1      39.720  30.336  30.611  1.00  0.00    -0.248 NA
ATOM     51  C   UNL A   1      37.982  30.713  29.220  1.00  0.00     0.031 C 
ATOM     52  C   UNL A   1      41.002  32.707  31.330  1.00  0.00     0.029 A 
ATOM     53  N   UNL A   1      39.917  33.947  32.860  1.00  0.00    -0.354 N 
ATOM     54  C   UNL A   1      39.629  29.308  29.659  1.00  0.00     0.074 A 
ATOM     55  C   UNL A   1      38.510  29.564  28.849  1.00  0.00     0.031 C 
ATOM     56  C   UNL A   1      41.868  32.967  32.321  1.00  0.00     0.029 A 
ATOM     57  C   UNL A   1      41.112  33.498  33.442  1.00  0.00     0.049 A 
ATOM     58  H   UNL A   1      39.367  34.709  33.151  1.00  0.00     0.167 HD
ATOM     59  C   UNL A   1      40.460  28.250  29.488  1.00  0.00     0.037 A 
ATOM     60  C   UNL A   1      41.159  33.099  34.741  1.00  0.00     0.037 A 
ATOM     61  C   UNL A   1      41.623  28.358  30.295  1.00  0.00     0.049 A 
ATOM     62  C   UNL A   1      41.681  31.693  34.934  1.00  0.00     0.074 A 
ATOM     63  C   UNL A   1      42.818  29.025  30.120  1.00  0.00     0.029 A 
ATOM     64  N   UNL A   1      41.485  28.099  31.634  1.00  0.00    -0.354 N 
ATOM     65  N   UNL A   1      41.980  30.866  33.969  1.00  0.00    -0.248 NA
ATOM     66  C   UNL A   1      41.810  31.074  36.257  1.00  0.00     0.031 C 
ATOM     67  C   UNL A   1      43.364  29.247  31.412  1.00  0.00     0.029 A 
ATOM     68  C   UNL A   1      42.528  28.651  32.338  1.00  0.00     0.049 A 
ATOM     69  H   UNL A   1      40.744  27.589  32.034  1.00  0.00     0.167 HD
ATOM     70  C   UNL A   1      42.252  29.637  34.510  1.00  0.00     0.074 A 
ATOM     71  C   UNL A   1      42.138  29.812  35.942  1.00  0.00     0.031 C 
ATOM     72  C   UNL A   1      42.511  28.527  33.773  1.00  0.00     0.037 A 
BRANCH  59  73
ATOM     73  C   UNL A   1      40.214  27.285  28.358  1.00  0.00     0.057 A 
ATOM     74  C   UNL A   1      39.471  26.118  28.564  1.00  0.00     0.134 A 
ATOM     75  C   UNL A   1      40.873  27.389  27.114  1.00  0.00     0.134 A 
ATOM     76  F   UNL A   1      38.803  25.925  29.708  1.00  0.00    -0.206 F 
ATOM     77  C   UNL A   1      39.451  25.074  27.625  1.00  0.00     0.040 A 
ATOM     78  C   UNL A   1      40.885  26.340  26.182  1.00  0.00     0.040 A 
ATOM     79  F   UNL A   1      41.614  28.471  26.821  1.00  0.00    -0.206 F 
ATOM     80  C   UNL A   1      40.184  25.169  26.445  1.00  0.00     0.006 A 
ENDBRANCH  59  73
BRANCH  60  81
ATOM     81  C   UNL A   1      40.207  33.801  35.654  1.00  0.00     0.057 A 
ATOM     82  C   UNL A   1      38.928  33.245  35.868  1.00  0.00     0.134 A 
ATOM     83  C   UNL A   1      40.576  34.852  36.502  1.00  0.00     0.134 A 
ATOM     84  F   UNL A   1      38.494  32.228  35.105  1.00  0.00    -0.206 F 
ATOM     85  C   UNL A   1      38.101  33.646  36.922  1.00  0.00     0.040 A 
ATOM     86  C   UNL A   1      39.745  35.280  37.549  1.00  0.00     0.040 A 
ATOM     87  F   UNL A   1      41.794  35.402  36.425  1.00  0.00    -0.206 F 
ATOM     88  C   UNL A   1      38.515  34.664  37.773  1.00  0.00     0.006 A 
ENDBRANCH  60  81
BRANCH  72  89
ATOM     89  C   UNL A   1      42.809  27.199  34.374  1.00  0.00     0.057 A 
ATOM     90  C   UNL A   1      41.777  26.331  34.740  1.00  0.00     0.134 A 
ATOM     91  C   UNL A   1      44.110  26.845  34.774  1.00  0.00     0.134 A 
ATOM     92  F   UNL A   1      40.505  26.605  34.412  1.00  0.00    -0.206 F 
ATOM     93  C   UNL A   1      42.023  25.173  35.478  1.00  0.00     0.040 A 
ATOM     94  C   UNL A   1      44.363  25.711  35.546  1.00  0.00     0.040 A 
ATOM     95  F   UNL A   1      45.171  27.592  34.430  1.00  0.00    -0.206 F 
ATOM     96  C   UNL A   1      43.315  24.872  35.902  1.00  0.00     0.006 A 
ENDBRANCH  72  89
ENDBRANCH  46  47
ENDBRANCH  39  41
ENDBRANCH  38  39
ENDBRANCH  37  38
ENDBRANCH  36  37
ENDBRANCH  35  36
ENDBRANCH  34  35
ENDBRANCH   1  34
TORSDOF 20
ENDMDL
