MODEL 1
REMARK VINA RESULT:     -11.7      0.000      0.000
REMARK SMILES CC(C)[C@H](NC(=O)[C@H](Cc1ccccc1)n1c(=O)[nH]c2ccccc2c1=O)C(=O)OCCOCCOCCOC(=O)c1ccc(-c2c3nc(c(-c4c(F)cccc4F)c4ccc([nH]4)c(-c4c(F)cccc4F)c4nc(c(-c5c(F)cccc5F)c5ccc2[nH]5)C=C4)C=C3)cc1
REMARK SMILES IDX 34 1 33 2 32 3 31 4 30 5 28 6 29 7 4 8 2 9 1 10 3 11 5 12
REMARK SMILES IDX 6 13 7 15 8 16 16 17 17 18 26 19 18 20 19 21 25 22 27 23
REMARK SMILES IDX 20 24 24 26 21 27 23 28 22 29 9 30 10 31 11 32 15 33 12 34
REMARK SMILES IDX 14 35 13 36 35 37 36 38 37 39 38 40 39 41 40 42 41 43 42 44
REMARK SMILES IDX 43 45 95 46 44 47 94 48 45 49 46 50 47 51 88 52 48 53 93 54
REMARK SMILES IDX 87 55 89 56 49 57 92 58 86 59 85 60 50 62 76 63 59 64 75 65
REMARK SMILES IDX 60 66 63 67 74 68 90 69 61 70 62 71 73 73 91 74 64 75 51 76
REMARK SMILES IDX 52 77 57 78 53 79 54 80 56 81 58 82 55 83 77 84 78 85 83 86
REMARK SMILES IDX 79 87 80 88 82 89 84 90 81 91 65 92 66 93 71 94 67 95 68 96
REMARK SMILES IDX 70 97 72 98 69 99
REMARK H PARENT 5 14 19 25 89 61 63 72
REMARK Flexibility Score: inf
ROOT
ATOM      1  C   UNL A   1      35.007  32.223  28.128  1.00  0.00     0.188 C 
ENDROOT
BRANCH   1   2
ATOM      2  O   UNL A   1      34.155  31.548  27.206  1.00  0.00    -0.376 OA
BRANCH   2   3
ATOM      3  C   UNL A   1      33.732  30.227  27.519  1.00  0.00     0.202 C 
BRANCH   3   4
ATOM      4  C   UNL A   1      33.567  29.291  26.322  1.00  0.00     0.261 C 
BRANCH   4   5
ATOM      5  O   UNL A   1      32.187  28.932  26.106  1.00  0.00    -0.462 OA
BRANCH   5   6
ATOM      6  C   UNL A   1      31.693  27.880  26.812  1.00  0.00     0.328 C 
ATOM      7  O   UNL A   1      31.403  27.929  28.000  1.00  0.00    -0.250 OA
BRANCH   6   8
ATOM      8  C   UNL A   1      31.439  26.632  25.914  1.00  0.00     0.194 C 
BRANCH   8   9
ATOM      9  C   UNL A   1      30.803  26.954  24.543  1.00  0.00     0.017 C 
ATOM     10  C   UNL A   1      31.788  26.667  23.398  1.00  0.00     0.010 C 
ATOM     11  C   UNL A   1      29.516  26.177  24.240  1.00  0.00     0.010 C 
ENDBRANCH   8   9
BRANCH   8  12
ATOM     12  N   UNL A   1      30.917  25.425  26.564  1.00  0.00    -0.341 N 
ATOM     13  C   UNL A   1      31.350  24.179  26.872  1.00  0.00     0.244 C 
ATOM     14  H   UNL A   1      29.987  25.558  26.859  1.00  0.00     0.164 HD
ATOM     15  O   UNL A   1      30.411  23.466  27.252  1.00  0.00    -0.273 OA
BRANCH  13  16
ATOM     16  C   UNL A   1      32.726  23.572  26.496  1.00  0.00     0.189 C 
BRANCH  16  17
ATOM     17  N   UNL A   1      32.734  22.144  26.108  1.00  0.00    -0.247 N 
ATOM     18  C   UNL A   1      33.360  21.212  26.910  1.00  0.00     0.329 A 
ATOM     19  C   UNL A   1      32.026  21.765  24.968  1.00  0.00     0.264 A 
ATOM     20  O   UNL A   1      34.043  21.474  27.893  1.00  0.00    -0.248 OA
ATOM     21  N   UNL A   1      33.273  19.899  26.542  1.00  0.00    -0.307 N 
ATOM     22  C   UNL A   1      32.323  20.433  24.416  1.00  0.00     0.064 A 
ATOM     23  O   UNL A   1      31.189  22.458  24.401  1.00  0.00    -0.268 OA
ATOM     24  C   UNL A   1      32.872  19.493  25.275  1.00  0.00     0.055 A 
ATOM     25  H   UNL A   1      33.505  19.208  27.204  1.00  0.00     0.171 HD
ATOM     26  C   UNL A   1      32.156  20.137  23.062  1.00  0.00     0.016 A 
ATOM     27  C   UNL A   1      33.157  18.206  24.828  1.00  0.00     0.027 A 
ATOM     28  C   UNL A   1      32.520  18.876  22.588  1.00  0.00     0.001 A 
ATOM     29  C   UNL A   1      32.991  17.903  23.475  1.00  0.00     0.002 A 
ENDBRANCH  16  17
BRANCH  16  30
ATOM     30  C   UNL A   1      33.618  24.516  25.615  1.00  0.00     0.071 C 
BRANCH  30  31
ATOM     31  C   UNL A   1      34.869  23.962  24.958  1.00  0.00    -0.045 A 
ATOM     32  C   UNL A   1      36.025  23.701  25.701  1.00  0.00     0.004 A 
ATOM     33  C   UNL A   1      34.885  23.650  23.589  1.00  0.00     0.004 A 
ATOM     34  C   UNL A   1      37.095  23.002  25.134  1.00  0.00     0.000 A 
ATOM     35  C   UNL A   1      35.952  22.954  23.018  1.00  0.00     0.000 A 
ATOM     36  C   UNL A   1      37.046  22.603  23.800  1.00  0.00     0.000 A 
ENDBRANCH  30  31
ENDBRANCH  16  30
ENDBRANCH  13  16
ENDBRANCH   8  12
ENDBRANCH   6   8
ENDBRANCH   5   6
ENDBRANCH   4   5
ENDBRANCH   3   4
ENDBRANCH   2   3
ENDBRANCH   1   2
BRANCH   1  37
ATOM     37  C   UNL A   1      34.376  33.152  29.177  1.00  0.00     0.188 C 
BRANCH  37  38
ATOM     38  O   UNL A   1      34.580  32.713  30.509  1.00  0.00    -0.376 OA
BRANCH  38  39
ATOM     39  C   UNL A   1      35.909  32.308  30.797  1.00  0.00     0.202 C 
BRANCH  39  40
ATOM     40  C   UNL A   1      35.903  31.230  31.884  1.00  0.00     0.261 C 
BRANCH  40  41
ATOM     41  O   UNL A   1      36.340  29.934  31.429  1.00  0.00    -0.460 OA
BRANCH  41  42
ATOM     42  C   UNL A   1      37.236  29.277  32.199  1.00  0.00     0.338 C 
ATOM     43  O   UNL A   1      37.028  28.732  33.269  1.00  0.00    -0.246 OA
BRANCH  42  44
ATOM     44  C   UNL A   1      38.484  29.138  31.413  1.00  0.00     0.060 A 
ATOM     45  C   UNL A   1      38.453  29.369  30.029  1.00  0.00     0.016 A 
ATOM     46  C   UNL A   1      39.691  28.837  32.045  1.00  0.00     0.016 A 
ATOM     47  C   UNL A   1      39.632  29.306  29.278  1.00  0.00     0.010 A 
ATOM     48  C   UNL A   1      40.864  28.749  31.291  1.00  0.00     0.010 A 
ATOM     49  C   UNL A   1      40.842  28.973  29.903  1.00  0.00    -0.014 A 
BRANCH  49  50
ATOM     50  C   UNL A   1      42.074  28.714  29.115  1.00  0.00     0.031 A 
ATOM     51  C   UNL A   1      42.306  27.331  28.577  1.00  0.00     0.074 A 
ATOM     52  C   UNL A   1      43.006  29.667  28.933  1.00  0.00     0.049 A 
ATOM     53  N   UNL A   1      43.374  26.824  28.019  1.00  0.00    -0.248 NA
ATOM     54  C   UNL A   1      41.179  26.392  28.692  1.00  0.00     0.031 C 
ATOM     55  C   UNL A   1      42.894  31.059  29.364  1.00  0.00     0.029 A 
ATOM     56  N   UNL A   1      44.254  29.591  28.360  1.00  0.00    -0.354 N 
ATOM     57  C   UNL A   1      43.056  25.502  27.730  1.00  0.00     0.074 A 
ATOM     58  C   UNL A   1      41.700  25.284  28.186  1.00  0.00     0.031 C 
ATOM     59  C   UNL A   1      44.040  31.699  29.068  1.00  0.00     0.029 A 
ATOM     60  C   UNL A   1      44.981  30.751  28.470  1.00  0.00     0.049 A 
ATOM     61  H   UNL A   1      44.594  28.782  27.913  1.00  0.00     0.167 HD
ATOM     62  C   UNL A   1      43.824  24.557  27.141  1.00  0.00     0.037 A 
ATOM     63  C   UNL A   1      46.270  31.007  28.168  1.00  0.00     0.037 A 
ATOM     64  C   UNL A   1      45.176  24.768  26.695  1.00  0.00     0.049 A 
ATOM     65  C   UNL A   1      47.139  29.908  27.606  1.00  0.00     0.074 A 
ATOM     66  C   UNL A   1      46.021  23.876  26.057  1.00  0.00     0.029 A 
ATOM     67  N   UNL A   1      45.884  25.948  26.853  1.00  0.00    -0.354 N 
ATOM     68  N   UNL A   1      46.823  28.672  27.308  1.00  0.00    -0.248 NA
ATOM     69  C   UNL A   1      48.550  30.241  27.351  1.00  0.00     0.031 C 
ATOM     70  C   UNL A   1      47.260  24.498  25.879  1.00  0.00     0.029 A 
ATOM     71  C   UNL A   1      47.169  25.795  26.358  1.00  0.00     0.049 A 
ATOM     72  H   UNL A   1      45.528  26.772  27.255  1.00  0.00     0.167 HD
ATOM     73  C   UNL A   1      47.985  28.087  26.816  1.00  0.00     0.074 A 
ATOM     74  C   UNL A   1      49.010  29.108  26.838  1.00  0.00     0.031 C 
ATOM     75  C   UNL A   1      48.183  26.818  26.383  1.00  0.00     0.037 A 
BRANCH  62  76
ATOM     76  C   UNL A   1      43.231  23.191  26.977  1.00  0.00     0.057 A 
ATOM     77  C   UNL A   1      43.032  22.334  28.066  1.00  0.00     0.134 A 
ATOM     78  C   UNL A   1      42.819  22.742  25.715  1.00  0.00     0.134 A 
ATOM     79  F   UNL A   1      43.418  22.699  29.298  1.00  0.00    -0.206 F 
ATOM     80  C   UNL A   1      42.462  21.070  27.904  1.00  0.00     0.040 A 
ATOM     81  C   UNL A   1      42.225  21.491  25.544  1.00  0.00     0.040 A 
ATOM     82  F   UNL A   1      42.978  23.517  24.631  1.00  0.00    -0.206 F 
ATOM     83  C   UNL A   1      42.050  20.649  26.640  1.00  0.00     0.006 A 
ENDBRANCH  62  76
BRANCH  63  84
ATOM     84  C   UNL A   1      46.849  32.349  28.433  1.00  0.00     0.057 A 
ATOM     85  C   UNL A   1      46.731  33.387  27.501  1.00  0.00     0.134 A 
ATOM     86  C   UNL A   1      47.571  32.613  29.604  1.00  0.00     0.134 A 
ATOM     87  F   UNL A   1      46.081  33.186  26.346  1.00  0.00    -0.206 F 
ATOM     88  C   UNL A   1      47.322  34.634  27.716  1.00  0.00     0.040 A 
ATOM     89  C   UNL A   1      48.144  33.863  29.844  1.00  0.00     0.040 A 
ATOM     90  F   UNL A   1      47.729  31.659  30.532  1.00  0.00    -0.206 F 
ATOM     91  C   UNL A   1      48.027  34.876  28.894  1.00  0.00     0.006 A 
ENDBRANCH  63  84
BRANCH  75  92
ATOM     92  C   UNL A   1      49.551  26.458  25.878  1.00  0.00     0.057 A 
ATOM     93  C   UNL A   1      49.937  26.701  24.555  1.00  0.00     0.134 A 
ATOM     94  C   UNL A   1      50.512  25.919  26.744  1.00  0.00     0.134 A 
ATOM     95  F   UNL A   1      49.061  27.205  23.673  1.00  0.00    -0.206 F 
ATOM     96  C   UNL A   1      51.228  26.412  24.106  1.00  0.00     0.040 A 
ATOM     97  C   UNL A   1      51.812  25.648  26.314  1.00  0.00     0.040 A 
ATOM     98  F   UNL A   1      50.211  25.668  28.027  1.00  0.00    -0.206 F 
ATOM     99  C   UNL A   1      52.172  25.891  24.989  1.00  0.00     0.006 A 
ENDBRANCH  75  92
ENDBRANCH  49  50
ENDBRANCH  42  44
ENDBRANCH  41  42
ENDBRANCH  40  41
ENDBRANCH  39  40
ENDBRANCH  38  39
ENDBRANCH  37  38
ENDBRANCH   1  37
TORSDOF 23
ENDMDL
MODEL 2
REMARK VINA RESULT:     -11.6      1.912      6.654
REMARK SMILES CC(C)[C@H](NC(=O)[C@H](Cc1ccccc1)n1c(=O)[nH]c2ccccc2c1=O)C(=O)OCCOCCOCCOC(=O)c1ccc(-c2c3nc(c(-c4c(F)cccc4F)c4ccc([nH]4)c(-c4c(F)cccc4F)c4nc(c(-c5c(F)cccc5F)c5ccc2[nH]5)C=C4)C=C3)cc1
REMARK SMILES IDX 34 1 33 2 32 3 31 4 30 5 28 6 29 7 4 8 2 9 1 10 3 11 5 12
REMARK SMILES IDX 6 13 7 15 8 16 16 17 17 18 26 19 18 20 19 21 25 22 27 23
REMARK SMILES IDX 20 24 24 26 21 27 23 28 22 29 9 30 10 31 11 32 15 33 12 34
REMARK SMILES IDX 14 35 13 36 35 37 36 38 37 39 38 40 39 41 40 42 41 43 42 44
REMARK SMILES IDX 43 45 95 46 44 47 94 48 45 49 46 50 47 51 88 52 48 53 93 54
REMARK SMILES IDX 87 55 89 56 49 57 92 58 86 59 85 60 50 62 76 63 59 64 75 65
REMARK SMILES IDX 60 66 63 67 74 68 90 69 61 70 62 71 73 73 91 74 64 75 51 76
REMARK SMILES IDX 52 77 57 78 53 79 54 80 56 81 58 82 55 83 77 84 78 85 83 86
REMARK SMILES IDX 79 87 80 88 82 89 84 90 81 91 65 92 66 93 71 94 67 95 68 96
REMARK SMILES IDX 70 97 72 98 69 99
REMARK H PARENT 5 14 19 25 89 61 63 72
REMARK Flexibility Score: inf
ROOT
ATOM      1  C   UNL A   1      33.304  34.754  28.687  1.00  0.00     0.188 C 
ENDROOT
BRANCH   1   2
ATOM      2  O   UNL A   1      34.332  33.791  28.469  1.00  0.00    -0.376 OA
BRANCH   2   3
ATOM      3  C   UNL A   1      34.042  32.423  28.730  1.00  0.00     0.202 C 
BRANCH   3   4
ATOM      4  C   UNL A   1      34.459  31.444  27.632  1.00  0.00     0.261 C 
BRANCH   4   5
ATOM      5  O   UNL A   1      33.672  30.236  27.662  1.00  0.00    -0.462 OA
BRANCH   5   6
ATOM      6  C   UNL A   1      34.173  29.144  27.025  1.00  0.00     0.328 C 
ATOM      7  O   UNL A   1      35.256  28.637  27.287  1.00  0.00    -0.250 OA
BRANCH   6   8
ATOM      8  C   UNL A   1      33.170  28.547  25.994  1.00  0.00     0.194 C 
BRANCH   8   9
ATOM      9  C   UNL A   1      32.767  29.520  24.862  1.00  0.00     0.017 C 
ATOM     10  C   UNL A   1      33.027  28.897  23.481  1.00  0.00     0.010 C 
ATOM     11  C   UNL A   1      31.297  29.957  24.892  1.00  0.00     0.010 C 
ENDBRANCH   8   9
BRANCH   8  12
ATOM     12  N   UNL A   1      32.073  27.725  26.514  1.00  0.00    -0.341 N 
ATOM     13  C   UNL A   1      31.419  26.587  26.176  1.00  0.00     0.244 C 
ATOM     14  H   UNL A   1      31.707  28.108  27.343  1.00  0.00     0.164 HD
ATOM     15  O   UNL A   1      30.405  26.436  26.872  1.00  0.00    -0.273 OA
BRANCH  13  16
ATOM     16  C   UNL A   1      31.653  25.745  24.896  1.00  0.00     0.189 C 
BRANCH  16  17
ATOM     17  N   UNL A   1      32.569  24.589  25.023  1.00  0.00    -0.247 N 
ATOM     18  C   UNL A   1      33.921  24.748  24.794  1.00  0.00     0.329 A 
ATOM     19  C   UNL A   1      32.043  23.373  25.458  1.00  0.00     0.264 A 
ATOM     20  O   UNL A   1      34.446  25.767  24.361  1.00  0.00    -0.248 OA
ATOM     21  N   UNL A   1      34.729  23.665  24.998  1.00  0.00    -0.307 N 
ATOM     22  C   UNL A   1      32.878  22.179  25.251  1.00  0.00     0.064 A 
ATOM     23  O   UNL A   1      30.947  23.235  25.989  1.00  0.00    -0.268 OA
ATOM     24  C   UNL A   1      34.243  22.369  25.113  1.00  0.00     0.055 A 
ATOM     25  H   UNL A   1      35.701  23.810  25.067  1.00  0.00     0.171 HD
ATOM     26  C   UNL A   1      32.325  20.905  25.103  1.00  0.00     0.016 A 
ATOM     27  C   UNL A   1      35.096  21.283  24.937  1.00  0.00     0.027 A 
ATOM     28  C   UNL A   1      33.165  19.822  24.841  1.00  0.00     0.001 A 
ATOM     29  C   UNL A   1      34.550  20.006  24.789  1.00  0.00     0.002 A 
ENDBRANCH  16  17
BRANCH  16  30
ATOM     30  C   UNL A   1      30.351  25.485  24.059  1.00  0.00     0.071 C 
BRANCH  30  31
ATOM     31  C   UNL A   1      29.571  26.664  23.506  1.00  0.00    -0.045 A 
ATOM     32  C   UNL A   1      28.236  26.883  23.865  1.00  0.00     0.004 A 
ATOM     33  C   UNL A   1      30.184  27.597  22.655  1.00  0.00     0.004 A 
ATOM     34  C   UNL A   1      27.593  28.076  23.520  1.00  0.00     0.000 A 
ATOM     35  C   UNL A   1      29.543  28.788  22.307  1.00  0.00     0.000 A 
ATOM     36  C   UNL A   1      28.256  29.041  22.766  1.00  0.00     0.000 A 
ENDBRANCH  30  31
ENDBRANCH  16  30
ENDBRANCH  13  16
ENDBRANCH   8  12
ENDBRANCH   6   8
ENDBRANCH   5   6
ENDBRANCH   4   5
ENDBRANCH   3   4
ENDBRANCH   2   3
ENDBRANCH   1   2
BRANCH   1  37
ATOM     37  C   UNL A   1      33.311  35.562  29.994  1.00  0.00     0.188 C 
BRANCH  37  38
ATOM     38  O   UNL A   1      33.283  34.750  31.155  1.00  0.00    -0.376 OA
BRANCH  38  39
ATOM     39  C   UNL A   1      33.924  35.317  32.286  1.00  0.00     0.202 C 
BRANCH  39  40
ATOM     40  C   UNL A   1      35.398  34.907  32.313  1.00  0.00     0.261 C 
BRANCH  40  41
ATOM     41  O   UNL A   1      35.725  33.831  31.412  1.00  0.00    -0.460 OA
BRANCH  41  42
ATOM     42  C   UNL A   1      35.729  32.577  31.919  1.00  0.00     0.338 C 
ATOM     43  O   UNL A   1      34.832  32.029  32.535  1.00  0.00    -0.246 OA
BRANCH  42  44
ATOM     44  C   UNL A   1      36.938  31.892  31.405  1.00  0.00     0.060 A 
ATOM     45  C   UNL A   1      37.729  31.141  32.288  1.00  0.00     0.016 A 
ATOM     46  C   UNL A   1      37.259  31.943  30.048  1.00  0.00     0.016 A 
ATOM     47  C   UNL A   1      38.839  30.434  31.811  1.00  0.00     0.010 A 
ATOM     48  C   UNL A   1      38.382  31.257  29.577  1.00  0.00     0.010 A 
ATOM     49  C   UNL A   1      39.184  30.507  30.454  1.00  0.00    -0.014 A 
BRANCH  49  50
ATOM     50  C   UNL A   1      40.454  29.926  29.948  1.00  0.00     0.031 A 
ATOM     51  C   UNL A   1      41.638  30.833  29.769  1.00  0.00     0.074 A 
ATOM     52  C   UNL A   1      40.541  28.633  29.586  1.00  0.00     0.049 A 
ATOM     53  N   UNL A   1      42.784  30.599  29.185  1.00  0.00    -0.248 NA
ATOM     54  C   UNL A   1      41.506  32.190  30.321  1.00  0.00     0.031 C 
ATOM     55  C   UNL A   1      39.486  27.634  29.741  1.00  0.00     0.029 A 
ATOM     56  N   UNL A   1      41.568  27.948  28.979  1.00  0.00    -0.354 N 
ATOM     57  C   UNL A   1      43.505  31.783  29.284  1.00  0.00     0.074 A 
ATOM     58  C   UNL A   1      42.662  32.735  29.973  1.00  0.00     0.031 C 
ATOM     59  C   UNL A   1      39.908  26.471  29.213  1.00  0.00     0.029 A 
ATOM     60  C   UNL A   1      41.243  26.657  28.643  1.00  0.00     0.049 A 
ATOM     61  H   UNL A   1      42.451  28.346  28.803  1.00  0.00     0.167 HD
ATOM     62  C   UNL A   1      44.754  32.051  28.838  1.00  0.00     0.037 A 
ATOM     63  C   UNL A   1      41.923  25.744  27.919  1.00  0.00     0.037 A 
ATOM     64  C   UNL A   1      45.592  31.109  28.145  1.00  0.00     0.049 A 
ATOM     65  C   UNL A   1      43.273  26.100  27.345  1.00  0.00     0.074 A 
ATOM     66  C   UNL A   1      46.886  31.284  27.685  1.00  0.00     0.029 A 
ATOM     67  N   UNL A   1      45.214  29.822  27.799  1.00  0.00    -0.354 N 
ATOM     68  N   UNL A   1      43.959  27.210  27.468  1.00  0.00    -0.248 NA
ATOM     69  C   UNL A   1      43.935  25.077  26.519  1.00  0.00     0.031 C 
ATOM     70  C   UNL A   1      47.271  30.121  27.011  1.00  0.00     0.029 A 
ATOM     71  C   UNL A   1      46.236  29.204  27.097  1.00  0.00     0.049 A 
ATOM     72  H   UNL A   1      44.349  29.409  28.019  1.00  0.00     0.167 HD
ATOM     73  C   UNL A   1      45.137  27.012  26.754  1.00  0.00     0.074 A 
ATOM     74  C   UNL A   1      45.081  25.672  26.214  1.00  0.00     0.031 C 
ATOM     75  C   UNL A   1      46.172  27.867  26.565  1.00  0.00     0.037 A 
BRANCH  62  76
ATOM     76  C   UNL A   1      45.281  33.438  29.058  1.00  0.00     0.057 A 
ATOM     77  C   UNL A   1      46.024  33.776  30.195  1.00  0.00     0.134 A 
ATOM     78  C   UNL A   1      45.070  34.437  28.099  1.00  0.00     0.134 A 
ATOM     79  F   UNL A   1      46.248  32.867  31.157  1.00  0.00    -0.206 F 
ATOM     80  C   UNL A   1      46.524  35.066  30.380  1.00  0.00     0.040 A 
ATOM     81  C   UNL A   1      45.587  35.723  28.262  1.00  0.00     0.040 A 
ATOM     82  F   UNL A   1      44.369  34.176  26.985  1.00  0.00    -0.206 F 
ATOM     83  C   UNL A   1      46.312  36.042  29.408  1.00  0.00     0.006 A 
ENDBRANCH  62  76
BRANCH  63  84
ATOM     84  C   UNL A   1      41.327  24.412  27.643  1.00  0.00     0.057 A 
ATOM     85  C   UNL A   1      40.316  24.253  26.687  1.00  0.00     0.134 A 
ATOM     86  C   UNL A   1      41.723  23.275  28.358  1.00  0.00     0.134 A 
ATOM     87  F   UNL A   1      39.871  25.311  25.995  1.00  0.00    -0.206 F 
ATOM     88  C   UNL A   1      39.711  23.015  26.463  1.00  0.00     0.040 A 
ATOM     89  C   UNL A   1      41.144  22.026  28.126  1.00  0.00     0.040 A 
ATOM     90  F   UNL A   1      42.678  23.361  29.295  1.00  0.00    -0.206 F 
ATOM     91  C   UNL A   1      40.128  21.895  27.180  1.00  0.00     0.006 A 
ENDBRANCH  63  84
BRANCH  75  92
ATOM     92  C   UNL A   1      47.340  27.380  25.757  1.00  0.00     0.057 A 
ATOM     93  C   UNL A   1      48.409  26.692  26.346  1.00  0.00     0.134 A 
ATOM     94  C   UNL A   1      47.367  27.548  24.366  1.00  0.00     0.134 A 
ATOM     95  F   UNL A   1      48.450  26.509  27.673  1.00  0.00    -0.206 F 
ATOM     96  C   UNL A   1      49.467  26.196  25.581  1.00  0.00     0.040 A 
ATOM     97  C   UNL A   1      48.407  27.036  23.588  1.00  0.00     0.040 A 
ATOM     98  F   UNL A   1      46.371  28.190  23.738  1.00  0.00    -0.206 F 
ATOM     99  C   UNL A   1      49.463  26.361  24.197  1.00  0.00     0.006 A 
ENDBRANCH  75  92
ENDBRANCH  49  50
ENDBRANCH  42  44
ENDBRANCH  41  42
ENDBRANCH  40  41
ENDBRANCH  39  40
ENDBRANCH  38  39
ENDBRANCH  37  38
ENDBRANCH   1  37
TORSDOF 23
ENDMDL
MODEL 3
REMARK VINA RESULT:     -11.0      1.180      2.260
REMARK SMILES CC(C)[C@H](NC(=O)[C@H](Cc1ccccc1)n1c(=O)[nH]c2ccccc2c1=O)C(=O)OCCOCCOCCOC(=O)c1ccc(-c2c3nc(c(-c4c(F)cccc4F)c4ccc([nH]4)c(-c4c(F)cccc4F)c4nc(c(-c5c(F)cccc5F)c5ccc2[nH]5)C=C4)C=C3)cc1
REMARK SMILES IDX 34 1 33 2 32 3 31 4 30 5 28 6 29 7 4 8 2 9 1 10 3 11 5 12
REMARK SMILES IDX 6 13 7 15 8 16 16 17 17 18 26 19 18 20 19 21 25 22 27 23
REMARK SMILES IDX 20 24 24 26 21 27 23 28 22 29 9 30 10 31 11 32 15 33 12 34
REMARK SMILES IDX 14 35 13 36 35 37 36 38 37 39 38 40 39 41 40 42 41 43 42 44
REMARK SMILES IDX 43 45 95 46 44 47 94 48 45 49 46 50 47 51 88 52 48 53 93 54
REMARK SMILES IDX 87 55 89 56 49 57 92 58 86 59 85 60 50 62 76 63 59 64 75 65
REMARK SMILES IDX 60 66 63 67 74 68 90 69 61 70 62 71 73 73 91 74 64 75 51 76
REMARK SMILES IDX 52 77 57 78 53 79 54 80 56 81 58 82 55 83 77 84 78 85 83 86
REMARK SMILES IDX 79 87 80 88 82 89 84 90 81 91 65 92 66 93 71 94 67 95 68 96
REMARK SMILES IDX 70 97 72 98 69 99
REMARK H PARENT 5 14 19 25 89 61 63 72
REMARK Flexibility Score: inf
ROOT
ATOM      1  C   UNL A   1      33.748  30.867  27.637  1.00  0.00     0.188 C 
ENDROOT
BRANCH   1   2
ATOM      2  O   UNL A   1      33.459  30.125  26.455  1.00  0.00    -0.376 OA
BRANCH   2   3
ATOM      3  C   UNL A   1      32.652  28.958  26.570  1.00  0.00     0.202 C 
BRANCH   3   4
ATOM      4  C   UNL A   1      32.839  27.922  25.463  1.00  0.00     0.261 C 
BRANCH   4   5
ATOM      5  O   UNL A   1      33.614  26.790  25.910  1.00  0.00    -0.462 OA
BRANCH   5   6
ATOM      6  C   UNL A   1      33.008  25.573  25.904  1.00  0.00     0.328 C 
ATOM      7  O   UNL A   1      33.101  24.759  26.814  1.00  0.00    -0.250 OA
BRANCH   6   8
ATOM      8  C   UNL A   1      32.098  25.370  24.656  1.00  0.00     0.194 C 
BRANCH   8   9
ATOM      9  C   UNL A   1      30.697  24.801  24.977  1.00  0.00     0.017 C 
ATOM     10  C   UNL A   1      30.792  23.343  25.456  1.00  0.00     0.010 C 
ATOM     11  C   UNL A   1      29.924  25.580  26.048  1.00  0.00     0.010 C 
ENDBRANCH   8   9
BRANCH   8  12
ATOM     12  N   UNL A   1      32.719  24.823  23.446  1.00  0.00    -0.341 N 
ATOM     13  C   UNL A   1      33.648  23.892  23.123  1.00  0.00     0.244 C 
ATOM     14  H   UNL A   1      32.359  25.256  22.638  1.00  0.00     0.164 HD
ATOM     15  O   UNL A   1      33.956  23.970  21.925  1.00  0.00    -0.273 OA
BRANCH  13  16
ATOM     16  C   UNL A   1      34.494  23.062  24.123  1.00  0.00     0.189 C 
BRANCH  16  17
ATOM     17  N   UNL A   1      33.891  21.804  24.616  1.00  0.00    -0.247 N 
ATOM     18  C   UNL A   1      34.025  21.444  25.941  1.00  0.00     0.329 A 
ATOM     19  C   UNL A   1      33.120  21.050  23.731  1.00  0.00     0.264 A 
ATOM     20  O   UNL A   1      34.725  22.026  26.761  1.00  0.00    -0.248 OA
ATOM     21  N   UNL A   1      33.384  20.311  26.358  1.00  0.00    -0.307 N 
ATOM     22  C   UNL A   1      32.823  19.664  24.128  1.00  0.00     0.064 A 
ATOM     23  O   UNL A   1      32.686  21.456  22.659  1.00  0.00    -0.268 OA
ATOM     24  C   UNL A   1      32.882  19.359  25.479  1.00  0.00     0.055 A 
ATOM     25  H   UNL A   1      33.273  20.162  27.324  1.00  0.00     0.171 HD
ATOM     26  C   UNL A   1      32.582  18.659  23.189  1.00  0.00     0.016 A 
ATOM     27  C   UNL A   1      32.591  18.075  25.929  1.00  0.00     0.027 A 
ATOM     28  C   UNL A   1      32.373  17.351  23.627  1.00  0.00     0.001 A 
ATOM     29  C   UNL A   1      32.347  17.065  24.995  1.00  0.00     0.002 A 
ENDBRANCH  16  17
BRANCH  16  30
ATOM     30  C   UNL A   1      36.017  22.980  23.751  1.00  0.00     0.071 C 
BRANCH  30  31
ATOM     31  C   UNL A   1      37.056  22.950  24.858  1.00  0.00    -0.045 A 
ATOM     32  C   UNL A   1      37.849  21.819  25.078  1.00  0.00     0.004 A 
ATOM     33  C   UNL A   1      37.282  24.077  25.663  1.00  0.00     0.004 A 
ATOM     34  C   UNL A   1      38.937  21.871  25.955  1.00  0.00     0.000 A 
ATOM     35  C   UNL A   1      38.366  24.133  26.541  1.00  0.00     0.000 A 
ATOM     36  C   UNL A   1      39.213  23.037  26.665  1.00  0.00     0.000 A 
ENDBRANCH  30  31
ENDBRANCH  16  30
ENDBRANCH  13  16
ENDBRANCH   8  12
ENDBRANCH   6   8
ENDBRANCH   5   6
ENDBRANCH   4   5
ENDBRANCH   3   4
ENDBRANCH   2   3
ENDBRANCH   1   2
BRANCH   1  37
ATOM     37  C   UNL A   1      34.955  31.818  27.638  1.00  0.00     0.188 C 
BRANCH  37  38
ATOM     38  O   UNL A   1      34.891  32.802  28.656  1.00  0.00    -0.376 OA
BRANCH  38  39
ATOM     39  C   UNL A   1      34.619  32.292  29.952  1.00  0.00     0.202 C 
BRANCH  39  40
ATOM     40  C   UNL A   1      35.912  31.795  30.600  1.00  0.00     0.261 C 
BRANCH  40  41
ATOM     41  O   UNL A   1      36.139  30.380  30.449  1.00  0.00    -0.460 OA
BRANCH  41  42
ATOM     42  C   UNL A   1      36.957  29.784  31.346  1.00  0.00     0.338 C 
ATOM     43  O   UNL A   1      36.647  29.317  32.428  1.00  0.00    -0.246 OA
BRANCH  42  44
ATOM     44  C   UNL A   1      38.273  29.592  30.693  1.00  0.00     0.060 A 
ATOM     45  C   UNL A   1      38.393  29.809  29.312  1.00  0.00     0.016 A 
ATOM     46  C   UNL A   1      39.397  29.256  31.450  1.00  0.00     0.016 A 
ATOM     47  C   UNL A   1      39.640  29.696  28.688  1.00  0.00     0.010 A 
ATOM     48  C   UNL A   1      40.637  29.119  30.820  1.00  0.00     0.010 A 
ATOM     49  C   UNL A   1      40.767  29.328  29.436  1.00  0.00    -0.014 A 
BRANCH  49  50
ATOM     50  C   UNL A   1      42.062  29.017  28.781  1.00  0.00     0.031 A 
ATOM     51  C   UNL A   1      42.316  27.610  28.321  1.00  0.00     0.074 A 
ATOM     52  C   UNL A   1      43.028  29.946  28.655  1.00  0.00     0.049 A 
ATOM     53  N   UNL A   1      43.422  27.063  27.888  1.00  0.00    -0.248 NA
ATOM     54  C   UNL A   1      41.164  26.696  28.361  1.00  0.00     0.031 C 
ATOM     55  C   UNL A   1      42.904  31.355  29.020  1.00  0.00     0.029 A 
ATOM     56  N   UNL A   1      44.323  29.826  28.208  1.00  0.00    -0.354 N 
ATOM     57  C   UNL A   1      43.106  25.737  27.619  1.00  0.00     0.074 A 
ATOM     58  C   UNL A   1      41.708  25.560  27.950  1.00  0.00     0.031 C 
ATOM     59  C   UNL A   1      44.086  31.963  28.813  1.00  0.00     0.029 A 
ATOM     60  C   UNL A   1      45.060  30.977  28.345  1.00  0.00     0.049 A 
ATOM     61  H   UNL A   1      44.687  28.994  27.827  1.00  0.00     0.167 HD
ATOM     62  C   UNL A   1      43.907  24.756  27.143  1.00  0.00     0.037 A 
ATOM     63  C   UNL A   1      46.377  31.199  28.160  1.00  0.00     0.037 A 
ATOM     64  C   UNL A   1      45.300  24.926  26.822  1.00  0.00     0.049 A 
ATOM     65  C   UNL A   1      47.273  30.064  27.726  1.00  0.00     0.074 A 
ATOM     66  C   UNL A   1      46.183  23.995  26.303  1.00  0.00     0.029 A 
ATOM     67  N   UNL A   1      46.014  26.099  27.004  1.00  0.00    -0.354 N 
ATOM     68  N   UNL A   1      46.961  28.822  27.446  1.00  0.00    -0.248 NA
ATOM     69  C   UNL A   1      48.709  30.363  27.596  1.00  0.00     0.031 C 
ATOM     70  C   UNL A   1      47.446  24.589  26.222  1.00  0.00     0.029 A 
ATOM     71  C   UNL A   1      47.337  25.905  26.642  1.00  0.00     0.049 A 
ATOM     72  H   UNL A   1      45.638  26.944  27.339  1.00  0.00     0.167 HD
ATOM     73  C   UNL A   1      48.153  28.199  27.090  1.00  0.00     0.074 A 
ATOM     74  C   UNL A   1      49.192  29.202  27.173  1.00  0.00     0.031 C 
ATOM     75  C   UNL A   1      48.365  26.911  26.726  1.00  0.00     0.037 A 
BRANCH  62  76
ATOM     76  C   UNL A   1      43.304  23.395  26.973  1.00  0.00     0.057 A 
ATOM     77  C   UNL A   1      42.973  22.883  25.713  1.00  0.00     0.134 A 
ATOM     78  C   UNL A   1      43.085  22.571  28.086  1.00  0.00     0.134 A 
ATOM     79  F   UNL A   1      43.145  23.629  24.610  1.00  0.00    -0.206 F 
ATOM     80  C   UNL A   1      42.428  21.607  25.565  1.00  0.00     0.040 A 
ATOM     81  C   UNL A   1      42.563  21.284  27.947  1.00  0.00     0.040 A 
ATOM     82  F   UNL A   1      43.384  23.000  29.321  1.00  0.00    -0.206 F 
ATOM     83  C   UNL A   1      42.228  20.801  26.684  1.00  0.00     0.006 A 
ENDBRANCH  62  76
BRANCH  63  84
ATOM     84  C   UNL A   1      46.956  32.540  28.429  1.00  0.00     0.057 A 
ATOM     85  C   UNL A   1      47.406  32.893  29.707  1.00  0.00     0.134 A 
ATOM     86  C   UNL A   1      47.033  33.515  27.427  1.00  0.00     0.134 A 
ATOM     87  F   UNL A   1      47.326  32.013  30.717  1.00  0.00    -0.206 F 
ATOM     88  C   UNL A   1      47.897  34.170  29.983  1.00  0.00     0.040 A 
ATOM     89  C   UNL A   1      47.547  34.788  27.682  1.00  0.00     0.040 A 
ATOM     90  F   UNL A   1      46.610  33.245  26.184  1.00  0.00    -0.206 F 
ATOM     91  C   UNL A   1      47.974  35.121  28.967  1.00  0.00     0.006 A 
ENDBRANCH  63  84
BRANCH  75  92
ATOM     92  C   UNL A   1      49.767  26.508  26.370  1.00  0.00     0.057 A 
ATOM     93  C   UNL A   1      50.611  25.877  27.293  1.00  0.00     0.134 A 
ATOM     94  C   UNL A   1      50.256  26.698  25.071  1.00  0.00     0.134 A 
ATOM     95  F   UNL A   1      50.207  25.676  28.556  1.00  0.00    -0.206 F 
ATOM     96  C   UNL A   1      51.896  25.459  26.939  1.00  0.00     0.040 A 
ATOM     97  C   UNL A   1      51.529  26.262  24.698  1.00  0.00     0.040 A 
ATOM     98  F   UNL A   1      49.497  27.289  24.136  1.00  0.00    -0.206 F 
ATOM     99  C   UNL A   1      52.354  25.643  25.636  1.00  0.00     0.006 A 
ENDBRANCH  75  92
ENDBRANCH  49  50
ENDBRANCH  42  44
ENDBRANCH  41  42
ENDBRANCH  40  41
ENDBRANCH  39  40
ENDBRANCH  38  39
ENDBRANCH  37  38
ENDBRANCH   1  37
TORSDOF 23
ENDMDL
