MODEL 1
REMARK VINA RESULT:      -9.4      0.000      0.000
REMARK SMILES CC(=O)N[C@@]1(C(=O)OCCOCCOCCOC(=O)c2ccc(-c3c4nc(c(-c5c(F)cccc5F)c5ccc([nH]5)c(-c5c(F)cccc5F)c5nc(c(-c6c(F)cccc6F)c6ccc3[nH]6)C=C5)C=C4)cc2)CCCc2ccccc21
REMARK SMILES IDX 13 1 12 2 11 3 10 4 9 5 8 6 6 7 7 8 5 9 74 10 82 11 75 12
REMARK SMILES IDX 77 13 81 14 76 15 78 16 80 17 79 18 4 19 1 20 2 21 3 22
REMARK SMILES IDX 14 24 15 25 16 26 17 27 18 28 19 29 20 30 21 31 73 32 22 33
REMARK SMILES IDX 72 34 23 35 24 36 25 37 66 38 26 39 71 40 65 41 67 42 27 43
REMARK SMILES IDX 70 44 64 45 63 46 28 48 54 49 37 50 53 51 38 52 41 53 52 54
REMARK SMILES IDX 68 55 39 56 40 57 51 59 69 60 42 61 29 62 30 63 35 64 31 65
REMARK SMILES IDX 32 66 34 67 36 68 33 69 55 70 56 71 61 72 57 73 58 74 60 75
REMARK SMILES IDX 62 76 59 77 43 78 44 79 49 80 45 81 46 82 48 83 50 84 47 85
REMARK H PARENT 4 23 67 47 41 58
REMARK Flexibility Score: inf
ROOT
ATOM      1  C   UNL A   1      33.119  34.685  28.751  1.00  0.00     0.188 C 
ENDROOT
BRANCH   1   2
ATOM      2  C   UNL A   1      32.950  35.999  29.511  1.00  0.00     0.188 C 
BRANCH   2   3
ATOM      3  O   UNL A   1      33.533  36.132  30.807  1.00  0.00    -0.376 OA
BRANCH   3   4
ATOM      4  C   UNL A   1      34.016  34.978  31.477  1.00  0.00     0.202 C 
BRANCH   4   5
ATOM      5  C   UNL A   1      34.940  35.283  32.668  1.00  0.00     0.261 C 
BRANCH   5   6
ATOM      6  O   UNL A   1      36.150  34.501  32.745  1.00  0.00    -0.461 OA
BRANCH   6   7
ATOM      7  C   UNL A   1      36.017  33.322  33.417  1.00  0.00     0.336 C 
ATOM      8  O   UNL A   1      35.011  33.015  34.053  1.00  0.00    -0.249 OA
BRANCH   7   9
ATOM      9  C   UNL A   1      37.305  32.411  33.376  1.00  0.00     0.164 C 
ATOM     10  C   UNL A   1      38.163  32.688  34.632  1.00  0.00     0.046 C 
ATOM     11  C   UNL A   1      38.013  32.913  32.089  1.00  0.00    -0.008 A 
ATOM     12  C   UNL A   1      38.830  34.056  34.667  1.00  0.00     0.008 C 
ATOM     13  C   UNL A   1      39.028  33.891  32.151  1.00  0.00    -0.042 A 
ATOM     14  C   UNL A   1      37.454  32.603  30.828  1.00  0.00     0.007 A 
ATOM     15  C   UNL A   1      39.698  34.280  33.443  1.00  0.00     0.036 C 
ATOM     16  C   UNL A   1      39.439  34.539  30.974  1.00  0.00     0.004 A 
ATOM     17  C   UNL A   1      37.872  33.257  29.670  1.00  0.00     0.000 A 
ATOM     18  C   UNL A   1      38.853  34.237  29.748  1.00  0.00     0.000 A 
BRANCH   9  19
ATOM     19  N   UNL A   1      37.041  30.943  33.248  1.00  0.00    -0.337 N 
ATOM     20  C   UNL A   1      39.275  29.791  33.252  1.00  0.00     0.114 C 
ATOM     21  C   UNL A   1      37.774  29.805  33.256  1.00  0.00     0.218 C 
ATOM     22  O   UNL A   1      37.153  28.738  33.251  1.00  0.00    -0.275 OA
ATOM     23  H   UNL A   1      36.083  30.757  33.125  1.00  0.00     0.164 HD
ENDBRANCH   9  19
ENDBRANCH   7   9
ENDBRANCH   6   7
ENDBRANCH   5   6
ENDBRANCH   4   5
ENDBRANCH   3   4
ENDBRANCH   2   3
ENDBRANCH   1   2
BRANCH   1  24
ATOM     24  O   UNL A   1      34.257  34.739  27.895  1.00  0.00    -0.376 OA
BRANCH  24  25
ATOM     25  C   UNL A   1      35.134  33.624  28.028  1.00  0.00     0.202 C 
BRANCH  25  26
ATOM     26  C   UNL A   1      34.321  32.345  28.257  1.00  0.00     0.261 C 
BRANCH  26  27
ATOM     27  O   UNL A   1      34.603  31.302  27.300  1.00  0.00    -0.460 OA
BRANCH  27  28
ATOM     28  C   UNL A   1      34.716  30.052  27.801  1.00  0.00     0.338 C 
ATOM     29  O   UNL A   1      33.859  29.179  27.779  1.00  0.00    -0.246 OA
BRANCH  28  30
ATOM     30  C   UNL A   1      36.122  29.810  28.194  1.00  0.00     0.060 A 
ATOM     31  C   UNL A   1      37.125  30.059  27.248  1.00  0.00     0.016 A 
ATOM     32  C   UNL A   1      36.458  29.328  29.462  1.00  0.00     0.016 A 
ATOM     33  C   UNL A   1      38.461  29.799  27.559  1.00  0.00     0.010 A 
ATOM     34  C   UNL A   1      37.796  29.056  29.766  1.00  0.00     0.010 A 
ATOM     35  C   UNL A   1      38.804  29.271  28.810  1.00  0.00    -0.014 A 
BRANCH  35  36
ATOM     36  C   UNL A   1      40.185  28.787  29.054  1.00  0.00     0.031 A 
ATOM     37  C   UNL A   1      41.159  29.701  29.745  1.00  0.00     0.074 A 
ATOM     38  C   UNL A   1      40.571  27.548  28.699  1.00  0.00     0.049 A 
ATOM     39  N   UNL A   1      42.430  29.525  29.996  1.00  0.00    -0.248 NA
ATOM     40  C   UNL A   1      40.618  30.981  30.228  1.00  0.00     0.031 C 
ATOM     41  C   UNL A   1      39.714  26.531  28.097  1.00  0.00     0.029 A 
ATOM     42  N   UNL A   1      41.800  26.941  28.798  1.00  0.00    -0.354 N 
ATOM     43  C   UNL A   1      42.843  30.671  30.665  1.00  0.00     0.074 A 
ATOM     44  C   UNL A   1      41.690  31.540  30.768  1.00  0.00     0.031 C 
ATOM     45  C   UNL A   1      40.448  25.428  27.862  1.00  0.00     0.029 A 
ATOM     46  C   UNL A   1      41.834  25.678  28.260  1.00  0.00     0.049 A 
ATOM     47  H   UNL A   1      42.582  27.371  29.213  1.00  0.00     0.167 HD
ATOM     48  C   UNL A   1      44.070  30.975  31.147  1.00  0.00     0.037 A 
ATOM     49  C   UNL A   1      42.871  24.835  28.081  1.00  0.00     0.037 A 
ATOM     50  C   UNL A   1      45.226  30.128  31.031  1.00  0.00     0.049 A 
ATOM     51  C   UNL A   1      44.255  25.247  28.516  1.00  0.00     0.074 A 
ATOM     52  C   UNL A   1      46.517  30.366  31.471  1.00  0.00     0.029 A 
ATOM     53  N   UNL A   1      45.235  28.884  30.422  1.00  0.00    -0.354 N 
ATOM     54  N   UNL A   1      44.640  26.338  29.134  1.00  0.00    -0.248 NA
ATOM     55  C   UNL A   1      45.352  24.312  28.218  1.00  0.00     0.031 C 
ATOM     56  C   UNL A   1      47.317  29.284  31.087  1.00  0.00     0.029 A 
ATOM     57  C   UNL A   1      46.514  28.352  30.450  1.00  0.00     0.049 A 
ATOM     58  H   UNL A   1      44.448  28.443  30.025  1.00  0.00     0.167 HD
ATOM     59  C   UNL A   1      46.013  26.208  29.319  1.00  0.00     0.074 A 
ATOM     60  C   UNL A   1      46.392  24.929  28.760  1.00  0.00     0.031 C 
ATOM     61  C   UNL A   1      46.881  27.074  29.898  1.00  0.00     0.037 A 
BRANCH  48  62
ATOM     62  C   UNL A   1      44.230  32.311  31.807  1.00  0.00     0.057 A 
ATOM     63  C   UNL A   1      43.969  32.497  33.170  1.00  0.00     0.134 A 
ATOM     64  C   UNL A   1      44.662  33.420  31.070  1.00  0.00     0.134 A 
ATOM     65  F   UNL A   1      43.533  31.477  33.925  1.00  0.00    -0.206 F 
ATOM     66  C   UNL A   1      44.113  33.747  33.773  1.00  0.00     0.040 A 
ATOM     67  C   UNL A   1      44.831  34.670  31.667  1.00  0.00     0.040 A 
ATOM     68  F   UNL A   1      44.928  33.306  29.760  1.00  0.00    -0.206 F 
ATOM     69  C   UNL A   1      44.551  34.837  33.021  1.00  0.00     0.006 A 
ENDBRANCH  48  62
BRANCH  49  70
ATOM     70  C   UNL A   1      42.666  23.525  27.411  1.00  0.00     0.057 A 
ATOM     71  C   UNL A   1      42.747  23.399  26.019  1.00  0.00     0.134 A 
ATOM     72  C   UNL A   1      42.324  22.382  28.142  1.00  0.00     0.134 A 
ATOM     73  F   UNL A   1      43.037  24.466  25.260  1.00  0.00    -0.206 F 
ATOM     74  C   UNL A   1      42.479  22.188  25.378  1.00  0.00     0.040 A 
ATOM     75  C   UNL A   1      42.078  21.159  27.517  1.00  0.00     0.040 A 
ATOM     76  F   UNL A   1      42.218  22.439  29.478  1.00  0.00    -0.206 F 
ATOM     77  C   UNL A   1      42.146  21.062  26.129  1.00  0.00     0.006 A 
ENDBRANCH  49  70
BRANCH  61  78
ATOM     78  C   UNL A   1      48.321  26.656  29.990  1.00  0.00     0.057 A 
ATOM     79  C   UNL A   1      49.250  26.978  28.994  1.00  0.00     0.134 A 
ATOM     80  C   UNL A   1      48.791  25.959  31.111  1.00  0.00     0.134 A 
ATOM     81  F   UNL A   1      48.863  27.634  27.888  1.00  0.00    -0.206 F 
ATOM     82  C   UNL A   1      50.592  26.606  29.099  1.00  0.00     0.040 A 
ATOM     83  C   UNL A   1      50.135  25.603  31.240  1.00  0.00     0.040 A 
ATOM     84  F   UNL A   1      47.956  25.627  32.107  1.00  0.00    -0.206 F 
ATOM     85  C   UNL A   1      51.039  25.922  30.228  1.00  0.00     0.006 A 
ENDBRANCH  61  78
ENDBRANCH  35  36
ENDBRANCH  28  30
ENDBRANCH  27  28
ENDBRANCH  26  27
ENDBRANCH  25  26
ENDBRANCH  24  25
ENDBRANCH   1  24
TORSDOF 18
ENDMDL
MODEL 2
REMARK VINA RESULT:      -9.2      4.483      8.173
REMARK SMILES CC(=O)N[C@@]1(C(=O)OCCOCCOCCOC(=O)c2ccc(-c3c4nc(c(-c5c(F)cccc5F)c5ccc([nH]5)c(-c5c(F)cccc5F)c5nc(c(-c6c(F)cccc6F)c6ccc3[nH]6)C=C5)C=C4)cc2)CCCc2ccccc21
REMARK SMILES IDX 13 1 12 2 11 3 10 4 9 5 8 6 6 7 7 8 5 9 74 10 82 11 75 12
REMARK SMILES IDX 77 13 81 14 76 15 78 16 80 17 79 18 4 19 1 20 2 21 3 22
REMARK SMILES IDX 14 24 15 25 16 26 17 27 18 28 19 29 20 30 21 31 73 32 22 33
REMARK SMILES IDX 72 34 23 35 24 36 25 37 66 38 26 39 71 40 65 41 67 42 27 43
REMARK SMILES IDX 70 44 64 45 63 46 28 48 54 49 37 50 53 51 38 52 41 53 52 54
REMARK SMILES IDX 68 55 39 56 40 57 51 59 69 60 42 61 29 62 30 63 35 64 31 65
REMARK SMILES IDX 32 66 34 67 36 68 33 69 55 70 56 71 61 72 57 73 58 74 60 75
REMARK SMILES IDX 62 76 59 77 43 78 44 79 49 80 45 81 46 82 48 83 50 84 47 85
REMARK H PARENT 4 23 67 47 41 58
REMARK Flexibility Score: inf
ROOT
ATOM      1  C   UNL A   1      32.650  30.113  25.807  1.00  0.00     0.188 C 
ENDROOT
BRANCH   1   2
ATOM      2  C   UNL A   1      31.451  29.669  24.972  1.00  0.00     0.188 C 
BRANCH   2   3
ATOM      3  O   UNL A   1      31.197  28.275  24.804  1.00  0.00    -0.376 OA
BRANCH   3   4
ATOM      4  C   UNL A   1      31.008  27.752  23.498  1.00  0.00     0.202 C 
BRANCH   4   5
ATOM      5  C   UNL A   1      32.315  27.418  22.760  1.00  0.00     0.261 C 
BRANCH   5   6
ATOM      6  O   UNL A   1      33.122  26.374  23.344  1.00  0.00    -0.461 OA
BRANCH   6   7
ATOM      7  C   UNL A   1      33.263  25.267  22.560  1.00  0.00     0.336 C 
ATOM      8  O   UNL A   1      33.541  25.316  21.364  1.00  0.00    -0.249 OA
BRANCH   7   9
ATOM      9  C   UNL A   1      32.958  23.910  23.306  1.00  0.00     0.164 C 
ATOM     10  C   UNL A   1      31.893  24.161  24.400  1.00  0.00     0.046 C 
ATOM     11  C   UNL A   1      34.336  23.568  23.929  1.00  0.00    -0.008 A 
ATOM     12  C   UNL A   1      32.370  24.990  25.583  1.00  0.00     0.008 C 
ATOM     13  C   UNL A   1      34.642  23.925  25.261  1.00  0.00    -0.042 A 
ATOM     14  C   UNL A   1      35.392  23.151  23.086  1.00  0.00     0.007 A 
ATOM     15  C   UNL A   1      33.587  24.366  26.241  1.00  0.00     0.036 C 
ATOM     16  C   UNL A   1      35.974  23.877  25.703  1.00  0.00     0.004 A 
ATOM     17  C   UNL A   1      36.709  23.111  23.541  1.00  0.00     0.000 A 
ATOM     18  C   UNL A   1      37.000  23.491  24.845  1.00  0.00     0.000 A 
BRANCH   9  19
ATOM     19  N   UNL A   1      32.528  22.782  22.420  1.00  0.00    -0.337 N 
ATOM     20  C   UNL A   1      32.407  20.724  23.858  1.00  0.00     0.114 C 
ATOM     21  C   UNL A   1      32.216  21.473  22.572  1.00  0.00     0.218 C 
ATOM     22  O   UNL A   1      31.767  20.886  21.583  1.00  0.00    -0.275 OA
ATOM     23  H   UNL A   1      32.455  23.067  21.481  1.00  0.00     0.164 HD
ENDBRANCH   9  19
ENDBRANCH   7   9
ENDBRANCH   6   7
ENDBRANCH   5   6
ENDBRANCH   4   5
ENDBRANCH   3   4
ENDBRANCH   2   3
ENDBRANCH   1   2
BRANCH   1  24
ATOM     24  O   UNL A   1      32.229  30.892  26.923  1.00  0.00    -0.376 OA
BRANCH  24  25
ATOM     25  C   UNL A   1      31.343  31.955  26.583  1.00  0.00     0.202 C 
BRANCH  25  26
ATOM     26  C   UNL A   1      32.055  33.302  26.752  1.00  0.00     0.261 C 
BRANCH  26  27
ATOM     27  O   UNL A   1      32.177  33.723  28.127  1.00  0.00    -0.460 OA
BRANCH  27  28
ATOM     28  C   UNL A   1      33.222  34.531  28.410  1.00  0.00     0.338 C 
ATOM     29  O   UNL A   1      33.188  35.748  28.535  1.00  0.00    -0.246 OA
BRANCH  28  30
ATOM     30  C   UNL A   1      34.396  33.705  28.769  1.00  0.00     0.060 A 
ATOM     31  C   UNL A   1      34.172  32.389  29.197  1.00  0.00     0.016 A 
ATOM     32  C   UNL A   1      35.697  34.210  28.706  1.00  0.00     0.016 A 
ATOM     33  C   UNL A   1      35.246  31.589  29.591  1.00  0.00     0.010 A 
ATOM     34  C   UNL A   1      36.770  33.410  29.114  1.00  0.00     0.010 A 
ATOM     35  C   UNL A   1      36.549  32.102  29.578  1.00  0.00    -0.014 A 
BRANCH  35  36
ATOM     36  C   UNL A   1      37.651  31.332  30.206  1.00  0.00     0.031 A 
ATOM     37  C   UNL A   1      37.976  31.584  31.652  1.00  0.00     0.074 A 
ATOM     38  C   UNL A   1      38.338  30.398  29.522  1.00  0.00     0.049 A 
ATOM     39  N   UNL A   1      38.938  31.089  32.387  1.00  0.00    -0.248 NA
ATOM     40  C   UNL A   1      37.086  32.514  32.365  1.00  0.00     0.031 C 
ATOM     41  C   UNL A   1      38.079  29.993  28.143  1.00  0.00     0.029 A 
ATOM     42  N   UNL A   1      39.405  29.623  29.908  1.00  0.00    -0.354 N 
ATOM     43  C   UNL A   1      38.770  31.647  33.649  1.00  0.00     0.074 A 
ATOM     44  C   UNL A   1      37.624  32.527  33.575  1.00  0.00     0.031 C 
ATOM     45  C   UNL A   1      38.976  29.054  27.791  1.00  0.00     0.029 A 
ATOM     46  C   UNL A   1      39.895  28.824  28.906  1.00  0.00     0.049 A 
ATOM     47  H   UNL A   1      39.783  29.641  30.817  1.00  0.00     0.167 HD
ATOM     48  C   UNL A   1      39.505  31.447  34.768  1.00  0.00     0.037 A 
ATOM     49  C   UNL A   1      40.982  28.024  28.882  1.00  0.00     0.037 A 
ATOM     50  C   UNL A   1      40.658  30.591  34.846  1.00  0.00     0.049 A 
ATOM     51  C   UNL A   1      41.857  27.913  30.105  1.00  0.00     0.074 A 
ATOM     52  C   UNL A   1      41.478  30.345  35.935  1.00  0.00     0.029 A 
ATOM     53  N   UNL A   1      41.162  29.848  33.791  1.00  0.00    -0.354 N 
ATOM     54  N   UNL A   1      41.701  28.453  31.289  1.00  0.00    -0.248 NA
ATOM     55  C   UNL A   1      43.067  27.085  29.982  1.00  0.00     0.031 C 
ATOM     56  C   UNL A   1      42.505  29.488  35.525  1.00  0.00     0.029 A 
ATOM     57  C   UNL A   1      42.297  29.163  34.194  1.00  0.00     0.049 A 
ATOM     58  H   UNL A   1      40.772  29.812  32.887  1.00  0.00     0.167 HD
ATOM     59  C   UNL A   1      42.776  28.013  32.055  1.00  0.00     0.074 A 
ATOM     60  C   UNL A   1      43.569  27.151  31.207  1.00  0.00     0.031 C 
ATOM     61  C   UNL A   1      43.077  28.301  33.345  1.00  0.00     0.037 A 
BRANCH  48  62
ATOM     62  C   UNL A   1      39.103  32.212  35.992  1.00  0.00     0.057 A 
ATOM     63  C   UNL A   1      39.583  33.502  36.247  1.00  0.00     0.134 A 
ATOM     64  C   UNL A   1      38.215  31.654  36.919  1.00  0.00     0.134 A 
ATOM     65  F   UNL A   1      40.453  34.084  35.406  1.00  0.00    -0.206 F 
ATOM     66  C   UNL A   1      39.209  34.204  37.393  1.00  0.00     0.040 A 
ATOM     67  C   UNL A   1      37.817  32.354  38.058  1.00  0.00     0.040 A 
ATOM     68  F   UNL A   1      37.720  30.421  36.731  1.00  0.00    -0.206 F 
ATOM     69  C   UNL A   1      38.319  33.631  38.300  1.00  0.00     0.006 A 
ENDBRANCH  48  62
BRANCH  49  70
ATOM     70  C   UNL A   1      41.347  27.293  27.641  1.00  0.00     0.057 A 
ATOM     71  C   UNL A   1      40.979  25.955  27.450  1.00  0.00     0.134 A 
ATOM     72  C   UNL A   1      42.123  27.895  26.645  1.00  0.00     0.134 A 
ATOM     73  F   UNL A   1      40.264  25.312  28.386  1.00  0.00    -0.206 F 
ATOM     74  C   UNL A   1      41.385  25.239  26.323  1.00  0.00     0.040 A 
ATOM     75  C   UNL A   1      42.514  27.199  25.501  1.00  0.00     0.040 A 
ATOM     76  F   UNL A   1      42.518  29.170  26.773  1.00  0.00    -0.206 F 
ATOM     77  C   UNL A   1      42.153  25.864  25.342  1.00  0.00     0.006 A 
ENDBRANCH  49  70
BRANCH  61  78
ATOM     78  C   UNL A   1      44.298  27.653  33.933  1.00  0.00     0.057 A 
ATOM     79  C   UNL A   1      44.251  26.385  34.525  1.00  0.00     0.134 A 
ATOM     80  C   UNL A   1      45.545  28.288  33.866  1.00  0.00     0.134 A 
ATOM     81  F   UNL A   1      43.086  25.727  34.633  1.00  0.00    -0.206 F 
ATOM     82  C   UNL A   1      45.396  25.780  35.048  1.00  0.00     0.040 A 
ATOM     83  C   UNL A   1      46.702  27.683  34.362  1.00  0.00     0.040 A 
ATOM     84  F   UNL A   1      45.664  29.500  33.302  1.00  0.00    -0.206 F 
ATOM     85  C   UNL A   1      46.628  26.427  34.961  1.00  0.00     0.006 A 
ENDBRANCH  61  78
ENDBRANCH  35  36
ENDBRANCH  28  30
ENDBRANCH  27  28
ENDBRANCH  26  27
ENDBRANCH  25  26
ENDBRANCH  24  25
ENDBRANCH   1  24
TORSDOF 18
ENDMDL
MODEL 3
REMARK VINA RESULT:      -8.9      1.910      2.741
REMARK SMILES CC(=O)N[C@@]1(C(=O)OCCOCCOCCOC(=O)c2ccc(-c3c4nc(c(-c5c(F)cccc5F)c5ccc([nH]5)c(-c5c(F)cccc5F)c5nc(c(-c6c(F)cccc6F)c6ccc3[nH]6)C=C5)C=C4)cc2)CCCc2ccccc21
REMARK SMILES IDX 13 1 12 2 11 3 10 4 9 5 8 6 6 7 7 8 5 9 74 10 82 11 75 12
REMARK SMILES IDX 77 13 81 14 76 15 78 16 80 17 79 18 4 19 1 20 2 21 3 22
REMARK SMILES IDX 14 24 15 25 16 26 17 27 18 28 19 29 20 30 21 31 73 32 22 33
REMARK SMILES IDX 72 34 23 35 24 36 25 37 66 38 26 39 71 40 65 41 67 42 27 43
REMARK SMILES IDX 70 44 64 45 63 46 28 48 54 49 37 50 53 51 38 52 41 53 52 54
REMARK SMILES IDX 68 55 39 56 40 57 51 59 69 60 42 61 29 62 30 63 35 64 31 65
REMARK SMILES IDX 32 66 34 67 36 68 33 69 55 70 56 71 61 72 57 73 58 74 60 75
REMARK SMILES IDX 62 76 59 77 43 78 44 79 49 80 45 81 46 82 48 83 50 84 47 85
REMARK H PARENT 4 23 67 47 41 58
REMARK Flexibility Score: inf
ROOT
ATOM      1  C   UNL A   1      33.055  35.158  28.985  1.00  0.00     0.188 C 
ENDROOT
BRANCH   1   2
ATOM      2  C   UNL A   1      33.037  36.606  29.471  1.00  0.00     0.188 C 
BRANCH   2   3
ATOM      3  O   UNL A   1      32.394  36.917  30.707  1.00  0.00    -0.376 OA
BRANCH   3   4
ATOM      4  C   UNL A   1      32.618  36.089  31.838  1.00  0.00     0.202 C 
BRANCH   4   5
ATOM      5  C   UNL A   1      34.049  36.161  32.396  1.00  0.00     0.261 C 
BRANCH   5   6
ATOM      6  O   UNL A   1      34.974  35.175  31.893  1.00  0.00    -0.461 OA
BRANCH   6   7
ATOM      7  C   UNL A   1      35.934  34.797  32.785  1.00  0.00     0.336 C 
ATOM      8  O   UNL A   1      35.921  35.121  33.971  1.00  0.00    -0.249 OA
BRANCH   7   9
ATOM      9  C   UNL A   1      37.114  33.968  32.144  1.00  0.00     0.164 C 
ATOM     10  C   UNL A   1      36.551  32.653  31.557  1.00  0.00     0.046 C 
ATOM     11  C   UNL A   1      38.020  33.694  33.374  1.00  0.00    -0.008 A 
ATOM     12  C   UNL A   1      36.073  31.641  32.588  1.00  0.00     0.008 C 
ATOM     13  C   UNL A   1      37.918  32.487  34.098  1.00  0.00    -0.042 A 
ATOM     14  C   UNL A   1      38.751  34.761  33.945  1.00  0.00     0.007 A 
ATOM     15  C   UNL A   1      37.175  31.288  33.569  1.00  0.00     0.036 C 
ATOM     16  C   UNL A   1      38.521  32.384  35.362  1.00  0.00     0.004 A 
ATOM     17  C   UNL A   1      39.343  34.641  35.201  1.00  0.00     0.000 A 
ATOM     18  C   UNL A   1      39.212  33.458  35.916  1.00  0.00     0.000 A 
BRANCH   9  19
ATOM     19  N   UNL A   1      37.908  34.696  31.105  1.00  0.00    -0.337 N 
ATOM     20  C   UNL A   1      39.539  33.046  30.136  1.00  0.00     0.114 C 
ATOM     21  C   UNL A   1      38.864  34.385  30.197  1.00  0.00     0.218 C 
ATOM     22  O   UNL A   1      39.190  35.270  29.401  1.00  0.00    -0.275 OA
ATOM     23  H   UNL A   1      37.675  35.652  31.073  1.00  0.00     0.164 HD
ENDBRANCH   9  19
ENDBRANCH   7   9
ENDBRANCH   6   7
ENDBRANCH   5   6
ENDBRANCH   4   5
ENDBRANCH   3   4
ENDBRANCH   2   3
ENDBRANCH   1   2
BRANCH   1  24
ATOM     24  O   UNL A   1      34.195  34.914  28.167  1.00  0.00    -0.376 OA
BRANCH  24  25
ATOM     25  C   UNL A   1      34.961  33.781  28.567  1.00  0.00     0.202 C 
BRANCH  25  26
ATOM     26  C   UNL A   1      34.183  32.494  28.268  1.00  0.00     0.261 C 
BRANCH  26  27
ATOM     27  O   UNL A   1      34.910  31.558  27.445  1.00  0.00    -0.460 OA
BRANCH  27  28
ATOM     28  C   UNL A   1      34.902  30.272  27.860  1.00  0.00     0.338 C 
ATOM     29  O   UNL A   1      34.037  29.437  27.629  1.00  0.00    -0.246 OA
BRANCH  28  30
ATOM     30  C   UNL A   1      36.213  29.945  28.462  1.00  0.00     0.060 A 
ATOM     31  C   UNL A   1      37.371  30.298  27.756  1.00  0.00     0.016 A 
ATOM     32  C   UNL A   1      36.315  29.288  29.691  1.00  0.00     0.016 A 
ATOM     33  C   UNL A   1      38.629  29.966  28.263  1.00  0.00     0.010 A 
ATOM     34  C   UNL A   1      37.577  28.946  30.191  1.00  0.00     0.010 A 
ATOM     35  C   UNL A   1      38.740  29.265  29.470  1.00  0.00    -0.014 A 
BRANCH  35  36
ATOM     36  C   UNL A   1      40.055  28.721  29.889  1.00  0.00     0.031 A 
ATOM     37  C   UNL A   1      40.724  29.303  31.104  1.00  0.00     0.074 A 
ATOM     38  C   UNL A   1      40.642  27.706  29.228  1.00  0.00     0.049 A 
ATOM     39  N   UNL A   1      41.901  29.042  31.611  1.00  0.00    -0.248 NA
ATOM     40  C   UNL A   1      39.952  30.308  31.851  1.00  0.00     0.031 C 
ATOM     41  C   UNL A   1      40.072  26.995  28.087  1.00  0.00     0.029 A 
ATOM     42  N   UNL A   1      41.859  27.102  29.431  1.00  0.00    -0.354 N 
ATOM     43  C   UNL A   1      42.013  29.849  32.736  1.00  0.00     0.074 A 
ATOM     44  C   UNL A   1      40.790  30.618  32.829  1.00  0.00     0.031 C 
ATOM     45  C   UNL A   1      40.949  26.060  27.677  1.00  0.00     0.029 A 
ATOM     46  C   UNL A   1      42.155  26.136  28.502  1.00  0.00     0.049 A 
ATOM     47  H   UNL A   1      42.462  27.342  30.171  1.00  0.00     0.167 HD
ATOM     48  C   UNL A   1      43.040  29.944  33.612  1.00  0.00     0.037 A 
ATOM     49  C   UNL A   1      43.284  25.420  28.319  1.00  0.00     0.037 A 
ATOM     50  C   UNL A   1      44.267  29.200  33.516  1.00  0.00     0.049 A 
ATOM     51  C   UNL A   1      44.462  25.633  29.235  1.00  0.00     0.074 A 
ATOM     52  C   UNL A   1      45.373  29.250  34.348  1.00  0.00     0.029 A 
ATOM     53  N   UNL A   1      44.555  28.278  32.523  1.00  0.00    -0.354 N 
ATOM     54  N   UNL A   1      44.566  26.408  30.288  1.00  0.00    -0.248 NA
ATOM     55  C   UNL A   1      45.687  24.876  28.929  1.00  0.00     0.031 C 
ATOM     56  C   UNL A   1      46.349  28.390  33.831  1.00  0.00     0.029 A 
ATOM     57  C   UNL A   1      45.831  27.770  32.705  1.00  0.00     0.049 A 
ATOM     58  H   UNL A   1      43.943  28.021  31.795  1.00  0.00     0.167 HD
ATOM     59  C   UNL A   1      45.853  26.214  30.781  1.00  0.00     0.074 A 
ATOM     60  C   UNL A   1      46.488  25.239  29.921  1.00  0.00     0.031 C 
ATOM     61  C   UNL A   1      46.453  26.794  31.848  1.00  0.00     0.037 A 
BRANCH  48  62
ATOM     62  C   UNL A   1      42.892  30.931  34.729  1.00  0.00     0.057 A 
ATOM     63  C   UNL A   1      42.387  30.560  35.981  1.00  0.00     0.134 A 
ATOM     64  C   UNL A   1      43.271  32.267  34.552  1.00  0.00     0.134 A 
ATOM     65  F   UNL A   1      41.988  29.299  36.207  1.00  0.00    -0.206 F 
ATOM     66  C   UNL A   1      42.245  31.489  37.013  1.00  0.00     0.040 A 
ATOM     67  C   UNL A   1      43.155  33.201  35.582  1.00  0.00     0.040 A 
ATOM     68  F   UNL A   1      43.762  32.686  33.375  1.00  0.00    -0.206 F 
ATOM     69  C   UNL A   1      42.635  32.813  36.816  1.00  0.00     0.006 A 
ENDBRANCH  48  62
BRANCH  49  70
ATOM     70  C   UNL A   1      43.388  24.460  27.190  1.00  0.00     0.057 A 
ATOM     71  C   UNL A   1      43.832  24.869  25.926  1.00  0.00     0.134 A 
ATOM     72  C   UNL A   1      42.989  23.127  27.332  1.00  0.00     0.134 A 
ATOM     73  F   UNL A   1      44.196  26.143  25.719  1.00  0.00    -0.206 F 
ATOM     74  C   UNL A   1      43.859  23.991  24.842  1.00  0.00     0.040 A 
ATOM     75  C   UNL A   1      43.034  22.231  26.262  1.00  0.00     0.040 A 
ATOM     76  F   UNL A   1      42.542  22.675  28.513  1.00  0.00    -0.206 F 
ATOM     77  C   UNL A   1      43.461  22.665  25.010  1.00  0.00     0.006 A 
ENDBRANCH  49  70
BRANCH  61  78
ATOM     78  C   UNL A   1      47.856  26.368  32.172  1.00  0.00     0.057 A 
ATOM     79  C   UNL A   1      48.972  27.039  31.657  1.00  0.00     0.134 A 
ATOM     80  C   UNL A   1      48.094  25.298  33.045  1.00  0.00     0.134 A 
ATOM     81  F   UNL A   1      48.815  28.065  30.806  1.00  0.00    -0.206 F 
ATOM     82  C   UNL A   1      50.273  26.651  31.982  1.00  0.00     0.040 A 
ATOM     83  C   UNL A   1      49.390  24.915  33.398  1.00  0.00     0.040 A 
ATOM     84  F   UNL A   1      47.070  24.617  33.583  1.00  0.00    -0.206 F 
ATOM     85  C   UNL A   1      50.484  25.590  32.861  1.00  0.00     0.006 A 
ENDBRANCH  61  78
ENDBRANCH  35  36
ENDBRANCH  28  30
ENDBRANCH  27  28
ENDBRANCH  26  27
ENDBRANCH  25  26
ENDBRANCH  24  25
ENDBRANCH   1  24
TORSDOF 18
ENDMDL
