MODEL 1
REMARK VINA RESULT:     -11.3      0.000      0.000
REMARK SMILES O=C(OCCOCCOCCOC(=O)[C@H]1C[C@](O)(c2ccccc2Cl)[C@@H](c2ccccc2Cl)O1)c1ccc(-c2c3nc(c(-c4c(F)cccc4F)c4ccc([nH]4)c(-c4c(F)cccc4F)c4nc(c(-c5c(F)cccc5F)c5ccc2[nH]5)C=C4)C=C3)cc1
REMARK SMILES IDX 7 1 6 2 5 3 4 4 3 5 2 6 1 7 35 8 36 9 88 10 37 11 87 12
REMARK SMILES IDX 38 13 39 14 40 15 81 16 41 17 86 18 80 19 82 20 42 21 85 22
REMARK SMILES IDX 79 23 78 24 43 26 69 27 52 28 68 29 53 30 56 31 67 32 83 33
REMARK SMILES IDX 54 34 55 35 66 37 84 38 57 39 44 40 45 41 50 42 46 43 47 44
REMARK SMILES IDX 49 45 51 46 48 47 70 48 71 49 76 50 72 51 73 52 75 53 77 54
REMARK SMILES IDX 74 55 58 56 59 57 64 58 60 59 61 60 63 61 65 62 62 63 8 64
REMARK SMILES IDX 9 65 10 66 11 67 12 68 13 69 14 70 15 71 16 72 34 73 17 74
REMARK SMILES IDX 26 75 19 76 20 77 24 78 21 79 23 80 25 81 22 82 18 83 27 85
REMARK SMILES IDX 28 86 32 87 29 88 31 89 33 90 30 91
REMARK H PARENT 82 25 56 36 18 84
REMARK Flexibility Score: inf
ROOT
ATOM      1  C   UNL A   1      42.179  19.028  25.978  1.00  0.00     0.188 C 
ENDROOT
BRANCH   1   2
ATOM      2  O   UNL A   1      42.829  19.897  25.049  1.00  0.00    -0.376 OA
BRANCH   2   3
ATOM      3  C   UNL A   1      43.801  20.753  25.652  1.00  0.00     0.202 C 
BRANCH   3   4
ATOM      4  C   UNL A   1      44.254  21.970  24.820  1.00  0.00     0.261 C 
BRANCH   4   5
ATOM      5  O   UNL A   1      43.481  23.166  25.032  1.00  0.00    -0.460 OA
BRANCH   5   6
ATOM      6  C   UNL A   1      43.930  24.411  25.341  1.00  0.00     0.338 C 
ATOM      7  O   UNL A   1      44.928  24.842  24.765  1.00  0.00    -0.246 OA
BRANCH   6   8
ATOM      8  C   UNL A   1      43.273  25.286  26.358  1.00  0.00     0.060 A 
ATOM      9  C   UNL A   1      43.473  26.660  26.452  1.00  0.00     0.016 A 
ATOM     10  C   UNL A   1      42.344  24.701  27.237  1.00  0.00     0.016 A 
ATOM     11  C   UNL A   1      42.887  27.418  27.450  1.00  0.00     0.010 A 
ATOM     12  C   UNL A   1      41.698  25.467  28.217  1.00  0.00     0.010 A 
ATOM     13  C   UNL A   1      42.005  26.825  28.348  1.00  0.00    -0.014 A 
BRANCH  13  14
ATOM     14  C   UNL A   1      41.553  27.647  29.485  1.00  0.00     0.031 A 
ATOM     15  C   UNL A   1      42.391  27.657  30.727  1.00  0.00     0.074 A 
ATOM     16  C   UNL A   1      40.528  28.503  29.318  1.00  0.00     0.049 A 
ATOM     17  N   UNL A   1      42.223  28.325  31.835  1.00  0.00    -0.248 NA
ATOM     18  C   UNL A   1      43.601  26.814  30.709  1.00  0.00     0.031 C 
ATOM     19  C   UNL A   1      39.747  28.649  28.087  1.00  0.00     0.029 A 
ATOM     20  N   UNL A   1      39.998  29.441  30.162  1.00  0.00    -0.354 N 
ATOM     21  C   UNL A   1      43.290  27.970  32.650  1.00  0.00     0.074 A 
ATOM     22  C   UNL A   1      44.098  27.022  31.917  1.00  0.00     0.031 C 
ATOM     23  C   UNL A   1      38.856  29.643  28.247  1.00  0.00     0.029 A 
ATOM     24  C   UNL A   1      38.959  30.151  29.611  1.00  0.00     0.049 A 
ATOM     25  H   UNL A   1      40.330  29.592  31.077  1.00  0.00     0.167 HD
ATOM     26  C   UNL A   1      43.561  28.397  33.904  1.00  0.00     0.037 A 
ATOM     27  C   UNL A   1      38.163  31.082  30.169  1.00  0.00     0.037 A 
ATOM     28  C   UNL A   1      42.731  29.334  34.612  1.00  0.00     0.049 A 
ATOM     29  C   UNL A   1      38.420  31.455  31.605  1.00  0.00     0.074 A 
ATOM     30  C   UNL A   1      42.845  29.784  35.912  1.00  0.00     0.029 A 
ATOM     31  N   UNL A   1      41.625  29.965  34.060  1.00  0.00    -0.354 N 
ATOM     32  N   UNL A   1      39.387  31.060  32.400  1.00  0.00    -0.248 NA
ATOM     33  C   UNL A   1      37.469  32.382  32.228  1.00  0.00     0.031 C 
ATOM     34  C   UNL A   1      41.780  30.656  36.161  1.00  0.00     0.029 A 
ATOM     35  C   UNL A   1      41.031  30.787  35.000  1.00  0.00     0.049 A 
ATOM     36  H   UNL A   1      41.308  29.844  33.135  1.00  0.00     0.167 HD
ATOM     37  C   UNL A   1      39.168  31.697  33.614  1.00  0.00     0.074 A 
ATOM     38  C   UNL A   1      37.992  32.528  33.438  1.00  0.00     0.031 C 
ATOM     39  C   UNL A   1      39.864  31.603  34.774  1.00  0.00     0.037 A 
BRANCH  26  40
ATOM     40  C   UNL A   1      44.749  27.791  34.589  1.00  0.00     0.057 A 
ATOM     41  C   UNL A   1      46.020  28.377  34.537  1.00  0.00     0.134 A 
ATOM     42  C   UNL A   1      44.624  26.578  35.277  1.00  0.00     0.134 A 
ATOM     43  F   UNL A   1      46.215  29.523  33.867  1.00  0.00    -0.206 F 
ATOM     44  C   UNL A   1      47.129  27.764  35.125  1.00  0.00     0.040 A 
ATOM     45  C   UNL A   1      45.721  25.967  35.887  1.00  0.00     0.040 A 
ATOM     46  F   UNL A   1      43.436  25.959  35.356  1.00  0.00    -0.206 F 
ATOM     47  C   UNL A   1      46.981  26.557  35.804  1.00  0.00     0.006 A 
ENDBRANCH  26  40
BRANCH  27  48
ATOM     48  C   UNL A   1      37.027  31.667  29.408  1.00  0.00     0.057 A 
ATOM     49  C   UNL A   1      35.809  30.992  29.268  1.00  0.00     0.134 A 
ATOM     50  C   UNL A   1      37.146  32.909  28.769  1.00  0.00     0.134 A 
ATOM     51  F   UNL A   1      35.632  29.791  29.836  1.00  0.00    -0.206 F 
ATOM     52  C   UNL A   1      34.762  31.519  28.505  1.00  0.00     0.040 A 
ATOM     53  C   UNL A   1      36.098  33.461  28.029  1.00  0.00     0.040 A 
ATOM     54  F   UNL A   1      38.285  33.612  28.858  1.00  0.00    -0.206 F 
ATOM     55  C   UNL A   1      34.904  32.760  27.886  1.00  0.00     0.006 A 
ENDBRANCH  27  48
BRANCH  39  56
ATOM     56  C   UNL A   1      39.379  32.437  35.919  1.00  0.00     0.057 A 
ATOM     57  C   UNL A   1      39.879  33.722  36.158  1.00  0.00     0.134 A 
ATOM     58  C   UNL A   1      38.369  31.962  36.765  1.00  0.00     0.134 A 
ATOM     59  F   UNL A   1      40.857  34.225  35.391  1.00  0.00    -0.206 F 
ATOM     60  C   UNL A   1      39.405  34.500  37.215  1.00  0.00     0.040 A 
ATOM     61  C   UNL A   1      37.868  32.740  37.807  1.00  0.00     0.040 A 
ATOM     62  F   UNL A   1      37.842  30.741  36.580  1.00  0.00    -0.206 F 
ATOM     63  C   UNL A   1      38.392  34.011  38.038  1.00  0.00     0.006 A 
ENDBRANCH  39  56
ENDBRANCH  13  14
ENDBRANCH   6   8
ENDBRANCH   5   6
ENDBRANCH   4   5
ENDBRANCH   3   4
ENDBRANCH   2   3
ENDBRANCH   1   2
BRANCH   1  64
ATOM     64  C   UNL A   1      41.994  19.661  27.351  1.00  0.00     0.188 C 
BRANCH  64  65
ATOM     65  O   UNL A   1      40.698  20.177  27.651  1.00  0.00    -0.376 OA
BRANCH  65  66
ATOM     66  C   UNL A   1      40.450  21.528  27.272  1.00  0.00     0.202 C 
BRANCH  66  67
ATOM     67  C   UNL A   1      39.590  21.747  26.016  1.00  0.00     0.261 C 
BRANCH  67  68
ATOM     68  O   UNL A   1      38.412  22.533  26.257  1.00  0.00    -0.461 OA
BRANCH  68  69
ATOM     69  C   UNL A   1      37.355  22.312  25.409  1.00  0.00     0.335 C 
ATOM     70  O   UNL A   1      37.372  21.549  24.463  1.00  0.00    -0.249 OA
BRANCH  69  71
ATOM     71  C   UNL A   1      36.159  23.197  25.814  1.00  0.00     0.232 C 
ATOM     72  C   UNL A   1      35.800  24.265  24.798  1.00  0.00     0.087 C 
ATOM     73  O   UNL A   1      34.975  22.464  26.091  1.00  0.00    -0.355 OA
ATOM     74  C   UNL A   1      34.532  23.780  24.077  1.00  0.00     0.124 C 
ATOM     75  C   UNL A   1      34.008  22.643  25.022  1.00  0.00     0.187 C 
BRANCH  74  76
ATOM     76  C   UNL A   1      33.717  25.032  23.684  1.00  0.00     0.005 A 
ATOM     77  C   UNL A   1      33.656  25.305  22.284  1.00  0.00     0.008 A 
ATOM     78  C   UNL A   1      33.098  25.986  24.513  1.00  0.00     0.047 A 
ATOM     79  C   UNL A   1      33.000  26.416  21.748  1.00  0.00     0.001 A 
ATOM     80  C   UNL A   1      32.415  27.091  23.965  1.00  0.00     0.021 A 
ATOM     81  Cl  UNL A   1      33.149  26.006  26.234  1.00  0.00    -0.084 Cl
ATOM     82  C   UNL A   1      32.365  27.307  22.592  1.00  0.00     0.002 A 
ENDBRANCH  74  76
BRANCH  74  83
ATOM     83  O   UNL A   1      34.967  23.204  22.827  1.00  0.00    -0.382 OA
ATOM     84  H   UNL A   1      35.914  22.998  22.877  1.00  0.00     0.212 HD
ENDBRANCH  74  83
BRANCH  75  85
ATOM     85  C   UNL A   1      33.737  21.245  24.466  1.00  0.00     0.003 A 
ATOM     86  C   UNL A   1      34.488  20.140  24.923  1.00  0.00     0.008 A 
ATOM     87  C   UNL A   1      32.656  20.967  23.608  1.00  0.00     0.046 A 
ATOM     88  C   UNL A   1      34.148  18.825  24.591  1.00  0.00     0.000 A 
ATOM     89  C   UNL A   1      32.311  19.645  23.282  1.00  0.00     0.021 A 
ATOM     90  Cl  UNL A   1      31.669  22.202  22.909  1.00  0.00    -0.084 Cl
ATOM     91  C   UNL A   1      33.045  18.576  23.786  1.00  0.00     0.002 A 
ENDBRANCH  75  85
ENDBRANCH  69  71
ENDBRANCH  68  69
ENDBRANCH  67  68
ENDBRANCH  66  67
ENDBRANCH  65  66
ENDBRANCH  64  65
ENDBRANCH   1  64
TORSDOF 20
ENDMDL
MODEL 2
REMARK VINA RESULT:     -11.0      2.219      7.239
REMARK SMILES O=C(OCCOCCOCCOC(=O)[C@H]1C[C@](O)(c2ccccc2Cl)[C@@H](c2ccccc2Cl)O1)c1ccc(-c2c3nc(c(-c4c(F)cccc4F)c4ccc([nH]4)c(-c4c(F)cccc4F)c4nc(c(-c5c(F)cccc5F)c5ccc2[nH]5)C=C4)C=C3)cc1
REMARK SMILES IDX 7 1 6 2 5 3 4 4 3 5 2 6 1 7 35 8 36 9 88 10 37 11 87 12
REMARK SMILES IDX 38 13 39 14 40 15 81 16 41 17 86 18 80 19 82 20 42 21 85 22
REMARK SMILES IDX 79 23 78 24 43 26 69 27 52 28 68 29 53 30 56 31 67 32 83 33
REMARK SMILES IDX 54 34 55 35 66 37 84 38 57 39 44 40 45 41 50 42 46 43 47 44
REMARK SMILES IDX 49 45 51 46 48 47 70 48 71 49 76 50 72 51 73 52 75 53 77 54
REMARK SMILES IDX 74 55 58 56 59 57 64 58 60 59 61 60 63 61 65 62 62 63 8 64
REMARK SMILES IDX 9 65 10 66 11 67 12 68 13 69 14 70 15 71 16 72 34 73 17 74
REMARK SMILES IDX 26 75 19 76 20 77 24 78 21 79 23 80 25 81 22 82 18 83 27 85
REMARK SMILES IDX 28 86 32 87 29 88 31 89 33 90 30 91
REMARK H PARENT 82 25 56 36 18 84
REMARK Flexibility Score: inf
ROOT
ATOM      1  C   UNL A   1      38.797  22.266  26.095  1.00  0.00     0.188 C 
ENDROOT
BRANCH   1   2
ATOM      2  O   UNL A   1      39.784  21.240  26.210  1.00  0.00    -0.376 OA
BRANCH   2   3
ATOM      3  C   UNL A   1      41.011  21.689  26.790  1.00  0.00     0.202 C 
BRANCH   3   4
ATOM      4  C   UNL A   1      41.913  22.563  25.896  1.00  0.00     0.261 C 
BRANCH   4   5
ATOM      5  O   UNL A   1      42.347  23.796  26.500  1.00  0.00    -0.460 OA
BRANCH   5   6
ATOM      6  C   UNL A   1      41.977  25.063  26.178  1.00  0.00     0.338 C 
ATOM      7  O   UNL A   1      41.922  25.382  24.992  1.00  0.00    -0.246 OA
BRANCH   6   8
ATOM      8  C   UNL A   1      41.639  26.098  27.201  1.00  0.00     0.060 A 
ATOM      9  C   UNL A   1      42.215  27.364  27.251  1.00  0.00     0.016 A 
ATOM     10  C   UNL A   1      40.630  25.805  28.136  1.00  0.00     0.016 A 
ATOM     11  C   UNL A   1      41.911  28.267  28.254  1.00  0.00     0.010 A 
ATOM     12  C   UNL A   1      40.270  26.732  29.124  1.00  0.00     0.010 A 
ATOM     13  C   UNL A   1      40.946  27.953  29.206  1.00  0.00    -0.014 A 
BRANCH  13  14
ATOM     14  C   UNL A   1      40.796  28.882  30.340  1.00  0.00     0.031 A 
ATOM     15  C   UNL A   1      39.679  29.881  30.290  1.00  0.00     0.074 A 
ATOM     16  C   UNL A   1      41.523  28.692  31.455  1.00  0.00     0.049 A 
ATOM     17  N   UNL A   1      39.323  30.771  31.176  1.00  0.00    -0.248 NA
ATOM     18  C   UNL A   1      38.831  29.858  29.084  1.00  0.00     0.031 C 
ATOM     19  C   UNL A   1      42.538  27.649  31.629  1.00  0.00     0.029 A 
ATOM     20  N   UNL A   1      41.491  29.330  32.666  1.00  0.00    -0.354 N 
ATOM     21  C   UNL A   1      38.227  31.424  30.629  1.00  0.00     0.074 A 
ATOM     22  C   UNL A   1      37.977  30.837  29.332  1.00  0.00     0.031 C 
ATOM     23  C   UNL A   1      43.010  27.700  32.886  1.00  0.00     0.029 A 
ATOM     24  C   UNL A   1      42.383  28.821  33.578  1.00  0.00     0.049 A 
ATOM     25  H   UNL A   1      40.886  30.082  32.863  1.00  0.00     0.167 HD
ATOM     26  C   UNL A   1      37.500  32.430  31.166  1.00  0.00     0.037 A 
ATOM     27  C   UNL A   1      42.677  29.245  34.822  1.00  0.00     0.037 A 
ATOM     28  C   UNL A   1      37.781  33.000  32.456  1.00  0.00     0.049 A 
ATOM     29  C   UNL A   1      41.928  30.440  35.350  1.00  0.00     0.074 A 
ATOM     30  C   UNL A   1      37.178  34.074  33.079  1.00  0.00     0.029 A 
ATOM     31  N   UNL A   1      38.758  32.525  33.320  1.00  0.00    -0.354 N 
ATOM     32  N   UNL A   1      40.940  31.105  34.798  1.00  0.00    -0.248 NA
ATOM     33  C   UNL A   1      42.345  30.957  36.658  1.00  0.00     0.031 C 
ATOM     34  C   UNL A   1      37.822  34.278  34.304  1.00  0.00     0.029 A 
ATOM     35  C   UNL A   1      38.791  33.298  34.467  1.00  0.00     0.049 A 
ATOM     36  H   UNL A   1      39.342  31.752  33.144  1.00  0.00     0.167 HD
ATOM     37  C   UNL A   1      40.610  32.112  35.694  1.00  0.00     0.074 A 
ATOM     38  C   UNL A   1      41.485  31.950  36.839  1.00  0.00     0.031 C 
ATOM     39  C   UNL A   1      39.677  33.091  35.584  1.00  0.00     0.037 A 
BRANCH  26  40
ATOM     40  C   UNL A   1      36.404  33.006  30.321  1.00  0.00     0.057 A 
ATOM     41  C   UNL A   1      36.665  33.843  29.229  1.00  0.00     0.134 A 
ATOM     42  C   UNL A   1      35.063  32.748  30.631  1.00  0.00     0.134 A 
ATOM     43  F   UNL A   1      37.927  34.156  28.897  1.00  0.00    -0.206 F 
ATOM     44  C   UNL A   1      35.631  34.425  28.493  1.00  0.00     0.040 A 
ATOM     45  C   UNL A   1      34.021  33.306  29.889  1.00  0.00     0.040 A 
ATOM     46  F   UNL A   1      34.744  31.962  31.670  1.00  0.00    -0.206 F 
ATOM     47  C   UNL A   1      34.304  34.154  28.820  1.00  0.00     0.006 A 
ENDBRANCH  26  40
BRANCH  27  48
ATOM     48  C   UNL A   1      43.753  28.592  35.615  1.00  0.00     0.057 A 
ATOM     49  C   UNL A   1      43.485  27.523  36.477  1.00  0.00     0.134 A 
ATOM     50  C   UNL A   1      45.077  29.047  35.553  1.00  0.00     0.134 A 
ATOM     51  F   UNL A   1      42.237  27.050  36.602  1.00  0.00    -0.206 F 
ATOM     52  C   UNL A   1      44.488  26.947  37.264  1.00  0.00     0.040 A 
ATOM     53  C   UNL A   1      46.094  28.461  36.309  1.00  0.00     0.040 A 
ATOM     54  F   UNL A   1      45.407  30.069  34.748  1.00  0.00    -0.206 F 
ATOM     55  C   UNL A   1      45.798  27.414  37.177  1.00  0.00     0.006 A 
ENDBRANCH  27  48
BRANCH  39  56
ATOM     56  C   UNL A   1      39.551  34.032  36.742  1.00  0.00     0.057 A 
ATOM     57  C   UNL A   1      40.233  35.254  36.776  1.00  0.00     0.134 A 
ATOM     58  C   UNL A   1      38.703  33.729  37.814  1.00  0.00     0.134 A 
ATOM     59  F   UNL A   1      41.071  35.593  35.785  1.00  0.00    -0.206 F 
ATOM     60  C   UNL A   1      40.093  36.134  37.850  1.00  0.00     0.040 A 
ATOM     61  C   UNL A   1      38.533  34.612  38.879  1.00  0.00     0.040 A 
ATOM     62  F   UNL A   1      38.014  32.578  37.834  1.00  0.00    -0.206 F 
ATOM     63  C   UNL A   1      39.235  35.816  38.901  1.00  0.00     0.006 A 
ENDBRANCH  39  56
ENDBRANCH  13  14
ENDBRANCH   6   8
ENDBRANCH   5   6
ENDBRANCH   4   5
ENDBRANCH   3   4
ENDBRANCH   2   3
ENDBRANCH   1   2
BRANCH   1  64
ATOM     64  C   UNL A   1      37.548  21.805  25.356  1.00  0.00     0.188 C 
BRANCH  64  65
ATOM     65  O   UNL A   1      36.639  22.821  24.936  1.00  0.00    -0.376 OA
BRANCH  65  66
ATOM     66  C   UNL A   1      35.788  22.496  23.839  1.00  0.00     0.202 C 
BRANCH  66  67
ATOM     67  C   UNL A   1      34.640  23.475  23.540  1.00  0.00     0.261 C 
BRANCH  67  68
ATOM     68  O   UNL A   1      34.848  24.787  24.087  1.00  0.00    -0.461 OA
BRANCH  68  69
ATOM     69  C   UNL A   1      33.731  25.422  24.572  1.00  0.00     0.335 C 
ATOM     70  O   UNL A   1      33.215  25.192  25.648  1.00  0.00    -0.249 OA
BRANCH  69  71
ATOM     71  C   UNL A   1      33.213  26.442  23.539  1.00  0.00     0.232 C 
ATOM     72  C   UNL A   1      31.702  26.561  23.482  1.00  0.00     0.087 C 
ATOM     73  O   UNL A   1      33.733  27.751  23.719  1.00  0.00    -0.355 OA
ATOM     74  C   UNL A   1      31.335  27.874  24.193  1.00  0.00     0.124 C 
ATOM     75  C   UNL A   1      32.707  28.633  24.250  1.00  0.00     0.187 C 
BRANCH  74  76
ATOM     76  C   UNL A   1      30.062  28.427  23.515  1.00  0.00     0.005 A 
ATOM     77  C   UNL A   1      30.198  29.718  22.922  1.00  0.00     0.008 A 
ATOM     78  C   UNL A   1      28.767  27.877  23.474  1.00  0.00     0.047 A 
ATOM     79  C   UNL A   1      29.143  30.392  22.303  1.00  0.00     0.001 A 
ATOM     80  C   UNL A   1      27.712  28.550  22.824  1.00  0.00     0.021 A 
ATOM     81  Cl  UNL A   1      28.269  26.419  24.243  1.00  0.00    -0.084 Cl
ATOM     82  C   UNL A   1      27.896  29.799  22.242  1.00  0.00     0.002 A 
ENDBRANCH  74  76
BRANCH  74  83
ATOM     83  O   UNL A   1      30.927  27.516  25.530  1.00  0.00    -0.382 OA
ATOM     84  H   UNL A   1      31.683  27.143  26.011  1.00  0.00     0.212 HD
ENDBRANCH  74  83
BRANCH  75  85
ATOM     85  C   UNL A   1      33.248  29.145  25.585  1.00  0.00     0.003 A 
ATOM     86  C   UNL A   1      34.430  28.597  26.131  1.00  0.00     0.008 A 
ATOM     87  C   UNL A   1      32.699  30.259  26.249  1.00  0.00     0.046 A 
ATOM     88  C   UNL A   1      35.064  29.162  27.242  1.00  0.00     0.000 A 
ATOM     89  C   UNL A   1      33.340  30.829  27.360  1.00  0.00     0.021 A 
ATOM     90  Cl  UNL A   1      31.226  31.015  25.753  1.00  0.00    -0.084 Cl
ATOM     91  C   UNL A   1      34.529  30.293  27.845  1.00  0.00     0.002 A 
ENDBRANCH  75  85
ENDBRANCH  69  71
ENDBRANCH  68  69
ENDBRANCH  67  68
ENDBRANCH  66  67
ENDBRANCH  65  66
ENDBRANCH  64  65
ENDBRANCH   1  64
TORSDOF 20
ENDMDL
MODEL 3
REMARK VINA RESULT:     -10.9      2.144      4.328
REMARK SMILES O=C(OCCOCCOCCOC(=O)[C@H]1C[C@](O)(c2ccccc2Cl)[C@@H](c2ccccc2Cl)O1)c1ccc(-c2c3nc(c(-c4c(F)cccc4F)c4ccc([nH]4)c(-c4c(F)cccc4F)c4nc(c(-c5c(F)cccc5F)c5ccc2[nH]5)C=C4)C=C3)cc1
REMARK SMILES IDX 7 1 6 2 5 3 4 4 3 5 2 6 1 7 35 8 36 9 88 10 37 11 87 12
REMARK SMILES IDX 38 13 39 14 40 15 81 16 41 17 86 18 80 19 82 20 42 21 85 22
REMARK SMILES IDX 79 23 78 24 43 26 69 27 52 28 68 29 53 30 56 31 67 32 83 33
REMARK SMILES IDX 54 34 55 35 66 37 84 38 57 39 44 40 45 41 50 42 46 43 47 44
REMARK SMILES IDX 49 45 51 46 48 47 70 48 71 49 76 50 72 51 73 52 75 53 77 54
REMARK SMILES IDX 74 55 58 56 59 57 64 58 60 59 61 60 63 61 65 62 62 63 8 64
REMARK SMILES IDX 9 65 10 66 11 67 12 68 13 69 14 70 15 71 16 72 34 73 17 74
REMARK SMILES IDX 26 75 19 76 20 77 24 78 21 79 23 80 25 81 22 82 18 83 27 85
REMARK SMILES IDX 28 86 32 87 29 88 31 89 33 90 30 91
REMARK H PARENT 82 25 56 36 18 84
REMARK Flexibility Score: inf
ROOT
ATOM      1  C   UNL A   1      38.785  22.244  26.092  1.00  0.00     0.188 C 
ENDROOT
BRANCH   1   2
ATOM      2  O   UNL A   1      39.749  21.193  26.159  1.00  0.00    -0.376 OA
BRANCH   2   3
ATOM      3  C   UNL A   1      41.005  21.604  26.704  1.00  0.00     0.202 C 
BRANCH   3   4
ATOM      4  C   UNL A   1      41.953  22.358  25.750  1.00  0.00     0.261 C 
BRANCH   4   5
ATOM      5  O   UNL A   1      42.500  23.578  26.284  1.00  0.00    -0.460 OA
BRANCH   5   6
ATOM      6  C   UNL A   1      42.153  24.856  25.982  1.00  0.00     0.338 C 
ATOM      7  O   UNL A   1      42.220  25.229  24.812  1.00  0.00    -0.246 OA
BRANCH   6   8
ATOM      8  C   UNL A   1      41.697  25.842  27.008  1.00  0.00     0.060 A 
ATOM      9  C   UNL A   1      42.197  27.135  27.125  1.00  0.00     0.016 A 
ATOM     10  C   UNL A   1      40.653  25.467  27.873  1.00  0.00     0.016 A 
ATOM     11  C   UNL A   1      41.784  27.992  28.130  1.00  0.00     0.010 A 
ATOM     12  C   UNL A   1      40.184  26.345  28.860  1.00  0.00     0.010 A 
ATOM     13  C   UNL A   1      40.784  27.598  29.013  1.00  0.00    -0.014 A 
BRANCH  13  14
ATOM     14  C   UNL A   1      40.515  28.485  30.159  1.00  0.00     0.031 A 
ATOM     15  C   UNL A   1      41.449  28.429  31.330  1.00  0.00     0.074 A 
ATOM     16  C   UNL A   1      39.575  29.442  30.051  1.00  0.00     0.049 A 
ATOM     17  N   UNL A   1      41.443  29.132  32.429  1.00  0.00    -0.248 NA
ATOM     18  C   UNL A   1      42.558  27.461  31.239  1.00  0.00     0.031 C 
ATOM     19  C   UNL A   1      38.715  29.647  28.882  1.00  0.00     0.029 A 
ATOM     20  N   UNL A   1      39.217  30.447  30.908  1.00  0.00    -0.354 N 
ATOM     21  C   UNL A   1      42.530  28.681  33.167  1.00  0.00     0.074 A 
ATOM     22  C   UNL A   1      43.171  27.639  32.398  1.00  0.00     0.031 C 
ATOM     23  C   UNL A   1      37.950  30.733  29.085  1.00  0.00     0.029 A 
ATOM     24  C   UNL A   1      38.217  31.253  30.422  1.00  0.00     0.049 A 
ATOM     25  H   UNL A   1      39.637  30.579  31.789  1.00  0.00     0.167 HD
ATOM     26  C   UNL A   1      42.946  29.100  34.382  1.00  0.00     0.037 A 
ATOM     27  C   UNL A   1      37.571  32.274  31.016  1.00  0.00     0.037 A 
ATOM     28  C   UNL A   1      42.280  30.133  35.128  1.00  0.00     0.049 A 
ATOM     29  C   UNL A   1      37.982  32.645  32.416  1.00  0.00     0.074 A 
ATOM     30  C   UNL A   1      42.546  30.593  36.402  1.00  0.00     0.029 A 
ATOM     31  N   UNL A   1      41.203  30.868  34.648  1.00  0.00    -0.354 N 
ATOM     32  N   UNL A   1      38.964  32.164  33.142  1.00  0.00    -0.248 NA
ATOM     33  C   UNL A   1      37.188  33.680  33.087  1.00  0.00     0.031 C 
ATOM     34  C   UNL A   1      41.602  31.578  36.711  1.00  0.00     0.029 A 
ATOM     35  C   UNL A   1      40.779  31.767  35.610  1.00  0.00     0.049 A 
ATOM     36  H   UNL A   1      40.801  30.765  33.755  1.00  0.00     0.167 HD
ATOM     37  C   UNL A   1      38.913  32.844  34.351  1.00  0.00     0.074 A 
ATOM     38  C   UNL A   1      37.821  33.792  34.247  1.00  0.00     0.031 C 
ATOM     39  C   UNL A   1      39.689  32.698  35.455  1.00  0.00     0.037 A 
BRANCH  26  40
ATOM     40  C   UNL A   1      44.116  28.384  34.987  1.00  0.00     0.057 A 
ATOM     41  C   UNL A   1      45.423  28.877  34.893  1.00  0.00     0.134 A 
ATOM     42  C   UNL A   1      43.933  27.158  35.639  1.00  0.00     0.134 A 
ATOM     43  F   UNL A   1      45.672  30.030  34.254  1.00  0.00    -0.206 F 
ATOM     44  C   UNL A   1      46.510  28.164  35.404  1.00  0.00     0.040 A 
ATOM     45  C   UNL A   1      45.009  26.446  36.173  1.00  0.00     0.040 A 
ATOM     46  F   UNL A   1      42.708  26.625  35.755  1.00  0.00    -0.206 F 
ATOM     47  C   UNL A   1      46.304  26.946  36.049  1.00  0.00     0.006 A 
ENDBRANCH  26  40
BRANCH  27  48
ATOM     48  C   UNL A   1      36.444  32.963  30.331  1.00  0.00     0.057 A 
ATOM     49  C   UNL A   1      36.662  33.891  29.307  1.00  0.00     0.134 A 
ATOM     50  C   UNL A   1      35.115  32.732  30.711  1.00  0.00     0.134 A 
ATOM     51  F   UNL A   1      37.910  34.175  28.907  1.00  0.00    -0.206 F 
ATOM     52  C   UNL A   1      35.605  34.579  28.702  1.00  0.00     0.040 A 
ATOM     53  C   UNL A   1      34.047  33.389  30.095  1.00  0.00     0.040 A 
ATOM     54  F   UNL A   1      34.829  31.857  31.687  1.00  0.00    -0.206 F 
ATOM     55  C   UNL A   1      34.292  34.324  29.095  1.00  0.00     0.006 A 
ENDBRANCH  27  48
BRANCH  39  56
ATOM     56  C   UNL A   1      39.389  33.600  36.612  1.00  0.00     0.057 A 
ATOM     57  C   UNL A   1      38.574  33.190  37.674  1.00  0.00     0.134 A 
ATOM     58  C   UNL A   1      39.957  34.878  36.681  1.00  0.00     0.134 A 
ATOM     59  F   UNL A   1      37.990  31.983  37.657  1.00  0.00    -0.206 F 
ATOM     60  C   UNL A   1      38.318  34.030  38.758  1.00  0.00     0.040 A 
ATOM     61  C   UNL A   1      39.731  35.715  37.771  1.00  0.00     0.040 A 
ATOM     62  F   UNL A   1      40.755  35.323  35.698  1.00  0.00    -0.206 F 
ATOM     63  C   UNL A   1      38.903  35.294  38.811  1.00  0.00     0.006 A 
ENDBRANCH  39  56
ENDBRANCH  13  14
ENDBRANCH   6   8
ENDBRANCH   5   6
ENDBRANCH   4   5
ENDBRANCH   3   4
ENDBRANCH   2   3
ENDBRANCH   1   2
BRANCH   1  64
ATOM     64  C   UNL A   1      37.480  21.809  25.437  1.00  0.00     0.188 C 
BRANCH  64  65
ATOM     65  O   UNL A   1      36.591  22.846  25.024  1.00  0.00    -0.376 OA
BRANCH  65  66
ATOM     66  C   UNL A   1      35.733  22.545  23.926  1.00  0.00     0.202 C 
BRANCH  66  67
ATOM     67  C   UNL A   1      34.616  23.556  23.624  1.00  0.00     0.261 C 
BRANCH  67  68
ATOM     68  O   UNL A   1      34.848  24.855  24.193  1.00  0.00    -0.461 OA
BRANCH  68  69
ATOM     69  C   UNL A   1      33.741  25.512  24.670  1.00  0.00     0.335 C 
ATOM     70  O   UNL A   1      33.230  25.312  25.754  1.00  0.00    -0.249 OA
BRANCH  69  71
ATOM     71  C   UNL A   1      33.225  26.513  23.617  1.00  0.00     0.232 C 
ATOM     72  C   UNL A   1      31.714  26.620  23.544  1.00  0.00     0.087 C 
ATOM     73  O   UNL A   1      33.734  27.828  23.782  1.00  0.00    -0.355 OA
ATOM     74  C   UNL A   1      31.331  27.941  24.231  1.00  0.00     0.124 C 
ATOM     75  C   UNL A   1      32.697  28.710  24.290  1.00  0.00     0.187 C 
BRANCH  74  76
ATOM     76  C   UNL A   1      30.060  28.474  23.533  1.00  0.00     0.005 A 
ATOM     77  C   UNL A   1      30.182  29.773  22.954  1.00  0.00     0.008 A 
ATOM     78  C   UNL A   1      28.778  27.898  23.461  1.00  0.00     0.047 A 
ATOM     79  C   UNL A   1      29.126  30.432  22.321  1.00  0.00     0.001 A 
ATOM     80  C   UNL A   1      27.723  28.556  22.796  1.00  0.00     0.021 A 
ATOM     81  Cl  UNL A   1      28.295  26.423  24.207  1.00  0.00    -0.084 Cl
ATOM     82  C   UNL A   1      27.893  29.815  22.230  1.00  0.00     0.002 A 
ENDBRANCH  74  76
BRANCH  74  83
ATOM     83  O   UNL A   1      30.913  27.600  25.570  1.00  0.00    -0.382 OA
ATOM     84  H   UNL A   1      31.459  28.080  26.212  1.00  0.00     0.212 HD
ENDBRANCH  74  83
BRANCH  75  85
ATOM     85  C   UNL A   1      33.222  29.246  25.623  1.00  0.00     0.003 A 
ATOM     86  C   UNL A   1      34.403  28.717  26.186  1.00  0.00     0.008 A 
ATOM     87  C   UNL A   1      32.656  30.364  26.266  1.00  0.00     0.046 A 
ATOM     88  C   UNL A   1      35.022  29.304  27.295  1.00  0.00     0.000 A 
ATOM     89  C   UNL A   1      33.282  30.956  27.374  1.00  0.00     0.021 A 
ATOM     90  Cl  UNL A   1      31.180  31.099  25.747  1.00  0.00    -0.084 Cl
ATOM     91  C   UNL A   1      34.472  30.437  27.877  1.00  0.00     0.002 A 
ENDBRANCH  75  85
ENDBRANCH  69  71
ENDBRANCH  68  69
ENDBRANCH  67  68
ENDBRANCH  66  67
ENDBRANCH  65  66
ENDBRANCH  64  65
ENDBRANCH   1  64
TORSDOF 20
ENDMDL
