MODEL 1
REMARK VINA RESULT:     -11.3      0.000      0.000
REMARK SMILES CC1=C[C@H](C)[C@H](CN2C[C@@]34C=C[C@@H](O3)[C@H](C(=O)OCCOCCOCCOC(=O)c3ccc(-c5c6nc(c(-c7c(F)cccc7F)c7ccc([nH]7)c(-c7c(F)cccc7F)c7nc(c(-c8c(F)cccc8F)c8ccc5[nH]8)C=C7)C=C6)cc3)[C@@H]4C2=O)[C@H](C)C1
REMARK SMILES IDX 22 1 21 2 20 3 19 4 18 5 16 6 17 7 15 8 8 9 9 10 85 11 10 12
REMARK SMILES IDX 84 13 86 14 11 15 14 16 12 17 13 18 7 19 6 20 1 21 2 22 3 23
REMARK SMILES IDX 89 24 4 25 87 26 5 27 88 28 23 29 24 30 25 31 26 32 27 33
REMARK SMILES IDX 28 34 29 35 30 36 31 37 83 38 32 39 82 40 33 41 34 42 35 43
REMARK SMILES IDX 76 44 36 45 81 46 75 47 77 48 37 49 80 50 74 51 73 52 38 54
REMARK SMILES IDX 64 55 47 56 63 57 48 58 51 59 62 60 78 61 49 62 50 63 61 65
REMARK SMILES IDX 79 66 52 67 39 68 40 69 45 70 41 71 42 72 44 73 46 74 43 75
REMARK SMILES IDX 65 76 66 77 71 78 67 79 68 80 70 81 72 82 69 83 53 84 54 85
REMARK SMILES IDX 59 86 55 87 56 88 58 89 60 90 57 91
REMARK H PARENT 77 53 51 64
REMARK Flexibility Score: inf
ROOT
ATOM      1  C   UNL A   1      35.124  31.722  27.650  1.00  0.00     0.188 C 
ENDROOT
BRANCH   1   2
ATOM      2  O   UNL A   1      34.803  30.417  28.113  1.00  0.00    -0.376 OA
BRANCH   2   3
ATOM      3  C   UNL A   1      34.106  29.557  27.198  1.00  0.00     0.202 C 
BRANCH   3   4
ATOM      4  C   UNL A   1      32.569  29.648  27.213  1.00  0.00     0.261 C 
BRANCH   4   5
ATOM      5  O   UNL A   1      32.016  28.504  26.532  1.00  0.00    -0.463 OA
BRANCH   5   6
ATOM      6  C   UNL A   1      31.537  28.729  25.269  1.00  0.00     0.312 C 
ATOM      7  O   UNL A   1      31.828  29.687  24.577  1.00  0.00    -0.252 OA
BRANCH   6   8
ATOM      8  C   UNL A   1      30.830  27.480  24.832  1.00  0.00     0.148 C 
ATOM      9  N   UNL A   1      32.850  24.477  23.805  1.00  0.00    -0.339 N 
ATOM     10  C   UNL A   1      31.531  24.328  23.141  1.00  0.00     0.160 C 
ATOM     11  C   UNL A   1      32.995  25.817  24.309  1.00  0.00     0.230 C 
ATOM     12  C   UNL A   1      30.967  25.743  23.210  1.00  0.00     0.117 C 
ATOM     13  C   UNL A   1      31.580  26.213  24.528  1.00  0.00     0.133 C 
ATOM     14  O   UNL A   1      33.999  26.325  24.767  1.00  0.00    -0.274 OA
ATOM     15  C   UNL A   1      31.213  26.718  22.089  1.00  0.00     0.009 C 
ATOM     16  O   UNL A   1      29.594  26.056  23.511  1.00  0.00    -0.360 OA
ATOM     17  C   UNL A   1      30.501  27.813  22.389  1.00  0.00     0.004 C 
ATOM     18  C   UNL A   1      29.822  27.523  23.688  1.00  0.00     0.157 C 
BRANCH   9  19
ATOM     19  C   UNL A   1      33.365  23.461  24.704  1.00  0.00     0.124 C 
BRANCH  19  20
ATOM     20  C   UNL A   1      34.578  22.583  24.342  1.00  0.00     0.018 C 
ATOM     21  C   UNL A   1      38.117  19.933  24.765  1.00  0.00     0.039 C 
ATOM     22  C   UNL A   1      36.965  20.890  24.734  1.00  0.00    -0.077 C 
ATOM     23  C   UNL A   1      37.085  22.155  24.304  1.00  0.00    -0.025 C 
ATOM     24  C   UNL A   1      35.682  20.409  25.336  1.00  0.00     0.034 C 
ATOM     25  C   UNL A   1      35.998  23.183  24.505  1.00  0.00     0.014 C 
ATOM     26  C   UNL A   1      34.419  21.065  24.756  1.00  0.00    -0.005 C 
ATOM     27  C   UNL A   1      36.280  23.892  25.832  1.00  0.00     0.012 C 
ATOM     28  C   UNL A   1      33.241  20.690  25.672  1.00  0.00     0.008 C 
ENDBRANCH  19  20
ENDBRANCH   9  19
ENDBRANCH   6   8
ENDBRANCH   5   6
ENDBRANCH   4   5
ENDBRANCH   3   4
ENDBRANCH   2   3
ENDBRANCH   1   2
BRANCH   1  29
ATOM     29  C   UNL A   1      34.175  32.850  28.074  1.00  0.00     0.188 C 
BRANCH  29  30
ATOM     30  O   UNL A   1      34.810  33.975  28.661  1.00  0.00    -0.376 OA
BRANCH  30  31
ATOM     31  C   UNL A   1      34.102  34.547  29.769  1.00  0.00     0.202 C 
BRANCH  31  32
ATOM     32  C   UNL A   1      34.383  33.834  31.110  1.00  0.00     0.261 C 
BRANCH  32  33
ATOM     33  O   UNL A   1      35.776  33.789  31.489  1.00  0.00    -0.460 OA
BRANCH  33  34
ATOM     34  C   UNL A   1      36.142  32.794  32.340  1.00  0.00     0.338 C 
ATOM     35  O   UNL A   1      35.552  32.435  33.334  1.00  0.00    -0.246 OA
BRANCH  34  36
ATOM     36  C   UNL A   1      37.245  32.026  31.702  1.00  0.00     0.060 A 
ATOM     37  C   UNL A   1      38.190  31.407  32.534  1.00  0.00     0.016 A 
ATOM     38  C   UNL A   1      37.322  31.864  30.317  1.00  0.00     0.016 A 
ATOM     39  C   UNL A   1      39.232  30.654  31.981  1.00  0.00     0.010 A 
ATOM     40  C   UNL A   1      38.374  31.126  29.764  1.00  0.00     0.010 A 
ATOM     41  C   UNL A   1      39.349  30.538  30.589  1.00  0.00    -0.014 A 
BRANCH  41  42
ATOM     42  C   UNL A   1      40.568  29.953  29.973  1.00  0.00     0.031 A 
ATOM     43  C   UNL A   1      41.745  30.853  29.720  1.00  0.00     0.074 A 
ATOM     44  C   UNL A   1      40.628  28.659  29.609  1.00  0.00     0.049 A 
ATOM     45  N   UNL A   1      42.864  30.603  29.089  1.00  0.00    -0.248 NA
ATOM     46  C   UNL A   1      41.643  32.223  30.247  1.00  0.00     0.031 C 
ATOM     47  C   UNL A   1      39.581  27.665  29.824  1.00  0.00     0.029 A 
ATOM     48  N   UNL A   1      41.619  27.969  28.952  1.00  0.00    -0.354 N 
ATOM     49  C   UNL A   1      43.595  31.782  29.137  1.00  0.00     0.074 A 
ATOM     50  C   UNL A   1      42.787  32.754  29.842  1.00  0.00     0.031 C 
ATOM     51  C   UNL A   1      39.973  26.496  29.285  1.00  0.00     0.029 A 
ATOM     52  C   UNL A   1      41.284  26.670  28.658  1.00  0.00     0.049 A 
ATOM     53  H   UNL A   1      42.488  28.368  28.715  1.00  0.00     0.167 HD
ATOM     54  C   UNL A   1      44.828  32.037  28.639  1.00  0.00     0.037 A 
ATOM     55  C   UNL A   1      41.942  25.741  27.936  1.00  0.00     0.037 A 
ATOM     56  C   UNL A   1      45.636  31.083  27.928  1.00  0.00     0.049 A 
ATOM     57  C   UNL A   1      43.274  26.075  27.314  1.00  0.00     0.074 A 
ATOM     58  C   UNL A   1      46.908  31.250  27.410  1.00  0.00     0.029 A 
ATOM     59  N   UNL A   1      45.246  29.790  27.625  1.00  0.00    -0.354 N 
ATOM     60  N   UNL A   1      43.966  27.186  27.385  1.00  0.00    -0.248 NA
ATOM     61  C   UNL A   1      43.910  25.026  26.502  1.00  0.00     0.031 C 
ATOM     62  C   UNL A   1      47.272  30.069  26.754  1.00  0.00     0.029 A 
ATOM     63  C   UNL A   1      46.241  29.155  26.901  1.00  0.00     0.049 A 
ATOM     64  H   UNL A   1      44.388  29.383  27.885  1.00  0.00     0.167 HD
ATOM     65  C   UNL A   1      45.125  26.961  26.649  1.00  0.00     0.074 A 
ATOM     66  C   UNL A   1      45.048  25.607  26.148  1.00  0.00     0.031 C 
ATOM     67  C   UNL A   1      46.159  27.805  26.410  1.00  0.00     0.037 A 
BRANCH  54  68
ATOM     68  C   UNL A   1      45.370  33.420  28.829  1.00  0.00     0.057 A 
ATOM     69  C   UNL A   1      45.122  34.441  27.903  1.00  0.00     0.134 A 
ATOM     70  C   UNL A   1      46.119  33.741  29.968  1.00  0.00     0.134 A 
ATOM     71  F   UNL A   1      44.425  34.190  26.785  1.00  0.00    -0.206 F 
ATOM     72  C   UNL A   1      45.615  35.732  28.096  1.00  0.00     0.040 A 
ATOM     73  C   UNL A   1      46.601  35.033  30.181  1.00  0.00     0.040 A 
ATOM     74  F   UNL A   1      46.389  32.807  30.891  1.00  0.00    -0.206 F 
ATOM     75  C   UNL A   1      46.351  36.032  29.242  1.00  0.00     0.006 A 
ENDBRANCH  54  68
BRANCH  55  76
ATOM     76  C   UNL A   1      41.341  24.401  27.720  1.00  0.00     0.057 A 
ATOM     77  C   UNL A   1      41.820  23.275  28.399  1.00  0.00     0.134 A 
ATOM     78  C   UNL A   1      40.310  24.206  26.793  1.00  0.00     0.134 A 
ATOM     79  F   UNL A   1      42.829  23.394  29.274  1.00  0.00    -0.206 F 
ATOM     80  C   UNL A   1      41.306  22.000  28.155  1.00  0.00     0.040 A 
ATOM     81  C   UNL A   1      39.771  22.940  26.555  1.00  0.00     0.040 A 
ATOM     82  F   UNL A   1      39.815  25.244  26.103  1.00  0.00    -0.206 F 
ATOM     83  C   UNL A   1      40.275  21.832  27.232  1.00  0.00     0.006 A 
ENDBRANCH  55  76
BRANCH  67  84
ATOM     84  C   UNL A   1      47.305  27.282  25.594  1.00  0.00     0.057 A 
ATOM     85  C   UNL A   1      47.407  27.532  24.220  1.00  0.00     0.134 A 
ATOM     86  C   UNL A   1      48.343  26.562  26.200  1.00  0.00     0.134 A 
ATOM     87  F   UNL A   1      46.441  28.206  23.579  1.00  0.00    -0.206 F 
ATOM     88  C   UNL A   1      48.492  27.070  23.474  1.00  0.00     0.040 A 
ATOM     89  C   UNL A   1      49.443  26.113  25.468  1.00  0.00     0.040 A 
ATOM     90  F   UNL A   1      48.311  26.296  27.514  1.00  0.00    -0.206 F 
ATOM     91  C   UNL A   1      49.518  26.363  24.099  1.00  0.00     0.006 A 
ENDBRANCH  67  84
ENDBRANCH  41  42
ENDBRANCH  34  36
ENDBRANCH  33  34
ENDBRANCH  32  33
ENDBRANCH  31  32
ENDBRANCH  30  31
ENDBRANCH  29  30
ENDBRANCH   1  29
TORSDOF 19
ENDMDL
MODEL 2
REMARK VINA RESULT:     -10.9      4.619      7.032
REMARK SMILES CC1=C[C@H](C)[C@H](CN2C[C@@]34C=C[C@@H](O3)[C@H](C(=O)OCCOCCOCCOC(=O)c3ccc(-c5c6nc(c(-c7c(F)cccc7F)c7ccc([nH]7)c(-c7c(F)cccc7F)c7nc(c(-c8c(F)cccc8F)c8ccc5[nH]8)C=C7)C=C6)cc3)[C@@H]4C2=O)[C@H](C)C1
REMARK SMILES IDX 22 1 21 2 20 3 19 4 18 5 16 6 17 7 15 8 8 9 9 10 85 11 10 12
REMARK SMILES IDX 84 13 86 14 11 15 14 16 12 17 13 18 7 19 6 20 1 21 2 22 3 23
REMARK SMILES IDX 89 24 4 25 87 26 5 27 88 28 23 29 24 30 25 31 26 32 27 33
REMARK SMILES IDX 28 34 29 35 30 36 31 37 83 38 32 39 82 40 33 41 34 42 35 43
REMARK SMILES IDX 76 44 36 45 81 46 75 47 77 48 37 49 80 50 74 51 73 52 38 54
REMARK SMILES IDX 64 55 47 56 63 57 48 58 51 59 62 60 78 61 49 62 50 63 61 65
REMARK SMILES IDX 79 66 52 67 39 68 40 69 45 70 41 71 42 72 44 73 46 74 43 75
REMARK SMILES IDX 65 76 66 77 71 78 67 79 68 80 70 81 72 82 69 83 53 84 54 85
REMARK SMILES IDX 59 86 55 87 56 88 58 89 60 90 57 91
REMARK H PARENT 77 53 51 64
REMARK Flexibility Score: inf
ROOT
ATOM      1  C   UNL A   1      34.947  31.979  27.995  1.00  0.00     0.188 C 
ENDROOT
BRANCH   1   2
ATOM      2  O   UNL A   1      34.173  30.786  27.956  1.00  0.00    -0.376 OA
BRANCH   2   3
ATOM      3  C   UNL A   1      32.936  30.839  27.227  1.00  0.00     0.202 C 
BRANCH   3   4
ATOM      4  C   UNL A   1      32.861  29.984  25.949  1.00  0.00     0.261 C 
BRANCH   4   5
ATOM      5  O   UNL A   1      33.731  28.842  26.086  1.00  0.00    -0.463 OA
BRANCH   5   6
ATOM      6  C   UNL A   1      33.473  27.786  25.254  1.00  0.00     0.312 C 
ATOM      7  O   UNL A   1      33.967  27.634  24.152  1.00  0.00    -0.252 OA
BRANCH   6   8
ATOM      8  C   UNL A   1      32.706  26.770  26.048  1.00  0.00     0.148 C 
ATOM      9  N   UNL A   1      32.854  23.148  25.045  1.00  0.00    -0.339 N 
ATOM     10  C   UNL A   1      31.590  23.309  25.805  1.00  0.00     0.160 C 
ATOM     11  C   UNL A   1      33.382  24.440  24.693  1.00  0.00     0.230 C 
ATOM     12  C   UNL A   1      31.374  24.818  25.765  1.00  0.00     0.117 C 
ATOM     13  C   UNL A   1      32.824  25.298  25.770  1.00  0.00     0.133 C 
ATOM     14  O   UNL A   1      34.311  24.675  23.947  1.00  0.00    -0.274 OA
ATOM     15  C   UNL A   1      30.570  25.446  24.657  1.00  0.00     0.009 C 
ATOM     16  O   UNL A   1      30.906  25.600  26.880  1.00  0.00    -0.360 OA
ATOM     17  C   UNL A   1      30.466  26.745  24.966  1.00  0.00     0.004 C 
ATOM     18  C   UNL A   1      31.202  26.925  26.254  1.00  0.00     0.157 C 
BRANCH   9  19
ATOM     19  C   UNL A   1      33.872  22.200  25.460  1.00  0.00     0.124 C 
BRANCH  19  20
ATOM     20  C   UNL A   1      33.669  20.677  25.347  1.00  0.00     0.018 C 
ATOM     21  C   UNL A   1      33.739  16.542  23.727  1.00  0.00     0.039 C 
ATOM     22  C   UNL A   1      33.691  17.979  24.147  1.00  0.00    -0.077 C 
ATOM     23  C   UNL A   1      32.542  18.652  24.300  1.00  0.00    -0.025 C 
ATOM     24  C   UNL A   1      35.006  18.683  24.265  1.00  0.00     0.034 C 
ATOM     25  C   UNL A   1      32.499  20.151  24.476  1.00  0.00     0.014 C 
ATOM     26  C   UNL A   1      35.017  19.854  25.261  1.00  0.00    -0.005 C 
ATOM     27  C   UNL A   1      32.364  20.771  23.083  1.00  0.00     0.012 C 
ATOM     28  C   UNL A   1      36.323  20.636  25.040  1.00  0.00     0.008 C 
ENDBRANCH  19  20
ENDBRANCH   9  19
ENDBRANCH   6   8
ENDBRANCH   5   6
ENDBRANCH   4   5
ENDBRANCH   3   4
ENDBRANCH   2   3
ENDBRANCH   1   2
BRANCH   1  29
ATOM     29  C   UNL A   1      34.901  32.780  29.302  1.00  0.00     0.188 C 
BRANCH  29  30
ATOM     30  O   UNL A   1      33.679  33.460  29.542  1.00  0.00    -0.376 OA
BRANCH  30  31
ATOM     31  C   UNL A   1      33.547  34.708  28.847  1.00  0.00     0.202 C 
BRANCH  31  32
ATOM     32  C   UNL A   1      32.897  35.819  29.701  1.00  0.00     0.261 C 
BRANCH  32  33
ATOM     33  O   UNL A   1      32.278  35.359  30.922  1.00  0.00    -0.460 OA
BRANCH  33  34
ATOM     34  C   UNL A   1      32.715  35.927  32.077  1.00  0.00     0.338 C 
ATOM     35  O   UNL A   1      32.158  36.788  32.719  1.00  0.00    -0.246 OA
BRANCH  34  36
ATOM     36  C   UNL A   1      33.861  35.121  32.580  1.00  0.00     0.060 A 
ATOM     37  C   UNL A   1      35.149  35.668  32.482  1.00  0.00     0.016 A 
ATOM     38  C   UNL A   1      33.674  33.879  33.190  1.00  0.00     0.016 A 
ATOM     39  C   UNL A   1      36.256  34.958  32.962  1.00  0.00     0.010 A 
ATOM     40  C   UNL A   1      34.782  33.162  33.654  1.00  0.00     0.010 A 
ATOM     41  C   UNL A   1      36.081  33.684  33.521  1.00  0.00    -0.014 A 
BRANCH  41  42
ATOM     42  C   UNL A   1      37.249  32.815  33.817  1.00  0.00     0.031 A 
ATOM     43  C   UNL A   1      38.045  33.085  35.063  1.00  0.00     0.074 A 
ATOM     44  C   UNL A   1      37.627  31.827  32.986  1.00  0.00     0.049 A 
ATOM     45  N   UNL A   1      39.166  32.545  35.468  1.00  0.00    -0.248 NA
ATOM     46  C   UNL A   1      37.503  34.106  35.973  1.00  0.00     0.031 C 
ATOM     47  C   UNL A   1      36.932  31.430  31.764  1.00  0.00     0.029 A 
ATOM     48  N   UNL A   1      38.716  30.991  33.042  1.00  0.00    -0.354 N 
ATOM     49  C   UNL A   1      39.468  33.163  36.674  1.00  0.00     0.074 A 
ATOM     50  C   UNL A   1      38.423  34.132  36.927  1.00  0.00     0.031 C 
ATOM     51  C   UNL A   1      37.627  30.443  31.170  1.00  0.00     0.029 A 
ATOM     52  C   UNL A   1      38.832  30.163  31.952  1.00  0.00     0.049 A 
ATOM     53  H   UNL A   1      39.354  30.985  33.792  1.00  0.00     0.167 HD
ATOM     54  C   UNL A   1      40.520  32.947  37.499  1.00  0.00     0.037 A 
ATOM     55  C   UNL A   1      39.814  29.305  31.608  1.00  0.00     0.037 A 
ATOM     56  C   UNL A   1      41.569  31.995  37.253  1.00  0.00     0.049 A 
ATOM     57  C   UNL A   1      41.021  29.146  32.497  1.00  0.00     0.074 A 
ATOM     58  C   UNL A   1      42.661  31.693  38.048  1.00  0.00     0.029 A 
ATOM     59  N   UNL A   1      41.664  31.200  36.124  1.00  0.00    -0.354 N 
ATOM     60  N   UNL A   1      41.285  29.719  33.646  1.00  0.00    -0.248 NA
ATOM     61  C   UNL A   1      42.071  28.226  32.033  1.00  0.00     0.031 C 
ATOM     62  C   UNL A   1      43.441  30.745  37.379  1.00  0.00     0.029 A 
ATOM     63  C   UNL A   1      42.812  30.428  36.186  1.00  0.00     0.049 A 
ATOM     64  H   UNL A   1      41.013  31.187  35.385  1.00  0.00     0.167 HD
ATOM     65  C   UNL A   1      42.515  29.213  34.051  1.00  0.00     0.074 A 
ATOM     66  C   UNL A   1      42.942  28.280  33.031  1.00  0.00     0.031 C 
ATOM     67  C   UNL A   1      43.228  29.499  35.169  1.00  0.00     0.037 A 
BRANCH  54  68
ATOM     68  C   UNL A   1      40.597  33.780  38.741  1.00  0.00     0.057 A 
ATOM     69  C   UNL A   1      39.921  33.419  39.912  1.00  0.00     0.134 A 
ATOM     70  C   UNL A   1      41.384  34.938  38.774  1.00  0.00     0.134 A 
ATOM     71  F   UNL A   1      39.138  32.329  39.936  1.00  0.00    -0.206 F 
ATOM     72  C   UNL A   1      40.011  34.190  41.071  1.00  0.00     0.040 A 
ATOM     73  C   UNL A   1      41.498  35.707  39.932  1.00  0.00     0.040 A 
ATOM     74  F   UNL A   1      42.057  35.335  37.684  1.00  0.00    -0.206 F 
ATOM     75  C   UNL A   1      40.808  35.335  41.085  1.00  0.00     0.006 A 
ENDBRANCH  54  68
BRANCH  55  76
ATOM     76  C   UNL A   1      39.728  28.543  30.336  1.00  0.00     0.057 A 
ATOM     77  C   UNL A   1      39.086  27.301  30.279  1.00  0.00     0.134 A 
ATOM     78  C   UNL A   1      40.327  29.016  29.163  1.00  0.00     0.134 A 
ATOM     79  F   UNL A   1      38.523  26.781  31.380  1.00  0.00    -0.206 F 
ATOM     80  C   UNL A   1      39.057  26.547  29.105  1.00  0.00     0.040 A 
ATOM     81  C   UNL A   1      40.286  28.283  27.975  1.00  0.00     0.040 A 
ATOM     82  F   UNL A   1      40.965  30.195  29.156  1.00  0.00    -0.206 F 
ATOM     83  C   UNL A   1      39.655  27.041  27.947  1.00  0.00     0.006 A 
ENDBRANCH  55  76
BRANCH  67  84
ATOM     84  C   UNL A   1      44.529  28.777  35.365  1.00  0.00     0.057 A 
ATOM     85  C   UNL A   1      45.744  29.313  34.922  1.00  0.00     0.134 A 
ATOM     86  C   UNL A   1      44.571  27.554  36.047  1.00  0.00     0.134 A 
ATOM     87  F   UNL A   1      45.770  30.475  34.252  1.00  0.00    -0.206 F 
ATOM     88  C   UNL A   1      46.954  28.651  35.136  1.00  0.00     0.040 A 
ATOM     89  C   UNL A   1      45.777  26.893  36.285  1.00  0.00     0.040 A 
ATOM     90  F   UNL A   1      43.443  26.990  36.505  1.00  0.00    -0.206 F 
ATOM     91  C   UNL A   1      46.973  27.440  35.825  1.00  0.00     0.006 A 
ENDBRANCH  67  84
ENDBRANCH  41  42
ENDBRANCH  34  36
ENDBRANCH  33  34
ENDBRANCH  32  33
ENDBRANCH  31  32
ENDBRANCH  30  31
ENDBRANCH  29  30
ENDBRANCH   1  29
TORSDOF 19
ENDMDL
MODEL 3
REMARK VINA RESULT:     -10.8      3.155      8.836
REMARK SMILES CC1=C[C@H](C)[C@H](CN2C[C@@]34C=C[C@@H](O3)[C@H](C(=O)OCCOCCOCCOC(=O)c3ccc(-c5c6nc(c(-c7c(F)cccc7F)c7ccc([nH]7)c(-c7c(F)cccc7F)c7nc(c(-c8c(F)cccc8F)c8ccc5[nH]8)C=C7)C=C6)cc3)[C@@H]4C2=O)[C@H](C)C1
REMARK SMILES IDX 22 1 21 2 20 3 19 4 18 5 16 6 17 7 15 8 8 9 9 10 85 11 10 12
REMARK SMILES IDX 84 13 86 14 11 15 14 16 12 17 13 18 7 19 6 20 1 21 2 22 3 23
REMARK SMILES IDX 89 24 4 25 87 26 5 27 88 28 23 29 24 30 25 31 26 32 27 33
REMARK SMILES IDX 28 34 29 35 30 36 31 37 83 38 32 39 82 40 33 41 34 42 35 43
REMARK SMILES IDX 76 44 36 45 81 46 75 47 77 48 37 49 80 50 74 51 73 52 38 54
REMARK SMILES IDX 64 55 47 56 63 57 48 58 51 59 62 60 78 61 49 62 50 63 61 65
REMARK SMILES IDX 79 66 52 67 39 68 40 69 45 70 41 71 42 72 44 73 46 74 43 75
REMARK SMILES IDX 65 76 66 77 71 78 67 79 68 80 70 81 72 82 69 83 53 84 54 85
REMARK SMILES IDX 59 86 55 87 56 88 58 89 60 90 57 91
REMARK H PARENT 77 53 51 64
REMARK Flexibility Score: inf
ROOT
ATOM      1  C   UNL A   1      40.211  22.507  27.206  1.00  0.00     0.188 C 
ENDROOT
BRANCH   1   2
ATOM      2  O   UNL A   1      39.143  23.310  26.722  1.00  0.00    -0.376 OA
BRANCH   2   3
ATOM      3  C   UNL A   1      38.136  22.648  25.940  1.00  0.00     0.202 C 
BRANCH   3   4
ATOM      4  C   UNL A   1      37.133  23.558  25.208  1.00  0.00     0.261 C 
BRANCH   4   5
ATOM      5  O   UNL A   1      35.936  22.810  24.913  1.00  0.00    -0.463 OA
BRANCH   5   6
ATOM      6  C   UNL A   1      35.378  23.029  23.683  1.00  0.00     0.312 C 
ATOM      7  O   UNL A   1      36.004  23.297  22.674  1.00  0.00    -0.252 OA
BRANCH   6   8
ATOM      8  C   UNL A   1      33.935  22.627  23.770  1.00  0.00     0.148 C 
ATOM      9  N   UNL A   1      31.724  24.229  26.356  1.00  0.00    -0.339 N 
ATOM     10  C   UNL A   1      31.090  22.928  26.027  1.00  0.00     0.160 C 
ATOM     11  C   UNL A   1      33.067  24.263  25.841  1.00  0.00     0.230 C 
ATOM     12  C   UNL A   1      32.233  22.164  25.367  1.00  0.00     0.117 C 
ATOM     13  C   UNL A   1      32.977  23.318  24.698  1.00  0.00     0.133 C 
ATOM     14  O   UNL A   1      33.916  25.104  26.060  1.00  0.00    -0.274 OA
ATOM     15  C   UNL A   1      33.148  21.298  26.191  1.00  0.00     0.009 C 
ATOM     16  O   UNL A   1      32.085  21.328  24.204  1.00  0.00    -0.360 OA
ATOM     17  C   UNL A   1      33.957  20.681  25.319  1.00  0.00     0.004 C 
ATOM     18  C   UNL A   1      33.551  21.163  23.964  1.00  0.00     0.157 C 
BRANCH   9  19
ATOM     19  C   UNL A   1      31.010  25.482  26.194  1.00  0.00     0.124 C 
BRANCH  19  20
ATOM     20  C   UNL A   1      31.166  26.359  24.937  1.00  0.00     0.018 C 
ATOM     21  C   UNL A   1      30.564  29.647  22.012  1.00  0.00     0.039 C 
ATOM     22  C   UNL A   1      30.634  28.541  23.021  1.00  0.00    -0.077 C 
ATOM     23  C   UNL A   1      30.271  27.281  22.742  1.00  0.00    -0.025 C 
ATOM     24  C   UNL A   1      31.007  28.935  24.415  1.00  0.00     0.034 C 
ATOM     25  C   UNL A   1      30.104  26.231  23.814  1.00  0.00     0.014 C 
ATOM     26  C   UNL A   1      31.683  27.824  25.234  1.00  0.00    -0.005 C 
ATOM     27  C   UNL A   1      28.641  26.266  24.263  1.00  0.00     0.012 C 
ATOM     28  C   UNL A   1      31.722  28.287  26.700  1.00  0.00     0.008 C 
ENDBRANCH  19  20
ENDBRANCH   9  19
ENDBRANCH   6   8
ENDBRANCH   5   6
ENDBRANCH   4   5
ENDBRANCH   3   4
ENDBRANCH   2   3
ENDBRANCH   1   2
BRANCH   1  29
ATOM     29  C   UNL A   1      41.024  21.743  26.151  1.00  0.00     0.188 C 
BRANCH  29  30
ATOM     30  O   UNL A   1      40.838  20.337  26.158  1.00  0.00    -0.376 OA
BRANCH  30  31
ATOM     31  C   UNL A   1      41.815  19.612  26.918  1.00  0.00     0.202 C 
BRANCH  31  32
ATOM     32  C   UNL A   1      42.722  18.713  26.050  1.00  0.00     0.261 C 
BRANCH  32  33
ATOM     33  O   UNL A   1      43.068  19.268  24.762  1.00  0.00    -0.460 OA
BRANCH  33  34
ATOM     34  C   UNL A   1      44.387  19.507  24.538  1.00  0.00     0.338 C 
ATOM     35  O   UNL A   1      45.171  18.778  23.973  1.00  0.00    -0.246 OA
BRANCH  34  36
ATOM     36  C   UNL A   1      44.655  20.937  24.852  1.00  0.00     0.060 A 
ATOM     37  C   UNL A   1      45.149  21.254  26.126  1.00  0.00     0.016 A 
ATOM     38  C   UNL A   1      44.484  21.943  23.898  1.00  0.00     0.016 A 
ATOM     39  C   UNL A   1      45.438  22.582  26.461  1.00  0.00     0.010 A 
ATOM     40  C   UNL A   1      44.756  23.272  24.239  1.00  0.00     0.010 A 
ATOM     41  C   UNL A   1      45.211  23.604  25.528  1.00  0.00    -0.014 A 
BRANCH  41  42
ATOM     42  C   UNL A   1      45.280  25.031  25.931  1.00  0.00     0.031 A 
ATOM     43  C   UNL A   1      46.614  25.723  25.892  1.00  0.00     0.074 A 
ATOM     44  C   UNL A   1      44.195  25.702  26.359  1.00  0.00     0.049 A 
ATOM     45  N   UNL A   1      46.944  26.919  26.309  1.00  0.00    -0.248 NA
ATOM     46  C   UNL A   1      47.727  24.958  25.309  1.00  0.00     0.031 C 
ATOM     47  C   UNL A   1      42.835  25.172  26.415  1.00  0.00     0.029 A 
ATOM     48  N   UNL A   1      44.080  26.980  26.853  1.00  0.00    -0.354 N 
ATOM     49  C   UNL A   1      48.301  27.048  26.045  1.00  0.00     0.074 A 
ATOM     50  C   UNL A   1      48.738  25.803  25.449  1.00  0.00     0.031 C 
ATOM     51  C   UNL A   1      42.025  26.109  26.941  1.00  0.00     0.029 A 
ATOM     52  C   UNL A   1      42.815  27.290  27.289  1.00  0.00     0.049 A 
ATOM     53  H   UNL A   1      44.833  27.613  26.891  1.00  0.00     0.167 HD
ATOM     54  C   UNL A   1      49.114  28.106  26.276  1.00  0.00     0.037 A 
ATOM     55  C   UNL A   1      42.357  28.386  27.928  1.00  0.00     0.037 A 
ATOM     56  C   UNL A   1      48.694  29.344  26.875  1.00  0.00     0.049 A 
ATOM     57  C   UNL A   1      43.300  29.516  28.256  1.00  0.00     0.074 A 
ATOM     58  C   UNL A   1      49.447  30.478  27.125  1.00  0.00     0.029 A 
ATOM     59  N   UNL A   1      47.413  29.605  27.330  1.00  0.00    -0.354 N 
ATOM     60  N   UNL A   1      44.576  29.637  27.981  1.00  0.00    -0.248 NA
ATOM     61  C   UNL A   1      42.737  30.657  28.994  1.00  0.00     0.031 C 
ATOM     62  C   UNL A   1      48.630  31.412  27.771  1.00  0.00     0.029 A 
ATOM     63  C   UNL A   1      47.359  30.872  27.886  1.00  0.00     0.049 A 
ATOM     64  H   UNL A   1      46.653  28.981  27.269  1.00  0.00     0.167 HD
ATOM     65  C   UNL A   1      44.960  30.872  28.490  1.00  0.00     0.074 A 
ATOM     66  C   UNL A   1      43.782  31.468  29.082  1.00  0.00     0.031 C 
ATOM     67  C   UNL A   1      46.182  31.460  28.469  1.00  0.00     0.037 A 
BRANCH  54  68
ATOM     68  C   UNL A   1      50.555  27.957  25.896  1.00  0.00     0.057 A 
ATOM     69  C   UNL A   1      51.541  27.671  26.848  1.00  0.00     0.134 A 
ATOM     70  C   UNL A   1      50.954  28.070  24.558  1.00  0.00     0.134 A 
ATOM     71  F   UNL A   1      51.222  27.568  28.147  1.00  0.00    -0.206 F 
ATOM     72  C   UNL A   1      52.879  27.516  26.484  1.00  0.00     0.040 A 
ATOM     73  C   UNL A   1      52.286  27.897  24.180  1.00  0.00     0.040 A 
ATOM     74  F   UNL A   1      50.056  28.342  23.600  1.00  0.00    -0.206 F 
ATOM     75  C   UNL A   1      53.253  27.623  25.145  1.00  0.00     0.006 A 
ENDBRANCH  54  68
BRANCH  55  76
ATOM     76  C   UNL A   1      40.933  28.468  28.341  1.00  0.00     0.057 A 
ATOM     77  C   UNL A   1      39.953  28.953  27.469  1.00  0.00     0.134 A 
ATOM     78  C   UNL A   1      40.530  28.110  29.633  1.00  0.00     0.134 A 
ATOM     79  F   UNL A   1      40.286  29.343  26.230  1.00  0.00    -0.206 F 
ATOM     80  C   UNL A   1      38.624  29.095  27.870  1.00  0.00     0.040 A 
ATOM     81  C   UNL A   1      39.200  28.225  30.041  1.00  0.00     0.040 A 
ATOM     82  F   UNL A   1      41.424  27.646  30.518  1.00  0.00    -0.206 F 
ATOM     83  C   UNL A   1      38.244  28.726  29.160  1.00  0.00     0.006 A 
ENDBRANCH  55  76
BRANCH  67  84
ATOM     84  C   UNL A   1      46.305  32.826  29.078  1.00  0.00     0.057 A 
ATOM     85  C   UNL A   1      46.677  33.006  30.416  1.00  0.00     0.134 A 
ATOM     86  C   UNL A   1      46.095  33.974  28.304  1.00  0.00     0.134 A 
ATOM     87  F   UNL A   1      46.882  31.947  31.213  1.00  0.00    -0.206 F 
ATOM     88  C   UNL A   1      46.821  34.281  30.967  1.00  0.00     0.040 A 
ATOM     89  C   UNL A   1      46.256  35.253  28.838  1.00  0.00     0.040 A 
ATOM     90  F   UNL A   1      45.745  33.871  27.013  1.00  0.00    -0.206 F 
ATOM     91  C   UNL A   1      46.616  35.409  30.175  1.00  0.00     0.006 A 
ENDBRANCH  67  84
ENDBRANCH  41  42
ENDBRANCH  34  36
ENDBRANCH  33  34
ENDBRANCH  32  33
ENDBRANCH  31  32
ENDBRANCH  30  31
ENDBRANCH  29  30
ENDBRANCH   1  29
TORSDOF 19
ENDMDL
