MODEL 1
REMARK VINA RESULT:     -11.3      0.000      0.000
REMARK SMILES NS(=O)(=O)c1ccc(-n2nc(C(=O)NCCCC(=O)OCCOCCOCCOC(=O)c3ccc(-c4c5nc(c(-c6c(F)cccc6F)c6ccc([nH]6)c(-c6c(F)cccc6F)c6nc(c(-c7c(F)cccc7F)c7ccc4[nH]7)C=C6)C=C5)cc3)cc2-c2ccccc2)cc1
REMARK SMILES IDX 22 1 21 2 20 3 18 4 19 5 17 6 16 7 15 8 14 9 12 10 13 11
REMARK SMILES IDX 11 13 9 14 10 15 87 16 86 17 8 18 5 19 6 20 95 21 7 22 94 23
REMARK SMILES IDX 2 24 3 25 4 26 1 27 88 30 89 31 93 32 90 33 92 34 91 35
REMARK SMILES IDX 23 36 24 37 25 38 26 39 27 40 28 41 29 42 30 43 31 44 32 45
REMARK SMILES IDX 33 46 85 47 34 48 84 49 35 50 36 51 37 52 78 53 38 54 83 55
REMARK SMILES IDX 77 56 79 57 39 58 82 59 76 60 75 61 40 63 66 64 49 65 65 66
REMARK SMILES IDX 50 67 53 68 64 69 80 70 51 71 52 72 63 74 81 75 54 76 41 77
REMARK SMILES IDX 42 78 47 79 43 80 44 81 46 82 48 83 45 84 67 85 68 86 73 87
REMARK SMILES IDX 69 88 70 89 72 90 74 91 71 92 55 93 56 94 61 95 57 96 58 97
REMARK SMILES IDX 60 98 62 99 59 100
REMARK H PARENT 14 12 1 28 1 29 79 62 53 73
REMARK Flexibility Score: inf
ROOT
ATOM      1  C   UNL A   1      32.506  30.913  27.128  1.00  0.00     0.202 C 
ENDROOT
BRANCH   1   2
ATOM      2  C   UNL A   1      33.409  29.678  26.972  1.00  0.00     0.261 C 
BRANCH   2   3
ATOM      3  O   UNL A   1      33.120  28.883  25.806  1.00  0.00    -0.463 OA
BRANCH   3   4
ATOM      4  C   UNL A   1      32.793  27.587  26.014  1.00  0.00     0.305 C 
ATOM      5  O   UNL A   1      33.567  26.736  26.439  1.00  0.00    -0.252 OA
BRANCH   4   6
ATOM      6  C   UNL A   1      31.339  27.253  25.738  1.00  0.00     0.124 C 
BRANCH   6   7
ATOM      7  C   UNL A   1      30.768  27.281  24.324  1.00  0.00     0.033 C 
BRANCH   7   8
ATOM      8  C   UNL A   1      31.606  27.913  23.221  1.00  0.00     0.117 C 
BRANCH   8   9
ATOM      9  N   UNL A   1      31.389  27.301  21.930  1.00  0.00    -0.351 N 
ATOM     10  C   UNL A   1      31.877  26.143  21.368  1.00  0.00     0.271 C 
ATOM     11  O   UNL A   1      31.576  25.959  20.185  1.00  0.00    -0.267 OA
ATOM     12  H   UNL A   1      30.780  27.806  21.345  1.00  0.00     0.163 HD
BRANCH  10  13
ATOM     13  C   UNL A   1      32.691  25.169  22.132  1.00  0.00     0.151 A 
ATOM     14  N   UNL A   1      33.181  23.267  22.995  1.00  0.00    -0.232 N 
ATOM     15  N   UNL A   1      32.414  23.850  22.050  1.00  0.00    -0.162 NA
ATOM     16  C   UNL A   1      34.171  24.118  23.459  1.00  0.00     0.075 A 
ATOM     17  C   UNL A   1      33.775  25.369  23.032  1.00  0.00     0.065 A 
BRANCH  14  18
ATOM     18  C   UNL A   1      32.955  21.929  23.400  1.00  0.00     0.065 A 
ATOM     19  C   UNL A   1      32.831  19.233  24.040  1.00  0.00     0.082 A 
ATOM     20  C   UNL A   1      33.425  20.123  24.938  1.00  0.00     0.024 A 
ATOM     21  C   UNL A   1      32.254  19.690  22.849  1.00  0.00     0.024 A 
ATOM     22  C   UNL A   1      33.492  21.474  24.616  1.00  0.00     0.030 A 
ATOM     23  C   UNL A   1      32.287  21.052  22.540  1.00  0.00     0.030 A 
BRANCH  19  24
ATOM     24  S   UNL A   1      32.880  17.516  24.451  1.00  0.00     0.238 S 
ATOM     25  O   UNL A   1      33.048  16.762  23.231  1.00  0.00    -0.207 OA
ATOM     26  O   UNL A   1      31.824  17.247  25.399  1.00  0.00    -0.207 OA
BRANCH  24  27
ATOM     27  N   UNL A   1      34.308  17.321  25.312  1.00  0.00    -0.225 NA
ATOM     28  H   UNL A   1      34.249  17.834  26.192  1.00  0.00     0.137 HD
ATOM     29  H   UNL A   1      35.089  17.679  24.762  1.00  0.00     0.137 HD
ENDBRANCH  24  27
ENDBRANCH  19  24
ENDBRANCH  14  18
BRANCH  16  30
ATOM     30  C   UNL A   1      35.366  23.710  24.203  1.00  0.00     0.000 A 
ATOM     31  C   UNL A   1      35.598  24.182  25.507  1.00  0.00     0.010 A 
ATOM     32  C   UNL A   1      36.294  22.834  23.630  1.00  0.00     0.010 A 
ATOM     33  C   UNL A   1      36.755  23.825  26.201  1.00  0.00     0.001 A 
ATOM     34  C   UNL A   1      37.445  22.468  24.331  1.00  0.00     0.001 A 
ATOM     35  C   UNL A   1      37.680  22.969  25.610  1.00  0.00     0.000 A 
ENDBRANCH  16  30
ENDBRANCH  10  13
ENDBRANCH   8   9
ENDBRANCH   7   8
ENDBRANCH   6   7
ENDBRANCH   4   6
ENDBRANCH   3   4
ENDBRANCH   2   3
ENDBRANCH   1   2
BRANCH   1  36
ATOM     36  O   UNL A   1      33.122  32.164  27.410  1.00  0.00    -0.376 OA
BRANCH  36  37
ATOM     37  C   UNL A   1      34.318  32.152  28.180  1.00  0.00     0.188 C 
BRANCH  37  38
ATOM     38  C   UNL A   1      34.398  33.118  29.369  1.00  0.00     0.188 C 
BRANCH  38  39
ATOM     39  O   UNL A   1      34.463  34.494  29.058  1.00  0.00    -0.376 OA
BRANCH  39  40
ATOM     40  C   UNL A   1      33.363  35.400  29.128  1.00  0.00     0.202 C 
BRANCH  40  41
ATOM     41  C   UNL A   1      32.859  36.178  30.352  1.00  0.00     0.261 C 
BRANCH  41  42
ATOM     42  O   UNL A   1      33.605  36.089  31.538  1.00  0.00    -0.460 OA
BRANCH  42  43
ATOM     43  C   UNL A   1      33.225  35.104  32.386  1.00  0.00     0.338 C 
ATOM     44  O   UNL A   1      32.102  34.804  32.711  1.00  0.00    -0.246 OA
BRANCH  43  45
ATOM     45  C   UNL A   1      34.464  34.444  32.835  1.00  0.00     0.060 A 
ATOM     46  C   UNL A   1      35.617  35.222  32.899  1.00  0.00     0.016 A 
ATOM     47  C   UNL A   1      34.496  33.047  32.985  1.00  0.00     0.016 A 
ATOM     48  C   UNL A   1      36.830  34.577  32.838  1.00  0.00     0.010 A 
ATOM     49  C   UNL A   1      35.701  32.405  32.903  1.00  0.00     0.010 A 
ATOM     50  C   UNL A   1      36.837  33.182  32.718  1.00  0.00    -0.014 A 
BRANCH  50  51
ATOM     51  C   UNL A   1      38.090  32.521  32.449  1.00  0.00     0.031 A 
ATOM     52  C   UNL A   1      38.925  32.415  33.657  1.00  0.00     0.074 A 
ATOM     53  C   UNL A   1      38.368  32.001  31.238  1.00  0.00     0.049 A 
ATOM     54  N   UNL A   1      40.006  33.070  33.908  1.00  0.00    -0.248 NA
ATOM     55  C   UNL A   1      38.390  31.665  34.807  1.00  0.00     0.031 C 
ATOM     56  C   UNL A   1      37.466  31.872  30.087  1.00  0.00     0.029 A 
ATOM     57  N   UNL A   1      39.501  31.387  30.801  1.00  0.00    -0.354 N 
ATOM     58  C   UNL A   1      40.433  32.591  35.139  1.00  0.00     0.074 A 
ATOM     59  C   UNL A   1      39.303  31.936  35.741  1.00  0.00     0.031 C 
ATOM     60  C   UNL A   1      38.010  31.025  29.184  1.00  0.00     0.029 A 
ATOM     61  C   UNL A   1      39.342  30.654  29.627  1.00  0.00     0.049 A 
ATOM     62  H   UNL A   1      40.361  31.454  31.276  1.00  0.00     0.167 HD
ATOM     63  C   UNL A   1      41.763  32.453  35.378  1.00  0.00     0.037 A 
ATOM     64  C   UNL A   1      40.227  29.763  29.112  1.00  0.00     0.037 A 
ATOM     65  C   UNL A   1      42.539  33.275  34.480  1.00  0.00     0.049 A 
ATOM     66  C   UNL A   1      41.549  30.052  29.720  1.00  0.00     0.074 A 
ATOM     67  C   UNL A   1      42.589  34.623  34.182  1.00  0.00     0.029 A 
ATOM     68  N   UNL A   1      43.162  32.635  33.438  1.00  0.00    -0.354 N 
ATOM     69  N   UNL A   1      42.246  31.122  29.465  1.00  0.00    -0.248 NA
ATOM     70  C   UNL A   1      41.890  29.369  30.958  1.00  0.00     0.031 C 
ATOM     71  C   UNL A   1      42.848  34.691  32.780  1.00  0.00     0.029 A 
ATOM     72  C   UNL A   1      43.016  33.390  32.304  1.00  0.00     0.049 A 
ATOM     73  H   UNL A   1      43.637  31.775  33.495  1.00  0.00     0.167 HD
ATOM     74  C   UNL A   1      42.758  31.507  30.695  1.00  0.00     0.074 A 
ATOM     75  C   UNL A   1      42.603  30.331  31.550  1.00  0.00     0.031 C 
ATOM     76  C   UNL A   1      42.972  32.827  30.973  1.00  0.00     0.037 A 
BRANCH  63  77
ATOM     77  C   UNL A   1      42.338  31.237  36.066  1.00  0.00     0.057 A 
ATOM     78  C   UNL A   1      43.351  31.418  37.021  1.00  0.00     0.134 A 
ATOM     79  C   UNL A   1      42.165  29.907  35.622  1.00  0.00     0.134 A 
ATOM     80  F   UNL A   1      43.636  32.641  37.493  1.00  0.00    -0.206 F 
ATOM     81  C   UNL A   1      44.170  30.368  37.451  1.00  0.00     0.040 A 
ATOM     82  C   UNL A   1      42.938  28.843  36.088  1.00  0.00     0.040 A 
ATOM     83  F   UNL A   1      41.321  29.571  34.641  1.00  0.00    -0.206 F 
ATOM     84  C   UNL A   1      43.967  29.076  36.982  1.00  0.00     0.006 A 
ENDBRANCH  63  77
BRANCH  64  85
ATOM     85  C   UNL A   1      39.968  28.487  28.400  1.00  0.00     0.057 A 
ATOM     86  C   UNL A   1      40.563  28.222  27.155  1.00  0.00     0.134 A 
ATOM     87  C   UNL A   1      39.385  27.383  29.046  1.00  0.00     0.134 A 
ATOM     88  F   UNL A   1      41.180  29.199  26.474  1.00  0.00    -0.206 F 
ATOM     89  C   UNL A   1      40.614  26.932  26.608  1.00  0.00     0.040 A 
ATOM     90  C   UNL A   1      39.421  26.092  28.506  1.00  0.00     0.040 A 
ATOM     91  F   UNL A   1      38.845  27.498  30.267  1.00  0.00    -0.206 F 
ATOM     92  C   UNL A   1      40.053  25.859  27.292  1.00  0.00     0.006 A 
ENDBRANCH  64  85
BRANCH  76  93
ATOM     93  C   UNL A   1      42.963  33.789  29.812  1.00  0.00     0.057 A 
ATOM     94  C   UNL A   1      41.848  34.534  29.394  1.00  0.00     0.134 A 
ATOM     95  C   UNL A   1      44.167  34.029  29.141  1.00  0.00     0.134 A 
ATOM     96  F   UNL A   1      40.676  34.456  30.038  1.00  0.00    -0.206 F 
ATOM     97  C   UNL A   1      41.918  35.424  28.315  1.00  0.00     0.040 A 
ATOM     98  C   UNL A   1      44.259  34.942  28.089  1.00  0.00     0.040 A 
ATOM     99  F   UNL A   1      45.289  33.397  29.519  1.00  0.00    -0.206 F 
ATOM    100  C   UNL A   1      43.127  35.630  27.660  1.00  0.00     0.006 A 
ENDBRANCH  76  93
ENDBRANCH  50  51
ENDBRANCH  43  45
ENDBRANCH  42  43
ENDBRANCH  41  42
ENDBRANCH  40  41
ENDBRANCH  39  40
ENDBRANCH  38  39
ENDBRANCH  37  38
ENDBRANCH  36  37
ENDBRANCH   1  36
TORSDOF 25
ENDMDL
MODEL 2
REMARK VINA RESULT:      -9.6      1.547      5.422
REMARK SMILES NS(=O)(=O)c1ccc(-n2nc(C(=O)NCCCC(=O)OCCOCCOCCOC(=O)c3ccc(-c4c5nc(c(-c6c(F)cccc6F)c6ccc([nH]6)c(-c6c(F)cccc6F)c6nc(c(-c7c(F)cccc7F)c7ccc4[nH]7)C=C6)C=C5)cc3)cc2-c2ccccc2)cc1
REMARK SMILES IDX 22 1 21 2 20 3 18 4 19 5 17 6 16 7 15 8 14 9 12 10 13 11
REMARK SMILES IDX 11 13 9 14 10 15 87 16 86 17 8 18 5 19 6 20 95 21 7 22 94 23
REMARK SMILES IDX 2 24 3 25 4 26 1 27 88 30 89 31 93 32 90 33 92 34 91 35
REMARK SMILES IDX 23 36 24 37 25 38 26 39 27 40 28 41 29 42 30 43 31 44 32 45
REMARK SMILES IDX 33 46 85 47 34 48 84 49 35 50 36 51 37 52 78 53 38 54 83 55
REMARK SMILES IDX 77 56 79 57 39 58 82 59 76 60 75 61 40 63 66 64 49 65 65 66
REMARK SMILES IDX 50 67 53 68 64 69 80 70 51 71 52 72 63 74 81 75 54 76 41 77
REMARK SMILES IDX 42 78 47 79 43 80 44 81 46 82 48 83 45 84 67 85 68 86 73 87
REMARK SMILES IDX 69 88 70 89 72 90 74 91 71 92 55 93 56 94 61 95 57 96 58 97
REMARK SMILES IDX 60 98 62 99 59 100
REMARK H PARENT 14 12 1 28 1 29 79 62 53 73
REMARK Flexibility Score: inf
ROOT
ATOM      1  C   UNL A   1      32.577  30.948  27.249  1.00  0.00     0.202 C 
ENDROOT
BRANCH   1   2
ATOM      2  C   UNL A   1      33.449  29.725  26.917  1.00  0.00     0.261 C 
BRANCH   2   3
ATOM      3  O   UNL A   1      32.977  28.954  25.796  1.00  0.00    -0.463 OA
BRANCH   3   4
ATOM      4  C   UNL A   1      32.732  27.641  26.014  1.00  0.00     0.305 C 
ATOM      5  O   UNL A   1      33.562  26.842  26.436  1.00  0.00    -0.252 OA
BRANCH   4   6
ATOM      6  C   UNL A   1      31.298  27.217  25.757  1.00  0.00     0.124 C 
BRANCH   6   7
ATOM      7  C   UNL A   1      30.754  27.063  24.341  1.00  0.00     0.033 C 
BRANCH   7   8
ATOM      8  C   UNL A   1      31.380  27.899  23.233  1.00  0.00     0.117 C 
BRANCH   8   9
ATOM      9  N   UNL A   1      31.226  27.304  21.925  1.00  0.00    -0.351 N 
ATOM     10  C   UNL A   1      31.778  26.178  21.356  1.00  0.00     0.271 C 
ATOM     11  O   UNL A   1      31.520  26.006  20.162  1.00  0.00    -0.267 OA
ATOM     12  H   UNL A   1      30.614  27.795  21.331  1.00  0.00     0.163 HD
BRANCH  10  13
ATOM     13  C   UNL A   1      32.610  25.224  22.126  1.00  0.00     0.151 A 
ATOM     14  N   UNL A   1      33.126  23.342  23.016  1.00  0.00    -0.232 N 
ATOM     15  N   UNL A   1      32.342  23.902  22.071  1.00  0.00    -0.162 NA
ATOM     16  C   UNL A   1      34.115  24.208  23.451  1.00  0.00     0.075 A 
ATOM     17  C   UNL A   1      33.704  25.447  23.007  1.00  0.00     0.065 A 
BRANCH  14  18
ATOM     18  C   UNL A   1      32.915  22.009  23.448  1.00  0.00     0.065 A 
ATOM     19  C   UNL A   1      32.830  19.330  24.160  1.00  0.00     0.082 A 
ATOM     20  C   UNL A   1      33.353  20.261  25.060  1.00  0.00     0.024 A 
ATOM     21  C   UNL A   1      32.303  19.737  22.928  1.00  0.00     0.024 A 
ATOM     22  C   UNL A   1      33.401  21.604  24.702  1.00  0.00     0.030 A 
ATOM     23  C   UNL A   1      32.315  21.090  22.582  1.00  0.00     0.030 A 
BRANCH  19  24
ATOM     24  S   UNL A   1      32.904  17.627  24.622  1.00  0.00     0.238 S 
ATOM     25  O   UNL A   1      31.763  17.333  25.456  1.00  0.00    -0.207 OA
ATOM     26  O   UNL A   1      34.261  17.322  25.014  1.00  0.00    -0.207 OA
BRANCH  24  27
ATOM     27  N   UNL A   1      32.657  16.783  23.191  1.00  0.00    -0.225 NA
ATOM     28  H   UNL A   1      33.117  15.873  23.249  1.00  0.00     0.137 HD
ATOM     29  H   UNL A   1      33.047  17.312  22.412  1.00  0.00     0.137 HD
ENDBRANCH  24  27
ENDBRANCH  19  24
ENDBRANCH  14  18
BRANCH  16  30
ATOM     30  C   UNL A   1      35.324  23.822  24.185  1.00  0.00     0.000 A 
ATOM     31  C   UNL A   1      35.523  24.240  25.513  1.00  0.00     0.010 A 
ATOM     32  C   UNL A   1      36.297  23.021  23.580  1.00  0.00     0.010 A 
ATOM     33  C   UNL A   1      36.691  23.905  26.200  1.00  0.00     0.001 A 
ATOM     34  C   UNL A   1      37.459  22.676  24.273  1.00  0.00     0.001 A 
ATOM     35  C   UNL A   1      37.660  23.125  25.577  1.00  0.00     0.000 A 
ENDBRANCH  16  30
ENDBRANCH  10  13
ENDBRANCH   8   9
ENDBRANCH   7   8
ENDBRANCH   6   7
ENDBRANCH   4   6
ENDBRANCH   3   4
ENDBRANCH   2   3
ENDBRANCH   1   2
BRANCH   1  36
ATOM     36  O   UNL A   1      33.229  32.169  27.578  1.00  0.00    -0.376 OA
BRANCH  36  37
ATOM     37  C   UNL A   1      34.549  32.091  28.104  1.00  0.00     0.188 C 
BRANCH  37  38
ATOM     38  C   UNL A   1      34.856  32.923  29.355  1.00  0.00     0.188 C 
BRANCH  38  39
ATOM     39  O   UNL A   1      34.751  34.326  29.218  1.00  0.00    -0.376 OA
BRANCH  39  40
ATOM     40  C   UNL A   1      33.589  35.091  29.531  1.00  0.00     0.202 C 
BRANCH  40  41
ATOM     41  C   UNL A   1      33.111  35.559  30.913  1.00  0.00     0.261 C 
BRANCH  41  42
ATOM     42  O   UNL A   1      34.026  35.503  31.976  1.00  0.00    -0.460 OA
BRANCH  42  43
ATOM     43  C   UNL A   1      33.967  34.379  32.730  1.00  0.00     0.338 C 
ATOM     44  O   UNL A   1      32.982  33.775  33.074  1.00  0.00    -0.246 OA
BRANCH  43  45
ATOM     45  C   UNL A   1      35.361  34.018  33.043  1.00  0.00     0.060 A 
ATOM     46  C   UNL A   1      36.348  34.957  32.751  1.00  0.00     0.016 A 
ATOM     47  C   UNL A   1      35.673  32.702  33.425  1.00  0.00     0.016 A 
ATOM     48  C   UNL A   1      37.633  34.501  32.574  1.00  0.00     0.010 A 
ATOM     49  C   UNL A   1      36.946  32.245  33.228  1.00  0.00     0.010 A 
ATOM     50  C   UNL A   1      37.876  33.129  32.699  1.00  0.00    -0.014 A 
BRANCH  50  51
ATOM     51  C   UNL A   1      39.172  32.622  32.316  1.00  0.00     0.031 A 
ATOM     52  C   UNL A   1      39.065  31.377  31.538  1.00  0.00     0.074 A 
ATOM     53  C   UNL A   1      40.304  33.302  32.586  1.00  0.00     0.049 A 
ATOM     54  N   UNL A   1      39.379  30.191  31.933  1.00  0.00    -0.248 NA
ATOM     55  C   UNL A   1      38.330  31.416  30.262  1.00  0.00     0.031 C 
ATOM     56  C   UNL A   1      40.428  34.656  33.138  1.00  0.00     0.029 A 
ATOM     57  N   UNL A   1      41.597  32.959  32.338  1.00  0.00    -0.354 N 
ATOM     58  C   UNL A   1      39.137  29.376  30.836  1.00  0.00     0.074 A 
ATOM     59  C   UNL A   1      38.282  30.120  29.951  1.00  0.00     0.031 C 
ATOM     60  C   UNL A   1      41.695  35.096  32.965  1.00  0.00     0.029 A 
ATOM     61  C   UNL A   1      42.497  34.019  32.411  1.00  0.00     0.049 A 
ATOM     62  H   UNL A   1      41.873  32.039  32.123  1.00  0.00     0.167 HD
ATOM     63  C   UNL A   1      39.961  28.325  30.590  1.00  0.00     0.037 A 
ATOM     64  C   UNL A   1      43.784  34.009  31.980  1.00  0.00     0.037 A 
ATOM     65  C   UNL A   1      40.682  27.941  31.781  1.00  0.00     0.049 A 
ATOM     66  C   UNL A   1      44.203  32.590  31.872  1.00  0.00     0.074 A 
ATOM     67  C   UNL A   1      40.326  27.545  33.056  1.00  0.00     0.029 A 
ATOM     68  N   UNL A   1      41.999  28.319  31.858  1.00  0.00    -0.354 N 
ATOM     69  N   UNL A   1      44.380  31.807  32.897  1.00  0.00    -0.248 NA
ATOM     70  C   UNL A   1      43.984  31.914  30.603  1.00  0.00     0.031 C 
ATOM     71  C   UNL A   1      41.311  28.115  33.918  1.00  0.00     0.029 A 
ATOM     72  C   UNL A   1      42.257  28.767  33.126  1.00  0.00     0.049 A 
ATOM     73  H   UNL A   1      42.651  28.276  31.122  1.00  0.00     0.167 HD
ATOM     74  C   UNL A   1      43.834  30.593  32.507  1.00  0.00     0.074 A 
ATOM     75  C   UNL A   1      43.713  30.686  31.053  1.00  0.00     0.031 C 
ATOM     76  C   UNL A   1      43.259  29.766  33.429  1.00  0.00     0.037 A 
BRANCH  63  77
ATOM     77  C   UNL A   1      40.455  27.994  29.201  1.00  0.00     0.057 A 
ATOM     78  C   UNL A   1      41.075  29.003  28.447  1.00  0.00     0.134 A 
ATOM     79  C   UNL A   1      40.082  26.844  28.470  1.00  0.00     0.134 A 
ATOM     80  F   UNL A   1      41.442  30.159  29.020  1.00  0.00    -0.206 F 
ATOM     81  C   UNL A   1      41.251  28.900  27.062  1.00  0.00     0.040 A 
ATOM     82  C   UNL A   1      40.306  26.708  27.099  1.00  0.00     0.040 A 
ATOM     83  F   UNL A   1      39.388  25.834  29.005  1.00  0.00    -0.206 F 
ATOM     84  C   UNL A   1      40.863  27.752  26.383  1.00  0.00     0.006 A 
ENDBRANCH  63  77
BRANCH  64  85
ATOM     85  C   UNL A   1      44.569  35.096  31.344  1.00  0.00     0.057 A 
ATOM     86  C   UNL A   1      45.811  35.492  31.869  1.00  0.00     0.134 A 
ATOM     87  C   UNL A   1      44.278  35.561  30.050  1.00  0.00     0.134 A 
ATOM     88  F   UNL A   1      46.201  35.072  33.082  1.00  0.00    -0.206 F 
ATOM     89  C   UNL A   1      46.722  36.265  31.137  1.00  0.00     0.040 A 
ATOM     90  C   UNL A   1      45.175  36.341  29.312  1.00  0.00     0.040 A 
ATOM     91  F   UNL A   1      43.153  35.197  29.418  1.00  0.00    -0.206 F 
ATOM     92  C   UNL A   1      46.410  36.681  29.847  1.00  0.00     0.006 A 
ENDBRANCH  64  85
BRANCH  76  93
ATOM     93  C   UNL A   1      43.540  30.048  34.883  1.00  0.00     0.057 A 
ATOM     94  C   UNL A   1      44.670  29.597  35.586  1.00  0.00     0.134 A 
ATOM     95  C   UNL A   1      42.661  30.886  35.578  1.00  0.00     0.134 A 
ATOM     96  F   UNL A   1      45.625  28.877  34.983  1.00  0.00    -0.206 F 
ATOM     97  C   UNL A   1      44.874  29.913  36.934  1.00  0.00     0.040 A 
ATOM     98  C   UNL A   1      42.874  31.240  36.911  1.00  0.00     0.040 A 
ATOM     99  F   UNL A   1      41.588  31.402  34.958  1.00  0.00    -0.206 F 
ATOM    100  C   UNL A   1      43.974  30.738  37.600  1.00  0.00     0.006 A 
ENDBRANCH  76  93
ENDBRANCH  50  51
ENDBRANCH  43  45
ENDBRANCH  42  43
ENDBRANCH  41  42
ENDBRANCH  40  41
ENDBRANCH  39  40
ENDBRANCH  38  39
ENDBRANCH  37  38
ENDBRANCH  36  37
ENDBRANCH   1  36
TORSDOF 25
ENDMDL
MODEL 3
REMARK VINA RESULT:      -9.2      4.819     10.844
REMARK SMILES NS(=O)(=O)c1ccc(-n2nc(C(=O)NCCCC(=O)OCCOCCOCCOC(=O)c3ccc(-c4c5nc(c(-c6c(F)cccc6F)c6ccc([nH]6)c(-c6c(F)cccc6F)c6nc(c(-c7c(F)cccc7F)c7ccc4[nH]7)C=C6)C=C5)cc3)cc2-c2ccccc2)cc1
REMARK SMILES IDX 22 1 21 2 20 3 18 4 19 5 17 6 16 7 15 8 14 9 12 10 13 11
REMARK SMILES IDX 11 13 9 14 10 15 87 16 86 17 8 18 5 19 6 20 95 21 7 22 94 23
REMARK SMILES IDX 2 24 3 25 4 26 1 27 88 30 89 31 93 32 90 33 92 34 91 35
REMARK SMILES IDX 23 36 24 37 25 38 26 39 27 40 28 41 29 42 30 43 31 44 32 45
REMARK SMILES IDX 33 46 85 47 34 48 84 49 35 50 36 51 37 52 78 53 38 54 83 55
REMARK SMILES IDX 77 56 79 57 39 58 82 59 76 60 75 61 40 63 66 64 49 65 65 66
REMARK SMILES IDX 50 67 53 68 64 69 80 70 51 71 52 72 63 74 81 75 54 76 41 77
REMARK SMILES IDX 42 78 47 79 43 80 44 81 46 82 48 83 45 84 67 85 68 86 73 87
REMARK SMILES IDX 69 88 70 89 72 90 74 91 71 92 55 93 56 94 61 95 57 96 58 97
REMARK SMILES IDX 60 98 62 99 59 100
REMARK H PARENT 14 12 1 28 1 29 79 62 53 73
REMARK Flexibility Score: inf
ROOT
ATOM      1  C   UNL A   1      33.038  25.955  23.102  1.00  0.00     0.202 C 
ENDROOT
BRANCH   1   2
ATOM      2  C   UNL A   1      32.637  27.435  23.218  1.00  0.00     0.261 C 
BRANCH   2   3
ATOM      3  O   UNL A   1      31.959  27.766  24.445  1.00  0.00    -0.463 OA
BRANCH   3   4
ATOM      4  C   UNL A   1      31.812  29.081  24.728  1.00  0.00     0.305 C 
ATOM      5  O   UNL A   1      30.786  29.723  24.531  1.00  0.00    -0.252 OA
BRANCH   4   6
ATOM      6  C   UNL A   1      33.020  29.720  25.388  1.00  0.00     0.124 C 
BRANCH   6   7
ATOM      7  C   UNL A   1      33.959  28.916  26.281  1.00  0.00     0.033 C 
BRANCH   7   8
ATOM      8  C   UNL A   1      34.649  29.633  27.433  1.00  0.00     0.117 C 
BRANCH   8   9
ATOM      9  N   UNL A   1      34.780  31.056  27.212  1.00  0.00    -0.351 N 
ATOM     10  C   UNL A   1      35.440  32.039  27.914  1.00  0.00     0.271 C 
ATOM     11  O   UNL A   1      35.261  33.191  27.510  1.00  0.00    -0.267 OA
ATOM     12  H   UNL A   1      34.310  31.381  26.410  1.00  0.00     0.163 HD
BRANCH  10  13
ATOM     13  C   UNL A   1      36.322  31.737  29.066  1.00  0.00     0.151 A 
ATOM     14  N   UNL A   1      37.382  32.142  30.886  1.00  0.00    -0.232 N 
ATOM     15  N   UNL A   1      36.359  32.578  30.122  1.00  0.00    -0.162 NA
ATOM     16  C   UNL A   1      37.794  30.869  30.527  1.00  0.00     0.075 A 
ATOM     17  C   UNL A   1      37.234  30.668  29.282  1.00  0.00     0.065 A 
BRANCH  14  18
ATOM     18  C   UNL A   1      37.907  32.939  31.933  1.00  0.00     0.065 A 
ATOM     19  C   UNL A   1      39.134  34.211  34.070  1.00  0.00     0.082 A 
ATOM     20  C   UNL A   1      39.723  34.277  32.805  1.00  0.00     0.024 A 
ATOM     21  C   UNL A   1      37.911  33.557  34.262  1.00  0.00     0.024 A 
ATOM     22  C   UNL A   1      39.111  33.635  31.734  1.00  0.00     0.030 A 
ATOM     23  C   UNL A   1      37.276  32.943  33.180  1.00  0.00     0.030 A 
BRANCH  19  24
ATOM     24  S   UNL A   1      40.016  34.945  35.412  1.00  0.00     0.238 S 
ATOM     25  O   UNL A   1      39.614  36.328  35.518  1.00  0.00    -0.207 OA
ATOM     26  O   UNL A   1      41.399  34.536  35.324  1.00  0.00    -0.207 OA
BRANCH  24  27
ATOM     27  N   UNL A   1      39.418  34.186  36.786  1.00  0.00    -0.225 NA
ATOM     28  H   UNL A   1      39.278  33.194  36.593  1.00  0.00     0.137 HD
ATOM     29  H   UNL A   1      38.528  34.609  37.048  1.00  0.00     0.137 HD
ENDBRANCH  24  27
ENDBRANCH  19  24
ENDBRANCH  14  18
BRANCH  16  30
ATOM     30  C   UNL A   1      38.614  29.974  31.348  1.00  0.00     0.000 A 
ATOM     31  C   UNL A   1      39.790  30.437  31.962  1.00  0.00     0.010 A 
ATOM     32  C   UNL A   1      38.232  28.642  31.544  1.00  0.00     0.010 A 
ATOM     33  C   UNL A   1      40.592  29.575  32.713  1.00  0.00     0.001 A 
ATOM     34  C   UNL A   1      39.028  27.785  32.307  1.00  0.00     0.001 A 
ATOM     35  C   UNL A   1      40.210  28.248  32.882  1.00  0.00     0.000 A 
ENDBRANCH  16  30
ENDBRANCH  10  13
ENDBRANCH   8   9
ENDBRANCH   7   8
ENDBRANCH   6   7
ENDBRANCH   4   6
ENDBRANCH   3   4
ENDBRANCH   2   3
ENDBRANCH   1   2
BRANCH   1  36
ATOM     36  O   UNL A   1      33.806  25.382  24.153  1.00  0.00    -0.376 OA
BRANCH  36  37
ATOM     37  C   UNL A   1      33.721  23.974  24.341  1.00  0.00     0.188 C 
BRANCH  37  38
ATOM     38  C   UNL A   1      34.152  23.421  25.705  1.00  0.00     0.188 C 
BRANCH  38  39
ATOM     39  O   UNL A   1      34.785  22.158  25.700  1.00  0.00    -0.376 OA
BRANCH  39  40
ATOM     40  C   UNL A   1      35.976  21.845  24.981  1.00  0.00     0.202 C 
BRANCH  40  41
ATOM     41  C   UNL A   1      37.318  22.591  25.008  1.00  0.00     0.261 C 
BRANCH  41  42
ATOM     42  O   UNL A   1      37.932  22.790  26.255  1.00  0.00    -0.460 OA
BRANCH  42  43
ATOM     43  C   UNL A   1      39.252  22.494  26.302  1.00  0.00     0.338 C 
ATOM     44  O   UNL A   1      39.781  21.441  26.045  1.00  0.00    -0.246 OA
BRANCH  43  45
ATOM     45  C   UNL A   1      39.938  23.731  26.720  1.00  0.00     0.060 A 
ATOM     46  C   UNL A   1      41.162  24.018  26.120  1.00  0.00     0.016 A 
ATOM     47  C   UNL A   1      39.457  24.459  27.821  1.00  0.00     0.016 A 
ATOM     48  C   UNL A   1      42.026  24.850  26.793  1.00  0.00     0.010 A 
ATOM     49  C   UNL A   1      40.323  25.269  28.502  1.00  0.00     0.010 A 
ATOM     50  C   UNL A   1      41.627  25.360  28.034  1.00  0.00    -0.014 A 
BRANCH  50  51
ATOM     51  C   UNL A   1      42.601  26.062  28.834  1.00  0.00     0.031 A 
ATOM     52  C   UNL A   1      42.483  27.522  28.686  1.00  0.00     0.074 A 
ATOM     53  C   UNL A   1      43.431  25.408  29.670  1.00  0.00     0.049 A 
ATOM     54  N   UNL A   1      43.302  28.304  28.072  1.00  0.00    -0.248 NA
ATOM     55  C   UNL A   1      41.211  28.159  29.071  1.00  0.00     0.031 C 
ATOM     56  C   UNL A   1      43.410  23.984  30.025  1.00  0.00     0.029 A 
ATOM     57  N   UNL A   1      44.425  25.899  30.460  1.00  0.00    -0.354 N 
ATOM     58  C   UNL A   1      42.776  29.576  28.245  1.00  0.00     0.074 A 
ATOM     59  C   UNL A   1      41.403  29.404  28.636  1.00  0.00     0.031 C 
ATOM     60  C   UNL A   1      44.184  23.782  31.115  1.00  0.00     0.029 A 
ATOM     61  C   UNL A   1      44.851  25.026  31.457  1.00  0.00     0.049 A 
ATOM     62  H   UNL A   1      44.809  26.797  30.336  1.00  0.00     0.167 HD
ATOM     63  C   UNL A   1      43.617  30.629  28.416  1.00  0.00     0.037 A 
ATOM     64  C   UNL A   1      45.642  25.341  32.515  1.00  0.00     0.037 A 
ATOM     65  C   UNL A   1      44.937  30.326  27.916  1.00  0.00     0.049 A 
ATOM     66  C   UNL A   1      46.348  26.602  32.177  1.00  0.00     0.074 A 
ATOM     67  C   UNL A   1      45.455  29.928  26.698  1.00  0.00     0.029 A 
ATOM     68  N   UNL A   1      45.902  30.039  28.848  1.00  0.00    -0.354 N 
ATOM     69  N   UNL A   1      47.272  26.694  31.266  1.00  0.00    -0.248 NA
ATOM     70  C   UNL A   1      45.706  27.856  32.540  1.00  0.00     0.031 C 
ATOM     71  C   UNL A   1      46.518  29.029  27.015  1.00  0.00     0.029 A 
ATOM     72  C   UNL A   1      46.645  28.977  28.404  1.00  0.00     0.049 A 
ATOM     73  H   UNL A   1      46.039  30.518  29.697  1.00  0.00     0.167 HD
ATOM     74  C   UNL A   1      47.004  27.888  30.615  1.00  0.00     0.074 A 
ATOM     75  C   UNL A   1      46.106  28.612  31.514  1.00  0.00     0.031 C 
ATOM     76  C   UNL A   1      47.292  28.033  29.288  1.00  0.00     0.037 A 
BRANCH  63  77
ATOM     77  C   UNL A   1      43.369  31.701  29.452  1.00  0.00     0.057 A 
ATOM     78  C   UNL A   1      43.493  33.047  29.073  1.00  0.00     0.134 A 
ATOM     79  C   UNL A   1      43.320  31.474  30.846  1.00  0.00     0.134 A 
ATOM     80  F   UNL A   1      43.587  33.388  27.778  1.00  0.00    -0.206 F 
ATOM     81  C   UNL A   1      43.622  34.079  30.009  1.00  0.00     0.040 A 
ATOM     82  C   UNL A   1      43.390  32.502  31.787  1.00  0.00     0.040 A 
ATOM     83  F   UNL A   1      43.311  30.250  31.384  1.00  0.00    -0.206 F 
ATOM     84  C   UNL A   1      43.574  33.808  31.371  1.00  0.00     0.006 A 
ENDBRANCH  63  77
BRANCH  64  85
ATOM     85  C   UNL A   1      45.591  24.834  33.909  1.00  0.00     0.057 A 
ATOM     86  C   UNL A   1      46.718  24.238  34.500  1.00  0.00     0.134 A 
ATOM     87  C   UNL A   1      44.554  25.187  34.789  1.00  0.00     0.134 A 
ATOM     88  F   UNL A   1      47.778  23.897  33.753  1.00  0.00    -0.206 F 
ATOM     89  C   UNL A   1      46.823  24.045  35.885  1.00  0.00     0.040 A 
ATOM     90  C   UNL A   1      44.643  24.992  36.172  1.00  0.00     0.040 A 
ATOM     91  F   UNL A   1      43.457  25.821  34.351  1.00  0.00    -0.206 F 
ATOM     92  C   UNL A   1      45.788  24.436  36.727  1.00  0.00     0.006 A 
ENDBRANCH  64  85
BRANCH  76  93
ATOM     93  C   UNL A   1      48.202  27.007  28.661  1.00  0.00     0.057 A 
ATOM     94  C   UNL A   1      47.775  25.807  28.071  1.00  0.00     0.134 A 
ATOM     95  C   UNL A   1      49.569  27.294  28.582  1.00  0.00     0.134 A 
ATOM     96  F   UNL A   1      46.475  25.488  28.000  1.00  0.00    -0.206 F 
ATOM     97  C   UNL A   1      48.677  24.907  27.492  1.00  0.00     0.040 A 
ATOM     98  C   UNL A   1      50.474  26.424  27.973  1.00  0.00     0.040 A 
ATOM     99  F   UNL A   1      50.047  28.448  29.074  1.00  0.00    -0.206 F 
ATOM    100  C   UNL A   1      50.033  25.216  27.441  1.00  0.00     0.006 A 
ENDBRANCH  76  93
ENDBRANCH  50  51
ENDBRANCH  43  45
ENDBRANCH  42  43
ENDBRANCH  41  42
ENDBRANCH  40  41
ENDBRANCH  39  40
ENDBRANCH  38  39
ENDBRANCH  37  38
ENDBRANCH  36  37
ENDBRANCH   1  36
TORSDOF 25
ENDMDL
