MODEL 1
REMARK VINA RESULT:     -10.8      0.000      0.000
REMARK SMILES O=C(OCCOCCOCCOC(=O)c1ccc2c(c1)=N[C@H](C(F)(F)F)N=2)c1ccc(-c2c3nc(c(-c4c(F)cccc4F)c4ccc([nH]4)c(-c4c(F)cccc4F)c4nc(c(-c5c(F)cccc5F)c5ccc2[nH]5)C=C4)C=C3)cc1
REMARK SMILES IDX 7 1 6 2 5 3 4 4 3 5 2 6 1 7 28 8 29 9 81 10 30 11 80 12
REMARK SMILES IDX 31 13 32 14 33 15 74 16 34 17 79 18 73 19 75 20 35 21 78 22
REMARK SMILES IDX 72 23 71 24 36 26 62 27 45 28 61 29 46 30 49 31 60 32 76 33
REMARK SMILES IDX 47 34 48 35 59 37 77 38 50 39 37 40 38 41 43 42 39 43 40 44
REMARK SMILES IDX 42 45 44 46 41 47 63 48 64 49 69 50 65 51 66 52 68 53 70 54
REMARK SMILES IDX 67 55 51 56 52 57 57 58 53 59 54 60 56 61 58 62 55 63 8 64
REMARK SMILES IDX 9 65 10 66 11 67 12 68 13 69 14 70 15 71 16 72 20 73 17 74
REMARK SMILES IDX 19 75 18 76 21 77 27 78 22 79 23 80 24 81 25 82 26 83
REMARK H PARENT 75 25 49 36
REMARK Flexibility Score: inf
ROOT
ATOM      1  C   UNL A   1      43.540  18.798  25.574  1.00  0.00     0.188 C 
ENDROOT
BRANCH   1   2
ATOM      2  O   UNL A   1      43.757  19.783  24.569  1.00  0.00    -0.376 OA
BRANCH   2   3
ATOM      3  C   UNL A   1      44.653  20.820  24.956  1.00  0.00     0.202 C 
BRANCH   3   4
ATOM      4  C   UNL A   1      44.044  21.759  25.992  1.00  0.00     0.261 C 
BRANCH   4   5
ATOM      5  O   UNL A   1      43.279  22.821  25.397  1.00  0.00    -0.460 OA
BRANCH   5   6
ATOM      6  C   UNL A   1      43.543  24.144  25.302  1.00  0.00     0.338 C 
ATOM      7  O   UNL A   1      44.434  24.493  24.528  1.00  0.00    -0.246 OA
BRANCH   6   8
ATOM      8  C   UNL A   1      42.923  25.217  26.152  1.00  0.00     0.060 A 
ATOM      9  C   UNL A   1      41.898  24.792  27.024  1.00  0.00     0.016 A 
ATOM     10  C   UNL A   1      43.304  26.558  26.212  1.00  0.00     0.016 A 
ATOM     11  C   UNL A   1      41.311  25.665  27.949  1.00  0.00     0.010 A 
ATOM     12  C   UNL A   1      42.720  27.438  27.134  1.00  0.00     0.010 A 
ATOM     13  C   UNL A   1      41.746  26.989  28.029  1.00  0.00    -0.014 A 
BRANCH  13  14
ATOM     14  C   UNL A   1      41.347  27.850  29.165  1.00  0.00     0.031 A 
ATOM     15  C   UNL A   1      40.216  28.823  29.064  1.00  0.00     0.074 A 
ATOM     16  C   UNL A   1      42.094  27.789  30.284  1.00  0.00     0.049 A 
ATOM     17  N   UNL A   1      39.700  29.579  30.001  1.00  0.00    -0.248 NA
ATOM     18  C   UNL A   1      39.595  28.989  27.742  1.00  0.00     0.031 C 
ATOM     19  C   UNL A   1      43.280  26.947  30.459  1.00  0.00     0.029 A 
ATOM     20  N   UNL A   1      41.983  28.463  31.472  1.00  0.00    -0.354 N 
ATOM     21  C   UNL A   1      38.656  30.267  29.400  1.00  0.00     0.074 A 
ATOM     22  C   UNL A   1      38.665  29.902  27.999  1.00  0.00     0.031 C 
ATOM     23  C   UNL A   1      43.797  27.167  31.678  1.00  0.00     0.029 A 
ATOM     24  C   UNL A   1      42.974  28.152  32.369  1.00  0.00     0.049 A 
ATOM     25  H   UNL A   1      41.263  29.106  31.662  1.00  0.00     0.167 HD
ATOM     26  C   UNL A   1      37.761  31.105  29.975  1.00  0.00     0.037 A 
ATOM     27  C   UNL A   1      43.186  28.604  33.618  1.00  0.00     0.037 A 
ATOM     28  C   UNL A   1      37.804  31.518  31.353  1.00  0.00     0.049 A 
ATOM     29  C   UNL A   1      42.192  29.547  34.227  1.00  0.00     0.074 A 
ATOM     30  C   UNL A   1      36.929  32.344  32.038  1.00  0.00     0.029 A 
ATOM     31  N   UNL A   1      38.795  31.152  32.252  1.00  0.00    -0.354 N 
ATOM     32  N   UNL A   1      41.121  30.080  33.688  1.00  0.00    -0.248 NA
ATOM     33  C   UNL A   1      42.413  29.923  35.629  1.00  0.00     0.031 C 
ATOM     34  C   UNL A   1      37.411  32.506  33.343  1.00  0.00     0.029 A 
ATOM     35  C   UNL A   1      38.567  31.752  33.479  1.00  0.00     0.049 A 
ATOM     36  H   UNL A   1      39.549  30.553  32.048  1.00  0.00     0.167 HD
ATOM     37  C   UNL A   1      40.527  30.831  34.692  1.00  0.00     0.074 A 
ATOM     38  C   UNL A   1      41.346  30.668  35.875  1.00  0.00     0.031 C 
ATOM     39  C   UNL A   1      39.401  31.585  34.642  1.00  0.00     0.037 A 
BRANCH  26  40
ATOM     40  C   UNL A   1      36.629  31.594  29.125  1.00  0.00     0.057 A 
ATOM     41  C   UNL A   1      36.566  32.912  28.664  1.00  0.00     0.134 A 
ATOM     42  C   UNL A   1      35.560  30.747  28.810  1.00  0.00     0.134 A 
ATOM     43  F   UNL A   1      37.550  33.779  28.944  1.00  0.00    -0.206 F 
ATOM     44  C   UNL A   1      35.483  33.367  27.907  1.00  0.00     0.040 A 
ATOM     45  C   UNL A   1      34.477  31.184  28.044  1.00  0.00     0.040 A 
ATOM     46  F   UNL A   1      35.567  29.468  29.215  1.00  0.00    -0.206 F 
ATOM     47  C   UNL A   1      34.438  32.500  27.590  1.00  0.00     0.006 A 
ENDBRANCH  26  40
BRANCH  27  48
ATOM     48  C   UNL A   1      44.357  28.120  34.386  1.00  0.00     0.057 A 
ATOM     49  C   UNL A   1      45.576  28.807  34.363  1.00  0.00     0.134 A 
ATOM     50  C   UNL A   1      44.288  26.952  35.152  1.00  0.00     0.134 A 
ATOM     51  F   UNL A   1      45.710  29.926  33.635  1.00  0.00    -0.206 F 
ATOM     52  C   UNL A   1      46.686  28.349  35.076  1.00  0.00     0.040 A 
ATOM     53  C   UNL A   1      45.381  26.494  35.887  1.00  0.00     0.040 A 
ATOM     54  F   UNL A   1      43.142  26.258  35.221  1.00  0.00    -0.206 F 
ATOM     55  C   UNL A   1      46.586  27.193  35.846  1.00  0.00     0.006 A 
ENDBRANCH  27  48
BRANCH  39  56
ATOM     56  C   UNL A   1      38.999  32.270  35.913  1.00  0.00     0.057 A 
ATOM     57  C   UNL A   1      39.388  33.591  36.166  1.00  0.00     0.134 A 
ATOM     58  C   UNL A   1      38.211  31.629  36.877  1.00  0.00     0.134 A 
ATOM     59  F   UNL A   1      40.149  34.258  35.284  1.00  0.00    -0.206 F 
ATOM     60  C   UNL A   1      38.995  34.255  37.328  1.00  0.00     0.040 A 
ATOM     61  C   UNL A   1      37.791  32.291  38.031  1.00  0.00     0.040 A 
ATOM     62  F   UNL A   1      37.794  30.368  36.685  1.00  0.00    -0.206 F 
ATOM     63  C   UNL A   1      38.185  33.609  38.259  1.00  0.00     0.006 A 
ENDBRANCH  39  56
ENDBRANCH  13  14
ENDBRANCH   6   8
ENDBRANCH   5   6
ENDBRANCH   4   5
ENDBRANCH   3   4
ENDBRANCH   2   3
ENDBRANCH   1   2
BRANCH   1  64
ATOM     64  C   UNL A   1      42.146  18.750  26.224  1.00  0.00     0.188 C 
BRANCH  64  65
ATOM     65  O   UNL A   1      41.142  19.648  25.778  1.00  0.00    -0.376 OA
BRANCH  65  66
ATOM     66  C   UNL A   1      40.552  20.542  26.713  1.00  0.00     0.202 C 
BRANCH  66  67
ATOM     67  C   UNL A   1      39.893  21.806  26.164  1.00  0.00     0.261 C 
BRANCH  67  68
ATOM     68  O   UNL A   1      38.463  21.686  26.031  1.00  0.00    -0.460 OA
BRANCH  68  69
ATOM     69  C   UNL A   1      37.815  22.859  25.827  1.00  0.00     0.338 C 
ATOM     70  O   UNL A   1      38.237  23.982  26.046  1.00  0.00    -0.246 OA
BRANCH  69  71
ATOM     71  C   UNL A   1      36.436  22.618  25.352  1.00  0.00     0.062 A 
ATOM     72  C   UNL A   1      35.971  23.339  24.179  1.00  0.00     0.018 A 
ATOM     73  C   UNL A   1      35.747  21.617  25.925  1.00  0.00     0.046 A 
ATOM     74  C   UNL A   1      34.853  23.011  23.522  1.00  0.00     0.031 A 
ATOM     75  C   UNL A   1      34.486  21.225  25.286  1.00  0.00     0.087 A 
ATOM     76  C   UNL A   1      34.055  21.904  24.048  1.00  0.00     0.086 A 
ATOM     77  N   UNL A   1      33.664  20.303  25.649  1.00  0.00    -0.247 NA
ATOM     78  N   UNL A   1      32.971  21.409  23.570  1.00  0.00    -0.247 NA
ATOM     79  C   UNL A   1      32.657  20.289  24.520  1.00  0.00     0.326 C 
BRANCH  79  80
ATOM     80  C   UNL A   1      32.640  18.913  23.789  1.00  0.00     0.431 C 
ATOM     81  F   UNL A   1      33.874  18.358  23.747  1.00  0.00    -0.167 F 
ATOM     82  F   UNL A   1      31.824  18.024  24.404  1.00  0.00    -0.167 F 
ATOM     83  F   UNL A   1      32.206  19.039  22.509  1.00  0.00    -0.167 F 
ENDBRANCH  79  80
ENDBRANCH  69  71
ENDBRANCH  68  69
ENDBRANCH  67  68
ENDBRANCH  66  67
ENDBRANCH  65  66
ENDBRANCH  64  65
ENDBRANCH   1  64
TORSDOF 18
ENDMDL
MODEL 2
REMARK VINA RESULT:     -10.8      1.074      6.378
REMARK SMILES O=C(OCCOCCOCCOC(=O)c1ccc2c(c1)=N[C@H](C(F)(F)F)N=2)c1ccc(-c2c3nc(c(-c4c(F)cccc4F)c4ccc([nH]4)c(-c4c(F)cccc4F)c4nc(c(-c5c(F)cccc5F)c5ccc2[nH]5)C=C4)C=C3)cc1
REMARK SMILES IDX 7 1 6 2 5 3 4 4 3 5 2 6 1 7 28 8 29 9 81 10 30 11 80 12
REMARK SMILES IDX 31 13 32 14 33 15 74 16 34 17 79 18 73 19 75 20 35 21 78 22
REMARK SMILES IDX 72 23 71 24 36 26 62 27 45 28 61 29 46 30 49 31 60 32 76 33
REMARK SMILES IDX 47 34 48 35 59 37 77 38 50 39 37 40 38 41 43 42 39 43 40 44
REMARK SMILES IDX 42 45 44 46 41 47 63 48 64 49 69 50 65 51 66 52 68 53 70 54
REMARK SMILES IDX 67 55 51 56 52 57 57 58 53 59 54 60 56 61 58 62 55 63 8 64
REMARK SMILES IDX 9 65 10 66 11 67 12 68 13 69 14 70 15 71 16 72 20 73 17 74
REMARK SMILES IDX 19 75 18 76 21 77 27 78 22 79 23 80 24 81 25 82 26 83
REMARK H PARENT 75 25 49 36
REMARK Flexibility Score: inf
ROOT
ATOM      1  C   UNL A   1      41.186  21.517  26.597  1.00  0.00     0.188 C 
ENDROOT
BRANCH   1   2
ATOM      2  O   UNL A   1      42.144  21.413  25.548  1.00  0.00    -0.376 OA
BRANCH   2   3
ATOM      3  C   UNL A   1      43.480  21.703  25.952  1.00  0.00     0.202 C 
BRANCH   3   4
ATOM      4  C   UNL A   1      44.325  22.259  24.811  1.00  0.00     0.261 C 
BRANCH   4   5
ATOM      5  O   UNL A   1      44.014  23.630  24.508  1.00  0.00    -0.460 OA
BRANCH   5   6
ATOM      6  C   UNL A   1      44.534  24.776  25.001  1.00  0.00     0.338 C 
ATOM      7  O   UNL A   1      45.710  25.028  24.737  1.00  0.00    -0.246 OA
BRANCH   6   8
ATOM      8  C   UNL A   1      43.836  25.712  25.946  1.00  0.00     0.060 A 
ATOM      9  C   UNL A   1      42.716  25.180  26.620  1.00  0.00     0.016 A 
ATOM     10  C   UNL A   1      44.222  27.014  26.270  1.00  0.00     0.016 A 
ATOM     11  C   UNL A   1      42.040  25.905  27.610  1.00  0.00     0.010 A 
ATOM     12  C   UNL A   1      43.549  27.746  27.258  1.00  0.00     0.010 A 
ATOM     13  C   UNL A   1      42.477  27.184  27.956  1.00  0.00    -0.014 A 
BRANCH  13  14
ATOM     14  C   UNL A   1      41.964  27.857  29.170  1.00  0.00     0.031 A 
ATOM     15  C   UNL A   1      42.565  27.626  30.520  1.00  0.00     0.074 A 
ATOM     16  C   UNL A   1      40.872  28.634  29.036  1.00  0.00     0.049 A 
ATOM     17  N   UNL A   1      42.276  28.209  31.656  1.00  0.00    -0.248 NA
ATOM     18  C   UNL A   1      43.608  26.595  30.617  1.00  0.00     0.031 C 
ATOM     19  C   UNL A   1      40.144  28.853  27.784  1.00  0.00     0.029 A 
ATOM     20  N   UNL A   1      40.171  29.360  29.963  1.00  0.00    -0.354 N 
ATOM     21  C   UNL A   1      43.138  27.662  32.593  1.00  0.00     0.074 A 
ATOM     22  C   UNL A   1      43.905  26.640  31.911  1.00  0.00     0.031 C 
ATOM     23  C   UNL A   1      39.089  29.647  28.024  1.00  0.00     0.029 A 
ATOM     24  C   UNL A   1      39.075  29.999  29.438  1.00  0.00     0.049 A 
ATOM     25  H   UNL A   1      40.428  29.417  30.911  1.00  0.00     0.167 HD
ATOM     26  C   UNL A   1      43.291  28.003  33.895  1.00  0.00     0.037 A 
ATOM     27  C   UNL A   1      38.167  30.792  30.033  1.00  0.00     0.037 A 
ATOM     28  C   UNL A   1      42.475  28.968  34.583  1.00  0.00     0.049 A 
ATOM     29  C   UNL A   1      38.345  31.140  31.482  1.00  0.00     0.074 A 
ATOM     30  C   UNL A   1      42.565  29.402  35.895  1.00  0.00     0.029 A 
ATOM     31  N   UNL A   1      41.399  29.634  34.015  1.00  0.00    -0.354 N 
ATOM     32  N   UNL A   1      39.259  30.723  32.325  1.00  0.00    -0.248 NA
ATOM     33  C   UNL A   1      37.388  32.096  32.052  1.00  0.00     0.031 C 
ATOM     34  C   UNL A   1      41.520  30.305  36.129  1.00  0.00     0.029 A 
ATOM     35  C   UNL A   1      40.802  30.459  34.954  1.00  0.00     0.049 A 
ATOM     36  H   UNL A   1      41.104  29.535  33.081  1.00  0.00     0.167 HD
ATOM     37  C   UNL A   1      39.005  31.387  33.516  1.00  0.00     0.074 A 
ATOM     38  C   UNL A   1      37.863  32.247  33.279  1.00  0.00     0.031 C 
ATOM     39  C   UNL A   1      39.660  31.298  34.700  1.00  0.00     0.037 A 
BRANCH  26  40
ATOM     40  C   UNL A   1      44.413  27.359  34.650  1.00  0.00     0.057 A 
ATOM     41  C   UNL A   1      45.698  27.908  34.676  1.00  0.00     0.134 A 
ATOM     42  C   UNL A   1      44.216  26.142  35.314  1.00  0.00     0.134 A 
ATOM     43  F   UNL A   1      45.958  29.063  34.047  1.00  0.00    -0.206 F 
ATOM     44  C   UNL A   1      46.746  27.275  35.349  1.00  0.00     0.040 A 
ATOM     45  C   UNL A   1      45.252  25.504  36.000  1.00  0.00     0.040 A 
ATOM     46  F   UNL A   1      43.004  25.570  35.333  1.00  0.00    -0.206 F 
ATOM     47  C   UNL A   1      46.522  26.072  36.019  1.00  0.00     0.006 A 
ENDBRANCH  26  40
BRANCH  27  48
ATOM     48  C   UNL A   1      37.048  31.354  29.240  1.00  0.00     0.057 A 
ATOM     49  C   UNL A   1      35.911  30.593  28.948  1.00  0.00     0.134 A 
ATOM     50  C   UNL A   1      37.096  32.661  28.746  1.00  0.00     0.134 A 
ATOM     51  F   UNL A   1      35.812  29.327  29.382  1.00  0.00    -0.206 F 
ATOM     52  C   UNL A   1      34.859  31.113  28.191  1.00  0.00     0.040 A 
ATOM     53  C   UNL A   1      36.044  33.202  28.006  1.00  0.00     0.040 A 
ATOM     54  F   UNL A   1      38.157  33.441  29.004  1.00  0.00    -0.206 F 
ATOM     55  C   UNL A   1      34.923  32.425  27.724  1.00  0.00     0.006 A 
ENDBRANCH  27  48
BRANCH  39  56
ATOM     56  C   UNL A   1      39.152  32.167  35.811  1.00  0.00     0.057 A 
ATOM     57  C   UNL A   1      39.571  33.497  35.925  1.00  0.00     0.134 A 
ATOM     58  C   UNL A   1      38.235  31.690  36.758  1.00  0.00     0.134 A 
ATOM     59  F   UNL A   1      40.454  34.011  35.055  1.00  0.00    -0.206 F 
ATOM     60  C   UNL A   1      39.085  34.330  36.934  1.00  0.00     0.040 A 
ATOM     61  C   UNL A   1      37.723  32.520  37.755  1.00  0.00     0.040 A 
ATOM     62  F   UNL A   1      37.785  30.429  36.693  1.00  0.00    -0.206 F 
ATOM     63  C   UNL A   1      38.149  33.845  37.845  1.00  0.00     0.006 A 
ENDBRANCH  39  56
ENDBRANCH  13  14
ENDBRANCH   6   8
ENDBRANCH   5   6
ENDBRANCH   4   5
ENDBRANCH   3   4
ENDBRANCH   2   3
ENDBRANCH   1   2
BRANCH   1  64
ATOM     64  C   UNL A   1      40.289  22.767  26.610  1.00  0.00     0.188 C 
BRANCH  64  65
ATOM     65  O   UNL A   1      38.916  22.637  26.276  1.00  0.00    -0.376 OA
BRANCH  65  66
ATOM     66  C   UNL A   1      38.128  23.813  26.132  1.00  0.00     0.202 C 
BRANCH  66  67
ATOM     67  C   UNL A   1      36.609  23.650  26.122  1.00  0.00     0.261 C 
BRANCH  67  68
ATOM     68  O   UNL A   1      35.992  24.172  24.930  1.00  0.00    -0.460 OA
BRANCH  68  69
ATOM     69  C   UNL A   1      35.884  23.281  23.914  1.00  0.00     0.338 C 
ATOM     70  O   UNL A   1      36.449  23.322  22.834  1.00  0.00    -0.246 OA
BRANCH  69  71
ATOM     71  C   UNL A   1      34.896  22.231  24.243  1.00  0.00     0.062 A 
ATOM     72  C   UNL A   1      33.486  22.515  24.035  1.00  0.00     0.018 A 
ATOM     73  C   UNL A   1      35.366  21.011  24.550  1.00  0.00     0.046 A 
ATOM     74  C   UNL A   1      32.544  21.566  24.053  1.00  0.00     0.031 A 
ATOM     75  C   UNL A   1      34.387  19.921  24.630  1.00  0.00     0.087 A 
ATOM     76  C   UNL A   1      32.966  20.195  24.338  1.00  0.00     0.086 A 
ATOM     77  N   UNL A   1      34.598  18.680  24.904  1.00  0.00    -0.247 NA
ATOM     78  N   UNL A   1      32.243  19.134  24.382  1.00  0.00    -0.247 NA
ATOM     79  C   UNL A   1      33.240  18.052  24.684  1.00  0.00     0.326 C 
BRANCH  79  80
ATOM     80  C   UNL A   1      33.283  16.988  23.547  1.00  0.00     0.431 C 
ATOM     81  F   UNL A   1      32.463  17.322  22.523  1.00  0.00    -0.167 F 
ATOM     82  F   UNL A   1      34.527  16.848  23.031  1.00  0.00    -0.167 F 
ATOM     83  F   UNL A   1      32.894  15.768  23.998  1.00  0.00    -0.167 F 
ENDBRANCH  79  80
ENDBRANCH  69  71
ENDBRANCH  68  69
ENDBRANCH  67  68
ENDBRANCH  66  67
ENDBRANCH  65  66
ENDBRANCH  64  65
ENDBRANCH   1  64
TORSDOF 18
ENDMDL
MODEL 3
REMARK VINA RESULT:     -10.7      2.382      6.873
REMARK SMILES O=C(OCCOCCOCCOC(=O)c1ccc2c(c1)=N[C@H](C(F)(F)F)N=2)c1ccc(-c2c3nc(c(-c4c(F)cccc4F)c4ccc([nH]4)c(-c4c(F)cccc4F)c4nc(c(-c5c(F)cccc5F)c5ccc2[nH]5)C=C4)C=C3)cc1
REMARK SMILES IDX 7 1 6 2 5 3 4 4 3 5 2 6 1 7 28 8 29 9 81 10 30 11 80 12
REMARK SMILES IDX 31 13 32 14 33 15 74 16 34 17 79 18 73 19 75 20 35 21 78 22
REMARK SMILES IDX 72 23 71 24 36 26 62 27 45 28 61 29 46 30 49 31 60 32 76 33
REMARK SMILES IDX 47 34 48 35 59 37 77 38 50 39 37 40 38 41 43 42 39 43 40 44
REMARK SMILES IDX 42 45 44 46 41 47 63 48 64 49 69 50 65 51 66 52 68 53 70 54
REMARK SMILES IDX 67 55 51 56 52 57 57 58 53 59 54 60 56 61 58 62 55 63 8 64
REMARK SMILES IDX 9 65 10 66 11 67 12 68 13 69 14 70 15 71 16 72 20 73 17 74
REMARK SMILES IDX 19 75 18 76 21 77 27 78 22 79 23 80 24 81 25 82 26 83
REMARK H PARENT 75 25 49 36
REMARK Flexibility Score: inf
ROOT
ATOM      1  C   UNL A   1      41.268  21.564  26.553  1.00  0.00     0.188 C 
ENDROOT
BRANCH   1   2
ATOM      2  O   UNL A   1      42.162  21.865  25.487  1.00  0.00    -0.376 OA
BRANCH   2   3
ATOM      3  C   UNL A   1      43.491  21.396  25.695  1.00  0.00     0.202 C 
BRANCH   3   4
ATOM      4  C   UNL A   1      44.521  22.198  24.906  1.00  0.00     0.261 C 
BRANCH   4   5
ATOM      5  O   UNL A   1      44.066  23.524  24.587  1.00  0.00    -0.460 OA
BRANCH   5   6
ATOM      6  C   UNL A   1      44.530  24.730  24.987  1.00  0.00     0.338 C 
ATOM      7  O   UNL A   1      45.666  25.048  24.636  1.00  0.00    -0.246 OA
BRANCH   6   8
ATOM      8  C   UNL A   1      43.823  25.665  25.927  1.00  0.00     0.060 A 
ATOM      9  C   UNL A   1      42.725  25.118  26.624  1.00  0.00     0.016 A 
ATOM     10  C   UNL A   1      44.183  26.980  26.224  1.00  0.00     0.016 A 
ATOM     11  C   UNL A   1      42.045  25.844  27.612  1.00  0.00     0.010 A 
ATOM     12  C   UNL A   1      43.507  27.713  27.209  1.00  0.00     0.010 A 
ATOM     13  C   UNL A   1      42.458  27.139  27.931  1.00  0.00    -0.014 A 
BRANCH  13  14
ATOM     14  C   UNL A   1      41.946  27.820  29.141  1.00  0.00     0.031 A 
ATOM     15  C   UNL A   1      42.558  27.611  30.489  1.00  0.00     0.074 A 
ATOM     16  C   UNL A   1      40.844  28.583  29.006  1.00  0.00     0.049 A 
ATOM     17  N   UNL A   1      42.271  28.204  31.620  1.00  0.00    -0.248 NA
ATOM     18  C   UNL A   1      43.613  26.593  30.591  1.00  0.00     0.031 C 
ATOM     19  C   UNL A   1      40.105  28.780  27.756  1.00  0.00     0.029 A 
ATOM     20  N   UNL A   1      40.142  29.312  29.928  1.00  0.00    -0.354 N 
ATOM     21  C   UNL A   1      43.146  27.677  32.557  1.00  0.00     0.074 A 
ATOM     22  C   UNL A   1      43.920  26.656  31.882  1.00  0.00     0.031 C 
ATOM     23  C   UNL A   1      39.043  29.565  27.994  1.00  0.00     0.029 A 
ATOM     24  C   UNL A   1      39.035  29.933  29.405  1.00  0.00     0.049 A 
ATOM     25  H   UNL A   1      40.405  29.383  30.874  1.00  0.00     0.167 HD
ATOM     26  C   UNL A   1      43.304  28.035  33.854  1.00  0.00     0.037 A 
ATOM     27  C   UNL A   1      38.122  30.723  29.997  1.00  0.00     0.037 A 
ATOM     28  C   UNL A   1      42.482  28.999  34.536  1.00  0.00     0.049 A 
ATOM     29  C   UNL A   1      38.306  31.089  31.440  1.00  0.00     0.074 A 
ATOM     30  C   UNL A   1      42.576  29.449  35.843  1.00  0.00     0.029 A 
ATOM     31  N   UNL A   1      41.395  29.646  33.969  1.00  0.00    -0.354 N 
ATOM     32  N   UNL A   1      39.231  30.692  32.281  1.00  0.00    -0.248 NA
ATOM     33  C   UNL A   1      37.343  32.041  32.006  1.00  0.00     0.031 C 
ATOM     34  C   UNL A   1      41.523  30.343  36.074  1.00  0.00     0.029 A 
ATOM     35  C   UNL A   1      40.796  30.475  34.902  1.00  0.00     0.049 A 
ATOM     36  H   UNL A   1      41.094  29.533  33.038  1.00  0.00     0.167 HD
ATOM     37  C   UNL A   1      38.978  31.367  33.467  1.00  0.00     0.074 A 
ATOM     38  C   UNL A   1      37.825  32.211  33.228  1.00  0.00     0.031 C 
ATOM     39  C   UNL A   1      39.642  31.299  34.647  1.00  0.00     0.037 A 
BRANCH  26  40
ATOM     40  C   UNL A   1      44.439  27.412  34.608  1.00  0.00     0.057 A 
ATOM     41  C   UNL A   1      45.696  28.018  34.687  1.00  0.00     0.134 A 
ATOM     42  C   UNL A   1      44.284  26.161  35.218  1.00  0.00     0.134 A 
ATOM     43  F   UNL A   1      45.915  29.209  34.111  1.00  0.00    -0.206 F 
ATOM     44  C   UNL A   1      46.757  27.406  35.358  1.00  0.00     0.040 A 
ATOM     45  C   UNL A   1      45.333  25.543  35.902  1.00  0.00     0.040 A 
ATOM     46  F   UNL A   1      43.099  25.534  35.186  1.00  0.00    -0.206 F 
ATOM     47  C   UNL A   1      46.576  26.168  35.973  1.00  0.00     0.006 A 
ENDBRANCH  26  40
BRANCH  27  48
ATOM     48  C   UNL A   1      36.992  31.263  29.205  1.00  0.00     0.057 A 
ATOM     49  C   UNL A   1      37.008  32.575  28.718  1.00  0.00     0.134 A 
ATOM     50  C   UNL A   1      35.864  30.484  28.929  1.00  0.00     0.134 A 
ATOM     51  F   UNL A   1      38.055  33.376  28.962  1.00  0.00    -0.206 F 
ATOM     52  C   UNL A   1      35.941  33.092  27.981  1.00  0.00     0.040 A 
ATOM     53  C   UNL A   1      34.800  30.980  28.176  1.00  0.00     0.040 A 
ATOM     54  F   UNL A   1      35.798  29.216  29.362  1.00  0.00    -0.206 F 
ATOM     55  C   UNL A   1      34.836  32.290  27.703  1.00  0.00     0.006 A 
ENDBRANCH  27  48
BRANCH  39  56
ATOM     56  C   UNL A   1      39.133  32.175  35.752  1.00  0.00     0.057 A 
ATOM     57  C   UNL A   1      38.248  31.671  36.712  1.00  0.00     0.134 A 
ATOM     58  C   UNL A   1      39.533  33.512  35.875  1.00  0.00     0.134 A 
ATOM     59  F   UNL A   1      37.821  30.400  36.646  1.00  0.00    -0.206 F 
ATOM     60  C   UNL A   1      37.789  32.462  37.766  1.00  0.00     0.040 A 
ATOM     61  C   UNL A   1      39.101  34.305  36.938  1.00  0.00     0.040 A 
ATOM     62  F   UNL A   1      40.391  34.048  34.994  1.00  0.00    -0.206 F 
ATOM     63  C   UNL A   1      38.225  33.780  37.887  1.00  0.00     0.006 A 
ENDBRANCH  39  56
ENDBRANCH  13  14
ENDBRANCH   6   8
ENDBRANCH   5   6
ENDBRANCH   4   5
ENDBRANCH   3   4
ENDBRANCH   2   3
ENDBRANCH   1   2
BRANCH   1  64
ATOM     64  C   UNL A   1      39.773  21.445  26.207  1.00  0.00     0.188 C 
BRANCH  64  65
ATOM     65  O   UNL A   1      38.906  22.529  26.498  1.00  0.00    -0.376 OA
BRANCH  65  66
ATOM     66  C   UNL A   1      37.800  22.777  25.639  1.00  0.00     0.202 C 
BRANCH  66  67
ATOM     67  C   UNL A   1      37.350  21.643  24.720  1.00  0.00     0.261 C 
BRANCH  67  68
ATOM     68  O   UNL A   1      36.222  21.996  23.896  1.00  0.00    -0.460 OA
BRANCH  68  69
ATOM     69  C   UNL A   1      35.015  21.828  24.492  1.00  0.00     0.338 C 
ATOM     70  O   UNL A   1      34.644  20.872  25.150  1.00  0.00    -0.246 OA
BRANCH  69  71
ATOM     71  C   UNL A   1      34.118  22.962  24.181  1.00  0.00     0.062 A 
ATOM     72  C   UNL A   1      33.124  23.350  25.167  1.00  0.00     0.018 A 
ATOM     73  C   UNL A   1      34.386  23.683  23.080  1.00  0.00     0.046 A 
ATOM     74  C   UNL A   1      32.446  24.501  25.101  1.00  0.00     0.031 A 
ATOM     75  C   UNL A   1      33.653  24.943  22.913  1.00  0.00     0.087 A 
ATOM     76  C   UNL A   1      32.702  25.376  23.956  1.00  0.00     0.086 A 
ATOM     77  N   UNL A   1      33.742  25.794  21.950  1.00  0.00    -0.247 NA
ATOM     78  N   UNL A   1      32.189  26.526  23.705  1.00  0.00    -0.247 NA
ATOM     79  C   UNL A   1      32.863  26.929  22.425  1.00  0.00     0.326 C 
BRANCH  79  80
ATOM     80  C   UNL A   1      33.680  28.244  22.604  1.00  0.00     0.431 C 
ATOM     81  F   UNL A   1      34.467  28.194  23.705  1.00  0.00    -0.167 F 
ATOM     82  F   UNL A   1      34.491  28.484  21.546  1.00  0.00    -0.167 F 
ATOM     83  F   UNL A   1      32.862  29.320  22.736  1.00  0.00    -0.167 F 
ENDBRANCH  79  80
ENDBRANCH  69  71
ENDBRANCH  68  69
ENDBRANCH  67  68
ENDBRANCH  66  67
ENDBRANCH  65  66
ENDBRANCH  64  65
ENDBRANCH   1  64
TORSDOF 18
ENDMDL
