MODEL 1
REMARK VINA RESULT:     -10.4      0.000      0.000
REMARK SMILES C[C@@H]1[C@H](C(=O)OCCOCCOCCOC(=O)c2ccc(-c3c4nc(c(-c5c(F)cccc5F)c5ccc([nH]5)c(-c5c(F)cccc5F)c5nc(c(-c6c(F)cccc6F)c6ccc3[nH]6)C=C5)C=C4)cc2)CCN1C(=O)COCc1ccccc1
REMARK SMILES IDX 9 1 8 2 7 3 6 4 4 5 5 6 3 7 1 8 2 9 74 10 72 11 73 12 75 13
REMARK SMILES IDX 76 14 77 15 78 16 79 17 80 18 81 19 85 20 82 21 84 22 83 23
REMARK SMILES IDX 10 24 11 25 12 26 13 27 14 28 15 29 16 30 17 31 18 32 19 33
REMARK SMILES IDX 71 34 20 35 70 36 21 37 22 38 23 39 64 40 24 41 69 42 63 43
REMARK SMILES IDX 65 44 25 45 68 46 62 47 61 48 26 50 52 51 35 52 51 53 36 54
REMARK SMILES IDX 39 55 50 56 66 57 37 58 38 59 49 61 67 62 40 63 27 64 28 65
REMARK SMILES IDX 33 66 29 67 30 68 32 69 34 70 31 71 53 72 54 73 59 74 55 75
REMARK SMILES IDX 56 76 58 77 60 78 57 79 41 80 42 81 47 82 43 83 44 84 46 85
REMARK SMILES IDX 48 86 45 87
REMARK H PARENT 65 49 39 60
REMARK Flexibility Score: inf
ROOT
ATOM      1  O   UNL A   1      39.871  20.661  26.169  1.00  0.00    -0.376 OA
ENDROOT
BRANCH   1   2
ATOM      2  C   UNL A   1      39.102  21.856  26.069  1.00  0.00     0.202 C 
BRANCH   2   3
ATOM      3  C   UNL A   1      37.617  21.786  25.672  1.00  0.00     0.261 C 
BRANCH   3   4
ATOM      4  O   UNL A   1      37.387  21.749  24.246  1.00  0.00    -0.463 OA
BRANCH   4   5
ATOM      5  C   UNL A   1      36.379  22.520  23.784  1.00  0.00     0.311 C 
ATOM      6  O   UNL A   1      36.475  23.241  22.793  1.00  0.00    -0.252 OA
BRANCH   5   7
ATOM      7  C   UNL A   1      35.051  22.360  24.503  1.00  0.00     0.123 C 
ATOM      8  C   UNL A   1      34.728  24.822  25.287  1.00  0.00     0.032 C 
ATOM      9  C   UNL A   1      34.472  23.340  25.544  1.00  0.00     0.096 C 
ATOM     10  N   UNL A   1      33.026  23.047  25.485  1.00  0.00    -0.337 N 
ATOM     11  C   UNL A   1      33.942  22.309  23.446  1.00  0.00     0.039 C 
ATOM     12  C   UNL A   1      32.668  22.367  24.256  1.00  0.00     0.121 C 
BRANCH  10  13
ATOM     13  C   UNL A   1      32.063  23.207  26.460  1.00  0.00     0.248 C 
ATOM     14  O   UNL A   1      32.345  23.086  27.656  1.00  0.00    -0.272 OA
BRANCH  13  15
ATOM     15  C   UNL A   1      30.644  23.611  26.037  1.00  0.00     0.260 C 
BRANCH  15  16
ATOM     16  O   UNL A   1      30.536  24.802  25.260  1.00  0.00    -0.367 OA
BRANCH  16  17
ATOM     17  C   UNL A   1      30.508  26.006  26.037  1.00  0.00     0.196 C 
BRANCH  17  18
ATOM     18  C   UNL A   1      31.660  26.941  25.764  1.00  0.00    -0.022 A 
ATOM     19  C   UNL A   1      32.016  27.253  24.444  1.00  0.00     0.006 A 
ATOM     20  C   UNL A   1      32.404  27.495  26.815  1.00  0.00     0.006 A 
ATOM     21  C   UNL A   1      33.113  28.073  24.180  1.00  0.00     0.000 A 
ATOM     22  C   UNL A   1      33.506  28.309  26.549  1.00  0.00     0.000 A 
ATOM     23  C   UNL A   1      33.863  28.593  25.233  1.00  0.00     0.000 A 
ENDBRANCH  17  18
ENDBRANCH  16  17
ENDBRANCH  15  16
ENDBRANCH  13  15
ENDBRANCH  10  13
ENDBRANCH   5   7
ENDBRANCH   4   5
ENDBRANCH   3   4
ENDBRANCH   2   3
ENDBRANCH   1   2
BRANCH   1  24
ATOM     24  C   UNL A   1      41.162  20.738  26.742  1.00  0.00     0.188 C 
BRANCH  24  25
ATOM     25  C   UNL A   1      42.185  19.642  26.418  1.00  0.00     0.188 C 
BRANCH  25  26
ATOM     26  O   UNL A   1      42.929  19.740  25.232  1.00  0.00    -0.376 OA
BRANCH  26  27
ATOM     27  C   UNL A   1      44.307  20.078  25.233  1.00  0.00     0.202 C 
BRANCH  27  28
ATOM     28  C   UNL A   1      44.912  21.486  25.420  1.00  0.00     0.261 C 
BRANCH  28  29
ATOM     29  O   UNL A   1      44.141  22.477  26.097  1.00  0.00    -0.460 OA
BRANCH  29  30
ATOM     30  C   UNL A   1      43.529  23.398  25.307  1.00  0.00     0.338 C 
ATOM     31  O   UNL A   1      43.286  23.311  24.123  1.00  0.00    -0.246 OA
BRANCH  30  32
ATOM     32  C   UNL A   1      42.975  24.434  26.212  1.00  0.00     0.060 A 
ATOM     33  C   UNL A   1      43.521  25.727  26.171  1.00  0.00     0.016 A 
ATOM     34  C   UNL A   1      41.895  24.145  27.046  1.00  0.00     0.016 A 
ATOM     35  C   UNL A   1      42.992  26.734  26.977  1.00  0.00     0.010 A 
ATOM     36  C   UNL A   1      41.388  25.145  27.876  1.00  0.00     0.010 A 
ATOM     37  C   UNL A   1      41.951  26.436  27.865  1.00  0.00    -0.014 A 
BRANCH  37  38
ATOM     38  C   UNL A   1      41.588  27.396  28.935  1.00  0.00     0.031 A 
ATOM     39  C   UNL A   1      42.370  27.345  30.218  1.00  0.00     0.074 A 
ATOM     40  C   UNL A   1      40.593  28.287  28.783  1.00  0.00     0.049 A 
ATOM     41  N   UNL A   1      42.179  27.996  31.336  1.00  0.00    -0.248 NA
ATOM     42  C   UNL A   1      43.522  26.430  30.241  1.00  0.00     0.031 C 
ATOM     43  C   UNL A   1      39.795  28.475  27.574  1.00  0.00     0.029 A 
ATOM     44  N   UNL A   1      40.075  29.195  29.674  1.00  0.00    -0.354 N 
ATOM     45  C   UNL A   1      43.180  27.562  32.196  1.00  0.00     0.074 A 
ATOM     46  C   UNL A   1      43.954  26.568  31.484  1.00  0.00     0.031 C 
ATOM     47  C   UNL A   1      38.875  29.429  27.804  1.00  0.00     0.029 A 
ATOM     48  C   UNL A   1      38.994  29.889  29.188  1.00  0.00     0.049 A 
ATOM     49  H   UNL A   1      40.445  29.336  30.576  1.00  0.00     0.167 HD
ATOM     50  C   UNL A   1      43.438  27.962  33.463  1.00  0.00     0.037 A 
ATOM     51  C   UNL A   1      38.179  30.769  29.803  1.00  0.00     0.037 A 
ATOM     52  C   UNL A   1      42.663  28.943  34.173  1.00  0.00     0.049 A 
ATOM     53  C   UNL A   1      38.424  31.121  31.250  1.00  0.00     0.074 A 
ATOM     54  C   UNL A   1      42.844  29.415  35.461  1.00  0.00     0.029 A 
ATOM     55  N   UNL A   1      41.554  29.597  33.658  1.00  0.00    -0.354 N 
ATOM     56  N   UNL A   1      39.378  30.717  32.054  1.00  0.00    -0.248 NA
ATOM     57  C   UNL A   1      37.474  32.054  31.875  1.00  0.00     0.031 C 
ATOM     58  C   UNL A   1      41.812  30.314  35.745  1.00  0.00     0.029 A 
ATOM     59  C   UNL A   1      41.026  30.451  34.612  1.00  0.00     0.049 A 
ATOM     60  H   UNL A   1      41.197  29.473  32.750  1.00  0.00     0.167 HD
ATOM     61  C   UNL A   1      39.167  31.375  33.260  1.00  0.00     0.074 A 
ATOM     62  C   UNL A   1      38.000  32.213  33.081  1.00  0.00     0.031 C 
ATOM     63  C   UNL A   1      39.876  31.295  34.414  1.00  0.00     0.037 A 
BRANCH  50  64
ATOM     64  C   UNL A   1      44.594  27.315  34.169  1.00  0.00     0.057 A 
ATOM     65  C   UNL A   1      44.452  26.114  34.876  1.00  0.00     0.134 A 
ATOM     66  C   UNL A   1      45.871  27.887  34.117  1.00  0.00     0.134 A 
ATOM     67  F   UNL A   1      43.252  25.524  34.980  1.00  0.00    -0.206 F 
ATOM     68  C   UNL A   1      45.534  25.516  35.523  1.00  0.00     0.040 A 
ATOM     69  C   UNL A   1      46.967  27.283  34.735  1.00  0.00     0.040 A 
ATOM     70  F   UNL A   1      46.078  29.036  33.456  1.00  0.00    -0.206 F 
ATOM     71  C   UNL A   1      46.798  26.097  35.446  1.00  0.00     0.006 A 
ENDBRANCH  50  64
BRANCH  51  72
ATOM     72  C   UNL A   1      37.032  31.373  29.073  1.00  0.00     0.057 A 
ATOM     73  C   UNL A   1      37.082  32.696  28.616  1.00  0.00     0.134 A 
ATOM     74  C   UNL A   1      35.843  30.665  28.863  1.00  0.00     0.134 A 
ATOM     75  F   UNL A   1      38.183  33.438  28.812  1.00  0.00    -0.206 F 
ATOM     76  C   UNL A   1      35.982  33.302  28.004  1.00  0.00     0.040 A 
ATOM     77  C   UNL A   1      34.747  31.248  28.224  1.00  0.00     0.040 A 
ATOM     78  F   UNL A   1      35.727  29.396  29.278  1.00  0.00    -0.206 F 
ATOM     79  C   UNL A   1      34.811  32.574  27.802  1.00  0.00     0.006 A 
ENDBRANCH  51  72
BRANCH  63  80
ATOM     80  C   UNL A   1      39.451  32.177  35.555  1.00  0.00     0.057 A 
ATOM     81  C   UNL A   1      38.538  31.750  36.529  1.00  0.00     0.134 A 
ATOM     82  C   UNL A   1      40.003  33.456  35.707  1.00  0.00     0.134 A 
ATOM     83  F   UNL A   1      37.964  30.541  36.440  1.00  0.00    -0.206 F 
ATOM     84  C   UNL A   1      38.171  32.573  37.595  1.00  0.00     0.040 A 
ATOM     85  C   UNL A   1      39.668  34.275  36.786  1.00  0.00     0.040 A 
ATOM     86  F   UNL A   1      40.893  33.924  34.820  1.00  0.00    -0.206 F 
ATOM     87  C   UNL A   1      38.742  33.837  37.731  1.00  0.00     0.006 A 
ENDBRANCH  63  80
ENDBRANCH  37  38
ENDBRANCH  30  32
ENDBRANCH  29  30
ENDBRANCH  28  29
ENDBRANCH  27  28
ENDBRANCH  26  27
ENDBRANCH  25  26
ENDBRANCH  24  25
ENDBRANCH   1  24
TORSDOF 22
ENDMDL
MODEL 2
REMARK VINA RESULT:     -10.2      1.621      2.386
REMARK SMILES C[C@@H]1[C@H](C(=O)OCCOCCOCCOC(=O)c2ccc(-c3c4nc(c(-c5c(F)cccc5F)c5ccc([nH]5)c(-c5c(F)cccc5F)c5nc(c(-c6c(F)cccc6F)c6ccc3[nH]6)C=C5)C=C4)cc2)CCN1C(=O)COCc1ccccc1
REMARK SMILES IDX 9 1 8 2 7 3 6 4 4 5 5 6 3 7 1 8 2 9 74 10 72 11 73 12 75 13
REMARK SMILES IDX 76 14 77 15 78 16 79 17 80 18 81 19 85 20 82 21 84 22 83 23
REMARK SMILES IDX 10 24 11 25 12 26 13 27 14 28 15 29 16 30 17 31 18 32 19 33
REMARK SMILES IDX 71 34 20 35 70 36 21 37 22 38 23 39 64 40 24 41 69 42 63 43
REMARK SMILES IDX 65 44 25 45 68 46 62 47 61 48 26 50 52 51 35 52 51 53 36 54
REMARK SMILES IDX 39 55 50 56 66 57 37 58 38 59 49 61 67 62 40 63 27 64 28 65
REMARK SMILES IDX 33 66 29 67 30 68 32 69 34 70 31 71 53 72 54 73 59 74 55 75
REMARK SMILES IDX 56 76 58 77 60 78 57 79 41 80 42 81 47 82 43 83 44 84 46 85
REMARK SMILES IDX 48 86 45 87
REMARK H PARENT 65 49 39 60
REMARK Flexibility Score: inf
ROOT
ATOM      1  O   UNL A   1      38.715  19.465  25.374  1.00  0.00    -0.376 OA
ENDROOT
BRANCH   1   2
ATOM      2  C   UNL A   1      37.585  20.088  24.769  1.00  0.00     0.202 C 
BRANCH   2   3
ATOM      3  C   UNL A   1      37.487  21.622  24.718  1.00  0.00     0.261 C 
BRANCH   3   4
ATOM      4  O   UNL A   1      36.929  22.220  25.910  1.00  0.00    -0.463 OA
BRANCH   4   5
ATOM      5  C   UNL A   1      35.597  22.447  25.897  1.00  0.00     0.311 C 
ATOM      6  O   UNL A   1      34.780  21.720  26.456  1.00  0.00    -0.252 OA
BRANCH   5   7
ATOM      7  C   UNL A   1      35.161  23.742  25.234  1.00  0.00     0.123 C 
ATOM      8  C   UNL A   1      33.925  22.734  23.176  1.00  0.00     0.032 C 
ATOM      9  C   UNL A   1      34.727  23.893  23.761  1.00  0.00     0.096 C 
ATOM     10  N   UNL A   1      33.909  25.121  23.798  1.00  0.00    -0.337 N 
ATOM     11  C   UNL A   1      33.942  24.276  25.994  1.00  0.00     0.039 C 
ATOM     12  C   UNL A   1      33.462  25.427  25.142  1.00  0.00     0.121 C 
BRANCH  10  13
ATOM     13  C   UNL A   1      33.656  26.031  22.790  1.00  0.00     0.248 C 
ATOM     14  O   UNL A   1      33.657  25.682  21.606  1.00  0.00    -0.272 OA
BRANCH  13  15
ATOM     15  C   UNL A   1      33.301  27.474  23.172  1.00  0.00     0.260 C 
BRANCH  15  16
ATOM     16  O   UNL A   1      32.250  28.081  22.424  1.00  0.00    -0.367 OA
BRANCH  16  17
ATOM     17  C   UNL A   1      30.968  27.469  22.615  1.00  0.00     0.196 C 
BRANCH  17  18
ATOM     18  C   UNL A   1      29.812  28.438  22.575  1.00  0.00    -0.022 A 
ATOM     19  C   UNL A   1      29.976  29.705  21.998  1.00  0.00     0.006 A 
ATOM     20  C   UNL A   1      28.569  28.100  23.127  1.00  0.00     0.006 A 
ATOM     21  C   UNL A   1      28.930  30.628  22.004  1.00  0.00     0.000 A 
ATOM     22  C   UNL A   1      27.526  29.027  23.140  1.00  0.00     0.000 A 
ATOM     23  C   UNL A   1      27.708  30.291  22.583  1.00  0.00     0.000 A 
ENDBRANCH  17  18
ENDBRANCH  16  17
ENDBRANCH  15  16
ENDBRANCH  13  15
ENDBRANCH  10  13
ENDBRANCH   5   7
ENDBRANCH   4   5
ENDBRANCH   3   4
ENDBRANCH   2   3
ENDBRANCH   1   2
BRANCH   1  24
ATOM     24  C   UNL A   1      39.787  20.285  25.797  1.00  0.00     0.188 C 
BRANCH  24  25
ATOM     25  C   UNL A   1      41.083  19.621  26.278  1.00  0.00     0.188 C 
BRANCH  25  26
ATOM     26  O   UNL A   1      42.103  19.374  25.346  1.00  0.00    -0.376 OA
BRANCH  26  27
ATOM     27  C   UNL A   1      43.445  19.774  25.577  1.00  0.00     0.202 C 
BRANCH  27  28
ATOM     28  C   UNL A   1      44.039  21.183  25.367  1.00  0.00     0.261 C 
BRANCH  28  29
ATOM     29  O   UNL A   1      43.359  22.302  25.934  1.00  0.00    -0.460 OA
BRANCH  29  30
ATOM     30  C   UNL A   1      43.704  23.520  25.442  1.00  0.00     0.338 C 
ATOM     31  O   UNL A   1      44.221  23.766  24.374  1.00  0.00    -0.246 OA
BRANCH  30  32
ATOM     32  C   UNL A   1      43.096  24.530  26.341  1.00  0.00     0.060 A 
ATOM     33  C   UNL A   1      43.577  25.849  26.297  1.00  0.00     0.016 A 
ATOM     34  C   UNL A   1      42.029  24.191  27.172  1.00  0.00     0.016 A 
ATOM     35  C   UNL A   1      42.995  26.831  27.098  1.00  0.00     0.010 A 
ATOM     36  C   UNL A   1      41.470  25.168  27.998  1.00  0.00     0.010 A 
ATOM     37  C   UNL A   1      41.968  26.484  27.984  1.00  0.00    -0.014 A 
BRANCH  37  38
ATOM     38  C   UNL A   1      41.554  27.429  29.048  1.00  0.00     0.031 A 
ATOM     39  C   UNL A   1      42.291  27.378  30.358  1.00  0.00     0.074 A 
ATOM     40  C   UNL A   1      40.551  28.307  28.870  1.00  0.00     0.049 A 
ATOM     41  N   UNL A   1      42.052  28.015  31.474  1.00  0.00    -0.248 NA
ATOM     42  C   UNL A   1      43.455  26.478  30.412  1.00  0.00     0.031 C 
ATOM     43  C   UNL A   1      39.794  28.495  27.636  1.00  0.00     0.029 A 
ATOM     44  N   UNL A   1      39.990  29.199  29.750  1.00  0.00    -0.354 N 
ATOM     45  C   UNL A   1      43.029  27.587  32.365  1.00  0.00     0.074 A 
ATOM     46  C   UNL A   1      43.841  26.612  31.671  1.00  0.00     0.031 C 
ATOM     47  C   UNL A   1      38.852  29.434  27.841  1.00  0.00     0.029 A 
ATOM     48  C   UNL A   1      38.916  29.882  29.233  1.00  0.00     0.049 A 
ATOM     49  H   UNL A   1      40.326  29.337  30.666  1.00  0.00     0.167 HD
ATOM     50  C   UNL A   1      43.236  27.979  33.643  1.00  0.00     0.037 A 
ATOM     51  C   UNL A   1      38.067  30.744  29.827  1.00  0.00     0.037 A 
ATOM     52  C   UNL A   1      42.423  28.942  34.335  1.00  0.00     0.049 A 
ATOM     53  C   UNL A   1      38.257  31.086  31.285  1.00  0.00     0.074 A 
ATOM     54  C   UNL A   1      42.552  29.404  35.633  1.00  0.00     0.029 A 
ATOM     55  N   UNL A   1      41.323  29.585  33.787  1.00  0.00    -0.354 N 
ATOM     56  N   UNL A   1      39.188  30.688  32.118  1.00  0.00    -0.248 NA
ATOM     57  C   UNL A   1      37.271  32.000  31.885  1.00  0.00     0.031 C 
ATOM     58  C   UNL A   1      41.498  30.285  35.888  1.00  0.00     0.029 A 
ATOM     59  C   UNL A   1      40.750  30.422  34.730  1.00  0.00     0.049 A 
ATOM     60  H   UNL A   1      41.000  29.464  32.866  1.00  0.00     0.167 HD
ATOM     61  C   UNL A   1      38.926  31.332  33.322  1.00  0.00     0.074 A 
ATOM     62  C   UNL A   1      37.754  32.154  33.109  1.00  0.00     0.031 C 
ATOM     63  C   UNL A   1      39.594  31.251  34.499  1.00  0.00     0.037 A 
BRANCH  50  64
ATOM     64  C   UNL A   1      44.376  27.342  34.384  1.00  0.00     0.057 A 
ATOM     65  C   UNL A   1      45.656  27.913  34.408  1.00  0.00     0.134 A 
ATOM     66  C   UNL A   1      44.184  26.157  35.105  1.00  0.00     0.134 A 
ATOM     67  F   UNL A   1      45.911  29.038  33.723  1.00  0.00    -0.206 F 
ATOM     68  C   UNL A   1      46.707  27.318  35.105  1.00  0.00     0.040 A 
ATOM     69  C   UNL A   1      45.221  25.568  35.831  1.00  0.00     0.040 A 
ATOM     70  F   UNL A   1      42.985  25.557  35.126  1.00  0.00    -0.206 F 
ATOM     71  C   UNL A   1      46.489  26.146  35.826  1.00  0.00     0.006 A 
ENDBRANCH  50  64
BRANCH  51  72
ATOM     72  C   UNL A   1      36.938  31.339  29.062  1.00  0.00     0.057 A 
ATOM     73  C   UNL A   1      36.975  32.673  28.639  1.00  0.00     0.134 A 
ATOM     74  C   UNL A   1      35.776  30.609  28.786  1.00  0.00     0.134 A 
ATOM     75  F   UNL A   1      38.049  33.435  28.897  1.00  0.00    -0.206 F 
ATOM     76  C   UNL A   1      35.888  33.267  27.994  1.00  0.00     0.040 A 
ATOM     77  C   UNL A   1      34.694  31.181  28.115  1.00  0.00     0.040 A 
ATOM     78  F   UNL A   1      35.674  29.328  29.168  1.00  0.00    -0.206 F 
ATOM     79  C   UNL A   1      34.744  32.518  27.726  1.00  0.00     0.006 A 
ENDBRANCH  51  72
BRANCH  63  80
ATOM     80  C   UNL A   1      39.117  32.116  35.633  1.00  0.00     0.057 A 
ATOM     81  C   UNL A   1      38.260  31.633  36.630  1.00  0.00     0.134 A 
ATOM     82  C   UNL A   1      39.563  33.439  35.753  1.00  0.00     0.134 A 
ATOM     83  F   UNL A   1      37.787  30.379  36.572  1.00  0.00    -0.206 F 
ATOM     84  C   UNL A   1      37.843  32.443  37.689  1.00  0.00     0.040 A 
ATOM     85  C   UNL A   1      39.180  34.248  36.823  1.00  0.00     0.040 A 
ATOM     86  F   UNL A   1      40.397  33.962  34.841  1.00  0.00    -0.206 F 
ATOM     87  C   UNL A   1      38.310  33.752  37.792  1.00  0.00     0.006 A 
ENDBRANCH  63  80
ENDBRANCH  37  38
ENDBRANCH  30  32
ENDBRANCH  29  30
ENDBRANCH  28  29
ENDBRANCH  27  28
ENDBRANCH  26  27
ENDBRANCH  25  26
ENDBRANCH  24  25
ENDBRANCH   1  24
TORSDOF 22
ENDMDL
MODEL 3
REMARK VINA RESULT:     -10.2      1.680      3.309
REMARK SMILES C[C@@H]1[C@H](C(=O)OCCOCCOCCOC(=O)c2ccc(-c3c4nc(c(-c5c(F)cccc5F)c5ccc([nH]5)c(-c5c(F)cccc5F)c5nc(c(-c6c(F)cccc6F)c6ccc3[nH]6)C=C5)C=C4)cc2)CCN1C(=O)COCc1ccccc1
REMARK SMILES IDX 9 1 8 2 7 3 6 4 4 5 5 6 3 7 1 8 2 9 74 10 72 11 73 12 75 13
REMARK SMILES IDX 76 14 77 15 78 16 79 17 80 18 81 19 85 20 82 21 84 22 83 23
REMARK SMILES IDX 10 24 11 25 12 26 13 27 14 28 15 29 16 30 17 31 18 32 19 33
REMARK SMILES IDX 71 34 20 35 70 36 21 37 22 38 23 39 64 40 24 41 69 42 63 43
REMARK SMILES IDX 65 44 25 45 68 46 62 47 61 48 26 50 52 51 35 52 51 53 36 54
REMARK SMILES IDX 39 55 50 56 66 57 37 58 38 59 49 61 67 62 40 63 27 64 28 65
REMARK SMILES IDX 33 66 29 67 30 68 32 69 34 70 31 71 53 72 54 73 59 74 55 75
REMARK SMILES IDX 56 76 58 77 60 78 57 79 41 80 42 81 47 82 43 83 44 84 46 85
REMARK SMILES IDX 48 86 45 87
REMARK H PARENT 65 49 39 60
REMARK Flexibility Score: inf
ROOT
ATOM      1  O   UNL A   1      40.815  21.184  26.752  1.00  0.00    -0.376 OA
ENDROOT
BRANCH   1   2
ATOM      2  C   UNL A   1      39.663  21.992  26.530  1.00  0.00     0.202 C 
BRANCH   2   3
ATOM      3  C   UNL A   1      38.489  21.447  25.698  1.00  0.00     0.261 C 
BRANCH   3   4
ATOM      4  O   UNL A   1      37.896  22.417  24.806  1.00  0.00    -0.463 OA
BRANCH   4   5
ATOM      5  C   UNL A   1      37.089  23.338  25.376  1.00  0.00     0.311 C 
ATOM      6  O   UNL A   1      37.472  24.148  26.216  1.00  0.00    -0.252 OA
BRANCH   5   7
ATOM      7  C   UNL A   1      35.674  23.396  24.828  1.00  0.00     0.123 C 
ATOM      8  C   UNL A   1      34.560  21.672  26.430  1.00  0.00     0.032 C 
ATOM      9  C   UNL A   1      34.581  22.330  25.054  1.00  0.00     0.096 C 
ATOM     10  N   UNL A   1      33.340  23.098  24.830  1.00  0.00    -0.337 N 
ATOM     11  C   UNL A   1      35.010  24.669  25.365  1.00  0.00     0.039 C 
ATOM     12  C   UNL A   1      33.564  24.525  24.947  1.00  0.00     0.121 C 
BRANCH  10  13
ATOM     13  C   UNL A   1      32.103  22.653  24.408  1.00  0.00     0.248 C 
ATOM     14  O   UNL A   1      31.066  23.068  24.935  1.00  0.00    -0.272 OA
BRANCH  13  15
ATOM     15  C   UNL A   1      32.033  21.682  23.222  1.00  0.00     0.260 C 
BRANCH  15  16
ATOM     16  O   UNL A   1      32.702  20.434  23.392  1.00  0.00    -0.367 OA
BRANCH  16  17
ATOM     17  C   UNL A   1      32.200  19.647  24.480  1.00  0.00     0.196 C 
BRANCH  17  18
ATOM     18  C   UNL A   1      32.995  18.392  24.747  1.00  0.00    -0.022 A 
ATOM     19  C   UNL A   1      34.349  18.327  24.390  1.00  0.00     0.006 A 
ATOM     20  C   UNL A   1      32.394  17.270  25.334  1.00  0.00     0.006 A 
ATOM     21  C   UNL A   1      35.079  17.154  24.584  1.00  0.00     0.000 A 
ATOM     22  C   UNL A   1      33.123  16.094  25.520  1.00  0.00     0.000 A 
ATOM     23  C   UNL A   1      34.463  16.035  25.141  1.00  0.00     0.000 A 
ENDBRANCH  17  18
ENDBRANCH  16  17
ENDBRANCH  15  16
ENDBRANCH  13  15
ENDBRANCH  10  13
ENDBRANCH   5   7
ENDBRANCH   4   5
ENDBRANCH   3   4
ENDBRANCH   2   3
ENDBRANCH   1   2
BRANCH   1  24
ATOM     24  C   UNL A   1      40.804  19.851  26.275  1.00  0.00     0.188 C 
BRANCH  24  25
ATOM     25  C   UNL A   1      42.137  19.113  26.106  1.00  0.00     0.188 C 
BRANCH  25  26
ATOM     26  O   UNL A   1      42.945  19.419  25.001  1.00  0.00    -0.376 OA
BRANCH  26  27
ATOM     27  C   UNL A   1      44.138  20.177  25.126  1.00  0.00     0.202 C 
BRANCH  27  28
ATOM     28  C   UNL A   1      44.293  21.547  25.820  1.00  0.00     0.261 C 
BRANCH  28  29
ATOM     29  O   UNL A   1      43.395  22.598  25.465  1.00  0.00    -0.460 OA
BRANCH  29  30
ATOM     30  C   UNL A   1      43.962  23.807  25.217  1.00  0.00     0.338 C 
ATOM     31  O   UNL A   1      44.688  24.107  24.294  1.00  0.00    -0.246 OA
BRANCH  30  32
ATOM     32  C   UNL A   1      43.323  24.775  26.141  1.00  0.00     0.060 A 
ATOM     33  C   UNL A   1      43.759  26.109  26.127  1.00  0.00     0.016 A 
ATOM     34  C   UNL A   1      42.270  24.380  26.966  1.00  0.00     0.016 A 
ATOM     35  C   UNL A   1      43.147  27.052  26.952  1.00  0.00     0.010 A 
ATOM     36  C   UNL A   1      41.681  25.318  27.815  1.00  0.00     0.010 A 
ATOM     37  C   UNL A   1      42.134  26.651  27.831  1.00  0.00    -0.014 A 
BRANCH  37  38
ATOM     38  C   UNL A   1      41.692  27.555  28.919  1.00  0.00     0.031 A 
ATOM     39  C   UNL A   1      42.431  27.494  30.228  1.00  0.00     0.074 A 
ATOM     40  C   UNL A   1      40.663  28.407  28.762  1.00  0.00     0.049 A 
ATOM     41  N   UNL A   1      42.172  28.095  31.359  1.00  0.00    -0.248 NA
ATOM     42  C   UNL A   1      43.621  26.629  30.260  1.00  0.00     0.031 C 
ATOM     43  C   UNL A   1      39.900  28.603  27.532  1.00  0.00     0.029 A 
ATOM     44  N   UNL A   1      40.075  29.259  29.663  1.00  0.00    -0.354 N 
ATOM     45  C   UNL A   1      43.161  27.676  32.239  1.00  0.00     0.074 A 
ATOM     46  C   UNL A   1      44.003  26.742  31.523  1.00  0.00     0.031 C 
ATOM     47  C   UNL A   1      38.931  29.507  27.760  1.00  0.00     0.029 A 
ATOM     48  C   UNL A   1      38.981  29.922  29.162  1.00  0.00     0.049 A 
ATOM     49  H   UNL A   1      40.406  29.385  30.582  1.00  0.00     0.167 HD
ATOM     50  C   UNL A   1      43.356  28.041  33.528  1.00  0.00     0.037 A 
ATOM     51  C   UNL A   1      38.106  30.743  29.777  1.00  0.00     0.037 A 
ATOM     52  C   UNL A   1      42.515  28.962  34.242  1.00  0.00     0.049 A 
ATOM     53  C   UNL A   1      38.285  31.054  31.243  1.00  0.00     0.074 A 
ATOM     54  C   UNL A   1      42.629  29.395  35.551  1.00  0.00     0.029 A 
ATOM     55  N   UNL A   1      41.396  29.585  33.710  1.00  0.00    -0.354 N 
ATOM     56  N   UNL A   1      39.228  30.664  32.067  1.00  0.00    -0.248 NA
ATOM     57  C   UNL A   1      37.273  31.922  31.865  1.00  0.00     0.031 C 
ATOM     58  C   UNL A   1      41.549  30.237  35.828  1.00  0.00     0.029 A 
ATOM     59  C   UNL A   1      40.797  30.380  34.673  1.00  0.00     0.049 A 
ATOM     60  H   UNL A   1      41.076  29.477  32.785  1.00  0.00     0.167 HD
ATOM     61  C   UNL A   1      38.946  31.269  33.287  1.00  0.00     0.074 A 
ATOM     62  C   UNL A   1      37.750  32.061  33.093  1.00  0.00     0.031 C 
ATOM     63  C   UNL A   1      39.617  31.179  34.462  1.00  0.00     0.037 A 
BRANCH  50  64
ATOM     64  C   UNL A   1      44.515  27.421  34.253  1.00  0.00     0.057 A 
ATOM     65  C   UNL A   1      45.762  28.056  34.338  1.00  0.00     0.134 A 
ATOM     66  C   UNL A   1      44.374  26.186  34.897  1.00  0.00     0.134 A 
ATOM     67  F   UNL A   1      45.969  29.232  33.728  1.00  0.00    -0.206 F 
ATOM     68  C   UNL A   1      46.831  27.475  35.022  1.00  0.00     0.040 A 
ATOM     69  C   UNL A   1      45.427  25.609  35.609  1.00  0.00     0.040 A 
ATOM     70  F   UNL A   1      43.208  25.524  34.857  1.00  0.00    -0.206 F 
ATOM     71  C   UNL A   1      46.662  26.251  35.666  1.00  0.00     0.006 A 
ENDBRANCH  50  64
BRANCH  51  72
ATOM     72  C   UNL A   1      36.960  31.323  29.027  1.00  0.00     0.057 A 
ATOM     73  C   UNL A   1      36.967  32.661  28.614  1.00  0.00     0.134 A 
ATOM     74  C   UNL A   1      35.810  30.572  28.753  1.00  0.00     0.134 A 
ATOM     75  F   UNL A   1      38.028  33.441  28.871  1.00  0.00    -0.206 F 
ATOM     76  C   UNL A   1      35.864  33.239  27.983  1.00  0.00     0.040 A 
ATOM     77  C   UNL A   1      34.712  31.129  28.095  1.00  0.00     0.040 A 
ATOM     78  F   UNL A   1      35.736  29.286  29.124  1.00  0.00    -0.206 F 
ATOM     79  C   UNL A   1      34.733  32.470  27.718  1.00  0.00     0.006 A 
ENDBRANCH  51  72
BRANCH  63  80
ATOM     80  C   UNL A   1      39.114  32.000  35.616  1.00  0.00     0.057 A 
ATOM     81  C   UNL A   1      38.289  31.462  36.612  1.00  0.00     0.134 A 
ATOM     82  C   UNL A   1      39.502  33.340  35.757  1.00  0.00     0.134 A 
ATOM     83  F   UNL A   1      37.872  30.189  36.536  1.00  0.00    -0.206 F 
ATOM     84  C   UNL A   1      37.849  32.232  37.690  1.00  0.00     0.040 A 
ATOM     85  C   UNL A   1      39.095  34.111  36.846  1.00  0.00     0.040 A 
ATOM     86  F   UNL A   1      40.302  33.917  34.847  1.00  0.00    -0.206 F 
ATOM     87  C   UNL A   1      38.258  33.559  37.813  1.00  0.00     0.006 A 
ENDBRANCH  63  80
ENDBRANCH  37  38
ENDBRANCH  30  32
ENDBRANCH  29  30
ENDBRANCH  28  29
ENDBRANCH  27  28
ENDBRANCH  26  27
ENDBRANCH  25  26
ENDBRANCH  24  25
ENDBRANCH   1  24
TORSDOF 22
ENDMDL
