MODEL 1
REMARK VINA RESULT:     -11.0      0.000      0.000
REMARK SMILES CN(C)S(=O)(=O)c1ccc(-n2c(CCC(=O)OCCOCCOCCOC(=O)c3ccc(-c4c5nc(c(-c6c(F)cccc6F)c6ccc([nH]6)c(-c6c(F)cccc6F)c6nc(c(-c7c(F)cccc7F)c7ccc4[nH]7)C=C6)C=C5)cc3)ccc2-c2ccc(F)cc2)cc1
REMARK SMILES IDX 20 1 19 2 18 3 17 4 15 5 16 6 14 7 13 8 12 9 11 10 85 11
REMARK SMILES IDX 83 12 84 13 10 14 7 15 8 16 94 17 9 18 93 19 4 20 5 21 6 22
REMARK SMILES IDX 2 23 1 24 3 25 86 26 87 27 92 28 88 29 91 30 89 31 90 32
REMARK SMILES IDX 21 33 22 34 23 35 24 36 25 37 26 38 27 39 28 40 29 41 30 42
REMARK SMILES IDX 82 43 31 44 81 45 32 46 33 47 34 48 75 49 35 50 80 51 74 52
REMARK SMILES IDX 76 53 36 54 79 55 73 56 72 57 37 59 63 60 46 61 62 62 47 63
REMARK SMILES IDX 50 64 61 65 77 66 48 67 49 68 60 70 78 71 51 72 38 73 39 74
REMARK SMILES IDX 44 75 40 76 41 77 43 78 45 79 42 80 64 81 65 82 70 83 66 84
REMARK SMILES IDX 67 85 69 86 71 87 68 88 52 89 53 90 58 91 54 92 55 93 57 94
REMARK SMILES IDX 59 95 56 96
REMARK H PARENT 76 58 50 69
REMARK Flexibility Score: inf
ROOT
ATOM      1  O   UNL A   1      36.626  22.219  24.232  1.00  0.00    -0.376 OA
ENDROOT
BRANCH   1   2
ATOM      2  C   UNL A   1      35.379  23.189  23.018  1.00  0.00     0.202 C 
BRANCH   2   3
ATOM      3  C   UNL A   1      33.720  22.946  22.612  1.00  0.00     0.261 C 
BRANCH   3   4
ATOM      4  O   UNL A   1      32.832  24.074  22.390  1.00  0.00    -0.463 OA
BRANCH   4   5
ATOM      5  C   UNL A   1      32.907  24.692  21.178  1.00  0.00     0.306 C 
ATOM      6  O   UNL A   1      33.221  24.115  20.142  1.00  0.00    -0.252 OA
BRANCH   5   7
ATOM      7  C   UNL A   1      32.476  26.160  21.182  1.00  0.00     0.129 C 
BRANCH   7   8
ATOM      8  C   UNL A   1      31.079  26.564  21.674  1.00  0.00     0.066 C 
BRANCH   8   9
ATOM      9  C   UNL A   1      31.076  27.711  22.621  1.00  0.00     0.024 A 
ATOM     10  N   UNL A   1      31.580  27.695  23.923  1.00  0.00    -0.314 N 
ATOM     11  C   UNL A   1      31.583  29.036  24.372  1.00  0.00     0.053 A 
ATOM     12  C   UNL A   1      30.522  28.957  22.386  1.00  0.00     0.024 A 
ATOM     13  C   UNL A   1      30.838  29.779  23.474  1.00  0.00     0.029 A 
BRANCH  10  14
ATOM     14  C   UNL A   1      32.077  26.556  24.653  1.00  0.00     0.046 A 
ATOM     15  C   UNL A   1      33.062  23.675  26.608  1.00  0.00     0.082 A 
ATOM     16  C   UNL A   1      31.345  24.130  26.482  1.00  0.00     0.024 A 
ATOM     17  C   UNL A   1      34.343  24.655  25.806  1.00  0.00     0.024 A 
ATOM     18  C   UNL A   1      30.847  25.544  25.501  1.00  0.00     0.028 A 
ATOM     19  C   UNL A   1      33.856  26.085  24.784  1.00  0.00     0.028 A 
BRANCH  15  20
ATOM     20  S   UNL A   1      33.497  22.097  27.249  1.00  0.00     0.242 S 
ATOM     21  O   UNL A   1      32.768  21.926  28.487  1.00  0.00    -0.207 OA
ATOM     22  O   UNL A   1      34.943  22.014  27.206  1.00  0.00    -0.207 OA
BRANCH  20  23
ATOM     23  N   UNL A   1      32.874  20.948  26.128  1.00  0.00    -0.204 NA
ATOM     24  C   UNL A   1      31.782  21.523  25.296  1.00  0.00     0.124 C 
ATOM     25  C   UNL A   1      33.878  20.281  25.264  1.00  0.00     0.124 C 
ENDBRANCH  20  23
ENDBRANCH  15  20
ENDBRANCH  10  14
BRANCH  11  26
ATOM     26  C   UNL A   1      32.288  29.582  25.541  1.00  0.00    -0.001 A 
ATOM     27  C   UNL A   1      33.515  29.029  25.949  1.00  0.00     0.013 A 
ATOM     28  C   UNL A   1      31.778  30.691  26.237  1.00  0.00     0.013 A 
ATOM     29  C   UNL A   1      34.253  29.625  26.974  1.00  0.00     0.040 A 
ATOM     30  C   UNL A   1      32.524  31.294  27.252  1.00  0.00     0.040 A 
ATOM     31  C   UNL A   1      33.758  30.762  27.604  1.00  0.00     0.123 A 
ATOM     32  F   UNL A   1      34.489  31.363  28.553  1.00  0.00    -0.207 F 
ENDBRANCH  11  26
ENDBRANCH   8   9
ENDBRANCH   7   8
ENDBRANCH   5   7
ENDBRANCH   4   5
ENDBRANCH   3   4
ENDBRANCH   2   3
ENDBRANCH   1   2
BRANCH   1  33
ATOM     33  C   UNL A   1      37.297  20.922  24.689  1.00  0.00     0.188 C 
BRANCH  33  34
ATOM     34  C   UNL A   1      38.655  21.119  25.401  1.00  0.00     0.188 C 
BRANCH  34  35
ATOM     35  O   UNL A   1      38.789  22.136  26.403  1.00  0.00    -0.376 OA
BRANCH  35  36
ATOM     36  C   UNL A   1      39.970  22.188  27.199  1.00  0.00     0.202 C 
BRANCH  36  37
ATOM     37  C   UNL A   1      41.008  23.207  26.796  1.00  0.00     0.261 C 
BRANCH  37  38
ATOM     38  O   UNL A   1      41.117  24.121  27.863  1.00  0.00    -0.460 OA
BRANCH  38  39
ATOM     39  C   UNL A   1      41.307  25.395  27.439  1.00  0.00     0.338 C 
ATOM     40  O   UNL A   1      42.311  25.886  26.978  1.00  0.00    -0.246 OA
BRANCH  39  41
ATOM     41  C   UNL A   1      40.037  26.125  27.738  1.00  0.00     0.060 A 
ATOM     42  C   UNL A   1      39.936  27.198  26.850  1.00  0.00     0.016 A 
ATOM     43  C   UNL A   1      40.019  26.336  29.118  1.00  0.00     0.016 A 
ATOM     44  C   UNL A   1      40.435  28.398  27.291  1.00  0.00     0.010 A 
ATOM     45  C   UNL A   1      40.694  27.447  29.552  1.00  0.00     0.010 A 
ATOM     46  C   UNL A   1      40.873  28.481  28.624  1.00  0.00    -0.014 A 
BRANCH  46  47
ATOM     47  C   UNL A   1      41.079  29.822  29.149  1.00  0.00     0.031 A 
ATOM     48  C   UNL A   1      39.637  30.340  29.513  1.00  0.00     0.074 A 
ATOM     49  C   UNL A   1      42.378  30.263  29.111  1.00  0.00     0.049 A 
ATOM     50  N   UNL A   1      39.082  31.501  29.340  1.00  0.00    -0.248 NA
ATOM     51  C   UNL A   1      38.598  29.353  29.991  1.00  0.00     0.031 C 
ATOM     52  C   UNL A   1      43.578  29.482  28.702  1.00  0.00     0.029 A 
ATOM     53  N   UNL A   1      42.971  31.463  29.403  1.00  0.00    -0.354 N 
ATOM     54  C   UNL A   1      37.781  31.415  29.898  1.00  0.00     0.074 A 
ATOM     55  C   UNL A   1      37.465  30.042  30.048  1.00  0.00     0.031 C 
ATOM     56  C   UNL A   1      44.691  30.260  28.667  1.00  0.00     0.029 A 
ATOM     57  C   UNL A   1      44.347  31.614  29.052  1.00  0.00     0.049 A 
ATOM     58  H   UNL A   1      42.469  32.191  29.836  1.00  0.00     0.167 HD
ATOM     59  C   UNL A   1      37.154  32.469  30.487  1.00  0.00     0.037 A 
ATOM     60  C   UNL A   1      45.084  32.780  28.998  1.00  0.00     0.037 A 
ATOM     61  C   UNL A   1      37.968  33.619  30.350  1.00  0.00     0.049 A 
ATOM     62  C   UNL A   1      44.106  33.802  29.402  1.00  0.00     0.074 A 
ATOM     63  C   UNL A   1      38.148  34.569  29.386  1.00  0.00     0.029 A 
ATOM     64  N   UNL A   1      38.968  33.723  31.283  1.00  0.00    -0.354 N 
ATOM     65  N   UNL A   1      43.616  33.940  30.594  1.00  0.00    -0.248 NA
ATOM     66  C   UNL A   1      43.391  34.440  28.303  1.00  0.00     0.031 C 
ATOM     67  C   UNL A   1      39.395  35.161  29.689  1.00  0.00     0.029 A 
ATOM     68  C   UNL A   1      39.991  34.430  30.720  1.00  0.00     0.049 A 
ATOM     69  H   UNL A   1      38.951  33.353  32.195  1.00  0.00     0.167 HD
ATOM     70  C   UNL A   1      42.349  34.429  30.363  1.00  0.00     0.074 A 
ATOM     71  C   UNL A   1      42.283  34.772  28.949  1.00  0.00     0.031 C 
ATOM     72  C   UNL A   1      41.318  34.176  31.209  1.00  0.00     0.037 A 
BRANCH  59  73
ATOM     73  C   UNL A   1      36.060  32.539  31.526  1.00  0.00     0.057 A 
ATOM     74  C   UNL A   1      34.957  33.377  31.237  1.00  0.00     0.134 A 
ATOM     75  C   UNL A   1      36.214  32.191  32.875  1.00  0.00     0.134 A 
ATOM     76  F   UNL A   1      34.672  33.729  29.973  1.00  0.00    -0.206 F 
ATOM     77  C   UNL A   1      34.174  33.964  32.233  1.00  0.00     0.040 A 
ATOM     78  C   UNL A   1      35.391  32.725  33.878  1.00  0.00     0.040 A 
ATOM     79  F   UNL A   1      37.214  31.407  33.297  1.00  0.00    -0.206 F 
ATOM     80  C   UNL A   1      34.405  33.654  33.564  1.00  0.00     0.006 A 
ENDBRANCH  59  73
BRANCH  60  81
ATOM     81  C   UNL A   1      46.392  33.311  28.442  1.00  0.00     0.057 A 
ATOM     82  C   UNL A   1      47.401  33.948  29.164  1.00  0.00     0.134 A 
ATOM     83  C   UNL A   1      46.718  33.115  27.063  1.00  0.00     0.134 A 
ATOM     84  F   UNL A   1      47.206  34.315  30.437  1.00  0.00    -0.206 F 
ATOM     85  C   UNL A   1      48.661  34.256  28.594  1.00  0.00     0.040 A 
ATOM     86  C   UNL A   1      47.976  33.362  26.500  1.00  0.00     0.040 A 
ATOM     87  F   UNL A   1      45.817  32.660  26.180  1.00  0.00    -0.206 F 
ATOM     88  C   UNL A   1      48.967  33.922  27.275  1.00  0.00     0.006 A 
ENDBRANCH  60  81
BRANCH  72  89
ATOM     89  C   UNL A   1      41.684  33.313  32.419  1.00  0.00     0.057 A 
ATOM     90  C   UNL A   1      42.451  33.824  33.465  1.00  0.00     0.134 A 
ATOM     91  C   UNL A   1      41.404  31.933  32.510  1.00  0.00     0.134 A 
ATOM     92  F   UNL A   1      42.769  35.125  33.487  1.00  0.00    -0.206 F 
ATOM     93  C   UNL A   1      42.917  33.017  34.519  1.00  0.00     0.040 A 
ATOM     94  C   UNL A   1      41.868  31.106  33.545  1.00  0.00     0.040 A 
ATOM     95  F   UNL A   1      40.639  31.337  31.599  1.00  0.00    -0.206 F 
ATOM     96  C   UNL A   1      42.636  31.652  34.559  1.00  0.00     0.006 A 
ENDBRANCH  72  89
ENDBRANCH  46  47
ENDBRANCH  39  41
ENDBRANCH  38  39
ENDBRANCH  37  38
ENDBRANCH  36  37
ENDBRANCH  35  36
ENDBRANCH  34  35
ENDBRANCH  33  34
ENDBRANCH   1  33
TORSDOF 23
ENDMDL
MODEL 2
REMARK VINA RESULT:     -10.7      3.135      7.716
REMARK SMILES CN(C)S(=O)(=O)c1ccc(-n2c(CCC(=O)OCCOCCOCCOC(=O)c3ccc(-c4c5nc(c(-c6c(F)cccc6F)c6ccc([nH]6)c(-c6c(F)cccc6F)c6nc(c(-c7c(F)cccc7F)c7ccc4[nH]7)C=C6)C=C5)cc3)ccc2-c2ccc(F)cc2)cc1
REMARK SMILES IDX 20 1 19 2 18 3 17 4 15 5 16 6 14 7 13 8 12 9 11 10 85 11
REMARK SMILES IDX 83 12 84 13 10 14 7 15 8 16 94 17 9 18 93 19 4 20 5 21 6 22
REMARK SMILES IDX 2 23 1 24 3 25 86 26 87 27 92 28 88 29 91 30 89 31 90 32
REMARK SMILES IDX 21 33 22 34 23 35 24 36 25 37 26 38 27 39 28 40 29 41 30 42
REMARK SMILES IDX 82 43 31 44 81 45 32 46 33 47 34 48 75 49 35 50 80 51 74 52
REMARK SMILES IDX 76 53 36 54 79 55 73 56 72 57 37 59 63 60 46 61 62 62 47 63
REMARK SMILES IDX 50 64 61 65 77 66 48 67 49 68 60 70 78 71 51 72 38 73 39 74
REMARK SMILES IDX 44 75 40 76 41 77 43 78 45 79 42 80 64 81 65 82 70 83 66 84
REMARK SMILES IDX 67 85 69 86 71 87 68 88 52 89 53 90 58 91 54 92 55 93 57 94
REMARK SMILES IDX 59 95 56 96
REMARK H PARENT 76 58 50 69
REMARK Flexibility Score: inf
ROOT
ATOM      1  O   UNL A   1      30.912  27.028  26.904  1.00  0.00    -0.376 OA
ENDROOT
BRANCH   1   2
ATOM      2  C   UNL A   1      30.206  25.366  26.063  1.00  0.00     0.202 C 
BRANCH   2   3
ATOM      3  C   UNL A   1      30.911  24.207  24.998  1.00  0.00     0.261 C 
BRANCH   3   4
ATOM      4  O   UNL A   1      30.708  22.782  25.205  1.00  0.00    -0.463 OA
BRANCH   4   5
ATOM      5  C   UNL A   1      31.646  22.124  25.942  1.00  0.00     0.306 C 
ATOM      6  O   UNL A   1      32.180  22.601  26.937  1.00  0.00    -0.252 OA
BRANCH   5   7
ATOM      7  C   UNL A   1      31.923  20.690  25.489  1.00  0.00     0.129 C 
BRANCH   7   8
ATOM      8  C   UNL A   1      32.796  20.413  24.257  1.00  0.00     0.066 C 
BRANCH   8   9
ATOM      9  C   UNL A   1      34.258  20.461  24.523  1.00  0.00     0.024 A 
ATOM     10  N   UNL A   1      35.052  21.609  24.513  1.00  0.00    -0.314 N 
ATOM     11  C   UNL A   1      36.310  21.236  25.037  1.00  0.00     0.053 A 
ATOM     12  C   UNL A   1      35.076  19.371  24.765  1.00  0.00     0.024 A 
ATOM     13  C   UNL A   1      36.351  19.854  25.085  1.00  0.00     0.029 A 
BRANCH  10  14
ATOM     14  C   UNL A   1      34.657  22.940  24.122  1.00  0.00     0.046 A 
ATOM     15  C   UNL A   1      33.638  26.341  23.422  1.00  0.00     0.082 A 
ATOM     16  C   UNL A   1      34.059  25.853  25.083  1.00  0.00     0.024 A 
ATOM     17  C   UNL A   1      33.669  25.151  22.070  1.00  0.00     0.024 A 
ATOM     18  C   UNL A   1      34.583  24.175  25.434  1.00  0.00     0.028 A 
ATOM     19  C   UNL A   1      34.220  23.445  22.401  1.00  0.00     0.028 A 
BRANCH  15  20
ATOM     20  S   UNL A   1      33.493  28.048  23.030  1.00  0.00     0.242 S 
ATOM     21  O   UNL A   1      34.192  28.257  21.780  1.00  0.00    -0.207 OA
ATOM     22  O   UNL A   1      33.849  28.782  24.227  1.00  0.00    -0.207 OA
BRANCH  20  23
ATOM     23  N   UNL A   1      31.819  28.319  22.728  1.00  0.00    -0.204 NA
ATOM     24  C   UNL A   1      31.110  27.059  22.376  1.00  0.00     0.124 C 
ATOM     25  C   UNL A   1      31.082  29.039  23.794  1.00  0.00     0.124 C 
ENDBRANCH  20  23
ENDBRANCH  15  20
ENDBRANCH  10  14
BRANCH  11  26
ATOM     26  C   UNL A   1      37.379  22.129  25.510  1.00  0.00    -0.001 A 
ATOM     27  C   UNL A   1      37.118  23.495  25.719  1.00  0.00     0.013 A 
ATOM     28  C   UNL A   1      38.657  21.628  25.807  1.00  0.00     0.013 A 
ATOM     29  C   UNL A   1      38.089  24.320  26.293  1.00  0.00     0.040 A 
ATOM     30  C   UNL A   1      39.622  22.451  26.394  1.00  0.00     0.040 A 
ATOM     31  C   UNL A   1      39.325  23.786  26.641  1.00  0.00     0.123 A 
ATOM     32  F   UNL A   1      40.238  24.565  27.235  1.00  0.00    -0.207 F 
ENDBRANCH  11  26
ENDBRANCH   8   9
ENDBRANCH   7   8
ENDBRANCH   5   7
ENDBRANCH   4   5
ENDBRANCH   3   4
ENDBRANCH   2   3
ENDBRANCH   1   2
BRANCH   1  33
ATOM     33  C   UNL A   1      32.083  27.951  27.248  1.00  0.00     0.188 C 
BRANCH  33  34
ATOM     34  C   UNL A   1      31.689  29.426  27.489  1.00  0.00     0.188 C 
BRANCH  34  35
ATOM     35  O   UNL A   1      32.251  30.454  26.663  1.00  0.00    -0.376 OA
BRANCH  35  36
ATOM     36  C   UNL A   1      33.624  30.805  26.814  1.00  0.00     0.202 C 
BRANCH  36  37
ATOM     37  C   UNL A   1      33.956  31.745  27.948  1.00  0.00     0.261 C 
BRANCH  37  38
ATOM     38  O   UNL A   1      35.340  31.621  28.188  1.00  0.00    -0.460 OA
BRANCH  38  39
ATOM     39  C   UNL A   1      35.613  31.177  29.439  1.00  0.00     0.338 C 
ATOM     40  O   UNL A   1      35.381  31.724  30.492  1.00  0.00    -0.246 OA
BRANCH  39  41
ATOM     41  C   UNL A   1      36.355  29.891  29.270  1.00  0.00     0.060 A 
ATOM     42  C   UNL A   1      36.863  29.517  30.516  1.00  0.00     0.016 A 
ATOM     43  C   UNL A   1      37.205  30.067  28.177  1.00  0.00     0.016 A 
ATOM     44  C   UNL A   1      38.143  29.928  30.796  1.00  0.00     0.010 A 
ATOM     45  C   UNL A   1      38.408  30.660  28.455  1.00  0.00     0.010 A 
ATOM     46  C   UNL A   1      38.872  30.559  29.774  1.00  0.00    -0.014 A 
BRANCH  46  47
ATOM     47  C   UNL A   1      40.305  30.679  29.989  1.00  0.00     0.031 A 
ATOM     48  C   UNL A   1      40.861  29.213  29.839  1.00  0.00     0.074 A 
ATOM     49  C   UNL A   1      40.736  31.940  30.318  1.00  0.00     0.049 A 
ATOM     50  N   UNL A   1      41.755  28.568  30.526  1.00  0.00    -0.248 NA
ATOM     51  C   UNL A   1      40.188  28.265  28.876  1.00  0.00     0.031 C 
ATOM     52  C   UNL A   1      39.917  33.184  30.363  1.00  0.00     0.029 A 
ATOM     53  N   UNL A   1      41.952  32.449  30.690  1.00  0.00    -0.354 N 
ATOM     54  C   UNL A   1      41.889  27.293  29.919  1.00  0.00     0.074 A 
ATOM     55  C   UNL A   1      40.756  27.085  29.095  1.00  0.00     0.031 C 
ATOM     56  C   UNL A   1      40.633  34.234  30.843  1.00  0.00     0.029 A 
ATOM     57  C   UNL A   1      41.981  33.800  31.154  1.00  0.00     0.049 A 
ATOM     58  H   UNL A   1      42.772  31.907  30.641  1.00  0.00     0.167 HD
ATOM     59  C   UNL A   1      43.063  26.606  29.887  1.00  0.00     0.037 A 
ATOM     60  C   UNL A   1      43.004  34.446  31.818  1.00  0.00     0.037 A 
ATOM     61  C   UNL A   1      44.035  27.328  30.621  1.00  0.00     0.049 A 
ATOM     62  C   UNL A   1      44.040  33.406  31.910  1.00  0.00     0.074 A 
ATOM     63  C   UNL A   1      44.392  27.409  31.936  1.00  0.00     0.029 A 
ATOM     64  N   UNL A   1      44.637  28.343  29.922  1.00  0.00    -0.354 N 
ATOM     65  N   UNL A   1      44.723  32.941  30.911  1.00  0.00    -0.248 NA
ATOM     66  C   UNL A   1      44.014  32.615  33.134  1.00  0.00     0.031 C 
ATOM     67  C   UNL A   1      45.120  28.616  32.040  1.00  0.00     0.029 A 
ATOM     68  C   UNL A   1      45.025  29.294  30.822  1.00  0.00     0.049 A 
ATOM     69  H   UNL A   1      44.767  28.379  28.947  1.00  0.00     0.167 HD
ATOM     70  C   UNL A   1      44.969  31.635  31.275  1.00  0.00     0.074 A 
ATOM     71  C   UNL A   1      44.564  31.503  32.668  1.00  0.00     0.031 C 
ATOM     72  C   UNL A   1      45.114  30.649  30.353  1.00  0.00     0.037 A 
BRANCH  59  73
ATOM     73  C   UNL A   1      43.581  25.540  28.952  1.00  0.00     0.057 A 
ATOM     74  C   UNL A   1      43.586  25.849  27.571  1.00  0.00     0.134 A 
ATOM     75  C   UNL A   1      43.671  24.176  29.263  1.00  0.00     0.134 A 
ATOM     76  F   UNL A   1      43.565  27.124  27.150  1.00  0.00    -0.206 F 
ATOM     77  C   UNL A   1      43.509  24.870  26.578  1.00  0.00     0.040 A 
ATOM     78  C   UNL A   1      43.659  23.186  28.270  1.00  0.00     0.040 A 
ATOM     79  F   UNL A   1      43.674  23.735  30.527  1.00  0.00    -0.206 F 
ATOM     80  C   UNL A   1      43.524  23.530  26.928  1.00  0.00     0.006 A 
ENDBRANCH  59  73
BRANCH  60  81
ATOM     81  C   UNL A   1      43.256  35.695  32.642  1.00  0.00     0.057 A 
ATOM     82  C   UNL A   1      44.100  36.754  32.304  1.00  0.00     0.134 A 
ATOM     83  C   UNL A   1      42.544  35.905  33.865  1.00  0.00     0.134 A 
ATOM     84  F   UNL A   1      44.927  36.663  31.255  1.00  0.00    -0.206 F 
ATOM     85  C   UNL A   1      44.142  37.955  33.052  1.00  0.00     0.040 A 
ATOM     86  C   UNL A   1      42.533  37.106  34.583  1.00  0.00     0.040 A 
ATOM     87  F   UNL A   1      41.806  34.937  34.429  1.00  0.00    -0.206 F 
ATOM     88  C   UNL A   1      43.326  38.153  34.165  1.00  0.00     0.006 A 
ENDBRANCH  60  81
BRANCH  72  89
ATOM     89  C   UNL A   1      44.982  31.112  28.900  1.00  0.00     0.057 A 
ATOM     90  C   UNL A   1      45.973  31.885  28.295  1.00  0.00     0.134 A 
ATOM     91  C   UNL A   1      43.822  30.922  28.119  1.00  0.00     0.134 A 
ATOM     92  F   UNL A   1      47.123  32.121  28.941  1.00  0.00    -0.206 F 
ATOM     93  C   UNL A   1      45.816  32.438  27.011  1.00  0.00     0.040 A 
ATOM     94  C   UNL A   1      43.638  31.474  26.842  1.00  0.00     0.040 A 
ATOM     95  F   UNL A   1      42.825  30.163  28.565  1.00  0.00    -0.206 F 
ATOM     96  C   UNL A   1      44.643  32.244  26.282  1.00  0.00     0.006 A 
ENDBRANCH  72  89
ENDBRANCH  46  47
ENDBRANCH  39  41
ENDBRANCH  38  39
ENDBRANCH  37  38
ENDBRANCH  36  37
ENDBRANCH  35  36
ENDBRANCH  34  35
ENDBRANCH  33  34
ENDBRANCH   1  33
TORSDOF 23
ENDMDL
MODEL 3
REMARK VINA RESULT:     -10.7      3.258      7.414
REMARK SMILES CN(C)S(=O)(=O)c1ccc(-n2c(CCC(=O)OCCOCCOCCOC(=O)c3ccc(-c4c5nc(c(-c6c(F)cccc6F)c6ccc([nH]6)c(-c6c(F)cccc6F)c6nc(c(-c7c(F)cccc7F)c7ccc4[nH]7)C=C6)C=C5)cc3)ccc2-c2ccc(F)cc2)cc1
REMARK SMILES IDX 20 1 19 2 18 3 17 4 15 5 16 6 14 7 13 8 12 9 11 10 85 11
REMARK SMILES IDX 83 12 84 13 10 14 7 15 8 16 94 17 9 18 93 19 4 20 5 21 6 22
REMARK SMILES IDX 2 23 1 24 3 25 86 26 87 27 92 28 88 29 91 30 89 31 90 32
REMARK SMILES IDX 21 33 22 34 23 35 24 36 25 37 26 38 27 39 28 40 29 41 30 42
REMARK SMILES IDX 82 43 31 44 81 45 32 46 33 47 34 48 75 49 35 50 80 51 74 52
REMARK SMILES IDX 76 53 36 54 79 55 73 56 72 57 37 59 63 60 46 61 62 62 47 63
REMARK SMILES IDX 50 64 61 65 77 66 48 67 49 68 60 70 78 71 51 72 38 73 39 74
REMARK SMILES IDX 44 75 40 76 41 77 43 78 45 79 42 80 64 81 65 82 70 83 66 84
REMARK SMILES IDX 67 85 69 86 71 87 68 88 52 89 53 90 58 91 54 92 55 93 57 94
REMARK SMILES IDX 59 95 56 96
REMARK H PARENT 76 58 50 69
REMARK Flexibility Score: inf
ROOT
ATOM      1  O   UNL A   1      30.789  26.965  26.869  1.00  0.00    -0.376 OA
ENDROOT
BRANCH   1   2
ATOM      2  C   UNL A   1      30.153  25.236  26.111  1.00  0.00     0.202 C 
BRANCH   2   3
ATOM      3  C   UNL A   1      30.750  24.225  24.847  1.00  0.00     0.261 C 
BRANCH   3   4
ATOM      4  O   UNL A   1      30.659  22.778  24.941  1.00  0.00    -0.463 OA
BRANCH   4   5
ATOM      5  C   UNL A   1      31.357  22.178  25.945  1.00  0.00     0.306 C 
ATOM      6  O   UNL A   1      31.572  22.706  27.030  1.00  0.00    -0.252 OA
BRANCH   5   7
ATOM      7  C   UNL A   1      31.783  20.737  25.654  1.00  0.00     0.129 C 
BRANCH   7   8
ATOM      8  C   UNL A   1      32.550  20.393  24.369  1.00  0.00     0.066 C 
BRANCH   8   9
ATOM      9  C   UNL A   1      34.027  20.331  24.540  1.00  0.00     0.024 A 
ATOM     10  N   UNL A   1      34.894  21.425  24.541  1.00  0.00    -0.314 N 
ATOM     11  C   UNL A   1      36.155  20.941  24.959  1.00  0.00     0.053 A 
ATOM     12  C   UNL A   1      34.782  19.179  24.666  1.00  0.00     0.024 A 
ATOM     13  C   UNL A   1      36.104  19.559  24.926  1.00  0.00     0.029 A 
BRANCH  10  14
ATOM     14  C   UNL A   1      34.567  22.799  24.252  1.00  0.00     0.046 A 
ATOM     15  C   UNL A   1      33.707  26.286  23.813  1.00  0.00     0.082 A 
ATOM     16  C   UNL A   1      34.042  25.642  25.439  1.00  0.00     0.024 A 
ATOM     17  C   UNL A   1      33.747  25.216  22.364  1.00  0.00     0.024 A 
ATOM     18  C   UNL A   1      34.487  23.920  25.663  1.00  0.00     0.028 A 
ATOM     19  C   UNL A   1      34.219  23.466  22.567  1.00  0.00     0.028 A 
BRANCH  15  20
ATOM     20  S   UNL A   1      33.643  28.025  23.564  1.00  0.00     0.242 S 
ATOM     21  O   UNL A   1      34.230  28.291  22.268  1.00  0.00    -0.207 OA
ATOM     22  O   UNL A   1      34.164  28.637  24.770  1.00  0.00    -0.207 OA
BRANCH  20  23
ATOM     23  N   UNL A   1      31.971  28.422  23.456  1.00  0.00    -0.204 NA
ATOM     24  C   UNL A   1      31.705  29.411  22.376  1.00  0.00     0.124 C 
ATOM     25  C   UNL A   1      31.043  27.272  23.334  1.00  0.00     0.124 C 
ENDBRANCH  20  23
ENDBRANCH  15  20
ENDBRANCH  10  14
BRANCH  11  26
ATOM     26  C   UNL A   1      37.309  21.734  25.409  1.00  0.00    -0.001 A 
ATOM     27  C   UNL A   1      37.159  23.103  25.690  1.00  0.00     0.013 A 
ATOM     28  C   UNL A   1      38.561  21.131  25.612  1.00  0.00     0.013 A 
ATOM     29  C   UNL A   1      38.217  23.831  26.243  1.00  0.00     0.040 A 
ATOM     30  C   UNL A   1      39.612  21.856  26.179  1.00  0.00     0.040 A 
ATOM     31  C   UNL A   1      39.427  23.195  26.498  1.00  0.00     0.123 A 
ATOM     32  F   UNL A   1      40.424  23.881  27.074  1.00  0.00    -0.207 F 
ENDBRANCH  11  26
ENDBRANCH   8   9
ENDBRANCH   7   8
ENDBRANCH   5   7
ENDBRANCH   4   5
ENDBRANCH   3   4
ENDBRANCH   2   3
ENDBRANCH   1   2
BRANCH   1  33
ATOM     33  C   UNL A   1      31.931  27.896  27.281  1.00  0.00     0.188 C 
BRANCH  33  34
ATOM     34  C   UNL A   1      31.498  29.353  27.569  1.00  0.00     0.188 C 
BRANCH  34  35
ATOM     35  O   UNL A   1      32.013  30.417  26.759  1.00  0.00    -0.376 OA
BRANCH  35  36
ATOM     36  C   UNL A   1      33.392  30.770  26.854  1.00  0.00     0.202 C 
BRANCH  36  37
ATOM     37  C   UNL A   1      33.740  31.859  27.839  1.00  0.00     0.261 C 
BRANCH  37  38
ATOM     38  O   UNL A   1      35.146  31.887  27.933  1.00  0.00    -0.460 OA
BRANCH  38  39
ATOM     39  C   UNL A   1      35.599  31.397  29.114  1.00  0.00     0.338 C 
ATOM     40  O   UNL A   1      35.709  31.977  30.169  1.00  0.00    -0.246 OA
BRANCH  39  41
ATOM     41  C   UNL A   1      36.032  29.993  28.842  1.00  0.00     0.060 A 
ATOM     42  C   UNL A   1      36.400  29.410  30.055  1.00  0.00     0.016 A 
ATOM     43  C   UNL A   1      36.935  30.059  27.778  1.00  0.00     0.016 A 
ATOM     44  C   UNL A   1      37.730  29.490  30.387  1.00  0.00     0.010 A 
ATOM     45  C   UNL A   1      38.232  30.332  28.123  1.00  0.00     0.010 A 
ATOM     46  C   UNL A   1      38.617  30.018  29.433  1.00  0.00    -0.014 A 
BRANCH  46  47
ATOM     47  C   UNL A   1      40.032  29.786  29.676  1.00  0.00     0.031 A 
ATOM     48  C   UNL A   1      40.575  31.149  30.246  1.00  0.00     0.074 A 
ATOM     49  C   UNL A   1      40.488  28.549  29.291  1.00  0.00     0.049 A 
ATOM     50  N   UNL A   1      41.677  31.793  30.007  1.00  0.00    -0.248 NA
ATOM     51  C   UNL A   1      39.663  32.010  31.089  1.00  0.00     0.031 C 
ATOM     52  C   UNL A   1      39.673  27.416  28.771  1.00  0.00     0.029 A 
ATOM     53  N   UNL A   1      41.733  27.979  29.250  1.00  0.00    -0.354 N 
ATOM     54  C   UNL A   1      41.661  32.946  30.834  1.00  0.00     0.074 A 
ATOM     55  C   UNL A   1      40.327  33.145  31.271  1.00  0.00     0.031 C 
ATOM     56  C   UNL A   1      40.457  26.380  28.374  1.00  0.00     0.029 A 
ATOM     57  C   UNL A   1      41.851  26.715  28.595  1.00  0.00     0.049 A 
ATOM     58  H   UNL A   1      42.514  28.421  29.654  1.00  0.00     0.167 HD
ATOM     59  C   UNL A   1      42.787  33.497  31.362  1.00  0.00     0.037 A 
ATOM     60  C   UNL A   1      43.005  26.072  28.196  1.00  0.00     0.037 A 
ATOM     61  C   UNL A   1      43.913  32.795  30.869  1.00  0.00     0.049 A 
ATOM     62  C   UNL A   1      44.060  27.003  28.625  1.00  0.00     0.074 A 
ATOM     63  C   UNL A   1      44.686  32.871  29.746  1.00  0.00     0.029 A 
ATOM     64  N   UNL A   1      44.197  31.633  31.539  1.00  0.00    -0.354 N 
ATOM     65  N   UNL A   1      44.391  27.245  29.855  1.00  0.00    -0.248 NA
ATOM     66  C   UNL A   1      44.484  27.963  27.613  1.00  0.00     0.031 C 
ATOM     67  C   UNL A   1      45.348  31.625  29.677  1.00  0.00     0.029 A 
ATOM     68  C   UNL A   1      44.819  30.789  30.663  1.00  0.00     0.049 A 
ATOM     69  H   UNL A   1      43.990  31.441  32.482  1.00  0.00     0.167 HD
ATOM     70  C   UNL A   1      44.806  28.558  29.821  1.00  0.00     0.074 A 
ATOM     71  C   UNL A   1      44.898  28.933  28.415  1.00  0.00     0.031 C 
ATOM     72  C   UNL A   1      44.681  29.378  30.895  1.00  0.00     0.037 A 
BRANCH  59  73
ATOM     73  C   UNL A   1      43.012  34.356  32.583  1.00  0.00     0.057 A 
ATOM     74  C   UNL A   1      42.564  33.837  33.820  1.00  0.00     0.134 A 
ATOM     75  C   UNL A   1      43.240  35.739  32.559  1.00  0.00     0.134 A 
ATOM     76  F   UNL A   1      42.368  32.519  33.984  1.00  0.00    -0.206 F 
ATOM     77  C   UNL A   1      42.204  34.652  34.895  1.00  0.00     0.040 A 
ATOM     78  C   UNL A   1      42.942  36.560  33.656  1.00  0.00     0.040 A 
ATOM     79  F   UNL A   1      43.663  36.370  31.456  1.00  0.00    -0.206 F 
ATOM     80  C   UNL A   1      42.373  36.025  34.807  1.00  0.00     0.006 A 
ENDBRANCH  59  73
BRANCH  60  81
ATOM     81  C   UNL A   1      43.460  24.938  27.296  1.00  0.00     0.057 A 
ATOM     82  C   UNL A   1      44.124  23.778  27.697  1.00  0.00     0.134 A 
ATOM     83  C   UNL A   1      43.152  24.963  25.899  1.00  0.00     0.134 A 
ATOM     84  F   UNL A   1      44.590  23.652  28.945  1.00  0.00    -0.206 F 
ATOM     85  C   UNL A   1      44.356  22.697  26.813  1.00  0.00     0.040 A 
ATOM     86  C   UNL A   1      43.325  23.881  25.028  1.00  0.00     0.040 A 
ATOM     87  F   UNL A   1      42.654  26.057  25.303  1.00  0.00    -0.206 F 
ATOM     88  C   UNL A   1      43.917  22.726  25.489  1.00  0.00     0.006 A 
ENDBRANCH  60  81
BRANCH  72  89
ATOM     89  C   UNL A   1      44.047  28.723  32.125  1.00  0.00     0.057 A 
ATOM     90  C   UNL A   1      44.744  27.781  32.881  1.00  0.00     0.134 A 
ATOM     91  C   UNL A   1      42.700  28.905  32.503  1.00  0.00     0.134 A 
ATOM     92  F   UNL A   1      46.034  27.535  32.618  1.00  0.00    -0.206 F 
ATOM     93  C   UNL A   1      44.140  27.065  33.930  1.00  0.00     0.040 A 
ATOM     94  C   UNL A   1      42.073  28.193  33.537  1.00  0.00     0.040 A 
ATOM     95  F   UNL A   1      41.943  29.811  31.890  1.00  0.00    -0.206 F 
ATOM     96  C   UNL A   1      42.799  27.259  34.257  1.00  0.00     0.006 A 
ENDBRANCH  72  89
ENDBRANCH  46  47
ENDBRANCH  39  41
ENDBRANCH  38  39
ENDBRANCH  37  38
ENDBRANCH  36  37
ENDBRANCH  35  36
ENDBRANCH  34  35
ENDBRANCH  33  34
ENDBRANCH   1  33
TORSDOF 23
ENDMDL
