MODEL 1
REMARK VINA RESULT:     -10.9      0.000      0.000
REMARK SMILES O=C(OCCOCCOCCOC(=O)[C@@H]1CCCN(C(=O)[C@H]2CC=CCC2)C1)c1ccc(-c2c3nc(c(-c4c(F)cccc4F)c4ccc([nH]4)c(-c4c(F)cccc4F)c4nc(c(-c5c(F)cccc5F)c5ccc2[nH]5)C=C4)C=C3)cc1
REMARK SMILES IDX 7 1 6 2 5 3 4 4 3 5 2 6 1 7 29 8 30 9 82 10 31 11 81 12
REMARK SMILES IDX 32 13 33 14 34 15 75 16 35 17 80 18 74 19 76 20 36 21 79 22
REMARK SMILES IDX 73 23 72 24 37 26 63 27 46 28 62 29 47 30 50 31 61 32 77 33
REMARK SMILES IDX 48 34 49 35 60 37 78 38 51 39 38 40 39 41 44 42 40 43 41 44
REMARK SMILES IDX 43 45 45 46 42 47 64 48 65 49 70 50 66 51 67 52 69 53 71 54
REMARK SMILES IDX 68 55 52 56 53 57 58 58 54 59 55 60 57 61 59 62 56 63 8 64
REMARK SMILES IDX 9 65 10 66 11 67 12 68 13 69 14 70 15 71 16 72 28 73 17 74
REMARK SMILES IDX 19 75 18 76 20 77 21 78 22 79 23 80 27 81 24 82 26 83 25 84
REMARK H PARENT 76 25 50 36
REMARK Flexibility Score: inf
ROOT
ATOM      1  C   UNL A   1      42.697  21.706  26.444  1.00  0.00     0.188 C 
ENDROOT
BRANCH   1   2
ATOM      2  O   UNL A   1      43.676  21.524  25.423  1.00  0.00    -0.376 OA
BRANCH   2   3
ATOM      3  C   UNL A   1      43.756  22.528  24.410  1.00  0.00     0.202 C 
BRANCH   3   4
ATOM      4  C   UNL A   1      44.705  23.695  24.694  1.00  0.00     0.261 C 
BRANCH   4   5
ATOM      5  O   UNL A   1      43.910  24.852  24.932  1.00  0.00    -0.460 OA
BRANCH   5   6
ATOM      6  C   UNL A   1      44.658  25.929  25.241  1.00  0.00     0.338 C 
ATOM      7  O   UNL A   1      45.672  26.306  24.706  1.00  0.00    -0.246 OA
BRANCH   6   8
ATOM      8  C   UNL A   1      44.020  26.629  26.341  1.00  0.00     0.060 A 
ATOM      9  C   UNL A   1      44.165  27.985  26.566  1.00  0.00     0.016 A 
ATOM     10  C   UNL A   1      43.194  25.868  27.136  1.00  0.00     0.016 A 
ATOM     11  C   UNL A   1      43.539  28.532  27.673  1.00  0.00     0.010 A 
ATOM     12  C   UNL A   1      42.568  26.374  28.229  1.00  0.00     0.010 A 
ATOM     13  C   UNL A   1      42.778  27.702  28.507  1.00  0.00    -0.014 A 
BRANCH  13  14
ATOM     14  C   UNL A   1      42.122  28.161  29.707  1.00  0.00     0.031 A 
ATOM     15  C   UNL A   1      42.719  27.804  31.006  1.00  0.00     0.074 A 
ATOM     16  C   UNL A   1      40.881  28.635  29.568  1.00  0.00     0.049 A 
ATOM     17  N   UNL A   1      42.272  28.098  32.182  1.00  0.00    -0.248 NA
ATOM     18  C   UNL A   1      43.872  26.880  30.997  1.00  0.00     0.031 C 
ATOM     19  C   UNL A   1      40.090  28.465  28.366  1.00  0.00     0.029 A 
ATOM     20  N   UNL A   1      40.058  29.324  30.379  1.00  0.00    -0.354 N 
ATOM     21  C   UNL A   1      43.124  27.449  33.050  1.00  0.00     0.074 A 
ATOM     22  C   UNL A   1      43.957  26.560  32.279  1.00  0.00     0.031 C 
ATOM     23  C   UNL A   1      38.996  29.225  28.400  1.00  0.00     0.029 A 
ATOM     24  C   UNL A   1      38.974  29.846  29.706  1.00  0.00     0.049 A 
ATOM     25  H   UNL A   1      40.213  29.442  31.344  1.00  0.00     0.167 HD
ATOM     26  C   UNL A   1      43.266  27.734  34.359  1.00  0.00     0.037 A 
ATOM     27  C   UNL A   1      38.090  30.750  30.144  1.00  0.00     0.037 A 
ATOM     28  C   UNL A   1      42.427  28.728  34.973  1.00  0.00     0.049 A 
ATOM     29  C   UNL A   1      38.339  31.179  31.554  1.00  0.00     0.074 A 
ATOM     30  C   UNL A   1      42.467  29.248  36.245  1.00  0.00     0.029 A 
ATOM     31  N   UNL A   1      41.388  29.382  34.297  1.00  0.00    -0.354 N 
ATOM     32  N   UNL A   1      39.249  30.714  32.386  1.00  0.00    -0.248 NA
ATOM     33  C   UNL A   1      37.484  32.219  32.103  1.00  0.00     0.031 C 
ATOM     34  C   UNL A   1      41.459  30.219  36.333  1.00  0.00     0.029 A 
ATOM     35  C   UNL A   1      40.798  30.325  35.112  1.00  0.00     0.049 A 
ATOM     36  H   UNL A   1      41.117  29.196  33.370  1.00  0.00     0.167 HD
ATOM     37  C   UNL A   1      39.076  31.385  33.570  1.00  0.00     0.074 A 
ATOM     38  C   UNL A   1      37.993  32.333  33.324  1.00  0.00     0.031 C 
ATOM     39  C   UNL A   1      39.721  31.227  34.755  1.00  0.00     0.037 A 
BRANCH  26  40
ATOM     40  C   UNL A   1      44.413  27.075  35.060  1.00  0.00     0.057 A 
ATOM     41  C   UNL A   1      45.684  27.682  35.099  1.00  0.00     0.134 A 
ATOM     42  C   UNL A   1      44.301  25.801  35.620  1.00  0.00     0.134 A 
ATOM     43  F   UNL A   1      45.875  28.895  34.555  1.00  0.00    -0.206 F 
ATOM     44  C   UNL A   1      46.801  27.027  35.615  1.00  0.00     0.040 A 
ATOM     45  C   UNL A   1      45.408  25.148  36.173  1.00  0.00     0.040 A 
ATOM     46  F   UNL A   1      43.127  25.154  35.611  1.00  0.00    -0.206 F 
ATOM     47  C   UNL A   1      46.664  25.754  36.158  1.00  0.00     0.006 A 
ENDBRANCH  26  40
BRANCH  27  48
ATOM     48  C   UNL A   1      37.041  31.286  29.244  1.00  0.00     0.057 A 
ATOM     49  C   UNL A   1      35.902  30.539  28.925  1.00  0.00     0.134 A 
ATOM     50  C   UNL A   1      37.093  32.601  28.758  1.00  0.00     0.134 A 
ATOM     51  F   UNL A   1      35.764  29.286  29.383  1.00  0.00    -0.206 F 
ATOM     52  C   UNL A   1      34.875  31.063  28.131  1.00  0.00     0.040 A 
ATOM     53  C   UNL A   1      36.062  33.149  27.992  1.00  0.00     0.040 A 
ATOM     54  F   UNL A   1      38.129  33.396  29.067  1.00  0.00    -0.206 F 
ATOM     55  C   UNL A   1      34.953  32.373  27.665  1.00  0.00     0.006 A 
ENDBRANCH  27  48
BRANCH  39  56
ATOM     56  C   UNL A   1      39.244  32.136  35.830  1.00  0.00     0.057 A 
ATOM     57  C   UNL A   1      39.738  33.439  35.946  1.00  0.00     0.134 A 
ATOM     58  C   UNL A   1      38.277  31.699  36.739  1.00  0.00     0.134 A 
ATOM     59  F   UNL A   1      40.687  33.885  35.108  1.00  0.00    -0.206 F 
ATOM     60  C   UNL A   1      39.299  34.279  36.961  1.00  0.00     0.040 A 
ATOM     61  C   UNL A   1      37.804  32.543  37.736  1.00  0.00     0.040 A 
ATOM     62  F   UNL A   1      37.775  30.458  36.658  1.00  0.00    -0.206 F 
ATOM     63  C   UNL A   1      38.323  33.832  37.853  1.00  0.00     0.006 A 
ENDBRANCH  39  56
ENDBRANCH  13  14
ENDBRANCH   6   8
ENDBRANCH   5   6
ENDBRANCH   4   5
ENDBRANCH   3   4
ENDBRANCH   2   3
ENDBRANCH   1   2
BRANCH   1  64
ATOM     64  C   UNL A   1      41.386  22.429  26.118  1.00  0.00     0.188 C 
BRANCH  64  65
ATOM     65  O   UNL A   1      40.738  23.226  27.087  1.00  0.00    -0.376 OA
BRANCH  65  66
ATOM     66  C   UNL A   1      39.893  24.270  26.635  1.00  0.00     0.202 C 
BRANCH  66  67
ATOM     67  C   UNL A   1      38.363  24.086  26.664  1.00  0.00     0.261 C 
BRANCH  67  68
ATOM     68  O   UNL A   1      37.725  23.612  25.452  1.00  0.00    -0.463 OA
BRANCH  68  69
ATOM     69  C   UNL A   1      37.452  22.280  25.363  1.00  0.00     0.310 C 
ATOM     70  O   UNL A   1      38.040  21.421  26.011  1.00  0.00    -0.252 OA
BRANCH  69  71
ATOM     71  C   UNL A   1      36.415  21.928  24.281  1.00  0.00     0.119 C 
ATOM     72  C   UNL A   1      36.035  23.214  23.564  1.00  0.00     0.019 C 
ATOM     73  C   UNL A   1      35.217  20.919  24.596  1.00  0.00     0.134 C 
ATOM     74  C   UNL A   1      34.643  23.591  24.000  1.00  0.00     0.022 C 
ATOM     75  N   UNL A   1      33.767  21.392  24.540  1.00  0.00    -0.342 N 
ATOM     76  C   UNL A   1      33.672  22.477  23.568  1.00  0.00     0.119 C 
BRANCH  75  77
ATOM     77  C   UNL A   1      32.737  20.439  24.836  1.00  0.00     0.226 C 
ATOM     78  O   UNL A   1      31.762  20.922  25.453  1.00  0.00    -0.275 OA
BRANCH  77  79
ATOM     79  C   UNL A   1      32.544  18.754  24.492  1.00  0.00     0.083 C 
ATOM     80  C   UNL A   1      32.752  18.082  23.079  1.00  0.00     0.040 C 
ATOM     81  C   UNL A   1      32.571  17.615  25.568  1.00  0.00     0.018 C 
ATOM     82  C   UNL A   1      33.785  16.976  22.974  1.00  0.00    -0.030 C 
ATOM     83  C   UNL A   1      33.502  16.381  25.366  1.00  0.00     0.028 C 
ATOM     84  C   UNL A   1      34.119  16.205  24.014  1.00  0.00    -0.031 C 
ENDBRANCH  77  79
ENDBRANCH  75  77
ENDBRANCH  69  71
ENDBRANCH  68  69
ENDBRANCH  67  68
ENDBRANCH  66  67
ENDBRANCH  65  66
ENDBRANCH  64  65
ENDBRANCH   1  64
TORSDOF 19
ENDMDL
MODEL 2
REMARK VINA RESULT:     -10.9      1.619      2.297
REMARK SMILES O=C(OCCOCCOCCOC(=O)[C@@H]1CCCN(C(=O)[C@H]2CC=CCC2)C1)c1ccc(-c2c3nc(c(-c4c(F)cccc4F)c4ccc([nH]4)c(-c4c(F)cccc4F)c4nc(c(-c5c(F)cccc5F)c5ccc2[nH]5)C=C4)C=C3)cc1
REMARK SMILES IDX 7 1 6 2 5 3 4 4 3 5 2 6 1 7 29 8 30 9 82 10 31 11 81 12
REMARK SMILES IDX 32 13 33 14 34 15 75 16 35 17 80 18 74 19 76 20 36 21 79 22
REMARK SMILES IDX 73 23 72 24 37 26 63 27 46 28 62 29 47 30 50 31 61 32 77 33
REMARK SMILES IDX 48 34 49 35 60 37 78 38 51 39 38 40 39 41 44 42 40 43 41 44
REMARK SMILES IDX 43 45 45 46 42 47 64 48 65 49 70 50 66 51 67 52 69 53 71 54
REMARK SMILES IDX 68 55 52 56 53 57 58 58 54 59 55 60 57 61 59 62 56 63 8 64
REMARK SMILES IDX 9 65 10 66 11 67 12 68 13 69 14 70 15 71 16 72 28 73 17 74
REMARK SMILES IDX 19 75 18 76 20 77 21 78 22 79 23 80 27 81 24 82 26 83 25 84
REMARK H PARENT 76 25 50 36
REMARK Flexibility Score: inf
ROOT
ATOM      1  C   UNL A   1      42.484  23.624  28.358  1.00  0.00     0.188 C 
ENDROOT
BRANCH   1   2
ATOM      2  O   UNL A   1      43.236  24.447  27.469  1.00  0.00    -0.376 OA
BRANCH   2   3
ATOM      3  C   UNL A   1      43.204  24.109  26.081  1.00  0.00     0.202 C 
BRANCH   3   4
ATOM      4  C   UNL A   1      43.128  25.285  25.104  1.00  0.00     0.261 C 
BRANCH   4   5
ATOM      5  O   UNL A   1      41.904  25.971  25.344  1.00  0.00    -0.460 OA
BRANCH   5   6
ATOM      6  C   UNL A   1      42.076  27.304  25.433  1.00  0.00     0.338 C 
ATOM      7  O   UNL A   1      42.484  28.057  24.582  1.00  0.00    -0.246 OA
BRANCH   6   8
ATOM      8  C   UNL A   1      41.647  27.734  26.750  1.00  0.00     0.060 A 
ATOM      9  C   UNL A   1      40.654  27.097  27.472  1.00  0.00     0.016 A 
ATOM     10  C   UNL A   1      42.333  28.800  27.286  1.00  0.00     0.016 A 
ATOM     11  C   UNL A   1      40.303  27.625  28.703  1.00  0.00     0.010 A 
ATOM     12  C   UNL A   1      42.010  29.341  28.489  1.00  0.00     0.010 A 
ATOM     13  C   UNL A   1      40.967  28.766  29.172  1.00  0.00    -0.014 A 
BRANCH  13  14
ATOM     14  C   UNL A   1      40.649  29.420  30.417  1.00  0.00     0.031 A 
ATOM     15  C   UNL A   1      41.425  29.053  31.614  1.00  0.00     0.074 A 
ATOM     16  C   UNL A   1      39.501  30.102  30.459  1.00  0.00     0.049 A 
ATOM     17  N   UNL A   1      41.276  29.506  32.815  1.00  0.00    -0.248 NA
ATOM     18  C   UNL A   1      42.384  27.935  31.490  1.00  0.00     0.031 C 
ATOM     19  C   UNL A   1      38.469  29.995  29.447  1.00  0.00     0.029 A 
ATOM     20  N   UNL A   1      38.982  30.986  31.331  1.00  0.00    -0.354 N 
ATOM     21  C   UNL A   1      42.165  28.775  33.574  1.00  0.00     0.074 A 
ATOM     22  C   UNL A   1      42.668  27.697  32.761  1.00  0.00     0.031 C 
ATOM     23  C   UNL A   1      37.546  30.943  29.602  1.00  0.00     0.029 A 
ATOM     24  C   UNL A   1      37.888  31.649  30.817  1.00  0.00     0.049 A 
ATOM     25  H   UNL A   1      39.343  31.142  32.233  1.00  0.00     0.167 HD
ATOM     26  C   UNL A   1      42.610  29.122  34.798  1.00  0.00     0.037 A 
ATOM     27  C   UNL A   1      37.271  32.728  31.313  1.00  0.00     0.037 A 
ATOM     28  C   UNL A   1      42.087  30.293  35.449  1.00  0.00     0.049 A 
ATOM     29  C   UNL A   1      37.864  33.203  32.600  1.00  0.00     0.074 A 
ATOM     30  C   UNL A   1      42.466  30.887  36.630  1.00  0.00     0.029 A 
ATOM     31  N   UNL A   1      41.057  31.078  34.910  1.00  0.00    -0.354 N 
ATOM     32  N   UNL A   1      38.832  32.639  33.295  1.00  0.00    -0.248 NA
ATOM     33  C   UNL A   1      37.320  34.418  33.185  1.00  0.00     0.031 C 
ATOM     34  C   UNL A   1      41.671  32.029  36.799  1.00  0.00     0.029 A 
ATOM     35  C   UNL A   1      40.806  32.168  35.716  1.00  0.00     0.049 A 
ATOM     36  H   UNL A   1      40.580  30.879  34.073  1.00  0.00     0.167 HD
ATOM     37  C   UNL A   1      39.012  33.413  34.414  1.00  0.00     0.074 A 
ATOM     38  C   UNL A   1      38.074  34.524  34.273  1.00  0.00     0.031 C 
ATOM     39  C   UNL A   1      39.845  33.224  35.469  1.00  0.00     0.037 A 
BRANCH  26  40
ATOM     40  C   UNL A   1      43.748  28.316  35.342  1.00  0.00     0.057 A 
ATOM     41  C   UNL A   1      45.081  28.623  35.004  1.00  0.00     0.134 A 
ATOM     42  C   UNL A   1      43.538  27.179  36.125  1.00  0.00     0.134 A 
ATOM     43  F   UNL A   1      45.358  29.685  34.230  1.00  0.00    -0.206 F 
ATOM     44  C   UNL A   1      46.146  27.804  35.375  1.00  0.00     0.040 A 
ATOM     45  C   UNL A   1      44.603  26.369  36.534  1.00  0.00     0.040 A 
ATOM     46  F   UNL A   1      42.298  26.814  36.478  1.00  0.00    -0.206 F 
ATOM     47  C   UNL A   1      45.909  26.672  36.146  1.00  0.00     0.006 A 
ENDBRANCH  26  40
BRANCH  27  48
ATOM     48  C   UNL A   1      36.168  33.382  30.570  1.00  0.00     0.057 A 
ATOM     49  C   UNL A   1      34.857  33.381  31.059  1.00  0.00     0.134 A 
ATOM     50  C   UNL A   1      36.406  34.118  29.400  1.00  0.00     0.134 A 
ATOM     51  F   UNL A   1      34.559  32.729  32.193  1.00  0.00    -0.206 F 
ATOM     52  C   UNL A   1      33.823  34.053  30.399  1.00  0.00     0.040 A 
ATOM     53  C   UNL A   1      35.391  34.820  28.746  1.00  0.00     0.040 A 
ATOM     54  F   UNL A   1      37.648  34.210  28.899  1.00  0.00    -0.206 F 
ATOM     55  C   UNL A   1      34.090  34.779  29.240  1.00  0.00     0.006 A 
ENDBRANCH  27  48
BRANCH  39  56
ATOM     56  C   UNL A   1      39.749  34.279  36.513  1.00  0.00     0.057 A 
ATOM     57  C   UNL A   1      38.949  34.102  37.646  1.00  0.00     0.134 A 
ATOM     58  C   UNL A   1      40.474  35.466  36.379  1.00  0.00     0.134 A 
ATOM     59  F   UNL A   1      38.217  32.987  37.796  1.00  0.00    -0.206 F 
ATOM     60  C   UNL A   1      38.852  35.096  38.611  1.00  0.00     0.040 A 
ATOM     61  C   UNL A   1      40.412  36.451  37.356  1.00  0.00     0.040 A 
ATOM     62  F   UNL A   1      41.256  35.671  35.309  1.00  0.00    -0.206 F 
ATOM     63  C   UNL A   1      39.592  36.271  38.469  1.00  0.00     0.006 A 
ENDBRANCH  39  56
ENDBRANCH  13  14
ENDBRANCH   6   8
ENDBRANCH   5   6
ENDBRANCH   4   5
ENDBRANCH   3   4
ENDBRANCH   2   3
ENDBRANCH   1   2
BRANCH   1  64
ATOM     64  C   UNL A   1      41.723  22.412  27.809  1.00  0.00     0.188 C 
BRANCH  64  65
ATOM     65  O   UNL A   1      40.334  22.479  27.563  1.00  0.00    -0.376 OA
BRANCH  65  66
ATOM     66  C   UNL A   1      39.808  23.685  27.037  1.00  0.00     0.202 C 
BRANCH  66  67
ATOM     67  C   UNL A   1      38.290  23.824  26.808  1.00  0.00     0.261 C 
BRANCH  67  68
ATOM     68  O   UNL A   1      37.778  23.471  25.498  1.00  0.00    -0.463 OA
BRANCH  68  69
ATOM     69  C   UNL A   1      37.418  22.173  25.291  1.00  0.00     0.310 C 
ATOM     70  O   UNL A   1      37.992  21.218  25.803  1.00  0.00    -0.252 OA
BRANCH  69  71
ATOM     71  C   UNL A   1      36.294  21.997  24.254  1.00  0.00     0.119 C 
ATOM     72  C   UNL A   1      35.889  23.379  23.765  1.00  0.00     0.019 C 
ATOM     73  C   UNL A   1      35.101  20.966  24.511  1.00  0.00     0.134 C 
ATOM     74  C   UNL A   1      34.543  23.702  24.361  1.00  0.00     0.022 C 
ATOM     75  N   UNL A   1      33.662  21.457  24.639  1.00  0.00    -0.342 N 
ATOM     76  C   UNL A   1      33.517  22.676  23.847  1.00  0.00     0.119 C 
BRANCH  75  77
ATOM     77  C   UNL A   1      32.637  20.482  24.871  1.00  0.00     0.226 C 
ATOM     78  O   UNL A   1      31.599  20.951  25.390  1.00  0.00    -0.275 OA
BRANCH  77  79
ATOM     79  C   UNL A   1      32.519  18.784  24.557  1.00  0.00     0.083 C 
ATOM     80  C   UNL A   1      32.745  18.098  23.154  1.00  0.00     0.040 C 
ATOM     81  C   UNL A   1      32.610  17.666  25.652  1.00  0.00     0.018 C 
ATOM     82  C   UNL A   1      33.827  17.041  23.057  1.00  0.00    -0.030 C 
ATOM     83  C   UNL A   1      33.596  16.474  25.461  1.00  0.00     0.028 C 
ATOM     84  C   UNL A   1      34.207  16.303  24.106  1.00  0.00    -0.031 C 
ENDBRANCH  77  79
ENDBRANCH  75  77
ENDBRANCH  69  71
ENDBRANCH  68  69
ENDBRANCH  67  68
ENDBRANCH  66  67
ENDBRANCH  65  66
ENDBRANCH  64  65
ENDBRANCH   1  64
TORSDOF 19
ENDMDL
MODEL 3
REMARK VINA RESULT:     -10.9      2.631      7.942
REMARK SMILES O=C(OCCOCCOCCOC(=O)[C@@H]1CCCN(C(=O)[C@H]2CC=CCC2)C1)c1ccc(-c2c3nc(c(-c4c(F)cccc4F)c4ccc([nH]4)c(-c4c(F)cccc4F)c4nc(c(-c5c(F)cccc5F)c5ccc2[nH]5)C=C4)C=C3)cc1
REMARK SMILES IDX 7 1 6 2 5 3 4 4 3 5 2 6 1 7 29 8 30 9 82 10 31 11 81 12
REMARK SMILES IDX 32 13 33 14 34 15 75 16 35 17 80 18 74 19 76 20 36 21 79 22
REMARK SMILES IDX 73 23 72 24 37 26 63 27 46 28 62 29 47 30 50 31 61 32 77 33
REMARK SMILES IDX 48 34 49 35 60 37 78 38 51 39 38 40 39 41 44 42 40 43 41 44
REMARK SMILES IDX 43 45 45 46 42 47 64 48 65 49 70 50 66 51 67 52 69 53 71 54
REMARK SMILES IDX 68 55 52 56 53 57 58 58 54 59 55 60 57 61 59 62 56 63 8 64
REMARK SMILES IDX 9 65 10 66 11 67 12 68 13 69 14 70 15 71 16 72 28 73 17 74
REMARK SMILES IDX 19 75 18 76 20 77 21 78 22 79 23 80 27 81 24 82 26 83 25 84
REMARK H PARENT 76 25 50 36
REMARK Flexibility Score: inf
ROOT
ATOM      1  C   UNL A   1      32.170  27.157  23.237  1.00  0.00     0.188 C 
ENDROOT
BRANCH   1   2
ATOM      2  O   UNL A   1      33.027  27.699  24.240  1.00  0.00    -0.376 OA
BRANCH   2   3
ATOM      3  C   UNL A   1      33.081  29.122  24.352  1.00  0.00     0.202 C 
BRANCH   3   4
ATOM      4  C   UNL A   1      32.721  29.702  25.722  1.00  0.00     0.261 C 
BRANCH   4   5
ATOM      5  O   UNL A   1      33.908  29.735  26.506  1.00  0.00    -0.460 OA
BRANCH   5   6
ATOM      6  C   UNL A   1      33.998  30.854  27.250  1.00  0.00     0.338 C 
ATOM      7  O   UNL A   1      33.201  31.757  27.328  1.00  0.00    -0.246 OA
BRANCH   6   8
ATOM      8  C   UNL A   1      35.232  30.801  28.011  1.00  0.00     0.060 A 
ATOM      9  C   UNL A   1      36.119  31.858  28.097  1.00  0.00     0.016 A 
ATOM     10  C   UNL A   1      35.455  29.636  28.709  1.00  0.00     0.016 A 
ATOM     11  C   UNL A   1      37.284  31.673  28.820  1.00  0.00     0.010 A 
ATOM     12  C   UNL A   1      36.589  29.424  29.426  1.00  0.00     0.010 A 
ATOM     13  C   UNL A   1      37.514  30.439  29.443  1.00  0.00    -0.014 A 
BRANCH  13  14
ATOM     14  C   UNL A   1      38.712  30.128  30.182  1.00  0.00     0.031 A 
ATOM     15  C   UNL A   1      38.874  30.715  31.524  1.00  0.00     0.074 A 
ATOM     16  C   UNL A   1      39.709  29.562  29.496  1.00  0.00     0.049 A 
ATOM     17  N   UNL A   1      39.879  30.576  32.325  1.00  0.00    -0.248 NA
ATOM     18  C   UNL A   1      37.863  31.697  31.967  1.00  0.00     0.031 C 
ATOM     19  C   UNL A   1      39.749  29.498  28.050  1.00  0.00     0.029 A 
ATOM     20  N   UNL A   1      40.853  28.953  29.861  1.00  0.00    -0.354 N 
ATOM     21  C   UNL A   1      39.589  31.401  33.391  1.00  0.00     0.074 A 
ATOM     22  C   UNL A   1      38.453  32.213  33.034  1.00  0.00     0.031 C 
ATOM     23  C   UNL A   1      40.719  28.684  27.632  1.00  0.00     0.029 A 
ATOM     24  C   UNL A   1      41.437  28.268  28.817  1.00  0.00     0.049 A 
ATOM     25  H   UNL A   1      41.229  28.993  30.769  1.00  0.00     0.167 HD
ATOM     26  C   UNL A   1      40.161  31.327  34.609  1.00  0.00     0.037 A 
ATOM     27  C   UNL A   1      42.444  27.388  28.870  1.00  0.00     0.037 A 
ATOM     28  C   UNL A   1      41.223  30.387  34.849  1.00  0.00     0.049 A 
ATOM     29  C   UNL A   1      42.980  27.194  30.252  1.00  0.00     0.074 A 
ATOM     30  C   UNL A   1      41.868  30.069  36.021  1.00  0.00     0.029 A 
ATOM     31  N   UNL A   1      41.772  29.574  33.847  1.00  0.00    -0.354 N 
ATOM     32  N   UNL A   1      42.629  27.836  31.348  1.00  0.00    -0.248 NA
ATOM     33  C   UNL A   1      44.024  26.198  30.436  1.00  0.00     0.031 C 
ATOM     34  C   UNL A   1      42.798  29.062  35.727  1.00  0.00     0.029 A 
ATOM     35  C   UNL A   1      42.725  28.730  34.376  1.00  0.00     0.049 A 
ATOM     36  H   UNL A   1      41.513  29.600  32.899  1.00  0.00     0.167 HD
ATOM     37  C   UNL A   1      43.414  27.343  32.360  1.00  0.00     0.074 A 
ATOM     38  C   UNL A   1      44.232  26.302  31.744  1.00  0.00     0.031 C 
ATOM     39  C   UNL A   1      43.479  27.719  33.663  1.00  0.00     0.037 A 
BRANCH  26  40
ATOM     40  C   UNL A   1      39.534  32.155  35.687  1.00  0.00     0.057 A 
ATOM     41  C   UNL A   1      38.459  31.658  36.449  1.00  0.00     0.134 A 
ATOM     42  C   UNL A   1      39.919  33.477  35.920  1.00  0.00     0.134 A 
ATOM     43  F   UNL A   1      38.013  30.405  36.261  1.00  0.00    -0.206 F 
ATOM     44  C   UNL A   1      37.762  32.457  37.355  1.00  0.00     0.040 A 
ATOM     45  C   UNL A   1      39.251  34.277  36.852  1.00  0.00     0.040 A 
ATOM     46  F   UNL A   1      40.926  34.025  35.225  1.00  0.00    -0.206 F 
ATOM     47  C   UNL A   1      38.161  33.773  37.561  1.00  0.00     0.006 A 
ENDBRANCH  26  40
BRANCH  27  48
ATOM     48  C   UNL A   1      42.880  26.657  27.657  1.00  0.00     0.057 A 
ATOM     49  C   UNL A   1      42.455  25.349  27.401  1.00  0.00     0.134 A 
ATOM     50  C   UNL A   1      43.652  27.278  26.663  1.00  0.00     0.134 A 
ATOM     51  F   UNL A   1      41.685  24.702  28.288  1.00  0.00    -0.206 F 
ATOM     52  C   UNL A   1      42.808  24.676  26.226  1.00  0.00     0.040 A 
ATOM     53  C   UNL A   1      43.985  26.632  25.472  1.00  0.00     0.040 A 
ATOM     54  F   UNL A   1      44.051  28.550  26.814  1.00  0.00    -0.206 F 
ATOM     55  C   UNL A   1      43.573  25.320  25.256  1.00  0.00     0.006 A 
ENDBRANCH  27  48
BRANCH  39  56
ATOM     56  C   UNL A   1      44.473  26.956  34.463  1.00  0.00     0.057 A 
ATOM     57  C   UNL A   1      45.784  27.416  34.615  1.00  0.00     0.134 A 
ATOM     58  C   UNL A   1      44.101  25.764  35.091  1.00  0.00     0.134 A 
ATOM     59  F   UNL A   1      46.186  28.543  34.005  1.00  0.00    -0.206 F 
ATOM     60  C   UNL A   1      46.712  26.692  35.353  1.00  0.00     0.040 A 
ATOM     61  C   UNL A   1      45.011  25.050  35.860  1.00  0.00     0.040 A 
ATOM     62  F   UNL A   1      42.851  25.290  34.972  1.00  0.00    -0.206 F 
ATOM     63  C   UNL A   1      46.322  25.510  35.984  1.00  0.00     0.006 A 
ENDBRANCH  39  56
ENDBRANCH  13  14
ENDBRANCH   6   8
ENDBRANCH   5   6
ENDBRANCH   4   5
ENDBRANCH   3   4
ENDBRANCH   2   3
ENDBRANCH   1   2
BRANCH   1  64
ATOM     64  C   UNL A   1      30.916  26.379  23.650  1.00  0.00     0.188 C 
BRANCH  64  65
ATOM     65  O   UNL A   1      30.176  26.753  24.794  1.00  0.00    -0.376 OA
BRANCH  65  66
ATOM     66  C   UNL A   1      30.337  25.985  25.973  1.00  0.00     0.202 C 
BRANCH  66  67
ATOM     67  C   UNL A   1      31.301  24.781  25.979  1.00  0.00     0.261 C 
BRANCH  67  68
ATOM     68  O   UNL A   1      31.239  23.884  27.115  1.00  0.00    -0.463 OA
BRANCH  68  69
ATOM     69  C   UNL A   1      32.195  22.917  27.209  1.00  0.00     0.310 C 
ATOM     70  O   UNL A   1      32.640  22.503  28.274  1.00  0.00    -0.252 OA
BRANCH  69  71
ATOM     71  C   UNL A   1      32.761  22.468  25.851  1.00  0.00     0.119 C 
ATOM     72  C   UNL A   1      31.855  21.375  25.305  1.00  0.00     0.019 C 
ATOM     73  C   UNL A   1      34.331  22.240  25.656  1.00  0.00     0.134 C 
ATOM     74  C   UNL A   1      32.589  20.064  25.427  1.00  0.00     0.022 C 
ATOM     75  N   UNL A   1      34.881  20.858  25.313  1.00  0.00    -0.342 N 
ATOM     76  C   UNL A   1      33.862  20.129  24.563  1.00  0.00     0.119 C 
BRANCH  75  77
ATOM     77  C   UNL A   1      36.299  20.719  25.155  1.00  0.00     0.226 C 
ATOM     78  O   UNL A   1      36.669  19.548  24.914  1.00  0.00    -0.275 OA
BRANCH  77  79
ATOM     79  C   UNL A   1      37.615  21.842  25.198  1.00  0.00     0.083 C 
ATOM     80  C   UNL A   1      37.480  23.410  25.083  1.00  0.00     0.040 C 
ATOM     81  C   UNL A   1      39.036  21.529  25.781  1.00  0.00     0.018 C 
ATOM     82  C   UNL A   1      38.020  24.246  26.227  1.00  0.00    -0.030 C 
ATOM     83  C   UNL A   1      39.673  22.495  26.826  1.00  0.00     0.028 C 
ATOM     84  C   UNL A   1      39.019  23.828  27.012  1.00  0.00    -0.031 C 
ENDBRANCH  77  79
ENDBRANCH  75  77
ENDBRANCH  69  71
ENDBRANCH  68  69
ENDBRANCH  67  68
ENDBRANCH  66  67
ENDBRANCH  65  66
ENDBRANCH  64  65
ENDBRANCH   1  64
TORSDOF 19
ENDMDL
