MODEL 1
REMARK VINA RESULT:     -12.2      0.000      0.000
REMARK SMILES Cc1cc(C(=O)OCCOCCOCCOC(=O)c2ccc(-c3c4nc(c(-c5c(F)cccc5F)c5ccc([nH]5)c(-c5c(F)cccc5F)c5nc(c(-c6c(F)cccc6F)c6ccc3[nH]6)C=C5)C=C4)cc2)ccc1NC(=O)c1ccc(=O)n(CCOc2ccccc2)n1
REMARK SMILES IDX 9 1 8 2 7 3 5 4 6 5 4 6 1 7 2 8 3 9 75 10 74 11 73 12 76 13
REMARK SMILES IDX 77 14 78 16 79 17 80 18 94 19 81 20 84 21 82 22 83 23 85 24
REMARK SMILES IDX 86 25 87 26 88 27 89 28 93 29 90 30 92 31 91 32 10 33 11 34
REMARK SMILES IDX 12 35 13 36 14 37 15 38 16 39 17 40 18 41 19 42 20 43 72 44
REMARK SMILES IDX 21 45 71 46 22 47 23 48 24 49 65 50 25 51 70 52 64 53 66 54
REMARK SMILES IDX 26 55 69 56 63 57 62 58 27 60 53 61 36 62 52 63 37 64 40 65
REMARK SMILES IDX 51 66 67 67 38 68 39 69 50 71 68 72 41 73 28 74 29 75 34 76
REMARK SMILES IDX 30 77 31 78 33 79 35 80 32 81 54 82 55 83 60 84 56 85 57 86
REMARK SMILES IDX 59 87 61 88 58 89 42 90 43 91 48 92 44 93 45 94 47 95 49 96
REMARK SMILES IDX 46 97
REMARK H PARENT 76 15 66 59 40 70
REMARK Flexibility Score: inf
ROOT
ATOM      1  C   UNL A   1      34.280  33.162  28.265  1.00  0.00     0.202 C 
ENDROOT
BRANCH   1   2
ATOM      2  C   UNL A   1      34.239  31.601  27.722  1.00  0.00     0.261 C 
BRANCH   2   3
ATOM      3  O   UNL A   1      33.361  30.980  26.509  1.00  0.00    -0.460 OA
BRANCH   3   4
ATOM      4  C   UNL A   1      32.275  30.285  25.950  1.00  0.00     0.338 C 
ATOM      5  O   UNL A   1      31.263  30.929  25.665  1.00  0.00    -0.246 OA
BRANCH   4   6
ATOM      6  C   UNL A   1      32.055  28.796  25.648  1.00  0.00     0.060 A 
ATOM      7  C   UNL A   1      29.672  26.204  23.963  1.00  0.00     0.046 C 
ATOM      8  C   UNL A   1      30.619  26.876  24.928  1.00  0.00    -0.027 A 
ATOM      9  C   UNL A   1      30.991  28.251  24.849  1.00  0.00     0.021 A 
ATOM     10  C   UNL A   1      31.229  26.133  25.938  1.00  0.00     0.044 A 
ATOM     11  C   UNL A   1      32.458  26.554  26.444  1.00  0.00     0.027 A 
ATOM     12  C   UNL A   1      32.849  27.889  26.337  1.00  0.00     0.018 A 
BRANCH  10  13
ATOM     13  N   UNL A   1      30.474  25.179  26.667  1.00  0.00    -0.320 N 
ATOM     14  C   UNL A   1      30.651  23.797  26.528  1.00  0.00     0.276 C 
ATOM     15  H   UNL A   1      29.794  25.504  27.301  1.00  0.00     0.170 HD
ATOM     16  O   UNL A   1      30.033  22.973  27.190  1.00  0.00    -0.267 OA
BRANCH  14  17
ATOM     17  C   UNL A   1      31.701  23.311  25.526  1.00  0.00     0.149 A 
ATOM     18  C   UNL A   1      31.229  23.170  24.135  1.00  0.00     0.042 A 
ATOM     19  N   UNL A   1      32.925  23.130  25.919  1.00  0.00    -0.164 NA
ATOM     20  C   UNL A   1      32.179  23.223  23.198  1.00  0.00     0.076 A 
ATOM     21  N   UNL A   1      33.882  22.996  24.910  1.00  0.00    -0.226 N 
ATOM     22  C   UNL A   1      33.615  23.259  23.569  1.00  0.00     0.266 A 
ATOM     23  O   UNL A   1      34.437  23.471  22.682  1.00  0.00    -0.268 OA
BRANCH  21  24
ATOM     24  C   UNL A   1      35.246  22.665  25.324  1.00  0.00     0.190 C 
BRANCH  24  25
ATOM     25  C   UNL A   1      35.498  21.153  25.342  1.00  0.00     0.253 C 
BRANCH  25  26
ATOM     26  O   UNL A   1      34.310  20.371  25.531  1.00  0.00    -0.492 OA
BRANCH  26  27
ATOM     27  C   UNL A   1      34.007  19.363  24.661  1.00  0.00     0.119 A 
ATOM     28  C   UNL A   1      32.802  19.525  23.972  1.00  0.00     0.046 A 
ATOM     29  C   UNL A   1      34.757  18.211  24.433  1.00  0.00     0.046 A 
ATOM     30  C   UNL A   1      32.327  18.530  23.114  1.00  0.00     0.004 A 
ATOM     31  C   UNL A   1      34.263  17.191  23.612  1.00  0.00     0.004 A 
ATOM     32  C   UNL A   1      33.046  17.349  22.955  1.00  0.00     0.000 A 
ENDBRANCH  26  27
ENDBRANCH  25  26
ENDBRANCH  24  25
ENDBRANCH  21  24
ENDBRANCH  14  17
ENDBRANCH  10  13
ENDBRANCH   4   6
ENDBRANCH   3   4
ENDBRANCH   2   3
ENDBRANCH   1   2
BRANCH   1  33
ATOM     33  O   UNL A   1      33.500  33.573  29.376  1.00  0.00    -0.376 OA
BRANCH  33  34
ATOM     34  C   UNL A   1      33.772  34.709  30.200  1.00  0.00     0.188 C 
BRANCH  34  35
ATOM     35  C   UNL A   1      34.331  34.523  31.601  1.00  0.00     0.188 C 
BRANCH  35  36
ATOM     36  O   UNL A   1      34.359  33.143  31.915  1.00  0.00    -0.376 OA
BRANCH  36  37
ATOM     37  C   UNL A   1      35.351  32.772  32.855  1.00  0.00     0.202 C 
BRANCH  37  38
ATOM     38  C   UNL A   1      35.958  31.405  32.516  1.00  0.00     0.261 C 
BRANCH  38  39
ATOM     39  O   UNL A   1      35.772  31.133  31.108  1.00  0.00    -0.460 OA
BRANCH  39  40
ATOM     40  C   UNL A   1      36.855  31.399  30.300  1.00  0.00     0.338 C 
ATOM     41  O   UNL A   1      37.222  32.488  29.960  1.00  0.00    -0.246 OA
BRANCH  40  42
ATOM     42  C   UNL A   1      37.335  30.114  29.691  1.00  0.00     0.060 A 
ATOM     43  C   UNL A   1      37.649  28.977  30.426  1.00  0.00     0.016 A 
ATOM     44  C   UNL A   1      37.767  30.110  28.406  1.00  0.00     0.016 A 
ATOM     45  C   UNL A   1      38.594  27.997  29.934  1.00  0.00     0.010 A 
ATOM     46  C   UNL A   1      38.767  29.188  28.047  1.00  0.00     0.010 A 
ATOM     47  C   UNL A   1      39.350  28.139  28.762  1.00  0.00    -0.014 A 
BRANCH  47  48
ATOM     48  C   UNL A   1      40.763  27.382  28.484  1.00  0.00     0.031 A 
ATOM     49  C   UNL A   1      41.171  25.937  28.006  1.00  0.00     0.074 A 
ATOM     50  C   UNL A   1      41.905  28.101  28.619  1.00  0.00     0.049 A 
ATOM     51  N   UNL A   1      41.578  24.944  28.770  1.00  0.00    -0.248 NA
ATOM     52  C   UNL A   1      41.340  25.548  26.579  1.00  0.00     0.031 C 
ATOM     53  C   UNL A   1      43.290  27.667  28.405  1.00  0.00     0.029 A 
ATOM     54  N   UNL A   1      42.046  29.376  29.171  1.00  0.00    -0.354 N 
ATOM     55  C   UNL A   1      41.885  23.851  27.928  1.00  0.00     0.074 A 
ATOM     56  C   UNL A   1      41.542  24.233  26.592  1.00  0.00     0.031 C 
ATOM     57  C   UNL A   1      44.090  28.459  29.141  1.00  0.00     0.029 A 
ATOM     58  C   UNL A   1      43.233  29.351  29.906  1.00  0.00     0.049 A 
ATOM     59  H   UNL A   1      41.433  30.138  29.063  1.00  0.00     0.167 HD
ATOM     60  C   UNL A   1      42.813  22.863  28.122  1.00  0.00     0.037 A 
ATOM     61  C   UNL A   1      43.189  29.474  31.262  1.00  0.00     0.037 A 
ATOM     62  C   UNL A   1      43.888  23.381  28.918  1.00  0.00     0.049 A 
ATOM     63  C   UNL A   1      43.766  28.272  31.964  1.00  0.00     0.074 A 
ATOM     64  C   UNL A   1      45.056  24.019  28.537  1.00  0.00     0.029 A 
ATOM     65  N   UNL A   1      43.678  23.653  30.251  1.00  0.00    -0.354 N 
ATOM     66  N   UNL A   1      43.884  27.089  31.425  1.00  0.00    -0.248 NA
ATOM     67  C   UNL A   1      44.254  28.317  33.338  1.00  0.00     0.031 C 
ATOM     68  C   UNL A   1      45.490  24.790  29.635  1.00  0.00     0.029 A 
ATOM     69  C   UNL A   1      44.639  24.533  30.694  1.00  0.00     0.049 A 
ATOM     70  H   UNL A   1      42.953  23.278  30.801  1.00  0.00     0.167 HD
ATOM     71  C   UNL A   1      44.433  26.234  32.344  1.00  0.00     0.074 A 
ATOM     72  C   UNL A   1      44.656  27.050  33.519  1.00  0.00     0.031 C 
ATOM     73  C   UNL A   1      44.671  24.920  32.082  1.00  0.00     0.037 A 
BRANCH  60  74
ATOM     74  C   UNL A   1      42.919  21.678  27.169  1.00  0.00     0.057 A 
ATOM     75  C   UNL A   1      43.901  21.530  26.173  1.00  0.00     0.134 A 
ATOM     76  C   UNL A   1      42.006  20.605  27.258  1.00  0.00     0.134 A 
ATOM     77  F   UNL A   1      44.869  22.439  26.003  1.00  0.00    -0.206 F 
ATOM     78  C   UNL A   1      43.924  20.438  25.285  1.00  0.00     0.040 A 
ATOM     79  C   UNL A   1      42.007  19.517  26.369  1.00  0.00     0.040 A 
ATOM     80  F   UNL A   1      41.074  20.584  28.222  1.00  0.00    -0.206 F 
ATOM     81  C   UNL A   1      42.963  19.436  25.366  1.00  0.00     0.006 A 
ENDBRANCH  60  74
BRANCH  61  82
ATOM     82  C   UNL A   1      42.092  30.348  31.791  1.00  0.00     0.057 A 
ATOM     83  C   UNL A   1      42.168  31.740  31.569  1.00  0.00     0.134 A 
ATOM     84  C   UNL A   1      40.862  29.862  32.254  1.00  0.00     0.134 A 
ATOM     85  F   UNL A   1      43.306  32.290  31.111  1.00  0.00    -0.206 F 
ATOM     86  C   UNL A   1      41.063  32.589  31.704  1.00  0.00     0.040 A 
ATOM     87  C   UNL A   1      39.748  30.708  32.409  1.00  0.00     0.040 A 
ATOM     88  F   UNL A   1      40.671  28.550  32.444  1.00  0.00    -0.206 F 
ATOM     89  C   UNL A   1      39.842  32.069  32.115  1.00  0.00     0.006 A 
ENDBRANCH  61  82
BRANCH  73  90
ATOM     90  C   UNL A   1      45.033  23.869  33.091  1.00  0.00     0.057 A 
ATOM     91  C   UNL A   1      46.274  23.821  33.734  1.00  0.00     0.134 A 
ATOM     92  C   UNL A   1      44.052  22.978  33.585  1.00  0.00     0.134 A 
ATOM     93  F   UNL A   1      47.251  24.685  33.431  1.00  0.00    -0.206 F 
ATOM     94  C   UNL A   1      46.542  22.912  34.763  1.00  0.00     0.040 A 
ATOM     95  C   UNL A   1      44.292  22.107  34.648  1.00  0.00     0.040 A 
ATOM     96  F   UNL A   1      42.812  22.937  33.075  1.00  0.00    -0.206 F 
ATOM     97  C   UNL A   1      45.548  22.062  35.233  1.00  0.00     0.006 A 
ENDBRANCH  73  90
ENDBRANCH  47  48
ENDBRANCH  40  42
ENDBRANCH  39  40
ENDBRANCH  38  39
ENDBRANCH  37  38
ENDBRANCH  36  37
ENDBRANCH  35  36
ENDBRANCH  34  35
ENDBRANCH  33  34
ENDBRANCH   1  33
TORSDOF 23
ENDMDL
MODEL 2
REMARK VINA RESULT:     -11.7      2.505      4.668
REMARK SMILES Cc1cc(C(=O)OCCOCCOCCOC(=O)c2ccc(-c3c4nc(c(-c5c(F)cccc5F)c5ccc([nH]5)c(-c5c(F)cccc5F)c5nc(c(-c6c(F)cccc6F)c6ccc3[nH]6)C=C5)C=C4)cc2)ccc1NC(=O)c1ccc(=O)n(CCOc2ccccc2)n1
REMARK SMILES IDX 9 1 8 2 7 3 5 4 6 5 4 6 1 7 2 8 3 9 75 10 74 11 73 12 76 13
REMARK SMILES IDX 77 14 78 16 79 17 80 18 94 19 81 20 84 21 82 22 83 23 85 24
REMARK SMILES IDX 86 25 87 26 88 27 89 28 93 29 90 30 92 31 91 32 10 33 11 34
REMARK SMILES IDX 12 35 13 36 14 37 15 38 16 39 17 40 18 41 19 42 20 43 72 44
REMARK SMILES IDX 21 45 71 46 22 47 23 48 24 49 65 50 25 51 70 52 64 53 66 54
REMARK SMILES IDX 26 55 69 56 63 57 62 58 27 60 53 61 36 62 52 63 37 64 40 65
REMARK SMILES IDX 51 66 67 67 38 68 39 69 50 71 68 72 41 73 28 74 29 75 34 76
REMARK SMILES IDX 30 77 31 78 33 79 35 80 32 81 54 82 55 83 60 84 56 85 57 86
REMARK SMILES IDX 59 87 61 88 58 89 42 90 43 91 48 92 44 93 45 94 47 95 49 96
REMARK SMILES IDX 46 97
REMARK H PARENT 76 15 66 59 40 70
REMARK Flexibility Score: inf
ROOT
ATOM      1  C   UNL A   1      33.350  35.923  29.750  1.00  0.00     0.202 C 
ENDROOT
BRANCH   1   2
ATOM      2  C   UNL A   1      33.900  34.778  28.691  1.00  0.00     0.261 C 
BRANCH   2   3
ATOM      3  O   UNL A   1      33.146  33.438  28.177  1.00  0.00    -0.460 OA
BRANCH   3   4
ATOM      4  C   UNL A   1      32.360  32.680  27.292  1.00  0.00     0.338 C 
ATOM      5  O   UNL A   1      31.328  33.192  26.853  1.00  0.00    -0.246 OA
BRANCH   4   6
ATOM      6  C   UNL A   1      32.502  31.245  26.765  1.00  0.00     0.060 A 
ATOM      7  C   UNL A   1      34.850  28.131  26.588  1.00  0.00     0.046 C 
ATOM      8  C   UNL A   1      33.860  29.213  26.224  1.00  0.00    -0.027 A 
ATOM      9  C   UNL A   1      33.599  30.356  27.037  1.00  0.00     0.021 A 
ATOM     10  C   UNL A   1      33.100  29.100  25.062  1.00  0.00     0.044 A 
ATOM     11  C   UNL A   1      31.860  29.734  24.997  1.00  0.00     0.027 A 
ATOM     12  C   UNL A   1      31.578  30.829  25.815  1.00  0.00     0.018 A 
BRANCH  10  13
ATOM     13  N   UNL A   1      33.706  28.649  23.862  1.00  0.00    -0.320 N 
ATOM     14  C   UNL A   1      33.325  27.469  23.210  1.00  0.00     0.276 C 
ATOM     15  H   UNL A   1      34.428  29.190  23.469  1.00  0.00     0.170 HD
ATOM     16  O   UNL A   1      33.815  27.101  22.150  1.00  0.00    -0.267 OA
BRANCH  14  17
ATOM     17  C   UNL A   1      32.211  26.633  23.845  1.00  0.00     0.149 A 
ATOM     18  C   UNL A   1      32.657  25.644  24.846  1.00  0.00     0.042 A 
ATOM     19  N   UNL A   1      30.973  26.880  23.543  1.00  0.00    -0.164 NA
ATOM     20  C   UNL A   1      31.731  25.264  25.730  1.00  0.00     0.076 A 
ATOM     21  N   UNL A   1      30.010  26.309  24.378  1.00  0.00    -0.226 N 
ATOM     22  C   UNL A   1      30.320  25.699  25.591  1.00  0.00     0.266 A 
ATOM     23  O   UNL A   1      29.546  25.458  26.513  1.00  0.00    -0.268 OA
BRANCH  21  24
ATOM     24  C   UNL A   1      28.609  26.468  23.985  1.00  0.00     0.190 C 
BRANCH  24  25
ATOM     25  C   UNL A   1      28.395  27.684  23.075  1.00  0.00     0.253 C 
BRANCH  25  26
ATOM     26  O   UNL A   1      29.005  28.886  23.565  1.00  0.00    -0.492 OA
BRANCH  26  27
ATOM     27  C   UNL A   1      28.679  30.093  23.015  1.00  0.00     0.119 A 
ATOM     28  C   UNL A   1      28.414  30.059  21.643  1.00  0.00     0.046 A 
ATOM     29  C   UNL A   1      28.620  31.318  23.676  1.00  0.00     0.046 A 
ATOM     30  C   UNL A   1      28.151  31.234  20.935  1.00  0.00     0.004 A 
ATOM     31  C   UNL A   1      28.404  32.503  22.963  1.00  0.00     0.004 A 
ATOM     32  C   UNL A   1      28.173  32.461  21.591  1.00  0.00     0.000 A 
ENDBRANCH  26  27
ENDBRANCH  25  26
ENDBRANCH  24  25
ENDBRANCH  21  24
ENDBRANCH  14  17
ENDBRANCH  10  13
ENDBRANCH   4   6
ENDBRANCH   3   4
ENDBRANCH   2   3
ENDBRANCH   1   2
BRANCH   1  33
ATOM     33  O   UNL A   1      32.635  35.558  30.919  1.00  0.00    -0.376 OA
BRANCH  33  34
ATOM     34  C   UNL A   1      33.108  35.715  32.259  1.00  0.00     0.188 C 
BRANCH  34  35
ATOM     35  C   UNL A   1      33.737  34.541  32.991  1.00  0.00     0.188 C 
BRANCH  35  36
ATOM     36  O   UNL A   1      33.951  33.480  32.080  1.00  0.00    -0.376 OA
BRANCH  36  37
ATOM     37  C   UNL A   1      35.306  33.270  31.727  1.00  0.00     0.202 C 
BRANCH  37  38
ATOM     38  C   UNL A   1      35.649  31.776  31.691  1.00  0.00     0.261 C 
BRANCH  38  39
ATOM     39  O   UNL A   1      35.609  31.308  30.323  1.00  0.00    -0.460 OA
BRANCH  39  40
ATOM     40  C   UNL A   1      36.775  31.459  29.605  1.00  0.00     0.338 C 
ATOM     41  O   UNL A   1      37.220  32.498  29.207  1.00  0.00    -0.246 OA
BRANCH  40  42
ATOM     42  C   UNL A   1      37.253  30.106  29.164  1.00  0.00     0.060 A 
ATOM     43  C   UNL A   1      37.631  29.094  30.038  1.00  0.00     0.016 A 
ATOM     44  C   UNL A   1      37.617  29.922  27.871  1.00  0.00     0.016 A 
ATOM     45  C   UNL A   1      38.572  28.069  29.642  1.00  0.00     0.010 A 
ATOM     46  C   UNL A   1      38.619  28.973  27.595  1.00  0.00     0.010 A 
ATOM     47  C   UNL A   1      39.263  28.049  28.423  1.00  0.00    -0.014 A 
BRANCH  47  48
ATOM     48  C   UNL A   1      40.678  27.282  28.180  1.00  0.00     0.031 A 
ATOM     49  C   UNL A   1      41.088  25.819  27.764  1.00  0.00     0.074 A 
ATOM     50  C   UNL A   1      41.819  28.008  28.287  1.00  0.00     0.049 A 
ATOM     51  N   UNL A   1      41.494  24.860  28.571  1.00  0.00    -0.248 NA
ATOM     52  C   UNL A   1      41.261  25.370  26.356  1.00  0.00     0.031 C 
ATOM     53  C   UNL A   1      43.204  27.567  28.095  1.00  0.00     0.029 A 
ATOM     54  N   UNL A   1      41.958  29.305  28.785  1.00  0.00    -0.354 N 
ATOM     55  C   UNL A   1      41.804  23.732  27.777  1.00  0.00     0.074 A 
ATOM     56  C   UNL A   1      41.464  24.057  26.425  1.00  0.00     0.031 C 
ATOM     57  C   UNL A   1      44.002  28.390  28.799  1.00  0.00     0.029 A 
ATOM     58  C   UNL A   1      43.143  29.313  29.523  1.00  0.00     0.049 A 
ATOM     59  H   UNL A   1      41.344  30.062  28.643  1.00  0.00     0.167 HD
ATOM     60  C   UNL A   1      42.733  22.755  28.015  1.00  0.00     0.037 A 
ATOM     61  C   UNL A   1      43.095  29.493  30.872  1.00  0.00     0.037 A 
ATOM     62  C   UNL A   1      43.805  23.307  28.791  1.00  0.00     0.049 A 
ATOM     63  C   UNL A   1      43.671  28.323  31.626  1.00  0.00     0.074 A 
ATOM     64  C   UNL A   1      44.973  23.929  28.386  1.00  0.00     0.029 A 
ATOM     65  N   UNL A   1      43.591  23.635  30.110  1.00  0.00    -0.354 N 
ATOM     66  N   UNL A   1      43.791  27.118  31.138  1.00  0.00    -0.248 NA
ATOM     67  C   UNL A   1      44.157  28.426  32.998  1.00  0.00     0.031 C 
ATOM     68  C   UNL A   1      45.405  24.747  29.450  1.00  0.00     0.029 A 
ATOM     69  C   UNL A   1      44.551  24.534  30.517  1.00  0.00     0.049 A 
ATOM     70  H   UNL A   1      42.866  23.283  30.674  1.00  0.00     0.167 HD
ATOM     71  C   UNL A   1      44.339  26.304  32.094  1.00  0.00     0.074 A 
ATOM     72  C   UNL A   1      44.559  27.168  33.233  1.00  0.00     0.031 C 
ATOM     73  C   UNL A   1      44.579  24.980  31.889  1.00  0.00     0.037 A 
BRANCH  60  74
ATOM     74  C   UNL A   1      42.841  21.530  27.113  1.00  0.00     0.057 A 
ATOM     75  C   UNL A   1      42.039  20.380  27.216  1.00  0.00     0.134 A 
ATOM     76  C   UNL A   1      43.782  21.498  26.061  1.00  0.00     0.134 A 
ATOM     77  F   UNL A   1      41.064  20.285  28.129  1.00  0.00    -0.206 F 
ATOM     78  C   UNL A   1      42.213  19.256  26.387  1.00  0.00     0.040 A 
ATOM     79  C   UNL A   1      43.979  20.377  25.238  1.00  0.00     0.040 A 
ATOM     80  F   UNL A   1      44.549  22.567  25.803  1.00  0.00    -0.206 F 
ATOM     81  C   UNL A   1      43.199  19.241  25.407  1.00  0.00     0.006 A 
ENDBRANCH  60  74
BRANCH  61  82
ATOM     82  C   UNL A   1      41.996  30.388  31.362  1.00  0.00     0.057 A 
ATOM     83  C   UNL A   1      40.881  29.804  32.000  1.00  0.00     0.134 A 
ATOM     84  C   UNL A   1      42.116  31.779  31.476  1.00  0.00     0.134 A 
ATOM     85  F   UNL A   1      40.695  28.473  31.953  1.00  0.00    -0.206 F 
ATOM     86  C   UNL A   1      39.989  30.541  32.787  1.00  0.00     0.040 A 
ATOM     87  C   UNL A   1      41.217  32.534  32.252  1.00  0.00     0.040 A 
ATOM     88  F   UNL A   1      43.168  32.422  30.952  1.00  0.00    -0.206 F 
ATOM     89  C   UNL A   1      40.162  31.913  32.924  1.00  0.00     0.006 A 
ENDBRANCH  61  82
BRANCH  73  90
ATOM     90  C   UNL A   1      44.939  23.972  32.942  1.00  0.00     0.057 A 
ATOM     91  C   UNL A   1      46.166  23.974  33.614  1.00  0.00     0.134 A 
ATOM     92  C   UNL A   1      43.966  23.078  33.445  1.00  0.00     0.134 A 
ATOM     93  F   UNL A   1      47.132  24.849  33.302  1.00  0.00    -0.206 F 
ATOM     94  C   UNL A   1      46.429  23.108  34.680  1.00  0.00     0.040 A 
ATOM     95  C   UNL A   1      44.200  22.250  34.543  1.00  0.00     0.040 A 
ATOM     96  F   UNL A   1      42.740  22.992  32.908  1.00  0.00    -0.206 F 
ATOM     97  C   UNL A   1      45.442  22.253  35.157  1.00  0.00     0.006 A 
ENDBRANCH  73  90
ENDBRANCH  47  48
ENDBRANCH  40  42
ENDBRANCH  39  40
ENDBRANCH  38  39
ENDBRANCH  37  38
ENDBRANCH  36  37
ENDBRANCH  35  36
ENDBRANCH  34  35
ENDBRANCH  33  34
ENDBRANCH   1  33
TORSDOF 23
ENDMDL
MODEL 3
REMARK VINA RESULT:     -11.3      1.921      3.765
REMARK SMILES Cc1cc(C(=O)OCCOCCOCCOC(=O)c2ccc(-c3c4nc(c(-c5c(F)cccc5F)c5ccc([nH]5)c(-c5c(F)cccc5F)c5nc(c(-c6c(F)cccc6F)c6ccc3[nH]6)C=C5)C=C4)cc2)ccc1NC(=O)c1ccc(=O)n(CCOc2ccccc2)n1
REMARK SMILES IDX 9 1 8 2 7 3 5 4 6 5 4 6 1 7 2 8 3 9 75 10 74 11 73 12 76 13
REMARK SMILES IDX 77 14 78 16 79 17 80 18 94 19 81 20 84 21 82 22 83 23 85 24
REMARK SMILES IDX 86 25 87 26 88 27 89 28 93 29 90 30 92 31 91 32 10 33 11 34
REMARK SMILES IDX 12 35 13 36 14 37 15 38 16 39 17 40 18 41 19 42 20 43 72 44
REMARK SMILES IDX 21 45 71 46 22 47 23 48 24 49 65 50 25 51 70 52 64 53 66 54
REMARK SMILES IDX 26 55 69 56 63 57 62 58 27 60 53 61 36 62 52 63 37 64 40 65
REMARK SMILES IDX 51 66 67 67 38 68 39 69 50 71 68 72 41 73 28 74 29 75 34 76
REMARK SMILES IDX 30 77 31 78 33 79 35 80 32 81 54 82 55 83 60 84 56 85 57 86
REMARK SMILES IDX 59 87 61 88 58 89 42 90 43 91 48 92 44 93 45 94 47 95 49 96
REMARK SMILES IDX 46 97
REMARK H PARENT 76 15 66 59 40 70
REMARK Flexibility Score: inf
ROOT
ATOM      1  C   UNL A   1      34.300  31.221  27.612  1.00  0.00     0.202 C 
ENDROOT
BRANCH   1   2
ATOM      2  C   UNL A   1      33.307  30.476  26.520  1.00  0.00     0.261 C 
BRANCH   2   3
ATOM      3  O   UNL A   1      32.227  29.296  26.784  1.00  0.00    -0.460 OA
BRANCH   3   4
ATOM      4  C   UNL A   1      31.824  27.983  27.083  1.00  0.00     0.338 C 
ATOM      5  O   UNL A   1      31.013  27.823  27.998  1.00  0.00    -0.246 OA
BRANCH   4   6
ATOM      6  C   UNL A   1      32.245  26.623  26.508  1.00  0.00     0.060 A 
ATOM      7  C   UNL A   1      31.743  22.760  26.764  1.00  0.00     0.046 C 
ATOM      8  C   UNL A   1      32.371  24.125  26.607  1.00  0.00    -0.027 A 
ATOM      9  C   UNL A   1      31.689  25.350  26.876  1.00  0.00     0.021 A 
ATOM     10  C   UNL A   1      33.673  24.242  26.125  1.00  0.00     0.044 A 
ATOM     11  C   UNL A   1      34.051  25.411  25.466  1.00  0.00     0.027 A 
ATOM     12  C   UNL A   1      33.367  26.606  25.690  1.00  0.00     0.018 A 
BRANCH  10  13
ATOM     13  N   UNL A   1      34.679  23.354  26.584  1.00  0.00    -0.320 N 
ATOM     14  C   UNL A   1      35.042  22.189  25.897  1.00  0.00     0.276 C 
ATOM     15  H   UNL A   1      35.144  23.567  27.426  1.00  0.00     0.170 HD
ATOM     16  O   UNL A   1      35.941  21.445  26.268  1.00  0.00    -0.267 OA
BRANCH  14  17
ATOM     17  C   UNL A   1      34.296  21.866  24.600  1.00  0.00     0.149 A 
ATOM     18  C   UNL A   1      33.624  20.552  24.569  1.00  0.00     0.042 A 
ATOM     19  N   UNL A   1      34.227  22.760  23.662  1.00  0.00    -0.164 NA
ATOM     20  C   UNL A   1      32.611  20.446  23.704  1.00  0.00     0.076 A 
ATOM     21  N   UNL A   1      33.285  22.527  22.657  1.00  0.00    -0.226 N 
ATOM     22  C   UNL A   1      32.311  21.535  22.743  1.00  0.00     0.266 A 
ATOM     23  O   UNL A   1      31.278  21.458  22.085  1.00  0.00    -0.268 OA
BRANCH  21  24
ATOM     24  C   UNL A   1      33.276  23.453  21.524  1.00  0.00     0.190 C 
BRANCH  24  25
ATOM     25  C   UNL A   1      33.374  24.918  21.969  1.00  0.00     0.253 C 
BRANCH  25  26
ATOM     26  O   UNL A   1      32.299  25.740  21.494  1.00  0.00    -0.492 OA
BRANCH  26  27
ATOM     27  C   UNL A   1      31.400  26.268  22.375  1.00  0.00     0.119 A 
ATOM     28  C   UNL A   1      30.702  25.326  23.136  1.00  0.00     0.046 A 
ATOM     29  C   UNL A   1      31.104  27.618  22.551  1.00  0.00     0.046 A 
ATOM     30  C   UNL A   1      29.691  25.721  24.016  1.00  0.00     0.004 A 
ATOM     31  C   UNL A   1      30.061  28.015  23.395  1.00  0.00     0.004 A 
ATOM     32  C   UNL A   1      29.351  27.066  24.124  1.00  0.00     0.000 A 
ENDBRANCH  26  27
ENDBRANCH  25  26
ENDBRANCH  24  25
ENDBRANCH  21  24
ENDBRANCH  14  17
ENDBRANCH  10  13
ENDBRANCH   4   6
ENDBRANCH   3   4
ENDBRANCH   2   3
ENDBRANCH   1   2
BRANCH   1  33
ATOM     33  O   UNL A   1      33.832  32.286  28.422  1.00  0.00    -0.376 OA
BRANCH  33  34
ATOM     34  C   UNL A   1      34.154  33.667  28.237  1.00  0.00     0.188 C 
BRANCH  34  35
ATOM     35  C   UNL A   1      33.174  34.746  28.667  1.00  0.00     0.188 C 
BRANCH  35  36
ATOM     36  O   UNL A   1      32.974  34.668  30.066  1.00  0.00    -0.376 OA
BRANCH  36  37
ATOM     37  C   UNL A   1      34.140  34.879  30.841  1.00  0.00     0.202 C 
BRANCH  37  38
ATOM     38  C   UNL A   1      34.169  33.959  32.067  1.00  0.00     0.261 C 
BRANCH  38  39
ATOM     39  O   UNL A   1      34.441  32.603  31.644  1.00  0.00    -0.460 OA
BRANCH  39  40
ATOM     40  C   UNL A   1      35.521  31.995  32.246  1.00  0.00     0.338 C 
ATOM     41  O   UNL A   1      35.954  32.257  33.332  1.00  0.00    -0.246 OA
BRANCH  40  42
ATOM     42  C   UNL A   1      36.235  31.154  31.228  1.00  0.00     0.060 A 
ATOM     43  C   UNL A   1      36.556  29.815  31.417  1.00  0.00     0.016 A 
ATOM     44  C   UNL A   1      36.863  31.759  30.191  1.00  0.00     0.016 A 
ATOM     45  C   UNL A   1      37.672  29.203  30.730  1.00  0.00     0.010 A 
ATOM     46  C   UNL A   1      38.007  31.138  29.656  1.00  0.00     0.010 A 
ATOM     47  C   UNL A   1      38.584  29.893  29.920  1.00  0.00    -0.014 A 
BRANCH  47  48
ATOM     48  C   UNL A   1      40.101  29.391  29.609  1.00  0.00     0.031 A 
ATOM     49  C   UNL A   1      40.729  28.199  28.794  1.00  0.00     0.074 A 
ATOM     50  C   UNL A   1      41.126  30.145  30.079  1.00  0.00     0.049 A 
ATOM     51  N   UNL A   1      41.190  27.068  29.287  1.00  0.00    -0.248 NA
ATOM     52  C   UNL A   1      41.070  28.267  27.346  1.00  0.00     0.031 C 
ATOM     53  C   UNL A   1      42.568  29.928  29.920  1.00  0.00     0.029 A 
ATOM     54  N   UNL A   1      41.056  31.206  30.984  1.00  0.00    -0.354 N 
ATOM     55  C   UNL A   1      41.706  26.307  28.213  1.00  0.00     0.074 A 
ATOM     56  C   UNL A   1      41.435  27.033  27.009  1.00  0.00     0.031 C 
ATOM     57  C   UNL A   1      43.194  30.539  30.941  1.00  0.00     0.029 A 
ATOM     58  C   UNL A   1      42.168  31.079  31.819  1.00  0.00     0.049 A 
ATOM     59  H   UNL A   1      40.363  31.903  31.024  1.00  0.00     0.167 HD
ATOM     60  C   UNL A   1      42.731  25.401  28.228  1.00  0.00     0.037 A 
ATOM     61  C   UNL A   1      41.990  30.790  33.138  1.00  0.00     0.037 A 
ATOM     62  C   UNL A   1      43.658  25.760  29.262  1.00  0.00     0.049 A 
ATOM     63  C   UNL A   1      42.652  29.496  33.534  1.00  0.00     0.074 A 
ATOM     64  C   UNL A   1      44.765  26.591  29.221  1.00  0.00     0.029 A 
ATOM     65  N   UNL A   1      43.300  25.604  30.581  1.00  0.00    -0.354 N 
ATOM     66  N   UNL A   1      42.965  28.542  32.700  1.00  0.00    -0.248 NA
ATOM     67  C   UNL A   1      43.009  29.179  34.913  1.00  0.00     0.031 C 
ATOM     68  C   UNL A   1      45.001  27.042  30.537  1.00  0.00     0.029 A 
ATOM     69  C   UNL A   1      44.100  26.402  31.369  1.00  0.00     0.049 A 
ATOM     70  H   UNL A   1      42.584  25.016  30.911  1.00  0.00     0.167 HD
ATOM     71  C   UNL A   1      43.537  27.510  33.397  1.00  0.00     0.074 A 
ATOM     72  C   UNL A   1      43.551  27.959  34.773  1.00  0.00     0.031 C 
ATOM     73  C   UNL A   1      43.961  26.362  32.803  1.00  0.00     0.037 A 
BRANCH  60  74
ATOM     74  C   UNL A   1      43.069  24.567  26.998  1.00  0.00     0.057 A 
ATOM     75  C   UNL A   1      43.986  24.940  25.999  1.00  0.00     0.134 A 
ATOM     76  C   UNL A   1      42.467  23.305  26.802  1.00  0.00     0.134 A 
ATOM     77  F   UNL A   1      44.678  26.084  26.075  1.00  0.00    -0.206 F 
ATOM     78  C   UNL A   1      44.226  24.153  24.856  1.00  0.00     0.040 A 
ATOM     79  C   UNL A   1      42.683  22.518  25.658  1.00  0.00     0.040 A 
ATOM     80  F   UNL A   1      41.639  22.797  27.725  1.00  0.00    -0.206 F 
ATOM     81  C   UNL A   1      43.559  22.948  24.670  1.00  0.00     0.006 A 
ENDBRANCH  60  74
BRANCH  61  82
ATOM     82  C   UNL A   1      40.749  31.359  33.758  1.00  0.00     0.057 A 
ATOM     83  C   UNL A   1      39.632  30.515  33.933  1.00  0.00     0.134 A 
ATOM     84  C   UNL A   1      40.705  32.591  34.424  1.00  0.00     0.134 A 
ATOM     85  F   UNL A   1      39.597  29.308  33.342  1.00  0.00    -0.206 F 
ATOM     86  C   UNL A   1      38.574  30.830  34.794  1.00  0.00     0.040 A 
ATOM     87  C   UNL A   1      39.640  32.926  35.281  1.00  0.00     0.040 A 
ATOM     88  F   UNL A   1      41.739  33.440  34.366  1.00  0.00    -0.206 F 
ATOM     89  C   UNL A   1      38.582  32.037  35.482  1.00  0.00     0.006 A 
ENDBRANCH  61  82
BRANCH  73  90
ATOM     90  C   UNL A   1      44.364  25.099  33.508  1.00  0.00     0.057 A 
ATOM     91  C   UNL A   1      45.664  24.582  33.469  1.00  0.00     0.134 A 
ATOM     92  C   UNL A   1      43.480  24.466  34.413  1.00  0.00     0.134 A 
ATOM     93  F   UNL A   1      46.622  25.160  32.732  1.00  0.00    -0.206 F 
ATOM     94  C   UNL A   1      46.047  23.478  34.237  1.00  0.00     0.040 A 
ATOM     95  C   UNL A   1      43.869  23.400  35.224  1.00  0.00     0.040 A 
ATOM     96  F   UNL A   1      42.213  24.876  34.566  1.00  0.00    -0.206 F 
ATOM     97  C   UNL A   1      45.155  22.892  35.127  1.00  0.00     0.006 A 
ENDBRANCH  73  90
ENDBRANCH  47  48
ENDBRANCH  40  42
ENDBRANCH  39  40
ENDBRANCH  38  39
ENDBRANCH  37  38
ENDBRANCH  36  37
ENDBRANCH  35  36
ENDBRANCH  34  35
ENDBRANCH  33  34
ENDBRANCH   1  33
TORSDOF 23
ENDMDL
