MODEL 1
REMARK VINA RESULT:     -10.7      0.000      0.000
REMARK SMILES O=C(CNC(=O)c1cccs1)N[C@@H]1C=C[C@H](C(=O)OCCOCCOCCOC(=O)c2ccc(-c3c4nc(c(-c5c(F)cccc5F)c5ccc([nH]5)c(-c5c(F)cccc5F)c5nc(c(-c6c(F)cccc6F)c6ccc3[nH]6)C=C5)C=C4)cc2)C1
REMARK SMILES IDX 23 1 22 2 21 3 20 4 19 5 17 6 18 7 16 8 13 9 14 10 85 11
REMARK SMILES IDX 15 12 12 13 1 14 2 15 3 17 4 18 5 19 6 21 7 22 8 23 11 24
REMARK SMILES IDX 9 25 10 26 24 27 25 28 26 29 27 30 28 31 29 32 30 33 31 34
REMARK SMILES IDX 32 35 84 36 33 37 83 38 34 39 35 40 36 41 77 42 37 43 82 44
REMARK SMILES IDX 76 45 78 46 38 47 81 48 75 49 74 50 39 52 65 53 48 54 64 55
REMARK SMILES IDX 49 56 52 57 63 58 79 59 50 60 51 61 62 63 80 64 53 65 40 66
REMARK SMILES IDX 41 67 46 68 42 69 43 70 45 71 47 72 44 73 66 74 67 75 72 76
REMARK SMILES IDX 68 77 69 78 71 79 73 80 70 81 54 82 55 83 60 84 56 85 57 86
REMARK SMILES IDX 59 87 61 88 58 89
REMARK H PARENT 12 16 4 20 78 51 52 62
REMARK Flexibility Score: inf
ROOT
ATOM      1  C   UNL A   1      32.906  35.423  29.868  1.00  0.00     0.188 C 
ENDROOT
BRANCH   1   2
ATOM      2  O   UNL A   1      32.872  34.711  28.650  1.00  0.00    -0.376 OA
BRANCH   2   3
ATOM      3  C   UNL A   1      33.870  33.732  28.432  1.00  0.00     0.202 C 
BRANCH   3   4
ATOM      4  C   UNL A   1      33.408  32.327  28.026  1.00  0.00     0.261 C 
BRANCH   4   5
ATOM      5  O   UNL A   1      34.445  31.392  27.668  1.00  0.00    -0.463 OA
BRANCH   5   6
ATOM      6  C   UNL A   1      33.998  30.166  27.250  1.00  0.00     0.312 C 
ATOM      7  O   UNL A   1      34.723  29.204  27.026  1.00  0.00    -0.252 OA
BRANCH   6   8
ATOM      8  C   UNL A   1      32.475  30.159  27.088  1.00  0.00     0.124 C 
ATOM      9  C   UNL A   1      31.598  28.078  26.120  1.00  0.00     0.106 C 
ATOM     10  C   UNL A   1      31.619  29.179  25.116  1.00  0.00    -0.006 C 
ATOM     11  C   UNL A   1      31.782  28.833  27.441  1.00  0.00     0.048 C 
ATOM     12  C   UNL A   1      32.101  30.313  25.637  1.00  0.00    -0.014 C 
BRANCH   9  13
ATOM     13  N   UNL A   1      32.723  27.230  25.818  1.00  0.00    -0.348 N 
ATOM     14  O   UNL A   1      31.848  25.356  26.780  1.00  0.00    -0.273 OA
ATOM     15  C   UNL A   1      32.749  25.909  26.153  1.00  0.00     0.239 C 
ATOM     16  H   UNL A   1      33.500  27.617  25.352  1.00  0.00     0.164 HD
BRANCH  15  17
ATOM     17  C   UNL A   1      33.978  25.149  25.647  1.00  0.00     0.216 C 
BRANCH  17  18
ATOM     18  N   UNL A   1      34.166  24.812  24.227  1.00  0.00    -0.342 N 
ATOM     19  C   UNL A   1      34.473  23.674  23.476  1.00  0.00     0.261 C 
ATOM     20  H   UNL A   1      34.043  25.600  23.650  1.00  0.00     0.164 HD
ATOM     21  O   UNL A   1      33.927  23.696  22.367  1.00  0.00    -0.268 OA
BRANCH  19  22
ATOM     22  C   UNL A   1      35.369  22.545  23.820  1.00  0.00     0.092 A 
ATOM     23  C   UNL A   1      36.746  22.446  24.025  1.00  0.00     0.025 A 
ATOM     24  S   UNL A   1      34.631  21.196  24.628  1.00  0.00    -0.139 S 
ATOM     25  C   UNL A   1      37.171  21.226  24.650  1.00  0.00     0.012 A 
ATOM     26  C   UNL A   1      36.108  20.432  24.981  1.00  0.00     0.065 A 
ENDBRANCH  19  22
ENDBRANCH  17  18
ENDBRANCH  15  17
ENDBRANCH   9  13
ENDBRANCH   6   8
ENDBRANCH   5   6
ENDBRANCH   4   5
ENDBRANCH   3   4
ENDBRANCH   2   3
ENDBRANCH   1   2
BRANCH   1  27
ATOM     27  C   UNL A   1      34.142  35.444  30.757  1.00  0.00     0.188 C 
BRANCH  27  28
ATOM     28  O   UNL A   1      33.874  35.617  32.135  1.00  0.00    -0.376 OA
BRANCH  28  29
ATOM     29  C   UNL A   1      35.062  35.535  32.922  1.00  0.00     0.202 C 
BRANCH  29  30
ATOM     30  C   UNL A   1      34.997  34.315  33.849  1.00  0.00     0.261 C 
BRANCH  30  31
ATOM     31  O   UNL A   1      35.729  33.138  33.408  1.00  0.00    -0.460 OA
BRANCH  31  32
ATOM     32  C   UNL A   1      35.213  32.336  32.447  1.00  0.00     0.338 C 
ATOM     33  O   UNL A   1      34.053  32.333  32.066  1.00  0.00    -0.246 OA
BRANCH  32  34
ATOM     34  C   UNL A   1      36.332  31.598  31.772  1.00  0.00     0.060 A 
ATOM     35  C   UNL A   1      36.651  31.886  30.446  1.00  0.00     0.016 A 
ATOM     36  C   UNL A   1      37.084  30.609  32.410  1.00  0.00     0.016 A 
ATOM     37  C   UNL A   1      37.767  31.271  29.819  1.00  0.00     0.010 A 
ATOM     38  C   UNL A   1      38.242  30.050  31.785  1.00  0.00     0.010 A 
ATOM     39  C   UNL A   1      38.681  30.444  30.503  1.00  0.00    -0.014 A 
BRANCH  39  40
ATOM     40  C   UNL A   1      39.897  29.808  29.789  1.00  0.00     0.031 A 
ATOM     41  C   UNL A   1      41.141  30.645  29.759  1.00  0.00     0.074 A 
ATOM     42  C   UNL A   1      40.035  28.606  29.144  1.00  0.00     0.049 A 
ATOM     43  N   UNL A   1      42.246  30.443  29.089  1.00  0.00    -0.248 NA
ATOM     44  C   UNL A   1      41.083  31.917  30.485  1.00  0.00     0.031 C 
ATOM     45  C   UNL A   1      38.996  27.652  28.834  1.00  0.00     0.029 A 
ATOM     46  N   UNL A   1      41.149  27.929  28.641  1.00  0.00    -0.354 N 
ATOM     47  C   UNL A   1      42.957  31.620  29.202  1.00  0.00     0.074 A 
ATOM     48  C   UNL A   1      42.160  32.519  30.012  1.00  0.00     0.031 C 
ATOM     49  C   UNL A   1      39.482  26.479  28.415  1.00  0.00     0.029 A 
ATOM     50  C   UNL A   1      40.911  26.608  28.269  1.00  0.00     0.049 A 
ATOM     51  H   UNL A   1      42.034  28.354  28.556  1.00  0.00     0.167 HD
ATOM     52  C   UNL A   1      44.156  31.935  28.664  1.00  0.00     0.037 A 
ATOM     53  C   UNL A   1      41.697  25.599  27.827  1.00  0.00     0.037 A 
ATOM     54  C   UNL A   1      45.014  31.046  27.933  1.00  0.00     0.049 A 
ATOM     55  C   UNL A   1      43.096  25.921  27.398  1.00  0.00     0.074 A 
ATOM     56  C   UNL A   1      46.264  31.319  27.401  1.00  0.00     0.029 A 
ATOM     57  N   UNL A   1      44.749  29.715  27.658  1.00  0.00    -0.354 N 
ATOM     58  N   UNL A   1      43.729  27.061  27.476  1.00  0.00    -0.248 NA
ATOM     59  C   UNL A   1      43.861  24.851  26.730  1.00  0.00     0.031 C 
ATOM     60  C   UNL A   1      46.757  30.154  26.807  1.00  0.00     0.029 A 
ATOM     61  C   UNL A   1      45.829  29.147  26.996  1.00  0.00     0.049 A 
ATOM     62  H   UNL A   1      43.918  29.242  27.897  1.00  0.00     0.167 HD
ATOM     63  C   UNL A   1      44.948  26.855  26.851  1.00  0.00     0.074 A 
ATOM     64  C   UNL A   1      44.998  25.469  26.447  1.00  0.00     0.031 C 
ATOM     65  C   UNL A   1      45.916  27.765  26.606  1.00  0.00     0.037 A 
BRANCH  52  66
ATOM     66  C   UNL A   1      44.573  33.359  28.835  1.00  0.00     0.057 A 
ATOM     67  C   UNL A   1      44.207  34.350  27.917  1.00  0.00     0.134 A 
ATOM     68  C   UNL A   1      45.421  33.716  29.890  1.00  0.00     0.134 A 
ATOM     69  F   UNL A   1      43.430  34.049  26.865  1.00  0.00    -0.206 F 
ATOM     70  C   UNL A   1      44.722  35.640  28.009  1.00  0.00     0.040 A 
ATOM     71  C   UNL A   1      45.906  35.014  30.015  1.00  0.00     0.040 A 
ATOM     72  F   UNL A   1      45.806  32.805  30.796  1.00  0.00    -0.206 F 
ATOM     73  C   UNL A   1      45.572  35.975  29.061  1.00  0.00     0.006 A 
ENDBRANCH  52  66
BRANCH  53  74
ATOM     74  C   UNL A   1      41.218  24.183  27.686  1.00  0.00     0.057 A 
ATOM     75  C   UNL A   1      41.773  23.167  28.486  1.00  0.00     0.134 A 
ATOM     76  C   UNL A   1      40.309  23.774  26.703  1.00  0.00     0.134 A 
ATOM     77  F   UNL A   1      42.690  23.470  29.417  1.00  0.00    -0.206 F 
ATOM     78  C   UNL A   1      41.467  21.816  28.295  1.00  0.00     0.040 A 
ATOM     79  C   UNL A   1      39.961  22.429  26.529  1.00  0.00     0.040 A 
ATOM     80  F   UNL A   1      39.756  24.674  25.877  1.00  0.00    -0.206 F 
ATOM     81  C   UNL A   1      40.552  21.443  27.316  1.00  0.00     0.006 A 
ENDBRANCH  53  74
BRANCH  65  82
ATOM     82  C   UNL A   1      47.153  27.290  25.908  1.00  0.00     0.057 A 
ATOM     83  C   UNL A   1      47.323  27.422  24.524  1.00  0.00     0.134 A 
ATOM     84  C   UNL A   1      48.206  26.730  26.640  1.00  0.00     0.134 A 
ATOM     85  F   UNL A   1      46.342  27.928  23.762  1.00  0.00    -0.206 F 
ATOM     86  C   UNL A   1      48.499  27.009  23.893  1.00  0.00     0.040 A 
ATOM     87  C   UNL A   1      49.393  26.335  26.025  1.00  0.00     0.040 A 
ATOM     88  F   UNL A   1      48.102  26.571  27.969  1.00  0.00    -0.206 F 
ATOM     89  C   UNL A   1      49.541  26.473  24.646  1.00  0.00     0.006 A 
ENDBRANCH  65  82
ENDBRANCH  39  40
ENDBRANCH  32  34
ENDBRANCH  31  32
ENDBRANCH  30  31
ENDBRANCH  29  30
ENDBRANCH  28  29
ENDBRANCH  27  28
ENDBRANCH   1  27
TORSDOF 21
ENDMDL
MODEL 2
REMARK VINA RESULT:     -10.5      4.448      6.967
REMARK SMILES O=C(CNC(=O)c1cccs1)N[C@@H]1C=C[C@H](C(=O)OCCOCCOCCOC(=O)c2ccc(-c3c4nc(c(-c5c(F)cccc5F)c5ccc([nH]5)c(-c5c(F)cccc5F)c5nc(c(-c6c(F)cccc6F)c6ccc3[nH]6)C=C5)C=C4)cc2)C1
REMARK SMILES IDX 23 1 22 2 21 3 20 4 19 5 17 6 18 7 16 8 13 9 14 10 85 11
REMARK SMILES IDX 15 12 12 13 1 14 2 15 3 17 4 18 5 19 6 21 7 22 8 23 11 24
REMARK SMILES IDX 9 25 10 26 24 27 25 28 26 29 27 30 28 31 29 32 30 33 31 34
REMARK SMILES IDX 32 35 84 36 33 37 83 38 34 39 35 40 36 41 77 42 37 43 82 44
REMARK SMILES IDX 76 45 78 46 38 47 81 48 75 49 74 50 39 52 65 53 48 54 64 55
REMARK SMILES IDX 49 56 52 57 63 58 79 59 50 60 51 61 62 63 80 64 53 65 40 66
REMARK SMILES IDX 41 67 46 68 42 69 43 70 45 71 47 72 44 73 66 74 67 75 72 76
REMARK SMILES IDX 68 77 69 78 71 79 73 80 70 81 54 82 55 83 60 84 56 85 57 86
REMARK SMILES IDX 59 87 61 88 58 89
REMARK H PARENT 12 16 4 20 78 51 52 62
REMARK Flexibility Score: inf
ROOT
ATOM      1  C   UNL A   1      34.662  34.066  27.885  1.00  0.00     0.188 C 
ENDROOT
BRANCH   1   2
ATOM      2  O   UNL A   1      35.582  33.035  27.601  1.00  0.00    -0.376 OA
BRANCH   2   3
ATOM      3  C   UNL A   1      35.302  31.743  28.107  1.00  0.00     0.202 C 
BRANCH   3   4
ATOM      4  C   UNL A   1      33.977  31.092  27.691  1.00  0.00     0.261 C 
BRANCH   4   5
ATOM      5  O   UNL A   1      33.974  30.401  26.425  1.00  0.00    -0.463 OA
BRANCH   5   6
ATOM      6  C   UNL A   1      33.538  29.103  26.477  1.00  0.00     0.312 C 
ATOM      7  O   UNL A   1      34.275  28.126  26.526  1.00  0.00    -0.252 OA
BRANCH   6   8
ATOM      8  C   UNL A   1      32.008  29.033  26.452  1.00  0.00     0.124 C 
ATOM      9  C   UNL A   1      31.129  26.740  26.393  1.00  0.00     0.106 C 
ATOM     10  C   UNL A   1      31.039  27.392  25.056  1.00  0.00    -0.006 C 
ATOM     11  C   UNL A   1      31.386  27.930  27.324  1.00  0.00     0.048 C 
ATOM     12  C   UNL A   1      31.522  28.639  25.082  1.00  0.00    -0.014 C 
BRANCH   9  13
ATOM     13  N   UNL A   1      32.255  25.843  26.335  1.00  0.00    -0.348 N 
ATOM     14  O   UNL A   1      31.136  24.033  27.158  1.00  0.00    -0.273 OA
ATOM     15  C   UNL A   1      32.162  24.534  26.702  1.00  0.00     0.239 C 
ATOM     16  H   UNL A   1      33.122  26.187  26.017  1.00  0.00     0.164 HD
BRANCH  15  17
ATOM     17  C   UNL A   1      33.432  23.714  26.461  1.00  0.00     0.216 C 
BRANCH  17  18
ATOM     18  N   UNL A   1      33.923  23.401  25.109  1.00  0.00    -0.342 N 
ATOM     19  C   UNL A   1      33.676  22.437  24.127  1.00  0.00     0.261 C 
ATOM     20  H   UNL A   1      34.612  24.040  24.819  1.00  0.00     0.164 HD
ATOM     21  O   UNL A   1      33.819  22.897  22.989  1.00  0.00    -0.268 OA
BRANCH  19  22
ATOM     22  C   UNL A   1      33.339  21.004  24.293  1.00  0.00     0.092 A 
ATOM     23  C   UNL A   1      32.355  20.183  23.743  1.00  0.00     0.025 A 
ATOM     24  S   UNL A   1      34.627  19.970  24.834  1.00  0.00    -0.139 S 
ATOM     25  C   UNL A   1      32.573  18.778  23.932  1.00  0.00     0.012 A 
ATOM     26  C   UNL A   1      33.760  18.532  24.565  1.00  0.00     0.065 A 
ENDBRANCH  19  22
ENDBRANCH  17  18
ENDBRANCH  15  17
ENDBRANCH   9  13
ENDBRANCH   6   8
ENDBRANCH   5   6
ENDBRANCH   4   5
ENDBRANCH   3   4
ENDBRANCH   2   3
ENDBRANCH   1   2
BRANCH   1  27
ATOM     27  C   UNL A   1      34.095  34.279  29.283  1.00  0.00     0.188 C 
BRANCH  27  28
ATOM     28  O   UNL A   1      32.733  34.660  29.315  1.00  0.00    -0.376 OA
BRANCH  28  29
ATOM     29  C   UNL A   1      32.574  36.071  29.171  1.00  0.00     0.202 C 
BRANCH  29  30
ATOM     30  C   UNL A   1      33.288  36.802  30.315  1.00  0.00     0.261 C 
BRANCH  30  31
ATOM     31  O   UNL A   1      32.464  37.154  31.461  1.00  0.00    -0.460 OA
BRANCH  31  32
ATOM     32  C   UNL A   1      32.185  36.229  32.409  1.00  0.00     0.338 C 
ATOM     33  O   UNL A   1      31.071  35.944  32.822  1.00  0.00    -0.246 OA
BRANCH  32  34
ATOM     34  C   UNL A   1      33.433  35.457  32.724  1.00  0.00     0.060 A 
ATOM     35  C   UNL A   1      33.372  34.072  32.869  1.00  0.00     0.016 A 
ATOM     36  C   UNL A   1      34.679  36.063  32.892  1.00  0.00     0.016 A 
ATOM     37  C   UNL A   1      34.554  33.312  33.069  1.00  0.00     0.010 A 
ATOM     38  C   UNL A   1      35.865  35.277  33.028  1.00  0.00     0.010 A 
ATOM     39  C   UNL A   1      35.849  33.866  33.015  1.00  0.00    -0.014 A 
BRANCH  39  40
ATOM     40  C   UNL A   1      37.115  33.000  33.219  1.00  0.00     0.031 A 
ATOM     41  C   UNL A   1      37.706  33.031  34.597  1.00  0.00     0.074 A 
ATOM     42  C   UNL A   1      37.821  32.217  32.343  1.00  0.00     0.049 A 
ATOM     43  N   UNL A   1      38.850  32.546  35.007  1.00  0.00    -0.248 NA
ATOM     44  C   UNL A   1      36.966  33.800  35.602  1.00  0.00     0.031 C 
ATOM     45  C   UNL A   1      37.633  32.110  30.914  1.00  0.00     0.029 A 
ATOM     46  N   UNL A   1      38.856  31.296  32.525  1.00  0.00    -0.354 N 
ATOM     47  C   UNL A   1      39.030  33.065  36.272  1.00  0.00     0.074 A 
ATOM     48  C   UNL A   1      37.873  33.890  36.558  1.00  0.00     0.031 C 
ATOM     49  C   UNL A   1      38.314  31.090  30.380  1.00  0.00     0.029 A 
ATOM     50  C   UNL A   1      39.145  30.514  31.409  1.00  0.00     0.049 A 
ATOM     51  H   UNL A   1      39.342  31.207  33.377  1.00  0.00     0.167 HD
ATOM     52  C   UNL A   1      40.072  32.891  37.115  1.00  0.00     0.037 A 
ATOM     53  C   UNL A   1      39.986  29.479  31.178  1.00  0.00     0.037 A 
ATOM     54  C   UNL A   1      41.191  32.016  36.905  1.00  0.00     0.049 A 
ATOM     55  C   UNL A   1      41.033  29.168  32.204  1.00  0.00     0.074 A 
ATOM     56  C   UNL A   1      42.255  31.780  37.759  1.00  0.00     0.029 A 
ATOM     57  N   UNL A   1      41.383  31.205  35.799  1.00  0.00    -0.354 N 
ATOM     58  N   UNL A   1      41.206  29.711  33.379  1.00  0.00    -0.248 NA
ATOM     59  C   UNL A   1      42.062  28.177  31.840  1.00  0.00     0.031 C 
ATOM     60  C   UNL A   1      43.092  30.826  37.172  1.00  0.00     0.029 A 
ATOM     61  C   UNL A   1      42.532  30.444  35.967  1.00  0.00     0.049 A 
ATOM     62  H   UNL A   1      40.794  31.174  35.010  1.00  0.00     0.167 HD
ATOM     63  C   UNL A   1      42.368  29.149  33.882  1.00  0.00     0.074 A 
ATOM     64  C   UNL A   1      42.834  28.180  32.917  1.00  0.00     0.031 C 
ATOM     65  C   UNL A   1      43.003  29.455  35.035  1.00  0.00     0.037 A 
BRANCH  52  66
ATOM     66  C   UNL A   1      40.038  33.733  38.347  1.00  0.00     0.057 A 
ATOM     67  C   UNL A   1      39.283  33.370  39.468  1.00  0.00     0.134 A 
ATOM     68  C   UNL A   1      40.706  34.962  38.371  1.00  0.00     0.134 A 
ATOM     69  F   UNL A   1      38.589  32.221  39.478  1.00  0.00    -0.206 F 
ATOM     70  C   UNL A   1      39.143  34.234  40.551  1.00  0.00     0.040 A 
ATOM     71  C   UNL A   1      40.608  35.814  39.467  1.00  0.00     0.040 A 
ATOM     72  F   UNL A   1      41.441  35.362  37.322  1.00  0.00    -0.206 F 
ATOM     73  C   UNL A   1      39.810  35.457  40.553  1.00  0.00     0.006 A 
ENDBRANCH  52  66
BRANCH  53  74
ATOM     74  C   UNL A   1      39.962  28.663  29.917  1.00  0.00     0.057 A 
ATOM     75  C   UNL A   1      39.266  27.441  29.880  1.00  0.00     0.134 A 
ATOM     76  C   UNL A   1      40.703  28.994  28.776  1.00  0.00     0.134 A 
ATOM     77  F   UNL A   1      38.574  27.028  30.952  1.00  0.00    -0.206 F 
ATOM     78  C   UNL A   1      39.332  26.578  28.781  1.00  0.00     0.040 A 
ATOM     79  C   UNL A   1      40.742  28.160  27.651  1.00  0.00     0.040 A 
ATOM     80  F   UNL A   1      41.419  30.127  28.738  1.00  0.00    -0.206 F 
ATOM     81  C   UNL A   1      40.069  26.940  27.657  1.00  0.00     0.006 A 
ENDBRANCH  53  74
BRANCH  65  82
ATOM     82  C   UNL A   1      44.254  28.698  35.359  1.00  0.00     0.057 A 
ATOM     83  C   UNL A   1      44.230  27.496  36.078  1.00  0.00     0.134 A 
ATOM     84  C   UNL A   1      45.496  29.159  34.908  1.00  0.00     0.134 A 
ATOM     85  F   UNL A   1      43.076  27.012  36.559  1.00  0.00    -0.206 F 
ATOM     86  C   UNL A   1      45.402  26.782  36.340  1.00  0.00     0.040 A 
ATOM     87  C   UNL A   1      46.669  28.444  35.144  1.00  0.00     0.040 A 
ATOM     88  F   UNL A   1      45.586  30.308  34.219  1.00  0.00    -0.206 F 
ATOM     89  C   UNL A   1      46.624  27.252  35.864  1.00  0.00     0.006 A 
ENDBRANCH  65  82
ENDBRANCH  39  40
ENDBRANCH  32  34
ENDBRANCH  31  32
ENDBRANCH  30  31
ENDBRANCH  29  30
ENDBRANCH  28  29
ENDBRANCH  27  28
ENDBRANCH   1  27
TORSDOF 21
ENDMDL
MODEL 3
REMARK VINA RESULT:     -10.4      3.978      8.804
REMARK SMILES O=C(CNC(=O)c1cccs1)N[C@@H]1C=C[C@H](C(=O)OCCOCCOCCOC(=O)c2ccc(-c3c4nc(c(-c5c(F)cccc5F)c5ccc([nH]5)c(-c5c(F)cccc5F)c5nc(c(-c6c(F)cccc6F)c6ccc3[nH]6)C=C5)C=C4)cc2)C1
REMARK SMILES IDX 23 1 22 2 21 3 20 4 19 5 17 6 18 7 16 8 13 9 14 10 85 11
REMARK SMILES IDX 15 12 12 13 1 14 2 15 3 17 4 18 5 19 6 21 7 22 8 23 11 24
REMARK SMILES IDX 9 25 10 26 24 27 25 28 26 29 27 30 28 31 29 32 30 33 31 34
REMARK SMILES IDX 32 35 84 36 33 37 83 38 34 39 35 40 36 41 77 42 37 43 82 44
REMARK SMILES IDX 76 45 78 46 38 47 81 48 75 49 74 50 39 52 65 53 48 54 64 55
REMARK SMILES IDX 49 56 52 57 63 58 79 59 50 60 51 61 62 63 80 64 53 65 40 66
REMARK SMILES IDX 41 67 46 68 42 69 43 70 45 71 47 72 44 73 66 74 67 75 72 76
REMARK SMILES IDX 68 77 69 78 71 79 73 80 70 81 54 82 55 83 60 84 56 85 57 86
REMARK SMILES IDX 59 87 61 88 58 89
REMARK H PARENT 12 16 4 20 78 51 52 62
REMARK Flexibility Score: inf
ROOT
ATOM      1  C   UNL A   1      30.779  25.055  24.806  1.00  0.00     0.188 C 
ENDROOT
BRANCH   1   2
ATOM      2  O   UNL A   1      31.926  25.008  25.627  1.00  0.00    -0.376 OA
BRANCH   2   3
ATOM      3  C   UNL A   1      31.990  23.994  26.611  1.00  0.00     0.202 C 
BRANCH   3   4
ATOM      4  C   UNL A   1      32.307  22.570  26.140  1.00  0.00     0.261 C 
BRANCH   4   5
ATOM      5  O   UNL A   1      33.481  21.955  26.709  1.00  0.00    -0.463 OA
BRANCH   5   6
ATOM      6  C   UNL A   1      34.671  22.393  26.190  1.00  0.00     0.312 C 
ATOM      7  O   UNL A   1      35.366  23.267  26.693  1.00  0.00    -0.252 OA
BRANCH   6   8
ATOM      8  C   UNL A   1      35.011  21.657  24.890  1.00  0.00     0.124 C 
ATOM      9  C   UNL A   1      37.422  21.518  24.439  1.00  0.00     0.106 C 
ATOM     10  C   UNL A   1      36.768  22.552  23.588  1.00  0.00    -0.006 C 
ATOM     11  C   UNL A   1      36.225  20.718  24.964  1.00  0.00     0.048 C 
ATOM     12  C   UNL A   1      35.456  22.635  23.833  1.00  0.00    -0.014 C 
BRANCH   9  13
ATOM     13  N   UNL A   1      38.103  22.229  25.492  1.00  0.00    -0.348 N 
ATOM     14  O   UNL A   1      39.714  20.646  25.817  1.00  0.00    -0.273 OA
ATOM     15  C   UNL A   1      39.228  21.742  26.088  1.00  0.00     0.239 C 
ATOM     16  H   UNL A   1      37.745  23.097  25.790  1.00  0.00     0.164 HD
BRANCH  15  17
ATOM     17  C   UNL A   1      39.871  22.692  27.102  1.00  0.00     0.216 C 
BRANCH  17  18
ATOM     18  N   UNL A   1      41.014  22.294  27.940  1.00  0.00    -0.342 N 
ATOM     19  C   UNL A   1      42.406  22.413  27.898  1.00  0.00     0.261 C 
ATOM     20  H   UNL A   1      40.719  21.813  28.746  1.00  0.00     0.164 HD
ATOM     21  O   UNL A   1      42.891  22.509  29.031  1.00  0.00    -0.268 OA
BRANCH  19  22
ATOM     22  C   UNL A   1      43.309  22.379  26.724  1.00  0.00     0.092 A 
ATOM     23  C   UNL A   1      43.088  22.260  25.351  1.00  0.00     0.025 A 
ATOM     24  S   UNL A   1      44.867  23.119  26.931  1.00  0.00    -0.139 S 
ATOM     25  C   UNL A   1      44.220  22.587  24.532  1.00  0.00     0.012 A 
ATOM     26  C   UNL A   1      45.277  23.022  25.284  1.00  0.00     0.065 A 
ENDBRANCH  19  22
ENDBRANCH  17  18
ENDBRANCH  15  17
ENDBRANCH   9  13
ENDBRANCH   6   8
ENDBRANCH   5   6
ENDBRANCH   4   5
ENDBRANCH   3   4
ENDBRANCH   2   3
ENDBRANCH   1   2
BRANCH   1  27
ATOM     27  C   UNL A   1      30.736  25.882  23.527  1.00  0.00     0.188 C 
BRANCH  27  28
ATOM     28  O   UNL A   1      31.429  27.113  23.597  1.00  0.00    -0.376 OA
BRANCH  28  29
ATOM     29  C   UNL A   1      30.802  28.025  24.499  1.00  0.00     0.202 C 
BRANCH  29  30
ATOM     30  C   UNL A   1      31.427  29.418  24.360  1.00  0.00     0.261 C 
BRANCH  30  31
ATOM     31  O   UNL A   1      32.511  29.727  25.279  1.00  0.00    -0.460 OA
BRANCH  31  32
ATOM     32  C   UNL A   1      32.365  30.707  26.201  1.00  0.00     0.338 C 
ATOM     33  O   UNL A   1      31.383  31.422  26.334  1.00  0.00    -0.246 OA
BRANCH  32  34
ATOM     34  C   UNL A   1      33.508  30.644  27.171  1.00  0.00     0.060 A 
ATOM     35  C   UNL A   1      34.146  29.427  27.410  1.00  0.00     0.016 A 
ATOM     36  C   UNL A   1      33.974  31.758  27.871  1.00  0.00     0.016 A 
ATOM     37  C   UNL A   1      35.290  29.362  28.247  1.00  0.00     0.010 A 
ATOM     38  C   UNL A   1      35.166  31.685  28.657  1.00  0.00     0.010 A 
ATOM     39  C   UNL A   1      35.922  30.501  28.785  1.00  0.00    -0.014 A 
BRANCH  39  40
ATOM     40  C   UNL A   1      37.181  30.390  29.678  1.00  0.00     0.031 A 
ATOM     41  C   UNL A   1      38.422  29.903  28.991  1.00  0.00     0.074 A 
ATOM     42  C   UNL A   1      37.362  30.635  31.015  1.00  0.00     0.049 A 
ATOM     43  N   UNL A   1      39.565  29.552  29.520  1.00  0.00    -0.248 NA
ATOM     44  C   UNL A   1      38.317  29.681  27.545  1.00  0.00     0.031 C 
ATOM     45  C   UNL A   1      36.345  30.938  31.996  1.00  0.00     0.029 A 
ATOM     46  N   UNL A   1      38.506  30.710  31.813  1.00  0.00    -0.354 N 
ATOM     47  C   UNL A   1      40.265  28.943  28.499  1.00  0.00     0.074 A 
ATOM     48  C   UNL A   1      39.418  28.985  27.324  1.00  0.00     0.031 C 
ATOM     49  C   UNL A   1      36.859  31.359  33.157  1.00  0.00     0.029 A 
ATOM     50  C   UNL A   1      38.294  31.227  33.090  1.00  0.00     0.049 A 
ATOM     51  H   UNL A   1      39.392  30.420  31.497  1.00  0.00     0.167 HD
ATOM     52  C   UNL A   1      41.492  28.379  28.537  1.00  0.00     0.037 A 
ATOM     53  C   UNL A   1      39.109  31.542  34.123  1.00  0.00     0.037 A 
ATOM     54  C   UNL A   1      42.395  28.395  29.653  1.00  0.00     0.049 A 
ATOM     55  C   UNL A   1      40.530  31.069  34.081  1.00  0.00     0.074 A 
ATOM     56  C   UNL A   1      43.673  27.865  29.718  1.00  0.00     0.029 A 
ATOM     57  N   UNL A   1      42.152  28.994  30.878  1.00  0.00    -0.354 N 
ATOM     58  N   UNL A   1      41.153  30.451  33.114  1.00  0.00    -0.248 NA
ATOM     59  C   UNL A   1      41.336  31.242  35.303  1.00  0.00     0.031 C 
ATOM     60  C   UNL A   1      44.205  28.143  30.981  1.00  0.00     0.029 A 
ATOM     61  C   UNL A   1      43.271  28.875  31.691  1.00  0.00     0.049 A 
ATOM     62  H   UNL A   1      41.310  29.437  31.134  1.00  0.00     0.167 HD
ATOM     63  C   UNL A   1      42.408  30.143  33.614  1.00  0.00     0.074 A 
ATOM     64  C   UNL A   1      42.487  30.688  34.950  1.00  0.00     0.031 C 
ATOM     65  C   UNL A   1      43.385  29.430  33.013  1.00  0.00     0.037 A 
BRANCH  52  66
ATOM     66  C   UNL A   1      41.893  27.650  27.297  1.00  0.00     0.057 A 
ATOM     67  C   UNL A   1      41.586  26.298  27.105  1.00  0.00     0.134 A 
ATOM     68  C   UNL A   1      42.669  28.295  26.327  1.00  0.00     0.134 A 
ATOM     69  F   UNL A   1      40.881  25.623  28.026  1.00  0.00    -0.206 F 
ATOM     70  C   UNL A   1      42.091  25.594  26.015  1.00  0.00     0.040 A 
ATOM     71  C   UNL A   1      43.143  27.610  25.213  1.00  0.00     0.040 A 
ATOM     72  F   UNL A   1      42.997  29.589  26.463  1.00  0.00    -0.206 F 
ATOM     73  C   UNL A   1      42.869  26.251  25.065  1.00  0.00     0.006 A 
ENDBRANCH  52  66
BRANCH  53  74
ATOM     74  C   UNL A   1      38.644  32.287  35.341  1.00  0.00     0.057 A 
ATOM     75  C   UNL A   1      38.811  33.683  35.421  1.00  0.00     0.134 A 
ATOM     76  C   UNL A   1      38.144  31.654  36.485  1.00  0.00     0.134 A 
ATOM     77  F   UNL A   1      39.332  34.358  34.385  1.00  0.00    -0.206 F 
ATOM     78  C   UNL A   1      38.528  34.402  36.586  1.00  0.00     0.040 A 
ATOM     79  C   UNL A   1      37.815  32.368  37.644  1.00  0.00     0.040 A 
ATOM     80  F   UNL A   1      37.982  30.323  36.505  1.00  0.00    -0.206 F 
ATOM     81  C   UNL A   1      38.021  33.745  37.703  1.00  0.00     0.006 A 
ENDBRANCH  53  74
BRANCH  65  82
ATOM     82  C   UNL A   1      44.663  29.233  33.769  1.00  0.00     0.057 A 
ATOM     83  C   UNL A   1      45.723  30.145  33.686  1.00  0.00     0.134 A 
ATOM     84  C   UNL A   1      44.818  28.135  34.623  1.00  0.00     0.134 A 
ATOM     85  F   UNL A   1      45.649  31.205  32.868  1.00  0.00    -0.206 F 
ATOM     86  C   UNL A   1      46.895  29.968  34.426  1.00  0.00     0.040 A 
ATOM     87  C   UNL A   1      45.973  27.959  35.383  1.00  0.00     0.040 A 
ATOM     88  F   UNL A   1      43.841  27.223  34.740  1.00  0.00    -0.206 F 
ATOM     89  C   UNL A   1      47.017  28.877  35.284  1.00  0.00     0.006 A 
ENDBRANCH  65  82
ENDBRANCH  39  40
ENDBRANCH  32  34
ENDBRANCH  31  32
ENDBRANCH  30  31
ENDBRANCH  29  30
ENDBRANCH  28  29
ENDBRANCH  27  28
ENDBRANCH   1  27
TORSDOF 21
ENDMDL
