MODEL 1
REMARK VINA RESULT:     -10.3      0.000      0.000
REMARK SMILES CC[N@@H+](C)Cc1cc2c(cc1Cl)C=C(C(=O)OCCOCCOCCOC(=O)c1ccc(-c3c4nc(c(-c5c(F)cccc5F)c5ccc([nH]5)c(-c5c(F)cccc5F)c5nc(c(-c6c(F)cccc6F)c6ccc3[nH]6)C=C5)C=C4)cc1)[C@@H](C(F)(F)F)O2
REMARK SMILES IDX 21 1 20 2 19 3 18 4 17 5 15 6 16 7 14 8 6 9 7 10 11 11 8 12
REMARK SMILES IDX 10 13 12 14 9 15 88 16 13 17 83 18 5 19 3 20 4 21 2 23 1 24
REMARK SMILES IDX 84 25 85 26 86 27 87 28 22 29 23 30 24 31 25 32 26 33 27 34
REMARK SMILES IDX 28 35 29 36 30 37 82 38 31 39 81 40 32 41 33 42 34 43 75 44
REMARK SMILES IDX 35 45 80 46 74 47 76 48 36 49 79 50 73 51 72 52 37 54 63 55
REMARK SMILES IDX 46 56 62 57 47 58 50 59 61 60 77 61 48 62 49 63 60 65 78 66
REMARK SMILES IDX 51 67 38 68 39 69 44 70 40 71 41 72 43 73 45 74 42 75 64 76
REMARK SMILES IDX 65 77 70 78 66 79 67 80 69 81 71 82 68 83 52 84 53 85 58 86
REMARK SMILES IDX 54 87 55 88 57 89 59 90 56 91
REMARK H PARENT 3 22 76 53 50 64
REMARK Flexibility Score: inf
ROOT
ATOM      1  C   UNL A   1      33.226  29.091  24.029  1.00  0.00     0.188 C 
ENDROOT
BRANCH   1   2
ATOM      2  O   UNL A   1      32.179  28.942  23.093  1.00  0.00    -0.376 OA
BRANCH   2   3
ATOM      3  C   UNL A   1      31.497  27.707  22.936  1.00  0.00     0.202 C 
BRANCH   3   4
ATOM      4  C   UNL A   1      31.327  26.712  24.087  1.00  0.00     0.261 C 
BRANCH   4   5
ATOM      5  O   UNL A   1      32.465  25.876  24.323  1.00  0.00    -0.460 OA
BRANCH   5   6
ATOM      6  C   UNL A   1      32.693  25.582  25.624  1.00  0.00     0.338 C 
ATOM      7  O   UNL A   1      32.533  26.313  26.586  1.00  0.00    -0.246 OA
BRANCH   6   8
ATOM      8  C   UNL A   1      33.020  24.155  25.748  1.00  0.00     0.087 C 
ATOM      9  C   UNL A   1      35.077  19.643  24.981  1.00  0.00     0.029 A 
ATOM     10  C   UNL A   1      33.818  20.101  25.425  1.00  0.00     0.058 A 
ATOM     11  C   UNL A   1      36.117  20.579  24.889  1.00  0.00     0.050 A 
ATOM     12  C   UNL A   1      33.573  21.457  25.629  1.00  0.00     0.128 A 
ATOM     13  C   UNL A   1      35.855  21.946  25.030  1.00  0.00     0.033 A 
ATOM     14  Cl  UNL A   1      37.765  20.129  24.638  1.00  0.00    -0.084 Cl
ATOM     15  C   UNL A   1      34.569  22.386  25.347  1.00  0.00     0.019 A 
ATOM     16  O   UNL A   1      32.313  21.797  26.030  1.00  0.00    -0.475 OA
ATOM     17  C   UNL A   1      34.228  23.796  25.295  1.00  0.00     0.027 C 
ATOM     18  C   UNL A   1      32.044  23.190  26.366  1.00  0.00     0.316 C 
BRANCH   9  19
ATOM     19  C   UNL A   1      35.210  18.186  24.576  1.00  0.00     0.300 C 
BRANCH  19  20
ATOM     20  N   UNL A   1      33.967  17.388  24.508  1.00  0.00    -0.334 N 
ATOM     21  C   UNL A   1      33.989  16.209  25.368  1.00  0.00     0.333 C 
ATOM     22  H   UNL A   1      33.278  18.046  24.873  1.00  0.00     0.348 HD
BRANCH  20  23
ATOM     23  C   UNL A   1      33.490  17.038  23.165  1.00  0.00     0.258 C 
ATOM     24  C   UNL A   1      32.541  18.079  22.587  1.00  0.00     0.071 C 
ENDBRANCH  20  23
ENDBRANCH  19  20
ENDBRANCH   9  19
BRANCH  18  25
ATOM     25  C   UNL A   1      30.579  23.467  25.995  1.00  0.00     0.430 C 
ATOM     26  F   UNL A   1      29.771  22.466  26.422  1.00  0.00    -0.167 F 
ATOM     27  F   UNL A   1      30.113  24.604  26.561  1.00  0.00    -0.167 F 
ATOM     28  F   UNL A   1      30.411  23.583  24.658  1.00  0.00    -0.167 F 
ENDBRANCH  18  25
ENDBRANCH   6   8
ENDBRANCH   5   6
ENDBRANCH   4   5
ENDBRANCH   3   4
ENDBRANCH   2   3
ENDBRANCH   1   2
BRANCH   1  29
ATOM     29  C   UNL A   1      32.966  29.644  25.447  1.00  0.00     0.188 C 
BRANCH  29  30
ATOM     30  O   UNL A   1      31.882  30.513  25.706  1.00  0.00    -0.376 OA
BRANCH  30  31
ATOM     31  C   UNL A   1      31.832  31.220  26.937  1.00  0.00     0.202 C 
BRANCH  31  32
ATOM     32  C   UNL A   1      31.838  32.751  26.955  1.00  0.00     0.261 C 
BRANCH  32  33
ATOM     33  O   UNL A   1      33.148  33.317  27.098  1.00  0.00    -0.460 OA
BRANCH  33  34
ATOM     34  C   UNL A   1      33.332  34.075  28.206  1.00  0.00     0.338 C 
ATOM     35  O   UNL A   1      32.596  34.945  28.643  1.00  0.00    -0.246 OA
BRANCH  34  36
ATOM     36  C   UNL A   1      34.490  33.555  28.956  1.00  0.00     0.060 A 
ATOM     37  C   UNL A   1      34.340  32.529  29.890  1.00  0.00     0.016 A 
ATOM     38  C   UNL A   1      35.751  34.109  28.699  1.00  0.00     0.016 A 
ATOM     39  C   UNL A   1      35.469  32.034  30.546  1.00  0.00     0.010 A 
ATOM     40  C   UNL A   1      36.876  33.622  29.366  1.00  0.00     0.010 A 
ATOM     41  C   UNL A   1      36.743  32.566  30.277  1.00  0.00    -0.014 A 
BRANCH  41  42
ATOM     42  C   UNL A   1      37.947  31.903  30.832  1.00  0.00     0.031 A 
ATOM     43  C   UNL A   1      38.485  32.243  32.187  1.00  0.00     0.074 A 
ATOM     44  C   UNL A   1      38.558  30.972  30.077  1.00  0.00     0.049 A 
ATOM     45  N   UNL A   1      39.459  31.672  32.850  1.00  0.00    -0.248 NA
ATOM     46  C   UNL A   1      37.858  33.374  32.885  1.00  0.00     0.031 C 
ATOM     47  C   UNL A   1      38.150  30.589  28.724  1.00  0.00     0.029 A 
ATOM     48  N   UNL A   1      39.643  30.177  30.338  1.00  0.00    -0.354 N 
ATOM     49  C   UNL A   1      39.545  32.350  34.058  1.00  0.00     0.074 A 
ATOM     50  C   UNL A   1      38.559  33.413  34.011  1.00  0.00     0.031 C 
ATOM     51  C   UNL A   1      38.960  29.614  28.283  1.00  0.00     0.029 A 
ATOM     52  C   UNL A   1      39.950  29.317  29.314  1.00  0.00     0.049 A 
ATOM     53  H   UNL A   1      40.153  30.219  31.180  1.00  0.00     0.167 HD
ATOM     54  C   UNL A   1      40.358  32.093  35.112  1.00  0.00     0.037 A 
ATOM     55  C   UNL A   1      40.914  28.384  29.221  1.00  0.00     0.037 A 
ATOM     56  C   UNL A   1      41.356  31.052  35.139  1.00  0.00     0.049 A 
ATOM     57  C   UNL A   1      41.832  28.154  30.387  1.00  0.00     0.074 A 
ATOM     58  C   UNL A   1      42.197  30.687  36.179  1.00  0.00     0.029 A 
ATOM     59  N   UNL A   1      41.665  30.221  34.072  1.00  0.00    -0.354 N 
ATOM     60  N   UNL A   1      41.836  28.732  31.563  1.00  0.00    -0.248 NA
ATOM     61  C   UNL A   1      42.870  27.130  30.214  1.00  0.00     0.031 C 
ATOM     62  C   UNL A   1      43.047  29.672  35.725  1.00  0.00     0.029 A 
ATOM     63  C   UNL A   1      42.704  29.368  34.417  1.00  0.00     0.049 A 
ATOM     64  H   UNL A   1      41.214  30.235  33.197  1.00  0.00     0.167 HD
ATOM     65  C   UNL A   1      42.859  28.125  32.279  1.00  0.00     0.074 A 
ATOM     66  C   UNL A   1      43.438  27.121  31.411  1.00  0.00     0.031 C 
ATOM     67  C   UNL A   1      43.280  28.377  33.543  1.00  0.00     0.037 A 
BRANCH  54  68
ATOM     68  C   UNL A   1      40.198  32.954  36.332  1.00  0.00     0.057 A 
ATOM     69  C   UNL A   1      41.031  34.059  36.550  1.00  0.00     0.134 A 
ATOM     70  C   UNL A   1      39.252  32.654  37.321  1.00  0.00     0.134 A 
ATOM     71  F   UNL A   1      41.966  34.396  35.650  1.00  0.00    -0.206 F 
ATOM     72  C   UNL A   1      40.927  34.834  37.706  1.00  0.00     0.040 A 
ATOM     73  C   UNL A   1      39.123  33.436  38.471  1.00  0.00     0.040 A 
ATOM     74  F   UNL A   1      38.421  31.612  37.173  1.00  0.00    -0.206 F 
ATOM     75  C   UNL A   1      39.967  34.527  38.668  1.00  0.00     0.006 A 
ENDBRANCH  54  68
BRANCH  55  76
ATOM     76  C   UNL A   1      41.041  27.571  27.987  1.00  0.00     0.057 A 
ATOM     77  C   UNL A   1      41.808  28.008  26.902  1.00  0.00     0.134 A 
ATOM     78  C   UNL A   1      40.410  26.327  27.876  1.00  0.00     0.134 A 
ATOM     79  F   UNL A   1      42.429  29.195  26.947  1.00  0.00    -0.206 F 
ATOM     80  C   UNL A   1      41.945  27.236  25.749  1.00  0.00     0.040 A 
ATOM     81  C   UNL A   1      40.559  25.533  26.739  1.00  0.00     0.040 A 
ATOM     82  F   UNL A   1      39.674  25.849  28.891  1.00  0.00    -0.206 F 
ATOM     83  C   UNL A   1      41.327  25.990  25.669  1.00  0.00     0.006 A 
ENDBRANCH  55  76
BRANCH  67  84
ATOM     84  C   UNL A   1      44.409  27.534  34.061  1.00  0.00     0.057 A 
ATOM     85  C   UNL A   1      45.739  27.938  33.895  1.00  0.00     0.134 A 
ATOM     86  C   UNL A   1      44.181  26.323  34.731  1.00  0.00     0.134 A 
ATOM     87  F   UNL A   1      46.030  29.083  33.259  1.00  0.00    -0.206 F 
ATOM     88  C   UNL A   1      46.801  27.172  34.379  1.00  0.00     0.040 A 
ATOM     89  C   UNL A   1      45.233  25.562  35.243  1.00  0.00     0.040 A 
ATOM     90  F   UNL A   1      42.929  25.887  34.939  1.00  0.00    -0.206 F 
ATOM     91  C   UNL A   1      46.549  25.984  35.064  1.00  0.00     0.006 A 
ENDBRANCH  67  84
ENDBRANCH  41  42
ENDBRANCH  34  36
ENDBRANCH  33  34
ENDBRANCH  32  33
ENDBRANCH  31  32
ENDBRANCH  30  31
ENDBRANCH  29  30
ENDBRANCH   1  29
TORSDOF 21
ENDMDL
MODEL 2
REMARK VINA RESULT:     -10.1      2.231      3.192
REMARK SMILES CC[N@@H+](C)Cc1cc2c(cc1Cl)C=C(C(=O)OCCOCCOCCOC(=O)c1ccc(-c3c4nc(c(-c5c(F)cccc5F)c5ccc([nH]5)c(-c5c(F)cccc5F)c5nc(c(-c6c(F)cccc6F)c6ccc3[nH]6)C=C5)C=C4)cc1)[C@@H](C(F)(F)F)O2
REMARK SMILES IDX 21 1 20 2 19 3 18 4 17 5 15 6 16 7 14 8 6 9 7 10 11 11 8 12
REMARK SMILES IDX 10 13 12 14 9 15 88 16 13 17 83 18 5 19 3 20 4 21 2 23 1 24
REMARK SMILES IDX 84 25 85 26 86 27 87 28 22 29 23 30 24 31 25 32 26 33 27 34
REMARK SMILES IDX 28 35 29 36 30 37 82 38 31 39 81 40 32 41 33 42 34 43 75 44
REMARK SMILES IDX 35 45 80 46 74 47 76 48 36 49 79 50 73 51 72 52 37 54 63 55
REMARK SMILES IDX 46 56 62 57 47 58 50 59 61 60 77 61 48 62 49 63 60 65 78 66
REMARK SMILES IDX 51 67 38 68 39 69 44 70 40 71 41 72 43 73 45 74 42 75 64 76
REMARK SMILES IDX 65 77 70 78 66 79 67 80 69 81 71 82 68 83 52 84 53 85 58 86
REMARK SMILES IDX 54 87 55 88 57 89 59 90 56 91
REMARK H PARENT 3 22 76 53 50 64
REMARK Flexibility Score: inf
ROOT
ATOM      1  C   UNL A   1      32.448  26.079  25.067  1.00  0.00     0.188 C 
ENDROOT
BRANCH   1   2
ATOM      2  O   UNL A   1      32.186  25.685  23.736  1.00  0.00    -0.376 OA
BRANCH   2   3
ATOM      3  C   UNL A   1      30.946  25.100  23.368  1.00  0.00     0.202 C 
BRANCH   3   4
ATOM      4  C   UNL A   1      30.757  23.586  23.246  1.00  0.00     0.261 C 
BRANCH   4   5
ATOM      5  O   UNL A   1      31.903  22.812  23.619  1.00  0.00    -0.460 OA
BRANCH   5   6
ATOM      6  C   UNL A   1      31.913  22.400  24.909  1.00  0.00     0.338 C 
ATOM      7  O   UNL A   1      30.951  22.214  25.633  1.00  0.00    -0.246 OA
BRANCH   6   8
ATOM      8  C   UNL A   1      33.286  22.038  25.290  1.00  0.00     0.087 C 
ATOM      9  C   UNL A   1      38.261  22.179  25.924  1.00  0.00     0.029 A 
ATOM     10  C   UNL A   1      37.313  21.155  25.716  1.00  0.00     0.058 A 
ATOM     11  C   UNL A   1      37.782  23.462  26.225  1.00  0.00     0.050 A 
ATOM     12  C   UNL A   1      35.948  21.432  25.668  1.00  0.00     0.128 A 
ATOM     13  C   UNL A   1      36.418  23.753  26.113  1.00  0.00     0.033 A 
ATOM     14  Cl  UNL A   1      38.803  24.739  26.778  1.00  0.00    -0.084 Cl
ATOM     15  C   UNL A   1      35.509  22.748  25.781  1.00  0.00     0.019 A 
ATOM     16  O   UNL A   1      35.117  20.375  25.432  1.00  0.00    -0.475 OA
ATOM     17  C   UNL A   1      34.130  23.064  25.459  1.00  0.00     0.027 C 
ATOM     18  C   UNL A   1      33.677  20.598  25.488  1.00  0.00     0.316 C 
BRANCH   9  19
ATOM     19  C   UNL A   1      39.731  21.843  25.751  1.00  0.00     0.300 C 
BRANCH  19  20
ATOM     20  N   UNL A   1      40.313  20.860  26.689  1.00  0.00    -0.334 N 
ATOM     21  C   UNL A   1      41.146  21.467  27.722  1.00  0.00     0.333 C 
ATOM     22  H   UNL A   1      39.478  20.473  27.128  1.00  0.00     0.348 HD
BRANCH  20  23
ATOM     23  C   UNL A   1      40.997  19.709  26.086  1.00  0.00     0.258 C 
ATOM     24  C   UNL A   1      42.446  19.582  26.535  1.00  0.00     0.071 C 
ENDBRANCH  20  23
ENDBRANCH  19  20
ENDBRANCH   9  19
BRANCH  18  25
ATOM     25  C   UNL A   1      33.033  19.636  24.478  1.00  0.00     0.430 C 
ATOM     26  F   UNL A   1      33.015  20.175  23.236  1.00  0.00    -0.167 F 
ATOM     27  F   UNL A   1      33.710  18.468  24.380  1.00  0.00    -0.167 F 
ATOM     28  F   UNL A   1      31.757  19.337  24.811  1.00  0.00    -0.167 F 
ENDBRANCH  18  25
ENDBRANCH   6   8
ENDBRANCH   5   6
ENDBRANCH   4   5
ENDBRANCH   3   4
ENDBRANCH   2   3
ENDBRANCH   1   2
BRANCH   1  29
ATOM     29  C   UNL A   1      31.840  27.368  25.660  1.00  0.00     0.188 C 
BRANCH  29  30
ATOM     30  O   UNL A   1      31.113  28.273  24.853  1.00  0.00    -0.376 OA
BRANCH  30  31
ATOM     31  C   UNL A   1      31.352  29.667  24.978  1.00  0.00     0.202 C 
BRANCH  31  32
ATOM     32  C   UNL A   1      32.652  30.180  25.603  1.00  0.00     0.261 C 
BRANCH  32  33
ATOM     33  O   UNL A   1      32.499  30.634  26.954  1.00  0.00    -0.460 OA
BRANCH  33  34
ATOM     34  C   UNL A   1      33.177  31.765  27.265  1.00  0.00     0.338 C 
ATOM     35  O   UNL A   1      32.757  32.910  27.254  1.00  0.00    -0.246 OA
BRANCH  34  36
ATOM     36  C   UNL A   1      34.489  31.399  27.831  1.00  0.00     0.060 A 
ATOM     37  C   UNL A   1      35.481  32.359  28.025  1.00  0.00     0.016 A 
ATOM     38  C   UNL A   1      34.711  30.060  28.182  1.00  0.00     0.016 A 
ATOM     39  C   UNL A   1      36.694  31.980  28.605  1.00  0.00     0.010 A 
ATOM     40  C   UNL A   1      35.927  29.680  28.749  1.00  0.00     0.010 A 
ATOM     41  C   UNL A   1      36.918  30.644  28.985  1.00  0.00    -0.014 A 
BRANCH  41  42
ATOM     42  C   UNL A   1      38.124  30.298  29.772  1.00  0.00     0.031 A 
ATOM     43  C   UNL A   1      38.334  30.806  31.165  1.00  0.00     0.074 A 
ATOM     44  C   UNL A   1      39.044  29.502  29.198  1.00  0.00     0.049 A 
ATOM     45  N   UNL A   1      39.281  30.500  32.016  1.00  0.00    -0.248 NA
ATOM     46  C   UNL A   1      37.364  31.790  31.665  1.00  0.00     0.031 C 
ATOM     47  C   UNL A   1      38.968  28.982  27.832  1.00  0.00     0.029 A 
ATOM     48  N   UNL A   1      40.216  28.988  29.688  1.00  0.00    -0.354 N 
ATOM     49  C   UNL A   1      39.008  31.227  33.165  1.00  0.00     0.074 A 
ATOM     50  C   UNL A   1      37.836  32.034  32.881  1.00  0.00     0.031 C 
ATOM     51  C   UNL A   1      40.036  28.202  27.601  1.00  0.00     0.029 A 
ATOM     52  C   UNL A   1      40.875  28.181  28.795  1.00  0.00     0.049 A 
ATOM     53  H   UNL A   1      40.552  29.179  30.594  1.00  0.00     0.167 HD
ATOM     54  C   UNL A   1      39.665  31.206  34.351  1.00  0.00     0.037 A 
ATOM     55  C   UNL A   1      42.021  27.490  28.928  1.00  0.00     0.037 A 
ATOM     56  C   UNL A   1      40.847  30.423  34.617  1.00  0.00     0.049 A 
ATOM     57  C   UNL A   1      42.753  27.524  30.239  1.00  0.00     0.074 A 
ATOM     58  C   UNL A   1      41.556  30.303  35.801  1.00  0.00     0.029 A 
ATOM     59  N   UNL A   1      41.509  29.643  33.680  1.00  0.00    -0.354 N 
ATOM     60  N   UNL A   1      42.429  28.134  31.352  1.00  0.00    -0.248 NA
ATOM     61  C   UNL A   1      44.005  26.759  30.312  1.00  0.00     0.031 C 
ATOM     62  C   UNL A   1      42.673  29.491  35.567  1.00  0.00     0.029 A 
ATOM     63  C   UNL A   1      42.634  29.065  34.250  1.00  0.00     0.049 A 
ATOM     64  H   UNL A   1      41.222  29.519  32.746  1.00  0.00     0.167 HD
ATOM     65  C   UNL A   1      43.422  27.806  32.266  1.00  0.00     0.074 A 
ATOM     66  C   UNL A   1      44.347  26.927  31.581  1.00  0.00     0.031 C 
ATOM     67  C   UNL A   1      43.555  28.198  33.557  1.00  0.00     0.037 A 
BRANCH  54  68
ATOM     68  C   UNL A   1      39.113  32.055  35.461  1.00  0.00     0.057 A 
ATOM     69  C   UNL A   1      39.495  33.395  35.601  1.00  0.00     0.134 A 
ATOM     70  C   UNL A   1      38.244  31.527  36.424  1.00  0.00     0.134 A 
ATOM     71  F   UNL A   1      40.335  33.961  34.722  1.00  0.00    -0.206 F 
ATOM     72  C   UNL A   1      39.032  34.179  36.660  1.00  0.00     0.040 A 
ATOM     73  C   UNL A   1      37.754  32.308  37.474  1.00  0.00     0.040 A 
ATOM     74  F   UNL A   1      37.835  30.252  36.345  1.00  0.00    -0.206 F 
ATOM     75  C   UNL A   1      38.153  33.637  37.596  1.00  0.00     0.006 A 
ENDBRANCH  54  68
BRANCH  55  76
ATOM     76  C   UNL A   1      42.533  26.679  27.797  1.00  0.00     0.057 A 
ATOM     77  C   UNL A   1      43.333  27.245  26.798  1.00  0.00     0.134 A 
ATOM     78  C   UNL A   1      42.247  25.313  27.702  1.00  0.00     0.134 A 
ATOM     79  F   UNL A   1      43.634  28.551  26.830  1.00  0.00    -0.206 F 
ATOM     80  C   UNL A   1      43.831  26.480  25.744  1.00  0.00     0.040 A 
ATOM     81  C   UNL A   1      42.759  24.530  26.668  1.00  0.00     0.040 A 
ATOM     82  F   UNL A   1      41.498  24.713  28.640  1.00  0.00    -0.206 F 
ATOM     83  C   UNL A   1      43.552  25.116  25.683  1.00  0.00     0.006 A 
ENDBRANCH  55  76
BRANCH  67  84
ATOM     84  C   UNL A   1      44.735  27.657  34.311  1.00  0.00     0.057 A 
ATOM     85  C   UNL A   1      45.938  28.371  34.365  1.00  0.00     0.134 A 
ATOM     86  C   UNL A   1      44.681  26.432  34.989  1.00  0.00     0.134 A 
ATOM     87  F   UNL A   1      46.061  29.549  33.734  1.00  0.00    -0.206 F 
ATOM     88  C   UNL A   1      47.042  27.889  35.069  1.00  0.00     0.040 A 
ATOM     89  C   UNL A   1      45.770  25.952  35.720  1.00  0.00     0.040 A 
ATOM     90  F   UNL A   1      43.552  25.706  34.992  1.00  0.00    -0.206 F 
ATOM     91  C   UNL A   1      46.957  26.680  35.758  1.00  0.00     0.006 A 
ENDBRANCH  67  84
ENDBRANCH  41  42
ENDBRANCH  34  36
ENDBRANCH  33  34
ENDBRANCH  32  33
ENDBRANCH  31  32
ENDBRANCH  30  31
ENDBRANCH  29  30
ENDBRANCH   1  29
TORSDOF 21
ENDMDL
MODEL 3
REMARK VINA RESULT:      -9.9      4.608      7.857
REMARK SMILES CC[N@@H+](C)Cc1cc2c(cc1Cl)C=C(C(=O)OCCOCCOCCOC(=O)c1ccc(-c3c4nc(c(-c5c(F)cccc5F)c5ccc([nH]5)c(-c5c(F)cccc5F)c5nc(c(-c6c(F)cccc6F)c6ccc3[nH]6)C=C5)C=C4)cc1)[C@@H](C(F)(F)F)O2
REMARK SMILES IDX 21 1 20 2 19 3 18 4 17 5 15 6 16 7 14 8 6 9 7 10 11 11 8 12
REMARK SMILES IDX 10 13 12 14 9 15 88 16 13 17 83 18 5 19 3 20 4 21 2 23 1 24
REMARK SMILES IDX 84 25 85 26 86 27 87 28 22 29 23 30 24 31 25 32 26 33 27 34
REMARK SMILES IDX 28 35 29 36 30 37 82 38 31 39 81 40 32 41 33 42 34 43 75 44
REMARK SMILES IDX 35 45 80 46 74 47 76 48 36 49 79 50 73 51 72 52 37 54 63 55
REMARK SMILES IDX 46 56 62 57 47 58 50 59 61 60 77 61 48 62 49 63 60 65 78 66
REMARK SMILES IDX 51 67 38 68 39 69 44 70 40 71 41 72 43 73 45 74 42 75 64 76
REMARK SMILES IDX 65 77 70 78 66 79 67 80 69 81 71 82 68 83 52 84 53 85 58 86
REMARK SMILES IDX 54 87 55 88 57 89 59 90 56 91
REMARK H PARENT 3 22 76 53 50 64
REMARK Flexibility Score: inf
ROOT
ATOM      1  C   UNL A   1      33.310  36.985  31.142  1.00  0.00     0.188 C 
ENDROOT
BRANCH   1   2
ATOM      2  O   UNL A   1      33.574  36.135  30.045  1.00  0.00    -0.376 OA
BRANCH   2   3
ATOM      3  C   UNL A   1      33.284  34.747  30.099  1.00  0.00     0.202 C 
BRANCH   3   4
ATOM      4  C   UNL A   1      34.380  33.678  30.092  1.00  0.00     0.261 C 
BRANCH   4   5
ATOM      5  O   UNL A   1      34.096  32.541  29.268  1.00  0.00    -0.460 OA
BRANCH   5   6
ATOM      6  C   UNL A   1      34.743  32.527  28.079  1.00  0.00     0.338 C 
ATOM      7  O   UNL A   1      35.509  33.370  27.644  1.00  0.00    -0.246 OA
BRANCH   6   8
ATOM      8  C   UNL A   1      34.516  31.233  27.420  1.00  0.00     0.087 C 
ATOM      9  C   UNL A   1      32.273  27.141  25.578  1.00  0.00     0.029 A 
ATOM     10  C   UNL A   1      33.540  27.416  26.133  1.00  0.00     0.058 A 
ATOM     11  C   UNL A   1      31.453  28.230  25.250  1.00  0.00     0.050 A 
ATOM     12  C   UNL A   1      33.912  28.714  26.479  1.00  0.00     0.128 A 
ATOM     13  C   UNL A   1      31.797  29.524  25.655  1.00  0.00     0.033 A 
ATOM     14  Cl  UNL A   1      30.012  28.070  24.313  1.00  0.00    -0.084 Cl
ATOM     15  C   UNL A   1      33.003  29.756  26.318  1.00  0.00     0.019 A 
ATOM     16  O   UNL A   1      35.148  28.868  27.037  1.00  0.00    -0.475 OA
ATOM     17  C   UNL A   1      33.286  31.042  26.927  1.00  0.00     0.027 C 
ATOM     18  C   UNL A   1      35.623  30.220  27.309  1.00  0.00     0.316 C 
BRANCH   9  19
ATOM     19  C   UNL A   1      31.856  25.690  25.425  1.00  0.00     0.300 C 
BRANCH  19  20
ATOM     20  N   UNL A   1      32.112  25.048  24.118  1.00  0.00    -0.334 N 
ATOM     21  C   UNL A   1      31.008  24.211  23.657  1.00  0.00     0.333 C 
ATOM     22  H   UNL A   1      32.188  25.857  23.501  1.00  0.00     0.348 HD
BRANCH  20  23
ATOM     23  C   UNL A   1      33.389  24.337  23.979  1.00  0.00     0.258 C 
ATOM     24  C   UNL A   1      33.312  22.889  24.442  1.00  0.00     0.071 C 
ENDBRANCH  20  23
ENDBRANCH  19  20
ENDBRANCH   9  19
BRANCH  18  25
ATOM     25  C   UNL A   1      36.520  30.140  28.554  1.00  0.00     0.430 C 
ATOM     26  F   UNL A   1      37.025  28.892  28.710  1.00  0.00    -0.167 F 
ATOM     27  F   UNL A   1      37.579  30.978  28.477  1.00  0.00    -0.167 F 
ATOM     28  F   UNL A   1      35.842  30.448  29.683  1.00  0.00    -0.167 F 
ENDBRANCH  18  25
ENDBRANCH   6   8
ENDBRANCH   5   6
ENDBRANCH   4   5
ENDBRANCH   3   4
ENDBRANCH   2   3
ENDBRANCH   1   2
BRANCH   1  29
ATOM     29  C   UNL A   1      34.058  36.826  32.483  1.00  0.00     0.188 C 
BRANCH  29  30
ATOM     30  O   UNL A   1      33.735  35.785  33.382  1.00  0.00    -0.376 OA
BRANCH  30  31
ATOM     31  C   UNL A   1      34.777  35.022  33.973  1.00  0.00     0.202 C 
BRANCH  31  32
ATOM     32  C   UNL A   1      35.996  34.602  33.147  1.00  0.00     0.261 C 
BRANCH  32  33
ATOM     33  O   UNL A   1      36.151  33.180  33.036  1.00  0.00    -0.460 OA
BRANCH  33  34
ATOM     34  C   UNL A   1      37.202  32.659  33.714  1.00  0.00     0.338 C 
ATOM     35  O   UNL A   1      37.323  32.542  34.923  1.00  0.00    -0.246 OA
BRANCH  34  36
ATOM     36  C   UNL A   1      38.138  32.046  32.753  1.00  0.00     0.060 A 
ATOM     37  C   UNL A   1      38.105  32.387  31.401  1.00  0.00     0.016 A 
ATOM     38  C   UNL A   1      39.073  31.120  33.234  1.00  0.00     0.016 A 
ATOM     39  C   UNL A   1      39.037  31.817  30.531  1.00  0.00     0.010 A 
ATOM     40  C   UNL A   1      39.996  30.543  32.362  1.00  0.00     0.010 A 
ATOM     41  C   UNL A   1      39.997  30.906  31.008  1.00  0.00    -0.014 A 
BRANCH  41  42
ATOM     42  C   UNL A   1      41.095  30.464  30.117  1.00  0.00     0.031 A 
ATOM     43  C   UNL A   1      42.223  31.373  29.739  1.00  0.00     0.074 A 
ATOM     44  C   UNL A   1      41.056  29.205  29.645  1.00  0.00     0.049 A 
ATOM     45  N   UNL A   1      43.310  31.095  29.063  1.00  0.00    -0.248 NA
ATOM     46  C   UNL A   1      42.118  32.775  30.167  1.00  0.00     0.031 C 
ATOM     47  C   UNL A   1      39.984  28.243  29.910  1.00  0.00     0.029 A 
ATOM     48  N   UNL A   1      41.937  28.517  28.854  1.00  0.00    -0.354 N 
ATOM     49  C   UNL A   1      44.035  32.277  29.007  1.00  0.00     0.074 A 
ATOM     50  C   UNL A   1      43.236  33.289  29.672  1.00  0.00     0.031 C 
ATOM     51  C   UNL A   1      40.284  27.080  29.310  1.00  0.00     0.029 A 
ATOM     52  C   UNL A   1      41.555  27.221  28.610  1.00  0.00     0.049 A 
ATOM     53  H   UNL A   1      42.764  28.913  28.494  1.00  0.00     0.167 HD
ATOM     54  C   UNL A   1      45.261  32.488  28.469  1.00  0.00     0.037 A 
ATOM     55  C   UNL A   1      42.170  26.251  27.910  1.00  0.00     0.037 A 
ATOM     56  C   UNL A   1      46.036  31.483  27.783  1.00  0.00     0.049 A 
ATOM     57  C   UNL A   1      43.506  26.527  27.283  1.00  0.00     0.074 A 
ATOM     58  C   UNL A   1      47.308  31.591  27.243  1.00  0.00     0.029 A 
ATOM     59  N   UNL A   1      45.606  30.189  27.523  1.00  0.00    -0.354 N 
ATOM     60  N   UNL A   1      44.230  27.619  27.325  1.00  0.00    -0.248 NA
ATOM     61  C   UNL A   1      44.115  25.429  26.522  1.00  0.00     0.031 C 
ATOM     62  C   UNL A   1      47.625  30.381  26.614  1.00  0.00     0.029 A 
ATOM     63  C   UNL A   1      46.573  29.501  26.803  1.00  0.00     0.049 A 
ATOM     64  H   UNL A   1      44.741  29.815  27.807  1.00  0.00     0.167 HD
ATOM     65  C   UNL A   1      45.390  27.332  26.620  1.00  0.00     0.074 A 
ATOM     66  C   UNL A   1      45.281  25.956  26.178  1.00  0.00     0.031 C 
ATOM     67  C   UNL A   1      46.451  28.135  26.361  1.00  0.00     0.037 A 
BRANCH  54  68
ATOM     68  C   UNL A   1      45.847  33.864  28.604  1.00  0.00     0.057 A 
ATOM     69  C   UNL A   1      46.526  34.248  29.767  1.00  0.00     0.134 A 
ATOM     70  C   UNL A   1      45.690  34.829  27.600  1.00  0.00     0.134 A 
ATOM     71  F   UNL A   1      46.702  33.379  30.773  1.00  0.00    -0.206 F 
ATOM     72  C   UNL A   1      47.028  35.541  29.925  1.00  0.00     0.040 A 
ATOM     73  C   UNL A   1      46.208  36.118  27.736  1.00  0.00     0.040 A 
ATOM     74  F   UNL A   1      45.053  34.525  26.459  1.00  0.00    -0.206 F 
ATOM     75  C   UNL A   1      46.875  36.479  28.905  1.00  0.00     0.006 A 
ENDBRANCH  54  68
BRANCH  55  76
ATOM     76  C   UNL A   1      41.543  24.912  27.792  1.00  0.00     0.057 A 
ATOM     77  C   UNL A   1      40.502  24.672  26.888  1.00  0.00     0.134 A 
ATOM     78  C   UNL A   1      41.986  23.837  28.570  1.00  0.00     0.134 A 
ATOM     79  F   UNL A   1      40.029  25.665  26.121  1.00  0.00    -0.206 F 
ATOM     80  C   UNL A   1      39.924  23.410  26.761  1.00  0.00     0.040 A 
ATOM     81  C   UNL A   1      41.434  22.563  28.436  1.00  0.00     0.040 A 
ATOM     82  F   UNL A   1      42.991  24.004  29.443  1.00  0.00    -0.206 F 
ATOM     83  C   UNL A   1      40.397  22.348  27.530  1.00  0.00     0.006 A 
ENDBRANCH  55  76
BRANCH  67  84
ATOM     84  C   UNL A   1      47.584  27.531  25.581  1.00  0.00     0.057 A 
ATOM     85  C   UNL A   1      47.631  27.642  24.186  1.00  0.00     0.134 A 
ATOM     86  C   UNL A   1      48.631  26.843  26.210  1.00  0.00     0.134 A 
ATOM     87  F   UNL A   1      46.659  28.282  23.519  1.00  0.00    -0.206 F 
ATOM     88  C   UNL A   1      48.681  27.096  23.446  1.00  0.00     0.040 A 
ATOM     89  C   UNL A   1      49.700  26.317  25.483  1.00  0.00     0.040 A 
ATOM     90  F   UNL A   1      48.655  26.716  27.545  1.00  0.00    -0.206 F 
ATOM     91  C   UNL A   1      49.725  26.439  24.094  1.00  0.00     0.006 A 
ENDBRANCH  67  84
ENDBRANCH  41  42
ENDBRANCH  34  36
ENDBRANCH  33  34
ENDBRANCH  32  33
ENDBRANCH  31  32
ENDBRANCH  30  31
ENDBRANCH  29  30
ENDBRANCH   1  29
TORSDOF 21
ENDMDL
