MODEL 1
REMARK VINA RESULT:     -11.1      0.000      0.000
REMARK SMILES O=C(Cc1ccc(-c2cccc(F)c2F)cc1)OCCOCCOCCOC(=O)c1ccc(-c2c3nc(c(-c4c(F)cccc4F)c4ccc([nH]4)c(-c4c(F)cccc4F)c4nc(c(-c5c(F)cccc5F)c5ccc2[nH]5)C=C4)C=C3)cc1
REMARK SMILES IDX 22 1 21 2 20 3 19 4 18 5 2 6 1 7 3 8 4 9 5 10 17 11 6 12
REMARK SMILES IDX 16 13 7 14 8 15 9 16 14 17 10 18 12 19 15 20 11 21 13 22
REMARK SMILES IDX 23 23 24 24 25 25 26 26 27 27 28 28 29 29 30 30 31 31 83 32
REMARK SMILES IDX 32 33 82 34 33 35 34 36 35 37 76 38 36 39 81 40 75 41 77 42
REMARK SMILES IDX 37 43 80 44 74 45 73 46 38 48 64 49 47 50 63 51 48 52 51 53
REMARK SMILES IDX 62 54 78 55 49 56 50 57 61 59 79 60 52 61 39 62 40 63 45 64
REMARK SMILES IDX 41 65 42 66 44 67 46 68 43 69 65 70 66 71 71 72 67 73 68 74
REMARK SMILES IDX 70 75 72 76 69 77 53 78 54 79 59 80 55 81 56 82 58 83 60 84
REMARK SMILES IDX 57 85
REMARK H PARENT 77 47 51 58
REMARK Flexibility Score: inf
ROOT
ATOM      1  C   UNL A   1      38.377  21.820  25.990  1.00  0.00     0.188 C 
ENDROOT
BRANCH   1   2
ATOM      2  O   UNL A   1      37.553  21.337  24.941  1.00  0.00    -0.376 OA
BRANCH   2   3
ATOM      3  C   UNL A   1      36.203  21.791  24.908  1.00  0.00     0.202 C 
BRANCH   3   4
ATOM      4  C   UNL A   1      35.041  20.786  24.997  1.00  0.00     0.261 C 
BRANCH   4   5
ATOM      5  O   UNL A   1      33.681  21.256  24.979  1.00  0.00    -0.463 OA
BRANCH   5   6
ATOM      6  C   UNL A   1      32.906  21.708  25.983  1.00  0.00     0.310 C 
ATOM      7  O   UNL A   1      33.412  21.900  27.090  1.00  0.00    -0.252 OA
BRANCH   6   8
ATOM      8  C   UNL A   1      31.441  21.981  25.752  1.00  0.00     0.158 C 
BRANCH   8   9
ATOM      9  C   UNL A   1      31.203  23.329  25.140  1.00  0.00    -0.037 A 
ATOM     10  C   UNL A   1      31.070  24.457  25.946  1.00  0.00     0.005 A 
ATOM     11  C   UNL A   1      31.007  23.445  23.763  1.00  0.00     0.005 A 
ATOM     12  C   UNL A   1      30.596  25.649  25.406  1.00  0.00     0.009 A 
ATOM     13  C   UNL A   1      30.576  24.654  23.218  1.00  0.00     0.009 A 
ATOM     14  C   UNL A   1      30.299  25.761  24.036  1.00  0.00    -0.015 A 
BRANCH  14  15
ATOM     15  C   UNL A   1      29.652  26.976  23.503  1.00  0.00     0.020 A 
ATOM     16  C   UNL A   1      30.404  27.986  22.872  1.00  0.00     0.012 A 
ATOM     17  C   UNL A   1      28.273  27.208  23.661  1.00  0.00     0.166 A 
ATOM     18  C   UNL A   1      29.813  29.177  22.439  1.00  0.00     0.004 A 
ATOM     19  C   UNL A   1      27.684  28.387  23.217  1.00  0.00     0.159 A 
ATOM     20  F   UNL A   1      27.495  26.305  24.279  1.00  0.00    -0.203 F 
ATOM     21  C   UNL A   1      28.446  29.377  22.612  1.00  0.00     0.042 A 
ATOM     22  F   UNL A   1      26.369  28.583  23.387  1.00  0.00    -0.204 F 
ENDBRANCH  14  15
ENDBRANCH   8   9
ENDBRANCH   6   8
ENDBRANCH   5   6
ENDBRANCH   4   5
ENDBRANCH   3   4
ENDBRANCH   2   3
ENDBRANCH   1   2
BRANCH   1  23
ATOM     23  C   UNL A   1      39.851  21.426  25.982  1.00  0.00     0.188 C 
BRANCH  23  24
ATOM     24  O   UNL A   1      40.379  20.908  27.190  1.00  0.00    -0.376 OA
BRANCH  24  25
ATOM     25  C   UNL A   1      41.683  20.325  27.142  1.00  0.00     0.202 C 
BRANCH  25  26
ATOM     26  C   UNL A   1      42.709  20.929  26.177  1.00  0.00     0.261 C 
BRANCH  26  27
ATOM     27  O   UNL A   1      43.251  22.174  26.670  1.00  0.00    -0.460 OA
BRANCH  27  28
ATOM     28  C   UNL A   1      43.151  23.224  25.820  1.00  0.00     0.338 C 
ATOM     29  O   UNL A   1      43.400  23.239  24.628  1.00  0.00    -0.246 OA
BRANCH  28  30
ATOM     30  C   UNL A   1      42.590  24.396  26.511  1.00  0.00     0.060 A 
ATOM     31  C   UNL A   1      43.242  25.630  26.403  1.00  0.00     0.016 A 
ATOM     32  C   UNL A   1      41.533  24.227  27.407  1.00  0.00     0.016 A 
ATOM     33  C   UNL A   1      42.858  26.697  27.220  1.00  0.00     0.010 A 
ATOM     34  C   UNL A   1      41.160  25.291  28.232  1.00  0.00     0.010 A 
ATOM     35  C   UNL A   1      41.839  26.521  28.165  1.00  0.00    -0.014 A 
BRANCH  35  36
ATOM     36  C   UNL A   1      41.554  27.562  29.185  1.00  0.00     0.031 A 
ATOM     37  C   UNL A   1      42.323  27.552  30.478  1.00  0.00     0.074 A 
ATOM     38  C   UNL A   1      40.585  28.472  28.988  1.00  0.00     0.049 A 
ATOM     39  N   UNL A   1      42.132  28.262  31.561  1.00  0.00    -0.248 NA
ATOM     40  C   UNL A   1      43.451  26.612  30.563  1.00  0.00     0.031 C 
ATOM     41  C   UNL A   1      39.792  28.613  27.770  1.00  0.00     0.029 A 
ATOM     42  N   UNL A   1      40.081  29.431  29.833  1.00  0.00    -0.354 N 
ATOM     43  C   UNL A   1      43.104  27.843  32.462  1.00  0.00     0.074 A 
ATOM     44  C   UNL A   1      43.877  26.813  31.803  1.00  0.00     0.031 C 
ATOM     45  C   UNL A   1      38.875  29.579  27.957  1.00  0.00     0.029 A 
ATOM     46  C   UNL A   1      38.992  30.093  29.321  1.00  0.00     0.049 A 
ATOM     47  H   UNL A   1      40.464  29.625  30.719  1.00  0.00     0.167 HD
ATOM     48  C   UNL A   1      43.328  28.279  33.725  1.00  0.00     0.037 A 
ATOM     49  C   UNL A   1      38.159  30.978  29.902  1.00  0.00     0.037 A 
ATOM     50  C   UNL A   1      42.568  29.311  34.378  1.00  0.00     0.049 A 
ATOM     51  C   UNL A   1      38.381  31.386  31.336  1.00  0.00     0.074 A 
ATOM     52  C   UNL A   1      42.762  29.857  35.636  1.00  0.00     0.029 A 
ATOM     53  N   UNL A   1      41.461  29.941  33.834  1.00  0.00    -0.354 N 
ATOM     54  N   UNL A   1      39.326  31.018  32.165  1.00  0.00    -0.248 NA
ATOM     55  C   UNL A   1      37.409  32.325  31.918  1.00  0.00     0.031 C 
ATOM     56  C   UNL A   1      41.740  30.781  35.873  1.00  0.00     0.029 A 
ATOM     57  C   UNL A   1      40.937  30.841  34.747  1.00  0.00     0.049 A 
ATOM     58  H   UNL A   1      41.102  29.774  32.934  1.00  0.00     0.167 HD
ATOM     59  C   UNL A   1      39.078  31.694  33.353  1.00  0.00     0.074 A 
ATOM     60  C   UNL A   1      37.899  32.504  33.137  1.00  0.00     0.031 C 
ATOM     61  C   UNL A   1      39.765  31.646  34.520  1.00  0.00     0.037 A 
BRANCH  48  62
ATOM     62  C   UNL A   1      44.425  27.620  34.504  1.00  0.00     0.057 A 
ATOM     63  C   UNL A   1      44.243  26.389  35.144  1.00  0.00     0.134 A 
ATOM     64  C   UNL A   1      45.701  28.197  34.558  1.00  0.00     0.134 A 
ATOM     65  F   UNL A   1      43.042  25.790  35.136  1.00  0.00    -0.206 F 
ATOM     66  C   UNL A   1      45.288  25.759  35.822  1.00  0.00     0.040 A 
ATOM     67  C   UNL A   1      46.759  27.568  35.215  1.00  0.00     0.040 A 
ATOM     68  F   UNL A   1      45.941  29.373  33.960  1.00  0.00    -0.206 F 
ATOM     69  C   UNL A   1      46.552  26.346  35.853  1.00  0.00     0.006 A 
ENDBRANCH  48  62
BRANCH  49  70
ATOM     70  C   UNL A   1      36.994  31.507  29.149  1.00  0.00     0.057 A 
ATOM     71  C   UNL A   1      36.987  32.812  28.645  1.00  0.00     0.134 A 
ATOM     72  C   UNL A   1      35.843  30.733  28.956  1.00  0.00     0.134 A 
ATOM     73  F   UNL A   1      38.048  33.611  28.827  1.00  0.00    -0.206 F 
ATOM     74  C   UNL A   1      35.871  33.336  27.992  1.00  0.00     0.040 A 
ATOM     75  C   UNL A   1      34.729  31.236  28.282  1.00  0.00     0.040 A 
ATOM     76  F   UNL A   1      35.785  29.476  29.419  1.00  0.00    -0.206 F 
ATOM     77  C   UNL A   1      34.738  32.545  27.805  1.00  0.00     0.006 A 
ENDBRANCH  49  70
BRANCH  61  78
ATOM     78  C   UNL A   1      39.279  32.507  35.648  1.00  0.00     0.057 A 
ATOM     79  C   UNL A   1      38.422  32.008  36.637  1.00  0.00     0.134 A 
ATOM     80  C   UNL A   1      39.722  33.829  35.782  1.00  0.00     0.134 A 
ATOM     81  F   UNL A   1      37.953  30.754  36.561  1.00  0.00    -0.206 F 
ATOM     82  C   UNL A   1      38.014  32.799  37.713  1.00  0.00     0.040 A 
ATOM     83  C   UNL A   1      39.339  34.622  36.864  1.00  0.00     0.040 A 
ATOM     84  F   UNL A   1      40.551  34.365  34.872  1.00  0.00    -0.206 F 
ATOM     85  C   UNL A   1      38.479  34.107  37.833  1.00  0.00     0.006 A 
ENDBRANCH  61  78
ENDBRANCH  35  36
ENDBRANCH  28  30
ENDBRANCH  27  28
ENDBRANCH  26  27
ENDBRANCH  25  26
ENDBRANCH  24  25
ENDBRANCH  23  24
ENDBRANCH   1  23
TORSDOF 19
ENDMDL
MODEL 2
REMARK VINA RESULT:     -10.7      5.718     10.752
REMARK SMILES O=C(Cc1ccc(-c2cccc(F)c2F)cc1)OCCOCCOCCOC(=O)c1ccc(-c2c3nc(c(-c4c(F)cccc4F)c4ccc([nH]4)c(-c4c(F)cccc4F)c4nc(c(-c5c(F)cccc5F)c5ccc2[nH]5)C=C4)C=C3)cc1
REMARK SMILES IDX 22 1 21 2 20 3 19 4 18 5 2 6 1 7 3 8 4 9 5 10 17 11 6 12
REMARK SMILES IDX 16 13 7 14 8 15 9 16 14 17 10 18 12 19 15 20 11 21 13 22
REMARK SMILES IDX 23 23 24 24 25 25 26 26 27 27 28 28 29 29 30 30 31 31 83 32
REMARK SMILES IDX 32 33 82 34 33 35 34 36 35 37 76 38 36 39 81 40 75 41 77 42
REMARK SMILES IDX 37 43 80 44 74 45 73 46 38 48 64 49 47 50 63 51 48 52 51 53
REMARK SMILES IDX 62 54 78 55 49 56 50 57 61 59 79 60 52 61 39 62 40 63 45 64
REMARK SMILES IDX 41 65 42 66 44 67 46 68 43 69 65 70 66 71 71 72 67 73 68 74
REMARK SMILES IDX 70 75 72 76 69 77 53 78 54 79 59 80 55 81 56 82 58 83 60 84
REMARK SMILES IDX 57 85
REMARK H PARENT 77 47 51 58
REMARK Flexibility Score: inf
ROOT
ATOM      1  C   UNL A   1      34.029  37.061  32.303  1.00  0.00     0.188 C 
ENDROOT
BRANCH   1   2
ATOM      2  O   UNL A   1      32.755  36.994  31.681  1.00  0.00    -0.376 OA
BRANCH   2   3
ATOM      3  C   UNL A   1      32.492  35.868  30.850  1.00  0.00     0.202 C 
BRANCH   3   4
ATOM      4  C   UNL A   1      33.535  35.400  29.820  1.00  0.00     0.261 C 
BRANCH   4   5
ATOM      5  O   UNL A   1      33.639  34.005  29.485  1.00  0.00    -0.463 OA
BRANCH   5   6
ATOM      6  C   UNL A   1      34.396  33.390  28.556  1.00  0.00     0.310 C 
ATOM      7  O   UNL A   1      34.797  34.036  27.588  1.00  0.00    -0.252 OA
BRANCH   6   8
ATOM      8  C   UNL A   1      34.751  31.931  28.705  1.00  0.00     0.158 C 
BRANCH   8   9
ATOM      9  C   UNL A   1      34.021  31.065  27.722  1.00  0.00    -0.037 A 
ATOM     10  C   UNL A   1      32.731  31.393  27.312  1.00  0.00     0.005 A 
ATOM     11  C   UNL A   1      34.591  29.864  27.294  1.00  0.00     0.005 A 
ATOM     12  C   UNL A   1      31.964  30.466  26.613  1.00  0.00     0.009 A 
ATOM     13  C   UNL A   1      33.834  28.957  26.554  1.00  0.00     0.009 A 
ATOM     14  C   UNL A   1      32.486  29.210  26.255  1.00  0.00    -0.015 A 
BRANCH  14  15
ATOM     15  C   UNL A   1      31.618  28.179  25.653  1.00  0.00     0.020 A 
ATOM     16  C   UNL A   1      31.191  27.061  26.398  1.00  0.00     0.012 A 
ATOM     17  C   UNL A   1      31.240  28.230  24.299  1.00  0.00     0.166 A 
ATOM     18  C   UNL A   1      30.438  26.037  25.813  1.00  0.00     0.004 A 
ATOM     19  C   UNL A   1      30.479  27.217  23.724  1.00  0.00     0.159 A 
ATOM     20  F   UNL A   1      31.634  29.249  23.518  1.00  0.00    -0.203 F 
ATOM     21  C   UNL A   1      30.081  26.117  24.470  1.00  0.00     0.042 A 
ATOM     22  F   UNL A   1      30.138  27.290  22.430  1.00  0.00    -0.204 F 
ENDBRANCH  14  15
ENDBRANCH   8   9
ENDBRANCH   6   8
ENDBRANCH   5   6
ENDBRANCH   4   5
ENDBRANCH   3   4
ENDBRANCH   2   3
ENDBRANCH   1   2
BRANCH   1  23
ATOM     23  C   UNL A   1      34.398  35.965  33.298  1.00  0.00     0.188 C 
BRANCH  23  24
ATOM     24  O   UNL A   1      35.645  35.321  33.103  1.00  0.00    -0.376 OA
BRANCH  24  25
ATOM     25  C   UNL A   1      35.632  34.037  32.477  1.00  0.00     0.202 C 
BRANCH  25  26
ATOM     26  C   UNL A   1      36.903  33.184  32.553  1.00  0.00     0.261 C 
BRANCH  26  27
ATOM     27  O   UNL A   1      37.105  32.401  31.355  1.00  0.00    -0.460 OA
BRANCH  27  28
ATOM     28  C   UNL A   1      36.899  31.070  31.495  1.00  0.00     0.338 C 
ATOM     29  O   UNL A   1      35.945  30.517  32.011  1.00  0.00    -0.246 OA
BRANCH  28  30
ATOM     30  C   UNL A   1      37.974  30.310  30.836  1.00  0.00     0.060 A 
ATOM     31  C   UNL A   1      38.982  29.735  31.620  1.00  0.00     0.016 A 
ATOM     32  C   UNL A   1      38.079  30.330  29.445  1.00  0.00     0.016 A 
ATOM     33  C   UNL A   1      40.123  29.203  31.010  1.00  0.00     0.010 A 
ATOM     34  C   UNL A   1      39.226  29.809  28.839  1.00  0.00     0.010 A 
ATOM     35  C   UNL A   1      40.267  29.271  29.618  1.00  0.00    -0.014 A 
BRANCH  35  36
ATOM     36  C   UNL A   1      41.549  28.910  28.963  1.00  0.00     0.031 A 
ATOM     37  C   UNL A   1      41.771  27.491  28.517  1.00  0.00     0.074 A 
ATOM     38  C   UNL A   1      42.528  29.820  28.817  1.00  0.00     0.049 A 
ATOM     39  N   UNL A   1      42.863  26.923  28.070  1.00  0.00    -0.248 NA
ATOM     40  C   UNL A   1      40.610  26.591  28.591  1.00  0.00     0.031 C 
ATOM     41  C   UNL A   1      42.429  31.233  29.173  1.00  0.00     0.029 A 
ATOM     42  N   UNL A   1      43.815  29.675  28.358  1.00  0.00    -0.354 N 
ATOM     43  C   UNL A   1      42.526  25.598  27.826  1.00  0.00     0.074 A 
ATOM     44  C   UNL A   1      41.132  25.442  28.181  1.00  0.00     0.031 C 
ATOM     45  C   UNL A   1      43.619  31.821  28.954  1.00  0.00     0.029 A 
ATOM     46  C   UNL A   1      44.570  30.816  28.480  1.00  0.00     0.049 A 
ATOM     47  H   UNL A   1      44.161  28.835  27.978  1.00  0.00     0.167 HD
ATOM     48  C   UNL A   1      43.311  24.601  27.351  1.00  0.00     0.037 A 
ATOM     49  C   UNL A   1      45.887  31.014  28.277  1.00  0.00     0.037 A 
ATOM     50  C   UNL A   1      44.693  24.755  26.987  1.00  0.00     0.049 A 
ATOM     51  C   UNL A   1      46.756  29.868  27.826  1.00  0.00     0.074 A 
ATOM     52  C   UNL A   1      45.550  23.813  26.441  1.00  0.00     0.029 A 
ATOM     53  N   UNL A   1      45.426  25.920  27.145  1.00  0.00    -0.354 N 
ATOM     54  N   UNL A   1      46.420  28.630  27.557  1.00  0.00    -0.248 NA
ATOM     55  C   UNL A   1      48.192  30.147  27.663  1.00  0.00     0.031 C 
ATOM     56  C   UNL A   1      46.816  24.395  26.318  1.00  0.00     0.029 A 
ATOM     57  C   UNL A   1      46.736  25.709  26.746  1.00  0.00     0.049 A 
ATOM     58  H   UNL A   1      45.070  26.770  27.489  1.00  0.00     0.167 HD
ATOM     59  C   UNL A   1      47.593  27.991  27.173  1.00  0.00     0.074 A 
ATOM     60  C   UNL A   1      48.649  28.978  27.233  1.00  0.00     0.031 C 
ATOM     61  C   UNL A   1      47.778  26.701  26.805  1.00  0.00     0.037 A 
BRANCH  48  62
ATOM     62  C   UNL A   1      42.702  23.238  27.223  1.00  0.00     0.057 A 
ATOM     63  C   UNL A   1      42.390  22.458  28.343  1.00  0.00     0.134 A 
ATOM     64  C   UNL A   1      42.366  22.727  25.962  1.00  0.00     0.134 A 
ATOM     65  F   UNL A   1      42.695  22.887  29.576  1.00  0.00    -0.206 F 
ATOM     66  C   UNL A   1      41.775  21.212  28.213  1.00  0.00     0.040 A 
ATOM     67  C   UNL A   1      41.733  21.492  25.821  1.00  0.00     0.040 A 
ATOM     68  F   UNL A   1      42.634  23.429  24.851  1.00  0.00    -0.206 F 
ATOM     69  C   UNL A   1      41.438  20.729  26.949  1.00  0.00     0.006 A 
ENDBRANCH  48  62
BRANCH  49  70
ATOM     70  C   UNL A   1      46.490  32.343  28.549  1.00  0.00     0.057 A 
ATOM     71  C   UNL A   1      46.711  33.265  27.521  1.00  0.00     0.134 A 
ATOM     72  C   UNL A   1      46.899  32.703  29.840  1.00  0.00     0.134 A 
ATOM     73  F   UNL A   1      46.369  32.963  26.260  1.00  0.00    -0.206 F 
ATOM     74  C   UNL A   1      47.334  34.490  27.760  1.00  0.00     0.040 A 
ATOM     75  C   UNL A   1      47.500  33.936  30.098  1.00  0.00     0.040 A 
ATOM     76  F   UNL A   1      46.719  31.861  30.868  1.00  0.00    -0.206 F 
ATOM     77  C   UNL A   1      47.728  34.829  29.054  1.00  0.00     0.006 A 
ENDBRANCH  49  70
BRANCH  61  78
ATOM     78  C   UNL A   1      49.165  26.281  26.416  1.00  0.00     0.057 A 
ATOM     79  C   UNL A   1      49.693  26.569  25.152  1.00  0.00     0.134 A 
ATOM     80  C   UNL A   1      50.002  25.637  27.337  1.00  0.00     0.134 A 
ATOM     81  F   UNL A   1      48.939  27.173  24.222  1.00  0.00    -0.206 F 
ATOM     82  C   UNL A   1      51.002  26.220  24.813  1.00  0.00     0.040 A 
ATOM     83  C   UNL A   1      51.319  25.304  27.017  1.00  0.00     0.040 A 
ATOM     84  F   UNL A   1      49.560  25.340  28.568  1.00  0.00    -0.206 F 
ATOM     85  C   UNL A   1      51.822  25.594  25.750  1.00  0.00     0.006 A 
ENDBRANCH  61  78
ENDBRANCH  35  36
ENDBRANCH  28  30
ENDBRANCH  27  28
ENDBRANCH  26  27
ENDBRANCH  25  26
ENDBRANCH  24  25
ENDBRANCH  23  24
ENDBRANCH   1  23
TORSDOF 19
ENDMDL
MODEL 3
REMARK VINA RESULT:     -10.7      6.283     10.758
REMARK SMILES O=C(Cc1ccc(-c2cccc(F)c2F)cc1)OCCOCCOCCOC(=O)c1ccc(-c2c3nc(c(-c4c(F)cccc4F)c4ccc([nH]4)c(-c4c(F)cccc4F)c4nc(c(-c5c(F)cccc5F)c5ccc2[nH]5)C=C4)C=C3)cc1
REMARK SMILES IDX 22 1 21 2 20 3 19 4 18 5 2 6 1 7 3 8 4 9 5 10 17 11 6 12
REMARK SMILES IDX 16 13 7 14 8 15 9 16 14 17 10 18 12 19 15 20 11 21 13 22
REMARK SMILES IDX 23 23 24 24 25 25 26 26 27 27 28 28 29 29 30 30 31 31 83 32
REMARK SMILES IDX 32 33 82 34 33 35 34 36 35 37 76 38 36 39 81 40 75 41 77 42
REMARK SMILES IDX 37 43 80 44 74 45 73 46 38 48 64 49 47 50 63 51 48 52 51 53
REMARK SMILES IDX 62 54 78 55 49 56 50 57 61 59 79 60 52 61 39 62 40 63 45 64
REMARK SMILES IDX 41 65 42 66 44 67 46 68 43 69 65 70 66 71 71 72 67 73 68 74
REMARK SMILES IDX 70 75 72 76 69 77 53 78 54 79 59 80 55 81 56 82 58 83 60 84
REMARK SMILES IDX 57 85
REMARK H PARENT 77 47 51 58
REMARK Flexibility Score: inf
ROOT
ATOM      1  C   UNL A   1      33.479  37.552  32.072  1.00  0.00     0.188 C 
ENDROOT
BRANCH   1   2
ATOM      2  O   UNL A   1      32.927  37.186  30.816  1.00  0.00    -0.376 OA
BRANCH   2   3
ATOM      3  C   UNL A   1      32.754  35.796  30.559  1.00  0.00     0.202 C 
BRANCH   3   4
ATOM      4  C   UNL A   1      33.449  35.134  29.356  1.00  0.00     0.261 C 
BRANCH   4   5
ATOM      5  O   UNL A   1      34.571  34.258  29.566  1.00  0.00    -0.463 OA
BRANCH   5   6
ATOM      6  C   UNL A   1      34.622  32.914  29.636  1.00  0.00     0.310 C 
ATOM      7  O   UNL A   1      34.404  32.363  30.715  1.00  0.00    -0.252 OA
BRANCH   6   8
ATOM      8  C   UNL A   1      34.936  32.098  28.406  1.00  0.00     0.158 C 
BRANCH   8   9
ATOM      9  C   UNL A   1      36.146  31.232  28.592  1.00  0.00    -0.037 A 
ATOM     10  C   UNL A   1      37.284  31.733  29.221  1.00  0.00     0.005 A 
ATOM     11  C   UNL A   1      36.178  29.951  28.039  1.00  0.00     0.005 A 
ATOM     12  C   UNL A   1      38.482  31.027  29.163  1.00  0.00     0.009 A 
ATOM     13  C   UNL A   1      37.369  29.227  28.023  1.00  0.00     0.009 A 
ATOM     14  C   UNL A   1      38.560  29.776  28.525  1.00  0.00    -0.015 A 
BRANCH  14  15
ATOM     15  C   UNL A   1      39.863  29.110  28.333  1.00  0.00     0.020 A 
ATOM     16  C   UNL A   1      40.633  29.336  27.174  1.00  0.00     0.012 A 
ATOM     17  C   UNL A   1      40.357  28.173  29.258  1.00  0.00     0.166 A 
ATOM     18  C   UNL A   1      41.828  28.646  26.944  1.00  0.00     0.004 A 
ATOM     19  C   UNL A   1      41.553  27.499  29.034  1.00  0.00     0.159 A 
ATOM     20  F   UNL A   1      39.665  27.882  30.372  1.00  0.00    -0.203 F 
ATOM     21  C   UNL A   1      42.289  27.724  27.879  1.00  0.00     0.042 A 
ATOM     22  F   UNL A   1      41.996  26.607  29.931  1.00  0.00    -0.204 F 
ENDBRANCH  14  15
ENDBRANCH   8   9
ENDBRANCH   6   8
ENDBRANCH   5   6
ENDBRANCH   4   5
ENDBRANCH   3   4
ENDBRANCH   2   3
ENDBRANCH   1   2
BRANCH   1  23
ATOM     23  C   UNL A   1      33.746  36.445  33.087  1.00  0.00     0.188 C 
BRANCH  23  24
ATOM     24  O   UNL A   1      35.102  36.103  33.315  1.00  0.00    -0.376 OA
BRANCH  24  25
ATOM     25  C   UNL A   1      35.525  34.794  32.933  1.00  0.00     0.202 C 
BRANCH  25  26
ATOM     26  C   UNL A   1      35.087  33.611  33.804  1.00  0.00     0.261 C 
BRANCH  26  27
ATOM     27  O   UNL A   1      36.017  32.507  33.728  1.00  0.00    -0.460 OA
BRANCH  27  28
ATOM     28  C   UNL A   1      37.002  32.517  34.659  1.00  0.00     0.338 C 
ATOM     29  O   UNL A   1      36.976  33.035  35.760  1.00  0.00    -0.246 OA
BRANCH  28  30
ATOM     30  C   UNL A   1      38.146  31.709  34.207  1.00  0.00     0.060 A 
ATOM     31  C   UNL A   1      39.433  32.040  34.649  1.00  0.00     0.016 A 
ATOM     32  C   UNL A   1      37.963  30.751  33.209  1.00  0.00     0.016 A 
ATOM     33  C   UNL A   1      40.549  31.432  34.067  1.00  0.00     0.010 A 
ATOM     34  C   UNL A   1      39.081  30.155  32.619  1.00  0.00     0.010 A 
ATOM     35  C   UNL A   1      40.380  30.514  33.023  1.00  0.00    -0.014 A 
BRANCH  35  36
ATOM     36  C   UNL A   1      41.543  30.015  32.246  1.00  0.00     0.031 A 
ATOM     37  C   UNL A   1      42.250  28.769  32.704  1.00  0.00     0.074 A 
ATOM     38  C   UNL A   1      42.000  30.693  31.179  1.00  0.00     0.049 A 
ATOM     39  N   UNL A   1      43.371  28.247  32.274  1.00  0.00    -0.248 NA
ATOM     40  C   UNL A   1      41.613  28.016  33.795  1.00  0.00     0.031 C 
ATOM     41  C   UNL A   1      41.387  31.891  30.612  1.00  0.00     0.029 A 
ATOM     42  N   UNL A   1      43.114  30.482  30.403  1.00  0.00    -0.354 N 
ATOM     43  C   UNL A   1      43.583  27.116  33.052  1.00  0.00     0.074 A 
ATOM     44  C   UNL A   1      42.480  27.030  33.985  1.00  0.00     0.031 C 
ATOM     45  C   UNL A   1      42.153  32.333  29.599  1.00  0.00     0.029 A 
ATOM     46  C   UNL A   1      43.328  31.470  29.474  1.00  0.00     0.049 A 
ATOM     47  H   UNL A   1      43.701  29.698  30.503  1.00  0.00     0.167 HD
ATOM     48  C   UNL A   1      44.606  26.230  32.993  1.00  0.00     0.037 A 
ATOM     49  C   UNL A   1      44.373  31.680  28.651  1.00  0.00     0.037 A 
ATOM     50  C   UNL A   1      45.697  26.306  32.059  1.00  0.00     0.049 A 
ATOM     51  C   UNL A   1      45.538  30.725  28.662  1.00  0.00     0.074 A 
ATOM     52  C   UNL A   1      46.747  25.419  31.889  1.00  0.00     0.029 A 
ATOM     53  N   UNL A   1      45.888  27.333  31.150  1.00  0.00    -0.354 N 
ATOM     54  N   UNL A   1      45.710  29.635  29.369  1.00  0.00    -0.248 NA
ATOM     55  C   UNL A   1      46.663  31.037  27.765  1.00  0.00     0.031 C 
ATOM     56  C   UNL A   1      47.602  25.938  30.911  1.00  0.00     0.029 A 
ATOM     57  C   UNL A   1      47.061  27.123  30.443  1.00  0.00     0.049 A 
ATOM     58  H   UNL A   1      45.281  28.096  31.024  1.00  0.00     0.167 HD
ATOM     59  C   UNL A   1      46.944  29.123  28.990  1.00  0.00     0.074 A 
ATOM     60  C   UNL A   1      47.477  30.013  27.981  1.00  0.00     0.031 C 
ATOM     61  C   UNL A   1      47.580  28.014  29.438  1.00  0.00     0.037 A 
BRANCH  48  62
ATOM     62  C   UNL A   1      44.615  25.110  33.989  1.00  0.00     0.057 A 
ATOM     63  C   UNL A   1      44.203  23.816  33.653  1.00  0.00     0.134 A 
ATOM     64  C   UNL A   1      45.103  25.320  35.286  1.00  0.00     0.134 A 
ATOM     65  F   UNL A   1      43.717  23.554  32.430  1.00  0.00    -0.206 F 
ATOM     66  C   UNL A   1      44.266  22.770  34.574  1.00  0.00     0.040 A 
ATOM     67  C   UNL A   1      45.190  24.278  36.210  1.00  0.00     0.040 A 
ATOM     68  F   UNL A   1      45.518  26.537  35.668  1.00  0.00    -0.206 F 
ATOM     69  C   UNL A   1      44.767  22.998  35.855  1.00  0.00     0.006 A 
ENDBRANCH  48  62
BRANCH  49  70
ATOM     70  C   UNL A   1      44.401  32.879  27.775  1.00  0.00     0.057 A 
ATOM     71  C   UNL A   1      44.828  34.121  28.257  1.00  0.00     0.134 A 
ATOM     72  C   UNL A   1      43.960  32.817  26.447  1.00  0.00     0.134 A 
ATOM     73  F   UNL A   1      45.232  34.248  29.529  1.00  0.00    -0.206 F 
ATOM     74  C   UNL A   1      44.797  35.264  27.457  1.00  0.00     0.040 A 
ATOM     75  C   UNL A   1      43.948  33.947  25.628  1.00  0.00     0.040 A 
ATOM     76  F   UNL A   1      43.534  31.657  25.927  1.00  0.00    -0.206 F 
ATOM     77  C   UNL A   1      44.359  35.177  26.136  1.00  0.00     0.006 A 
ENDBRANCH  49  70
BRANCH  61  78
ATOM     78  C   UNL A   1      48.911  27.682  28.831  1.00  0.00     0.057 A 
ATOM     79  C   UNL A   1      50.111  28.105  29.414  1.00  0.00     0.134 A 
ATOM     80  C   UNL A   1      48.995  26.879  27.686  1.00  0.00     0.134 A 
ATOM     81  F   UNL A   1      50.099  28.886  30.505  1.00  0.00    -0.206 F 
ATOM     82  C   UNL A   1      51.349  27.751  28.873  1.00  0.00     0.040 A 
ATOM     83  C   UNL A   1      50.226  26.500  27.149  1.00  0.00     0.040 A 
ATOM     84  F   UNL A   1      47.882  26.434  27.083  1.00  0.00    -0.206 F 
ATOM     85  C   UNL A   1      51.408  26.939  27.742  1.00  0.00     0.006 A 
ENDBRANCH  61  78
ENDBRANCH  35  36
ENDBRANCH  28  30
ENDBRANCH  27  28
ENDBRANCH  26  27
ENDBRANCH  25  26
ENDBRANCH  24  25
ENDBRANCH  23  24
ENDBRANCH   1  23
TORSDOF 19
ENDMDL
