MODEL 1
REMARK VINA RESULT:     -11.4      0.000      0.000
REMARK SMILES O=C(OCCOCCOCCOC(=O)[C@H]1CC=CC[C@@H]1C(=O)Nc1ccccc1C(=O)NCc1ccco1)c1ccc(-c2c3nc(c(-c4c(F)cccc4F)c4ccc([nH]4)c(-c4c(F)cccc4F)c4nc(c(-c5c(F)cccc5F)c5ccc2[nH]5)C=C4)C=C3)cc1
REMARK SMILES IDX 9 1 8 2 7 3 6 4 5 5 4 6 3 7 2 8 1 9 39 10 40 11 92 12 41 13
REMARK SMILES IDX 91 14 42 15 43 16 44 17 85 18 45 19 90 20 84 21 86 22 46 23
REMARK SMILES IDX 89 24 83 25 82 26 47 28 73 29 56 30 72 31 57 32 60 33 71 34
REMARK SMILES IDX 87 35 58 36 59 37 70 39 88 40 61 41 48 42 49 43 54 44 50 45
REMARK SMILES IDX 51 46 53 47 55 48 52 49 74 50 75 51 80 52 76 53 77 54 79 55
REMARK SMILES IDX 81 56 78 57 62 58 63 59 68 60 64 61 65 62 67 63 69 64 66 65
REMARK SMILES IDX 10 66 11 67 12 68 13 69 14 70 15 71 16 72 20 73 17 74 19 75
REMARK SMILES IDX 18 76 21 77 22 78 23 79 24 81 25 82 29 83 26 84 28 85 27 86
REMARK SMILES IDX 30 87 31 88 32 89 33 91 34 92 35 93 38 94 36 95 37 96
REMARK H PARENT 86 27 60 38 23 80 32 90
REMARK Flexibility Score: inf
ROOT
ATOM      1  O   UNL A   1      33.934  31.033  27.324  1.00  0.00    -0.376 OA
ENDROOT
BRANCH   1   2
ATOM      2  C   UNL A   1      34.363  31.839  28.418  1.00  0.00     0.188 C 
BRANCH   2   3
ATOM      3  C   UNL A   1      34.628  33.313  28.122  1.00  0.00     0.188 C 
BRANCH   3   4
ATOM      4  O   UNL A   1      35.084  34.032  29.273  1.00  0.00    -0.376 OA
BRANCH   4   5
ATOM      5  C   UNL A   1      34.139  34.081  30.348  1.00  0.00     0.202 C 
BRANCH   5   6
ATOM      6  C   UNL A   1      34.719  33.990  31.773  1.00  0.00     0.261 C 
BRANCH   6   7
ATOM      7  O   UNL A   1      34.971  32.645  32.225  1.00  0.00    -0.460 OA
BRANCH   7   8
ATOM      8  C   UNL A   1      36.104  32.132  32.770  1.00  0.00     0.338 C 
ATOM      9  O   UNL A   1      36.276  32.227  33.984  1.00  0.00    -0.246 OA
BRANCH   8  10
ATOM     10  C   UNL A   1      37.170  31.462  31.967  1.00  0.00     0.060 A 
ATOM     11  C   UNL A   1      38.231  30.754  32.520  1.00  0.00     0.016 A 
ATOM     12  C   UNL A   1      37.069  31.497  30.565  1.00  0.00     0.016 A 
ATOM     13  C   UNL A   1      39.234  30.215  31.741  1.00  0.00     0.010 A 
ATOM     14  C   UNL A   1      38.044  30.893  29.759  1.00  0.00     0.010 A 
ATOM     15  C   UNL A   1      39.153  30.285  30.356  1.00  0.00    -0.014 A 
BRANCH  15  16
ATOM     16  C   UNL A   1      40.345  29.836  29.616  1.00  0.00     0.031 A 
ATOM     17  C   UNL A   1      41.524  30.752  29.551  1.00  0.00     0.074 A 
ATOM     18  C   UNL A   1      40.431  28.546  29.238  1.00  0.00     0.049 A 
ATOM     19  N   UNL A   1      42.700  30.547  29.025  1.00  0.00    -0.248 NA
ATOM     20  C   UNL A   1      41.369  32.074  30.185  1.00  0.00     0.031 C 
ATOM     21  C   UNL A   1      39.363  27.555  29.394  1.00  0.00     0.029 A 
ATOM     22  N   UNL A   1      41.469  27.832  28.703  1.00  0.00    -0.354 N 
ATOM     23  C   UNL A   1      43.417  31.713  29.251  1.00  0.00     0.074 A 
ATOM     24  C   UNL A   1      42.543  32.632  29.943  1.00  0.00     0.031 C 
ATOM     25  C   UNL A   1      39.816  26.357  28.999  1.00  0.00     0.029 A 
ATOM     26  C   UNL A   1      41.170  26.508  28.491  1.00  0.00     0.049 A 
ATOM     27  H   UNL A   1      42.345  28.229  28.491  1.00  0.00     0.167 HD
ATOM     28  C   UNL A   1      44.697  31.981  28.908  1.00  0.00     0.037 A 
ATOM     29  C   UNL A   1      41.897  25.535  27.913  1.00  0.00     0.037 A 
ATOM     30  C   UNL A   1      45.534  31.044  28.210  1.00  0.00     0.049 A 
ATOM     31  C   UNL A   1      43.273  25.898  27.437  1.00  0.00     0.074 A 
ATOM     32  C   UNL A   1      46.809  31.224  27.711  1.00  0.00     0.029 A 
ATOM     33  N   UNL A   1      45.166  29.736  27.916  1.00  0.00    -0.354 N 
ATOM     34  N   UNL A   1      43.917  27.034  27.569  1.00  0.00    -0.248 NA
ATOM     35  C   UNL A   1      44.020  24.859  26.722  1.00  0.00     0.031 C 
ATOM     36  C   UNL A   1      47.195  30.039  27.076  1.00  0.00     0.029 A 
ATOM     37  C   UNL A   1      46.185  29.101  27.231  1.00  0.00     0.049 A 
ATOM     38  H   UNL A   1      44.306  29.323  28.160  1.00  0.00     0.167 HD
ATOM     39  C   UNL A   1      45.147  26.848  26.959  1.00  0.00     0.074 A 
ATOM     40  C   UNL A   1      45.172  25.473  26.493  1.00  0.00     0.031 C 
ATOM     41  C   UNL A   1      46.163  27.729  26.787  1.00  0.00     0.037 A 
BRANCH  28  42
ATOM     42  C   UNL A   1      45.209  33.354  29.224  1.00  0.00     0.057 A 
ATOM     43  C   UNL A   1      45.021  34.439  28.356  1.00  0.00     0.134 A 
ATOM     44  C   UNL A   1      45.948  33.582  30.391  1.00  0.00     0.134 A 
ATOM     45  F   UNL A   1      44.355  34.280  27.203  1.00  0.00    -0.206 F 
ATOM     46  C   UNL A   1      45.570  35.695  28.629  1.00  0.00     0.040 A 
ATOM     47  C   UNL A   1      46.480  34.838  30.686  1.00  0.00     0.040 A 
ATOM     48  F   UNL A   1      46.178  32.584  31.257  1.00  0.00    -0.206 F 
ATOM     49  C   UNL A   1      46.299  35.897  29.799  1.00  0.00     0.006 A 
ENDBRANCH  28  42
BRANCH  29  50
ATOM     50  C   UNL A   1      41.317  24.184  27.683  1.00  0.00     0.057 A 
ATOM     51  C   UNL A   1      41.735  23.063  28.410  1.00  0.00     0.134 A 
ATOM     52  C   UNL A   1      40.341  23.975  26.698  1.00  0.00     0.134 A 
ATOM     53  F   UNL A   1      42.677  23.183  29.357  1.00  0.00    -0.206 F 
ATOM     54  C   UNL A   1      41.227  21.787  28.147  1.00  0.00     0.040 A 
ATOM     55  C   UNL A   1      39.796  22.714  26.452  1.00  0.00     0.040 A 
ATOM     56  F   UNL A   1      39.894  25.001  25.958  1.00  0.00    -0.206 F 
ATOM     57  C   UNL A   1      40.250  21.611  27.169  1.00  0.00     0.006 A 
ENDBRANCH  29  50
BRANCH  41  58
ATOM     58  C   UNL A   1      47.383  27.207  26.092  1.00  0.00     0.057 A 
ATOM     59  C   UNL A   1      47.508  27.234  24.697  1.00  0.00     0.134 A 
ATOM     60  C   UNL A   1      48.449  26.684  26.834  1.00  0.00     0.134 A 
ATOM     61  F   UNL A   1      46.512  27.707  23.933  1.00  0.00    -0.206 F 
ATOM     62  C   UNL A   1      48.642  26.728  24.062  1.00  0.00     0.040 A 
ATOM     63  C   UNL A   1      49.601  26.207  26.211  1.00  0.00     0.040 A 
ATOM     64  F   UNL A   1      48.392  26.640  28.173  1.00  0.00    -0.206 F 
ATOM     65  C   UNL A   1      49.694  26.219  24.821  1.00  0.00     0.006 A 
ENDBRANCH  41  58
ENDBRANCH  15  16
ENDBRANCH   8  10
ENDBRANCH   7   8
ENDBRANCH   6   7
ENDBRANCH   5   6
ENDBRANCH   4   5
ENDBRANCH   3   4
ENDBRANCH   2   3
ENDBRANCH   1   2
BRANCH   1  66
ATOM     66  C   UNL A   1      34.042  29.622  27.446  1.00  0.00     0.202 C 
BRANCH  66  67
ATOM     67  C   UNL A   1      34.001  28.752  26.179  1.00  0.00     0.261 C 
BRANCH  67  68
ATOM     68  O   UNL A   1      33.518  27.412  26.329  1.00  0.00    -0.463 OA
BRANCH  68  69
ATOM     69  C   UNL A   1      33.522  26.720  25.154  1.00  0.00     0.310 C 
ATOM     70  O   UNL A   1      34.103  27.097  24.150  1.00  0.00    -0.252 OA
BRANCH  69  71
ATOM     71  C   UNL A   1      32.760  25.404  25.258  1.00  0.00     0.116 C 
ATOM     72  C   UNL A   1      31.529  25.553  26.157  1.00  0.00     0.043 C 
ATOM     73  C   UNL A   1      32.377  24.982  23.825  1.00  0.00     0.097 C 
ATOM     74  C   UNL A   1      30.369  26.224  25.481  1.00  0.00    -0.030 C 
ATOM     75  C   UNL A   1      31.359  25.959  23.194  1.00  0.00     0.041 C 
ATOM     76  C   UNL A   1      30.308  26.430  24.158  1.00  0.00    -0.030 C 
BRANCH  73  77
ATOM     77  C   UNL A   1      31.801  23.575  23.737  1.00  0.00     0.228 C 
ATOM     78  O   UNL A   1      30.601  23.340  23.608  1.00  0.00    -0.274 OA
ATOM     79  N   UNL A   1      32.679  22.520  23.706  1.00  0.00    -0.325 N 
ATOM     80  H   UNL A   1      32.322  21.676  23.349  1.00  0.00     0.169 HD
BRANCH  79  81
ATOM     81  C   UNL A   1      34.022  22.490  24.121  1.00  0.00     0.054 A 
ATOM     82  C   UNL A   1      34.901  23.033  23.163  1.00  0.00     0.027 A 
ATOM     83  C   UNL A   1      34.505  22.099  25.388  1.00  0.00     0.063 A 
ATOM     84  C   UNL A   1      36.202  23.386  23.504  1.00  0.00     0.002 A 
ATOM     85  C   UNL A   1      35.826  22.498  25.708  1.00  0.00     0.016 A 
ATOM     86  C   UNL A   1      36.652  23.158  24.794  1.00  0.00     0.001 A 
BRANCH  83  87
ATOM     87  C   UNL A   1      33.858  21.265  26.476  1.00  0.00     0.253 C 
ATOM     88  O   UNL A   1      33.981  21.643  27.646  1.00  0.00    -0.269 OA
ATOM     89  N   UNL A   1      33.211  20.060  26.324  1.00  0.00    -0.345 N 
ATOM     90  H   UNL A   1      33.153  19.525  27.149  1.00  0.00     0.164 HD
BRANCH  89  91
ATOM     91  C   UNL A   1      32.605  19.443  25.176  1.00  0.00     0.191 C 
BRANCH  91  92
ATOM     92  C   UNL A   1      33.154  18.135  24.773  1.00  0.00     0.122 A 
ATOM     93  C   UNL A   1      33.782  17.596  23.673  1.00  0.00     0.047 A 
ATOM     94  O   UNL A   1      33.134  17.215  25.786  1.00  0.00    -0.467 OA
ATOM     95  C   UNL A   1      34.168  16.279  24.044  1.00  0.00     0.042 A 
ATOM     96  C   UNL A   1      33.754  16.101  25.341  1.00  0.00     0.195 A 
ENDBRANCH  91  92
ENDBRANCH  89  91
ENDBRANCH  83  87
ENDBRANCH  79  81
ENDBRANCH  73  77
ENDBRANCH  69  71
ENDBRANCH  68  69
ENDBRANCH  67  68
ENDBRANCH  66  67
ENDBRANCH   1  66
TORSDOF 22
ENDMDL
MODEL 2
REMARK VINA RESULT:     -11.0      2.075      3.560
REMARK SMILES O=C(OCCOCCOCCOC(=O)[C@H]1CC=CC[C@@H]1C(=O)Nc1ccccc1C(=O)NCc1ccco1)c1ccc(-c2c3nc(c(-c4c(F)cccc4F)c4ccc([nH]4)c(-c4c(F)cccc4F)c4nc(c(-c5c(F)cccc5F)c5ccc2[nH]5)C=C4)C=C3)cc1
REMARK SMILES IDX 9 1 8 2 7 3 6 4 5 5 4 6 3 7 2 8 1 9 39 10 40 11 92 12 41 13
REMARK SMILES IDX 91 14 42 15 43 16 44 17 85 18 45 19 90 20 84 21 86 22 46 23
REMARK SMILES IDX 89 24 83 25 82 26 47 28 73 29 56 30 72 31 57 32 60 33 71 34
REMARK SMILES IDX 87 35 58 36 59 37 70 39 88 40 61 41 48 42 49 43 54 44 50 45
REMARK SMILES IDX 51 46 53 47 55 48 52 49 74 50 75 51 80 52 76 53 77 54 79 55
REMARK SMILES IDX 81 56 78 57 62 58 63 59 68 60 64 61 65 62 67 63 69 64 66 65
REMARK SMILES IDX 10 66 11 67 12 68 13 69 14 70 15 71 16 72 20 73 17 74 19 75
REMARK SMILES IDX 18 76 21 77 22 78 23 79 24 81 25 82 29 83 26 84 28 85 27 86
REMARK SMILES IDX 30 87 31 88 32 89 33 91 34 92 35 93 38 94 36 95 37 96
REMARK H PARENT 86 27 60 38 23 80 32 90
REMARK Flexibility Score: inf
ROOT
ATOM      1  O   UNL A   1      33.894  33.396  28.724  1.00  0.00    -0.376 OA
ENDROOT
BRANCH   1   2
ATOM      2  C   UNL A   1      33.916  34.269  29.850  1.00  0.00     0.188 C 
BRANCH   2   3
ATOM      3  C   UNL A   1      35.118  34.156  30.784  1.00  0.00     0.188 C 
BRANCH   3   4
ATOM      4  O   UNL A   1      35.215  35.258  31.692  1.00  0.00    -0.376 OA
BRANCH   4   5
ATOM      5  C   UNL A   1      35.467  34.882  33.051  1.00  0.00     0.202 C 
BRANCH   5   6
ATOM      6  C   UNL A   1      34.732  33.627  33.561  1.00  0.00     0.261 C 
BRANCH   6   7
ATOM      7  O   UNL A   1      35.422  32.389  33.301  1.00  0.00    -0.460 OA
BRANCH   7   8
ATOM      8  C   UNL A   1      36.681  32.029  33.656  1.00  0.00     0.338 C 
ATOM      9  O   UNL A   1      37.057  32.236  34.809  1.00  0.00    -0.246 OA
BRANCH   8  10
ATOM     10  C   UNL A   1      37.652  31.401  32.711  1.00  0.00     0.060 A 
ATOM     11  C   UNL A   1      38.692  30.565  33.105  1.00  0.00     0.016 A 
ATOM     12  C   UNL A   1      37.475  31.616  31.333  1.00  0.00     0.016 A 
ATOM     13  C   UNL A   1      39.610  30.068  32.204  1.00  0.00     0.010 A 
ATOM     14  C   UNL A   1      38.359  31.058  30.399  1.00  0.00     0.010 A 
ATOM     15  C   UNL A   1      39.456  30.314  30.846  1.00  0.00    -0.014 A 
BRANCH  15  16
ATOM     16  C   UNL A   1      40.570  29.888  29.981  1.00  0.00     0.031 A 
ATOM     17  C   UNL A   1      41.761  30.785  29.870  1.00  0.00     0.074 A 
ATOM     18  C   UNL A   1      40.594  28.622  29.523  1.00  0.00     0.049 A 
ATOM     19  N   UNL A   1      42.884  30.590  29.235  1.00  0.00    -0.248 NA
ATOM     20  C   UNL A   1      41.691  32.069  30.591  1.00  0.00     0.031 C 
ATOM     21  C   UNL A   1      39.520  27.643  29.712  1.00  0.00     0.029 A 
ATOM     22  N   UNL A   1      41.567  27.923  28.861  1.00  0.00    -0.354 N 
ATOM     23  C   UNL A   1      43.644  31.728  29.466  1.00  0.00     0.074 A 
ATOM     24  C   UNL A   1      42.853  32.619  30.283  1.00  0.00     0.031 C 
ATOM     25  C   UNL A   1      39.911  26.463  29.210  1.00  0.00     0.029 A 
ATOM     26  C   UNL A   1      41.220  26.620  28.598  1.00  0.00     0.049 A 
ATOM     27  H   UNL A   1      42.431  28.316  28.598  1.00  0.00     0.167 HD
ATOM     28  C   UNL A   1      44.896  31.992  29.032  1.00  0.00     0.037 A 
ATOM     29  C   UNL A   1      41.873  25.670  27.904  1.00  0.00     0.037 A 
ATOM     30  C   UNL A   1      45.650  31.084  28.211  1.00  0.00     0.049 A 
ATOM     31  C   UNL A   1      43.212  26.036  27.334  1.00  0.00     0.074 A 
ATOM     32  C   UNL A   1      46.882  31.270  27.616  1.00  0.00     0.029 A 
ATOM     33  N   UNL A   1      45.227  29.803  27.874  1.00  0.00    -0.354 N 
ATOM     34  N   UNL A   1      43.891  27.150  27.477  1.00  0.00    -0.248 NA
ATOM     35  C   UNL A   1      43.872  25.028  26.499  1.00  0.00     0.031 C 
ATOM     36  C   UNL A   1      47.186  30.119  26.883  1.00  0.00     0.029 A 
ATOM     37  C   UNL A   1      46.170  29.191  27.068  1.00  0.00     0.049 A 
ATOM     38  H   UNL A   1      44.382  29.392  28.166  1.00  0.00     0.167 HD
ATOM     39  C   UNL A   1      45.061  26.978  26.755  1.00  0.00     0.074 A 
ATOM     40  C   UNL A   1      45.014  25.634  26.209  1.00  0.00     0.031 C 
ATOM     41  C   UNL A   1      46.079  27.849  26.548  1.00  0.00     0.037 A 
BRANCH  28  42
ATOM     42  C   UNL A   1      45.466  33.334  29.382  1.00  0.00     0.057 A 
ATOM     43  C   UNL A   1      46.243  33.538  30.532  1.00  0.00     0.134 A 
ATOM     44  C   UNL A   1      45.190  34.450  28.584  1.00  0.00     0.134 A 
ATOM     45  F   UNL A   1      46.513  32.518  31.360  1.00  0.00    -0.206 F 
ATOM     46  C   UNL A   1      46.703  34.809  30.885  1.00  0.00     0.040 A 
ATOM     47  C   UNL A   1      45.666  35.720  28.913  1.00  0.00     0.040 A 
ATOM     48  F   UNL A   1      44.440  34.327  27.478  1.00  0.00    -0.206 F 
ATOM     49  C   UNL A   1      46.417  35.904  30.071  1.00  0.00     0.006 A 
ENDBRANCH  28  42
BRANCH  29  50
ATOM     50  C   UNL A   1      41.244  24.346  27.646  1.00  0.00     0.057 A 
ATOM     51  C   UNL A   1      41.652  23.187  28.317  1.00  0.00     0.134 A 
ATOM     52  C   UNL A   1      40.229  24.203  26.689  1.00  0.00     0.134 A 
ATOM     53  F   UNL A   1      42.629  23.244  29.234  1.00  0.00    -0.206 F 
ATOM     54  C   UNL A   1      41.097  21.937  28.026  1.00  0.00     0.040 A 
ATOM     55  C   UNL A   1      39.638  22.968  26.417  1.00  0.00     0.040 A 
ATOM     56  F   UNL A   1      39.789  25.268  26.003  1.00  0.00    -0.206 F 
ATOM     57  C   UNL A   1      40.082  21.827  27.077  1.00  0.00     0.006 A 
ENDBRANCH  29  50
BRANCH  41  58
ATOM     58  C   UNL A   1      47.224  27.347  25.723  1.00  0.00     0.057 A 
ATOM     59  C   UNL A   1      48.275  26.613  26.285  1.00  0.00     0.134 A 
ATOM     60  C   UNL A   1      47.263  27.593  24.344  1.00  0.00     0.134 A 
ATOM     61  F   UNL A   1      48.301  26.361  27.603  1.00  0.00    -0.206 F 
ATOM     62  C   UNL A   1      49.344  26.167  25.508  1.00  0.00     0.040 A 
ATOM     63  C   UNL A   1      48.309  27.123  23.553  1.00  0.00     0.040 A 
ATOM     64  F   UNL A   1      46.280  28.284  23.747  1.00  0.00    -0.206 F 
ATOM     65  C   UNL A   1      49.358  26.417  24.138  1.00  0.00     0.006 A 
ENDBRANCH  41  58
ENDBRANCH  15  16
ENDBRANCH   8  10
ENDBRANCH   7   8
ENDBRANCH   6   7
ENDBRANCH   5   6
ENDBRANCH   4   5
ENDBRANCH   3   4
ENDBRANCH   2   3
ENDBRANCH   1   2
BRANCH   1  66
ATOM     66  C   UNL A   1      35.135  32.976  28.174  1.00  0.00     0.202 C 
BRANCH  66  67
ATOM     67  C   UNL A   1      35.399  31.476  27.972  1.00  0.00     0.261 C 
BRANCH  67  68
ATOM     68  O   UNL A   1      34.390  30.728  27.283  1.00  0.00    -0.463 OA
BRANCH  68  69
ATOM     69  C   UNL A   1      34.643  29.388  27.279  1.00  0.00     0.310 C 
ATOM     70  O   UNL A   1      35.766  28.912  27.277  1.00  0.00    -0.252 OA
BRANCH  69  71
ATOM     71  C   UNL A   1      33.365  28.561  27.328  1.00  0.00     0.116 C 
ATOM     72  C   UNL A   1      32.129  29.450  27.151  1.00  0.00     0.043 C 
ATOM     73  C   UNL A   1      33.466  27.494  26.219  1.00  0.00     0.097 C 
ATOM     74  C   UNL A   1      31.873  29.846  25.727  1.00  0.00    -0.030 C 
ATOM     75  C   UNL A   1      33.451  28.130  24.810  1.00  0.00     0.041 C 
ATOM     76  C   UNL A   1      32.487  29.274  24.682  1.00  0.00    -0.030 C 
BRANCH  73  77
ATOM     77  C   UNL A   1      32.364  26.446  26.277  1.00  0.00     0.228 C 
ATOM     78  O   UNL A   1      31.327  26.586  26.923  1.00  0.00    -0.274 OA
ATOM     79  N   UNL A   1      32.495  25.328  25.491  1.00  0.00    -0.325 N 
ATOM     80  H   UNL A   1      31.665  24.832  25.309  1.00  0.00     0.169 HD
BRANCH  79  81
ATOM     81  C   UNL A   1      33.663  24.799  24.914  1.00  0.00     0.054 A 
ATOM     82  C   UNL A   1      34.806  24.999  25.714  1.00  0.00     0.027 A 
ATOM     83  C   UNL A   1      33.747  24.026  23.736  1.00  0.00     0.063 A 
ATOM     84  C   UNL A   1      35.976  24.284  25.483  1.00  0.00     0.002 A 
ATOM     85  C   UNL A   1      34.945  23.293  23.549  1.00  0.00     0.016 A 
ATOM     86  C   UNL A   1      36.031  23.395  24.423  1.00  0.00     0.001 A 
BRANCH  83  87
ATOM     87  C   UNL A   1      32.774  23.875  22.584  1.00  0.00     0.253 C 
ATOM     88  O   UNL A   1      32.405  22.734  22.283  1.00  0.00    -0.269 OA
ATOM     89  N   UNL A   1      32.309  24.870  21.755  1.00  0.00    -0.345 N 
ATOM     90  H   UNL A   1      31.963  24.547  20.891  1.00  0.00     0.164 HD
BRANCH  89  91
ATOM     91  C   UNL A   1      32.239  26.296  21.924  1.00  0.00     0.191 C 
BRANCH  91  92
ATOM     92  C   UNL A   1      31.019  26.816  22.567  1.00  0.00     0.122 A 
ATOM     93  C   UNL A   1      30.211  27.926  22.458  1.00  0.00     0.047 A 
ATOM     94  O   UNL A   1      30.460  25.928  23.446  1.00  0.00    -0.467 OA
ATOM     95  C   UNL A   1      29.101  27.693  23.315  1.00  0.00     0.042 A 
ATOM     96  C   UNL A   1      29.301  26.461  23.888  1.00  0.00     0.195 A 
ENDBRANCH  91  92
ENDBRANCH  89  91
ENDBRANCH  83  87
ENDBRANCH  79  81
ENDBRANCH  73  77
ENDBRANCH  69  71
ENDBRANCH  68  69
ENDBRANCH  67  68
ENDBRANCH  66  67
ENDBRANCH   1  66
TORSDOF 22
ENDMDL
MODEL 3
REMARK VINA RESULT:     -10.9      1.564      2.549
REMARK SMILES O=C(OCCOCCOCCOC(=O)[C@H]1CC=CC[C@@H]1C(=O)Nc1ccccc1C(=O)NCc1ccco1)c1ccc(-c2c3nc(c(-c4c(F)cccc4F)c4ccc([nH]4)c(-c4c(F)cccc4F)c4nc(c(-c5c(F)cccc5F)c5ccc2[nH]5)C=C4)C=C3)cc1
REMARK SMILES IDX 9 1 8 2 7 3 6 4 5 5 4 6 3 7 2 8 1 9 39 10 40 11 92 12 41 13
REMARK SMILES IDX 91 14 42 15 43 16 44 17 85 18 45 19 90 20 84 21 86 22 46 23
REMARK SMILES IDX 89 24 83 25 82 26 47 28 73 29 56 30 72 31 57 32 60 33 71 34
REMARK SMILES IDX 87 35 58 36 59 37 70 39 88 40 61 41 48 42 49 43 54 44 50 45
REMARK SMILES IDX 51 46 53 47 55 48 52 49 74 50 75 51 80 52 76 53 77 54 79 55
REMARK SMILES IDX 81 56 78 57 62 58 63 59 68 60 64 61 65 62 67 63 69 64 66 65
REMARK SMILES IDX 10 66 11 67 12 68 13 69 14 70 15 71 16 72 20 73 17 74 19 75
REMARK SMILES IDX 18 76 21 77 22 78 23 79 24 81 25 82 29 83 26 84 28 85 27 86
REMARK SMILES IDX 30 87 31 88 32 89 33 91 34 92 35 93 38 94 36 95 37 96
REMARK H PARENT 86 27 60 38 23 80 32 90
REMARK Flexibility Score: inf
ROOT
ATOM      1  O   UNL A   1      34.583  30.843  27.170  1.00  0.00    -0.376 OA
ENDROOT
BRANCH   1   2
ATOM      2  C   UNL A   1      33.906  31.534  28.216  1.00  0.00     0.188 C 
BRANCH   2   3
ATOM      3  C   UNL A   1      34.270  33.003  28.416  1.00  0.00     0.188 C 
BRANCH   3   4
ATOM      4  O   UNL A   1      33.650  33.570  29.575  1.00  0.00    -0.376 OA
BRANCH   4   5
ATOM      5  C   UNL A   1      34.457  34.533  30.263  1.00  0.00     0.202 C 
BRANCH   5   6
ATOM      6  C   UNL A   1      34.903  34.157  31.690  1.00  0.00     0.261 C 
BRANCH   6   7
ATOM      7  O   UNL A   1      34.999  32.739  31.928  1.00  0.00    -0.460 OA
BRANCH   7   8
ATOM      8  C   UNL A   1      36.011  32.043  32.506  1.00  0.00     0.338 C 
ATOM      9  O   UNL A   1      36.047  31.955  33.733  1.00  0.00    -0.246 OA
BRANCH   8  10
ATOM     10  C   UNL A   1      37.101  31.382  31.729  1.00  0.00     0.060 A 
ATOM     11  C   UNL A   1      38.216  30.785  32.307  1.00  0.00     0.016 A 
ATOM     12  C   UNL A   1      36.970  31.304  30.331  1.00  0.00     0.016 A 
ATOM     13  C   UNL A   1      39.236  30.252  31.546  1.00  0.00     0.010 A 
ATOM     14  C   UNL A   1      37.966  30.702  29.549  1.00  0.00     0.010 A 
ATOM     15  C   UNL A   1      39.123  30.212  30.162  1.00  0.00    -0.014 A 
BRANCH  15  16
ATOM     16  C   UNL A   1      40.326  29.782  29.428  1.00  0.00     0.031 A 
ATOM     17  C   UNL A   1      41.482  30.727  29.351  1.00  0.00     0.074 A 
ATOM     18  C   UNL A   1      40.445  28.490  29.068  1.00  0.00     0.049 A 
ATOM     19  N   UNL A   1      42.663  30.543  28.828  1.00  0.00    -0.248 NA
ATOM     20  C   UNL A   1      41.294  32.052  29.967  1.00  0.00     0.031 C 
ATOM     21  C   UNL A   1      39.402  27.474  29.238  1.00  0.00     0.029 A 
ATOM     22  N   UNL A   1      41.501  27.795  28.544  1.00  0.00    -0.354 N 
ATOM     23  C   UNL A   1      43.350  31.731  29.038  1.00  0.00     0.074 A 
ATOM     24  C   UNL A   1      42.453  32.637  29.717  1.00  0.00     0.031 C 
ATOM     25  C   UNL A   1      39.885  26.282  28.860  1.00  0.00     0.029 A 
ATOM     26  C   UNL A   1      41.235  26.461  28.350  1.00  0.00     0.049 A 
ATOM     27  H   UNL A   1      42.366  28.211  28.326  1.00  0.00     0.167 HD
ATOM     28  C   UNL A   1      44.623  32.026  28.692  1.00  0.00     0.037 A 
ATOM     29  C   UNL A   1      41.986  25.498  27.785  1.00  0.00     0.037 A 
ATOM     30  C   UNL A   1      45.484  31.101  28.007  1.00  0.00     0.049 A 
ATOM     31  C   UNL A   1      43.353  25.889  27.304  1.00  0.00     0.074 A 
ATOM     32  C   UNL A   1      46.754  31.306  27.505  1.00  0.00     0.029 A 
ATOM     33  N   UNL A   1      45.149  29.780  27.731  1.00  0.00    -0.354 N 
ATOM     34  N   UNL A   1      43.968  27.043  27.421  1.00  0.00    -0.248 NA
ATOM     35  C   UNL A   1      44.126  24.859  26.604  1.00  0.00     0.031 C 
ATOM     36  C   UNL A   1      47.170  30.122  26.887  1.00  0.00     0.029 A 
ATOM     37  C   UNL A   1      46.184  29.161  27.054  1.00  0.00     0.049 A 
ATOM     38  H   UNL A   1      44.299  29.349  27.981  1.00  0.00     0.167 HD
ATOM     39  C   UNL A   1      45.203  26.879  26.814  1.00  0.00     0.074 A 
ATOM     40  C   UNL A   1      45.263  25.499  26.367  1.00  0.00     0.031 C 
ATOM     41  C   UNL A   1      46.197  27.783  26.629  1.00  0.00     0.037 A 
BRANCH  28  42
ATOM     42  C   UNL A   1      45.101  33.415  28.989  1.00  0.00     0.057 A 
ATOM     43  C   UNL A   1      44.961  34.465  28.070  1.00  0.00     0.134 A 
ATOM     44  C   UNL A   1      45.758  33.696  30.192  1.00  0.00     0.134 A 
ATOM     45  F   UNL A   1      44.374  34.256  26.882  1.00  0.00    -0.206 F 
ATOM     46  C   UNL A   1      45.479  35.737  28.330  1.00  0.00     0.040 A 
ATOM     47  C   UNL A   1      46.258  34.968  30.474  1.00  0.00     0.040 A 
ATOM     48  F   UNL A   1      45.939  32.732  31.109  1.00  0.00    -0.206 F 
ATOM     49  C   UNL A   1      46.126  35.991  29.538  1.00  0.00     0.006 A 
ENDBRANCH  28  42
BRANCH  29  50
ATOM     50  C   UNL A   1      41.440  24.130  27.575  1.00  0.00     0.057 A 
ATOM     51  C   UNL A   1      40.455  23.863  26.617  1.00  0.00     0.134 A 
ATOM     52  C   UNL A   1      41.875  23.050  28.357  1.00  0.00     0.134 A 
ATOM     53  F   UNL A   1      39.978  24.850  25.843  1.00  0.00    -0.206 F 
ATOM     54  C   UNL A   1      39.905  22.587  26.466  1.00  0.00     0.040 A 
ATOM     55  C   UNL A   1      41.364  21.762  28.190  1.00  0.00     0.040 A 
ATOM     56  F   UNL A   1      42.814  23.230  29.298  1.00  0.00    -0.206 F 
ATOM     57  C   UNL A   1      40.364  21.530  27.250  1.00  0.00     0.006 A 
ENDBRANCH  29  50
BRANCH  41  58
ATOM     58  C   UNL A   1      47.430  27.282  25.942  1.00  0.00     0.057 A 
ATOM     59  C   UNL A   1      47.581  27.351  24.552  1.00  0.00     0.134 A 
ATOM     60  C   UNL A   1      48.482  26.737  26.688  1.00  0.00     0.134 A 
ATOM     61  F   UNL A   1      46.599  27.847  23.784  1.00  0.00    -0.206 F 
ATOM     62  C   UNL A   1      48.727  26.864  23.922  1.00  0.00     0.040 A 
ATOM     63  C   UNL A   1      49.646  26.279  26.073  1.00  0.00     0.040 A 
ATOM     64  F   UNL A   1      48.400  26.652  28.024  1.00  0.00    -0.206 F 
ATOM     65  C   UNL A   1      49.764  26.333  24.685  1.00  0.00     0.006 A 
ENDBRANCH  41  58
ENDBRANCH  15  16
ENDBRANCH   8  10
ENDBRANCH   7   8
ENDBRANCH   6   7
ENDBRANCH   5   6
ENDBRANCH   4   5
ENDBRANCH   3   4
ENDBRANCH   2   3
ENDBRANCH   1   2
BRANCH   1  66
ATOM     66  C   UNL A   1      34.809  29.449  27.321  1.00  0.00     0.202 C 
BRANCH  66  67
ATOM     67  C   UNL A   1      33.668  28.465  27.018  1.00  0.00     0.261 C 
BRANCH  67  68
ATOM     68  O   UNL A   1      33.679  27.835  25.732  1.00  0.00    -0.463 OA
BRANCH  68  69
ATOM     69  C   UNL A   1      32.827  28.432  24.849  1.00  0.00     0.310 C 
ATOM     70  O   UNL A   1      33.161  29.319  24.082  1.00  0.00    -0.252 OA
BRANCH  69  71
ATOM     71  C   UNL A   1      31.429  27.829  24.902  1.00  0.00     0.116 C 
ATOM     72  C   UNL A   1      30.485  28.546  23.931  1.00  0.00     0.043 C 
ATOM     73  C   UNL A   1      31.563  26.329  24.567  1.00  0.00     0.097 C 
ATOM     74  C   UNL A   1      30.662  28.128  22.501  1.00  0.00    -0.030 C 
ATOM     75  C   UNL A   1      32.015  26.108  23.106  1.00  0.00     0.041 C 
ATOM     76  C   UNL A   1      31.371  27.051  22.132  1.00  0.00    -0.030 C 
BRANCH  73  77
ATOM     77  C   UNL A   1      30.283  25.536  24.792  1.00  0.00     0.228 C 
ATOM     78  O   UNL A   1      29.158  26.019  24.682  1.00  0.00    -0.274 OA
ATOM     79  N   UNL A   1      30.394  24.190  25.038  1.00  0.00    -0.325 N 
ATOM     80  H   UNL A   1      29.583  23.657  24.877  1.00  0.00     0.169 HD
BRANCH  79  81
ATOM     81  C   UNL A   1      31.516  23.475  25.493  1.00  0.00     0.054 A 
ATOM     82  C   UNL A   1      31.747  23.644  26.873  1.00  0.00     0.027 A 
ATOM     83  C   UNL A   1      32.296  22.566  24.748  1.00  0.00     0.063 A 
ATOM     84  C   UNL A   1      32.593  22.786  27.567  1.00  0.00     0.002 A 
ATOM     85  C   UNL A   1      33.126  21.692  25.492  1.00  0.00     0.016 A 
ATOM     86  C   UNL A   1      33.250  21.778  26.882  1.00  0.00     0.001 A 
BRANCH  83  87
ATOM     87  C   UNL A   1      32.439  22.386  23.249  1.00  0.00     0.253 C 
ATOM     88  O   UNL A   1      31.610  21.677  22.669  1.00  0.00    -0.269 OA
ATOM     89  N   UNL A   1      33.457  22.855  22.451  1.00  0.00    -0.345 N 
ATOM     90  H   UNL A   1      33.554  22.376  21.596  1.00  0.00     0.164 HD
BRANCH  89  91
ATOM     91  C   UNL A   1      34.405  23.919  22.643  1.00  0.00     0.191 C 
BRANCH  91  92
ATOM     92  C   UNL A   1      35.283  23.805  23.822  1.00  0.00     0.122 A 
ATOM     93  C   UNL A   1      35.398  24.396  25.060  1.00  0.00     0.047 A 
ATOM     94  O   UNL A   1      36.173  22.769  23.725  1.00  0.00    -0.467 OA
ATOM     95  C   UNL A   1      36.410  23.675  25.751  1.00  0.00     0.042 A 
ATOM     96  C   UNL A   1      36.844  22.693  24.894  1.00  0.00     0.195 A 
ENDBRANCH  91  92
ENDBRANCH  89  91
ENDBRANCH  83  87
ENDBRANCH  79  81
ENDBRANCH  73  77
ENDBRANCH  69  71
ENDBRANCH  68  69
ENDBRANCH  67  68
ENDBRANCH  66  67
ENDBRANCH   1  66
TORSDOF 22
ENDMDL
