MODEL 1
REMARK VINA RESULT:     -10.4      0.000      0.000
REMARK SMILES O=C(/C=C/c1cc(F)cc(C[N@@H+]2CCC[C@H]2CO)c1)OCCOCCOCCOC(=O)c1ccc(-c2c3nc(c(-c4c(F)cccc4F)c4ccc([nH]4)c(-c4c(F)cccc4F)c4nc(c(-c5c(F)cccc5F)c5ccc2[nH]5)C=C4)C=C3)cc1
REMARK SMILES IDX 23 1 22 2 21 3 20 4 2 5 1 6 3 7 4 8 5 9 6 10 19 11 7 12
REMARK SMILES IDX 10 13 8 14 9 15 11 16 12 17 13 18 16 19 14 21 15 22 17 23
REMARK SMILES IDX 18 24 24 26 25 27 26 28 27 29 28 30 29 31 30 32 31 33 32 34
REMARK SMILES IDX 33 35 85 36 34 37 84 38 35 39 36 40 37 41 78 42 38 43 83 44
REMARK SMILES IDX 77 45 79 46 39 47 82 48 76 49 75 50 40 52 66 53 49 54 65 55
REMARK SMILES IDX 50 56 53 57 64 58 80 59 51 60 52 61 63 63 81 64 54 65 41 66
REMARK SMILES IDX 42 67 47 68 43 69 44 70 46 71 48 72 45 73 67 74 68 75 73 76
REMARK SMILES IDX 69 77 70 78 72 79 74 80 71 81 55 82 56 83 61 84 57 85 58 86
REMARK SMILES IDX 60 87 62 88 59 89
REMARK H PARENT 12 20 18 25 79 51 53 62
REMARK Flexibility Score: inf
ROOT
ATOM      1  O   UNL A   1      32.900  34.789  29.558  1.00  0.00    -0.376 OA
ENDROOT
BRANCH   1   2
ATOM      2  C   UNL A   1      34.043  34.329  28.877  1.00  0.00     0.202 C 
BRANCH   2   3
ATOM      3  C   UNL A   1      33.788  33.106  28.004  1.00  0.00     0.261 C 
BRANCH   3   4
ATOM      4  O   UNL A   1      34.703  31.979  28.024  1.00  0.00    -0.460 OA
BRANCH   4   5
ATOM      5  C   UNL A   1      34.613  30.680  27.695  1.00  0.00     0.330 C 
ATOM      6  O   UNL A   1      35.515  29.900  27.987  1.00  0.00    -0.247 OA
BRANCH   5   7
ATOM      7  C   UNL A   1      33.520  30.181  26.856  1.00  0.00     0.094 C 
ATOM      8  C   UNL A   1      33.000  28.953  26.945  1.00  0.00     0.016 C 
BRANCH   8   9
ATOM      9  C   UNL A   1      31.982  28.469  26.010  1.00  0.00    -0.022 A 
ATOM     10  C   UNL A   1      31.487  29.373  25.075  1.00  0.00     0.047 A 
ATOM     11  C   UNL A   1      31.587  27.113  25.956  1.00  0.00     0.018 A 
ATOM     12  C   UNL A   1      30.696  28.902  24.047  1.00  0.00     0.124 A 
ATOM     13  C   UNL A   1      30.768  26.621  24.913  1.00  0.00     0.010 A 
ATOM     14  F   UNL A   1      30.279  29.750  23.097  1.00  0.00    -0.207 F 
ATOM     15  C   UNL A   1      30.384  27.550  23.938  1.00  0.00     0.048 A 
BRANCH  13  16
ATOM     16  C   UNL A   1      30.577  25.112  24.754  1.00  0.00     0.299 C 
BRANCH  16  17
ATOM     17  N   UNL A   1      31.691  24.181  24.566  1.00  0.00    -0.327 N 
ATOM     18  C   UNL A   1      32.370  23.617  25.718  1.00  0.00     0.263 C 
ATOM     19  C   UNL A   1      32.710  24.511  23.564  1.00  0.00     0.210 C 
ATOM     20  H   UNL A   1      31.075  23.456  24.199  1.00  0.00     0.348 HD
ATOM     21  C   UNL A   1      33.677  24.388  25.798  1.00  0.00     0.068 C 
ATOM     22  C   UNL A   1      33.993  24.765  24.360  1.00  0.00     0.073 C 
BRANCH  19  23
ATOM     23  C   UNL A   1      32.898  23.353  22.540  1.00  0.00     0.220 C 
BRANCH  23  24
ATOM     24  O   UNL A   1      31.789  22.460  22.432  1.00  0.00    -0.390 OA
ATOM     25  H   UNL A   1      32.010  21.743  21.816  1.00  0.00     0.210 HD
ENDBRANCH  23  24
ENDBRANCH  19  23
ENDBRANCH  16  17
ENDBRANCH  13  16
ENDBRANCH   8   9
ENDBRANCH   5   7
ENDBRANCH   4   5
ENDBRANCH   3   4
ENDBRANCH   2   3
ENDBRANCH   1   2
BRANCH   1  26
ATOM     26  C   UNL A   1      32.917  36.084  30.118  1.00  0.00     0.188 C 
BRANCH  26  27
ATOM     27  C   UNL A   1      32.299  36.078  31.525  1.00  0.00     0.188 C 
BRANCH  27  28
ATOM     28  O   UNL A   1      32.472  34.935  32.355  1.00  0.00    -0.376 OA
BRANCH  28  29
ATOM     29  C   UNL A   1      33.762  34.623  32.872  1.00  0.00     0.202 C 
BRANCH  29  30
ATOM     30  C   UNL A   1      34.209  33.160  32.870  1.00  0.00     0.261 C 
BRANCH  30  31
ATOM     31  O   UNL A   1      35.074  32.788  31.781  1.00  0.00    -0.460 OA
BRANCH  31  32
ATOM     32  C   UNL A   1      36.353  33.219  31.915  1.00  0.00     0.338 C 
ATOM     33  O   UNL A   1      36.744  34.250  32.428  1.00  0.00    -0.246 OA
BRANCH  32  34
ATOM     34  C   UNL A   1      37.292  32.218  31.386  1.00  0.00     0.060 A 
ATOM     35  C   UNL A   1      38.141  31.549  32.277  1.00  0.00     0.016 A 
ATOM     36  C   UNL A   1      37.469  32.104  30.007  1.00  0.00     0.016 A 
ATOM     37  C   UNL A   1      39.203  30.786  31.786  1.00  0.00     0.010 A 
ATOM     38  C   UNL A   1      38.544  31.357  29.521  1.00  0.00     0.010 A 
ATOM     39  C   UNL A   1      39.432  30.720  30.407  1.00  0.00    -0.014 A 
BRANCH  39  40
ATOM     40  C   UNL A   1      40.680  30.131  29.866  1.00  0.00     0.031 A 
ATOM     41  C   UNL A   1      41.866  31.027  29.642  1.00  0.00     0.074 A 
ATOM     42  C   UNL A   1      40.743  28.834  29.523  1.00  0.00     0.049 A 
ATOM     43  N   UNL A   1      42.986  30.779  29.013  1.00  0.00    -0.248 NA
ATOM     44  C   UNL A   1      41.770  32.388  30.193  1.00  0.00     0.031 C 
ATOM     45  C   UNL A   1      39.680  27.853  29.728  1.00  0.00     0.029 A 
ATOM     46  N   UNL A   1      41.740  28.132  28.894  1.00  0.00    -0.354 N 
ATOM     47  C   UNL A   1      43.718  31.957  29.073  1.00  0.00     0.074 A 
ATOM     48  C   UNL A   1      42.911  32.924  29.787  1.00  0.00     0.031 C 
ATOM     49  C   UNL A   1      40.071  26.678  29.207  1.00  0.00     0.029 A 
ATOM     50  C   UNL A   1      41.393  26.838  28.600  1.00  0.00     0.049 A 
ATOM     51  H   UNL A   1      42.618  28.519  28.674  1.00  0.00     0.167 HD
ATOM     52  C   UNL A   1      44.951  32.211  28.575  1.00  0.00     0.037 A 
ATOM     53  C   UNL A   1      42.050  25.899  27.890  1.00  0.00     0.037 A 
ATOM     54  C   UNL A   1      45.760  31.246  27.881  1.00  0.00     0.049 A 
ATOM     55  C   UNL A   1      43.389  26.219  27.283  1.00  0.00     0.074 A 
ATOM     56  C   UNL A   1      47.041  31.397  27.382  1.00  0.00     0.029 A 
ATOM     57  N   UNL A   1      45.361  29.953  27.583  1.00  0.00    -0.354 N 
ATOM     58  N   UNL A   1      44.075  27.335  27.343  1.00  0.00    -0.248 NA
ATOM     59  C   UNL A   1      44.037  25.159  26.496  1.00  0.00     0.031 C 
ATOM     60  C   UNL A   1      47.400  30.209  26.739  1.00  0.00     0.029 A 
ATOM     61  C   UNL A   1      46.358  29.305  26.875  1.00  0.00     0.049 A 
ATOM     62  H   UNL A   1      44.498  29.554  27.838  1.00  0.00     0.167 HD
ATOM     63  C   UNL A   1      45.240  27.107  26.618  1.00  0.00     0.074 A 
ATOM     64  C   UNL A   1      45.168  25.746  26.127  1.00  0.00     0.031 C 
ATOM     65  C   UNL A   1      46.273  27.952  26.385  1.00  0.00     0.037 A 
BRANCH  52  66
ATOM     66  C   UNL A   1      45.489  33.600  28.737  1.00  0.00     0.057 A 
ATOM     67  C   UNL A   1      46.233  33.943  29.872  1.00  0.00     0.134 A 
ATOM     68  C   UNL A   1      45.248  34.604  27.790  1.00  0.00     0.134 A 
ATOM     69  F   UNL A   1      46.495  33.027  30.817  1.00  0.00    -0.206 F 
ATOM     70  C   UNL A   1      46.718  35.238  30.063  1.00  0.00     0.040 A 
ATOM     71  C   UNL A   1      45.746  35.896  27.958  1.00  0.00     0.040 A 
ATOM     72  F   UNL A   1      44.554  34.332  26.675  1.00  0.00    -0.206 F 
ATOM     73  C   UNL A   1      46.479  36.218  29.101  1.00  0.00     0.006 A 
ENDBRANCH  52  66
BRANCH  53  74
ATOM     74  C   UNL A   1      41.425  24.568  27.703  1.00  0.00     0.057 A 
ATOM     75  C   UNL A   1      41.844  23.457  28.445  1.00  0.00     0.134 A 
ATOM     76  C   UNL A   1      40.431  24.370  26.741  1.00  0.00     0.134 A 
ATOM     77  F   UNL A   1      42.794  23.588  29.383  1.00  0.00    -0.206 F 
ATOM     78  C   UNL A   1      41.315  22.187  28.217  1.00  0.00     0.040 A 
ATOM     79  C   UNL A   1      39.878  23.108  26.515  1.00  0.00     0.040 A 
ATOM     80  F   UNL A   1      39.977  25.402  26.016  1.00  0.00    -0.206 F 
ATOM     81  C   UNL A   1      40.328  22.010  27.248  1.00  0.00     0.006 A 
ENDBRANCH  53  74
BRANCH  65  82
ATOM     82  C   UNL A   1      47.425  27.446  25.568  1.00  0.00     0.057 A 
ATOM     83  C   UNL A   1      47.412  27.553  24.171  1.00  0.00     0.134 A 
ATOM     84  C   UNL A   1      48.491  26.756  26.157  1.00  0.00     0.134 A 
ATOM     85  F   UNL A   1      46.411  28.193  23.547  1.00  0.00    -0.206 F 
ATOM     86  C   UNL A   1      48.409  26.972  23.387  1.00  0.00     0.040 A 
ATOM     87  C   UNL A   1      49.503  26.186  25.383  1.00  0.00     0.040 A 
ATOM     88  F   UNL A   1      48.562  26.626  27.490  1.00  0.00    -0.206 F 
ATOM     89  C   UNL A   1      49.457  26.283  23.993  1.00  0.00     0.006 A 
ENDBRANCH  65  82
ENDBRANCH  39  40
ENDBRANCH  32  34
ENDBRANCH  31  32
ENDBRANCH  30  31
ENDBRANCH  29  30
ENDBRANCH  28  29
ENDBRANCH  27  28
ENDBRANCH  26  27
ENDBRANCH   1  26
TORSDOF 22
ENDMDL
MODEL 2
REMARK VINA RESULT:     -10.3      5.247     10.052
REMARK SMILES O=C(/C=C/c1cc(F)cc(C[N@@H+]2CCC[C@H]2CO)c1)OCCOCCOCCOC(=O)c1ccc(-c2c3nc(c(-c4c(F)cccc4F)c4ccc([nH]4)c(-c4c(F)cccc4F)c4nc(c(-c5c(F)cccc5F)c5ccc2[nH]5)C=C4)C=C3)cc1
REMARK SMILES IDX 23 1 22 2 21 3 20 4 2 5 1 6 3 7 4 8 5 9 6 10 19 11 7 12
REMARK SMILES IDX 10 13 8 14 9 15 11 16 12 17 13 18 16 19 14 21 15 22 17 23
REMARK SMILES IDX 18 24 24 26 25 27 26 28 27 29 28 30 29 31 30 32 31 33 32 34
REMARK SMILES IDX 33 35 85 36 34 37 84 38 35 39 36 40 37 41 78 42 38 43 83 44
REMARK SMILES IDX 77 45 79 46 39 47 82 48 76 49 75 50 40 52 66 53 49 54 65 55
REMARK SMILES IDX 50 56 53 57 64 58 80 59 51 60 52 61 63 63 81 64 54 65 41 66
REMARK SMILES IDX 42 67 47 68 43 69 44 70 46 71 48 72 45 73 67 74 68 75 73 76
REMARK SMILES IDX 69 77 70 78 72 79 74 80 71 81 55 82 56 83 61 84 57 85 58 86
REMARK SMILES IDX 60 87 62 88 59 89
REMARK H PARENT 12 20 18 25 79 51 53 62
REMARK Flexibility Score: inf
ROOT
ATOM      1  O   UNL A   1      35.233  24.021  25.544  1.00  0.00    -0.376 OA
ENDROOT
BRANCH   1   2
ATOM      2  C   UNL A   1      34.332  22.953  25.369  1.00  0.00     0.202 C 
BRANCH   2   3
ATOM      3  C   UNL A   1      33.403  23.122  24.173  1.00  0.00     0.261 C 
BRANCH   3   4
ATOM      4  O   UNL A   1      32.849  24.423  23.843  1.00  0.00    -0.460 OA
BRANCH   4   5
ATOM      5  C   UNL A   1      33.327  25.536  23.264  1.00  0.00     0.330 C 
ATOM      6  O   UNL A   1      34.022  25.463  22.255  1.00  0.00    -0.247 OA
BRANCH   5   7
ATOM      7  C   UNL A   1      33.166  26.850  23.892  1.00  0.00     0.094 C 
ATOM      8  C   UNL A   1      33.111  27.055  25.211  1.00  0.00     0.016 C 
BRANCH   8   9
ATOM      9  C   UNL A   1      32.840  28.376  25.784  1.00  0.00    -0.022 A 
ATOM     10  C   UNL A   1      33.861  28.983  26.508  1.00  0.00     0.047 A 
ATOM     11  C   UNL A   1      31.644  29.083  25.526  1.00  0.00     0.018 A 
ATOM     12  C   UNL A   1      33.723  30.306  26.874  1.00  0.00     0.124 A 
ATOM     13  C   UNL A   1      31.487  30.437  25.904  1.00  0.00     0.010 A 
ATOM     14  F   UNL A   1      34.733  30.924  27.502  1.00  0.00    -0.207 F 
ATOM     15  C   UNL A   1      32.585  31.033  26.537  1.00  0.00     0.048 A 
BRANCH  13  16
ATOM     16  C   UNL A   1      30.287  31.229  25.384  1.00  0.00     0.299 C 
BRANCH  16  17
ATOM     17  N   UNL A   1      29.882  31.233  23.977  1.00  0.00    -0.327 N 
ATOM     18  C   UNL A   1      29.034  32.295  23.468  1.00  0.00     0.263 C 
ATOM     19  C   UNL A   1      29.426  29.974  23.382  1.00  0.00     0.210 C 
ATOM     20  H   UNL A   1      30.831  31.434  23.663  1.00  0.00     0.348 HD
ATOM     21  C   UNL A   1      27.661  31.655  23.347  1.00  0.00     0.068 C 
ATOM     22  C   UNL A   1      27.942  30.187  23.069  1.00  0.00     0.073 C 
BRANCH  19  23
ATOM     23  C   UNL A   1      30.232  29.625  22.097  1.00  0.00     0.220 C 
BRANCH  23  24
ATOM     24  O   UNL A   1      30.571  28.246  21.955  1.00  0.00    -0.390 OA
ATOM     25  H   UNL A   1      30.648  28.027  21.012  1.00  0.00     0.210 HD
ENDBRANCH  23  24
ENDBRANCH  19  23
ENDBRANCH  16  17
ENDBRANCH  13  16
ENDBRANCH   8   9
ENDBRANCH   5   7
ENDBRANCH   4   5
ENDBRANCH   3   4
ENDBRANCH   2   3
ENDBRANCH   1   2
BRANCH   1  26
ATOM     26  C   UNL A   1      36.567  23.733  25.898  1.00  0.00     0.188 C 
BRANCH  26  27
ATOM     27  C   UNL A   1      37.364  23.249  24.675  1.00  0.00     0.188 C 
BRANCH  27  28
ATOM     28  O   UNL A   1      37.777  21.888  24.610  1.00  0.00    -0.376 OA
BRANCH  28  29
ATOM     29  C   UNL A   1      38.372  21.273  25.749  1.00  0.00     0.202 C 
BRANCH  29  30
ATOM     30  C   UNL A   1      39.792  21.689  26.138  1.00  0.00     0.261 C 
BRANCH  30  31
ATOM     31  O   UNL A   1      39.873  22.788  27.064  1.00  0.00    -0.460 OA
BRANCH  31  32
ATOM     32  C   UNL A   1      40.844  23.689  26.774  1.00  0.00     0.338 C 
ATOM     33  O   UNL A   1      41.848  23.517  26.109  1.00  0.00    -0.246 OA
BRANCH  32  34
ATOM     34  C   UNL A   1      40.514  25.004  27.343  1.00  0.00     0.060 A 
ATOM     35  C   UNL A   1      41.310  26.107  27.009  1.00  0.00     0.016 A 
ATOM     36  C   UNL A   1      39.557  25.094  28.355  1.00  0.00     0.016 A 
ATOM     37  C   UNL A   1      41.177  27.302  27.718  1.00  0.00     0.010 A 
ATOM     38  C   UNL A   1      39.442  26.285  29.075  1.00  0.00     0.010 A 
ATOM     39  C   UNL A   1      40.270  27.383  28.781  1.00  0.00    -0.014 A 
BRANCH  39  40
ATOM     40  C   UNL A   1      40.277  28.541  29.706  1.00  0.00     0.031 A 
ATOM     41  C   UNL A   1      41.253  28.550  30.848  1.00  0.00     0.074 A 
ATOM     42  C   UNL A   1      39.390  29.541  29.571  1.00  0.00     0.049 A 
ATOM     43  N   UNL A   1      41.317  29.353  31.879  1.00  0.00    -0.248 NA
ATOM     44  C   UNL A   1      42.290  27.506  30.829  1.00  0.00     0.031 C 
ATOM     45  C   UNL A   1      38.422  29.672  28.485  1.00  0.00     0.029 A 
ATOM     46  N   UNL A   1      39.143  30.620  30.381  1.00  0.00    -0.354 N 
ATOM     47  C   UNL A   1      42.384  28.899  32.642  1.00  0.00     0.074 A 
ATOM     48  C   UNL A   1      42.931  27.744  31.964  1.00  0.00     0.031 C 
ATOM     49  C   UNL A   1      37.663  30.757  28.712  1.00  0.00     0.029 A 
ATOM     50  C   UNL A   1      38.069  31.372  29.977  1.00  0.00     0.049 A 
ATOM     51  H   UNL A   1      39.682  30.834  31.176  1.00  0.00     0.167 HD
ATOM     52  C   UNL A   1      42.863  29.400  33.805  1.00  0.00     0.037 A 
ATOM     53  C   UNL A   1      37.459  32.413  30.575  1.00  0.00     0.037 A 
ATOM     54  C   UNL A   1      42.331  30.558  34.470  1.00  0.00     0.049 A 
ATOM     55  C   UNL A   1      37.960  32.914  31.902  1.00  0.00     0.074 A 
ATOM     56  C   UNL A   1      42.780  31.168  35.627  1.00  0.00     0.029 A 
ATOM     57  N   UNL A   1      41.227  31.276  34.038  1.00  0.00    -0.354 N 
ATOM     58  N   UNL A   1      38.970  32.481  32.618  1.00  0.00    -0.248 NA
ATOM     59  C   UNL A   1      37.230  34.035  32.514  1.00  0.00     0.031 C 
ATOM     60  C   UNL A   1      41.918  32.228  35.923  1.00  0.00     0.029 A 
ATOM     61  C   UNL A   1      40.959  32.303  34.926  1.00  0.00     0.049 A 
ATOM     62  H   UNL A   1      40.712  31.085  33.221  1.00  0.00     0.167 HD
ATOM     63  C   UNL A   1      39.006  33.283  33.754  1.00  0.00     0.074 A 
ATOM     64  C   UNL A   1      37.917  34.231  33.632  1.00  0.00     0.031 C 
ATOM     65  C   UNL A   1      39.867  33.236  34.798  1.00  0.00     0.037 A 
BRANCH  52  66
ATOM     66  C   UNL A   1      44.006  28.676  34.450  1.00  0.00     0.057 A 
ATOM     67  C   UNL A   1      43.763  27.659  35.382  1.00  0.00     0.134 A 
ATOM     68  C   UNL A   1      45.340  28.999  34.175  1.00  0.00     0.134 A 
ATOM     69  F   UNL A   1      42.507  27.304  35.691  1.00  0.00    -0.206 F 
ATOM     70  C   UNL A   1      44.808  26.991  36.021  1.00  0.00     0.040 A 
ATOM     71  C   UNL A   1      46.394  28.324  34.790  1.00  0.00     0.040 A 
ATOM     72  F   UNL A   1      45.636  29.955  33.281  1.00  0.00    -0.206 F 
ATOM     73  C   UNL A   1      46.129  27.319  35.721  1.00  0.00     0.006 A 
ENDBRANCH  52  66
BRANCH  53  74
ATOM     74  C   UNL A   1      36.285  33.035  29.918  1.00  0.00     0.057 A 
ATOM     75  C   UNL A   1      34.980  32.759  30.345  1.00  0.00     0.134 A 
ATOM     76  C   UNL A   1      36.442  33.880  28.816  1.00  0.00     0.134 A 
ATOM     77  F   UNL A   1      34.769  31.956  31.399  1.00  0.00    -0.206 F 
ATOM     78  C   UNL A   1      33.870  33.279  29.680  1.00  0.00     0.040 A 
ATOM     79  C   UNL A   1      35.341  34.423  28.152  1.00  0.00     0.040 A 
ATOM     80  F   UNL A   1      37.669  34.195  28.377  1.00  0.00    -0.206 F 
ATOM     81  C   UNL A   1      34.050  34.114  28.579  1.00  0.00     0.006 A 
ENDBRANCH  53  74
BRANCH  65  82
ATOM     82  C   UNL A   1      39.687  34.234  35.904  1.00  0.00     0.057 A 
ATOM     83  C   UNL A   1      40.322  35.481  35.851  1.00  0.00     0.134 A 
ATOM     84  C   UNL A   1      38.977  33.916  37.067  1.00  0.00     0.134 A 
ATOM     85  F   UNL A   1      41.029  35.840  34.767  1.00  0.00    -0.206 F 
ATOM     86  C   UNL A   1      40.276  36.369  36.926  1.00  0.00     0.040 A 
ATOM     87  C   UNL A   1      38.908  34.804  38.142  1.00  0.00     0.040 A 
ATOM     88  F   UNL A   1      38.341  32.740  37.175  1.00  0.00    -0.206 F 
ATOM     89  C   UNL A   1      39.569  36.029  38.077  1.00  0.00     0.006 A 
ENDBRANCH  65  82
ENDBRANCH  39  40
ENDBRANCH  32  34
ENDBRANCH  31  32
ENDBRANCH  30  31
ENDBRANCH  29  30
ENDBRANCH  28  29
ENDBRANCH  27  28
ENDBRANCH  26  27
ENDBRANCH   1  26
TORSDOF 22
ENDMDL
MODEL 3
REMARK VINA RESULT:     -10.3      4.778      8.260
REMARK SMILES O=C(/C=C/c1cc(F)cc(C[N@@H+]2CCC[C@H]2CO)c1)OCCOCCOCCOC(=O)c1ccc(-c2c3nc(c(-c4c(F)cccc4F)c4ccc([nH]4)c(-c4c(F)cccc4F)c4nc(c(-c5c(F)cccc5F)c5ccc2[nH]5)C=C4)C=C3)cc1
REMARK SMILES IDX 23 1 22 2 21 3 20 4 2 5 1 6 3 7 4 8 5 9 6 10 19 11 7 12
REMARK SMILES IDX 10 13 8 14 9 15 11 16 12 17 13 18 16 19 14 21 15 22 17 23
REMARK SMILES IDX 18 24 24 26 25 27 26 28 27 29 28 30 29 31 30 32 31 33 32 34
REMARK SMILES IDX 33 35 85 36 34 37 84 38 35 39 36 40 37 41 78 42 38 43 83 44
REMARK SMILES IDX 77 45 79 46 39 47 82 48 76 49 75 50 40 52 66 53 49 54 65 55
REMARK SMILES IDX 50 56 53 57 64 58 80 59 51 60 52 61 63 63 81 64 54 65 41 66
REMARK SMILES IDX 42 67 47 68 43 69 44 70 46 71 48 72 45 73 67 74 68 75 73 76
REMARK SMILES IDX 69 77 70 78 72 79 74 80 71 81 55 82 56 83 61 84 57 85 58 86
REMARK SMILES IDX 60 87 62 88 59 89
REMARK H PARENT 12 20 18 25 79 51 53 62
REMARK Flexibility Score: inf
ROOT
ATOM      1  O   UNL A   1      34.702  36.231  33.627  1.00  0.00    -0.376 OA
ENDROOT
BRANCH   1   2
ATOM      2  C   UNL A   1      34.712  35.024  32.903  1.00  0.00     0.202 C 
BRANCH   2   3
ATOM      3  C   UNL A   1      34.539  33.784  33.770  1.00  0.00     0.261 C 
BRANCH   3   4
ATOM      4  O   UNL A   1      35.589  32.784  33.850  1.00  0.00    -0.460 OA
BRANCH   4   5
ATOM      5  C   UNL A   1      36.794  32.720  34.439  1.00  0.00     0.330 C 
ATOM      6  O   UNL A   1      37.226  33.678  35.075  1.00  0.00    -0.247 OA
BRANCH   5   7
ATOM      7  C   UNL A   1      37.688  31.581  34.222  1.00  0.00     0.094 C 
ATOM      8  C   UNL A   1      38.755  31.304  34.978  1.00  0.00     0.016 C 
BRANCH   8   9
ATOM      9  C   UNL A   1      39.678  30.214  34.654  1.00  0.00    -0.022 A 
ATOM     10  C   UNL A   1      39.352  29.395  33.577  1.00  0.00     0.047 A 
ATOM     11  C   UNL A   1      40.918  30.050  35.312  1.00  0.00     0.018 A 
ATOM     12  C   UNL A   1      40.294  28.503  33.108  1.00  0.00     0.124 A 
ATOM     13  C   UNL A   1      41.888  29.132  34.847  1.00  0.00     0.010 A 
ATOM     14  F   UNL A   1      40.020  27.766  32.023  1.00  0.00    -0.207 F 
ATOM     15  C   UNL A   1      41.553  28.407  33.696  1.00  0.00     0.048 A 
BRANCH  13  16
ATOM     16  C   UNL A   1      43.301  29.169  35.431  1.00  0.00     0.299 C 
BRANCH  16  17
ATOM     17  N   UNL A   1      43.710  28.364  36.584  1.00  0.00    -0.327 N 
ATOM     18  C   UNL A   1      44.883  28.738  37.352  1.00  0.00     0.263 C 
ATOM     19  C   UNL A   1      43.711  26.905  36.448  1.00  0.00     0.210 C 
ATOM     20  H   UNL A   1      42.896  28.654  37.126  1.00  0.00     0.348 HD
ATOM     21  C   UNL A   1      45.950  27.750  36.911  1.00  0.00     0.068 C 
ATOM     22  C   UNL A   1      45.182  26.492  36.542  1.00  0.00     0.073 C 
BRANCH  19  23
ATOM     23  C   UNL A   1      42.859  26.227  37.561  1.00  0.00     0.220 C 
BRANCH  23  24
ATOM     24  O   UNL A   1      43.459  26.222  38.857  1.00  0.00    -0.390 OA
ATOM     25  H   UNL A   1      44.424  26.169  38.766  1.00  0.00     0.210 HD
ENDBRANCH  23  24
ENDBRANCH  19  23
ENDBRANCH  16  17
ENDBRANCH  13  16
ENDBRANCH   8   9
ENDBRANCH   5   7
ENDBRANCH   4   5
ENDBRANCH   3   4
ENDBRANCH   2   3
ENDBRANCH   1   2
BRANCH   1  26
ATOM     26  C   UNL A   1      33.730  37.204  33.315  1.00  0.00     0.188 C 
BRANCH  26  27
ATOM     27  C   UNL A   1      32.910  36.781  32.085  1.00  0.00     0.188 C 
BRANCH  27  28
ATOM     28  O   UNL A   1      32.911  37.614  30.930  1.00  0.00    -0.376 OA
BRANCH  28  29
ATOM     29  C   UNL A   1      32.884  37.026  29.633  1.00  0.00     0.202 C 
BRANCH  29  30
ATOM     30  C   UNL A   1      33.137  35.522  29.514  1.00  0.00     0.261 C 
BRANCH  30  31
ATOM     31  O   UNL A   1      32.804  34.947  28.237  1.00  0.00    -0.460 OA
BRANCH  31  32
ATOM     32  C   UNL A   1      33.192  33.655  28.090  1.00  0.00     0.338 C 
ATOM     33  O   UNL A   1      32.632  32.775  27.465  1.00  0.00    -0.246 OA
BRANCH  32  34
ATOM     34  C   UNL A   1      34.475  33.422  28.770  1.00  0.00     0.060 A 
ATOM     35  C   UNL A   1      35.661  33.793  28.124  1.00  0.00     0.016 A 
ATOM     36  C   UNL A   1      34.505  32.655  29.935  1.00  0.00     0.016 A 
ATOM     37  C   UNL A   1      36.891  33.363  28.625  1.00  0.00     0.010 A 
ATOM     38  C   UNL A   1      35.736  32.210  30.421  1.00  0.00     0.010 A 
ATOM     39  C   UNL A   1      36.930  32.536  29.753  1.00  0.00    -0.014 A 
BRANCH  39  40
ATOM     40  C   UNL A   1      38.185  31.863  30.164  1.00  0.00     0.031 A 
ATOM     41  C   UNL A   1      39.110  32.571  31.114  1.00  0.00     0.074 A 
ATOM     42  C   UNL A   1      38.530  30.668  29.657  1.00  0.00     0.049 A 
ATOM     43  N   UNL A   1      40.332  32.267  31.465  1.00  0.00    -0.248 NA
ATOM     44  C   UNL A   1      38.585  33.792  31.747  1.00  0.00     0.031 C 
ATOM     45  C   UNL A   1      37.705  29.860  28.761  1.00  0.00     0.029 A 
ATOM     46  N   UNL A   1      39.687  29.946  29.799  1.00  0.00    -0.354 N 
ATOM     47  C   UNL A   1      40.733  33.268  32.338  1.00  0.00     0.074 A 
ATOM     48  C   UNL A   1      39.629  34.196  32.456  1.00  0.00     0.031 C 
ATOM     49  C   UNL A   1      38.396  28.763  28.410  1.00  0.00     0.029 A 
ATOM     50  C   UNL A   1      39.723  28.813  29.026  1.00  0.00     0.049 A 
ATOM     51  H   UNL A   1      40.422  30.214  30.397  1.00  0.00     0.167 HD
ATOM     52  C   UNL A   1      41.915  33.402  32.983  1.00  0.00     0.037 A 
ATOM     53  C   UNL A   1      40.723  27.937  28.809  1.00  0.00     0.037 A 
ATOM     54  C   UNL A   1      43.006  32.472  32.880  1.00  0.00     0.049 A 
ATOM     55  C   UNL A   1      42.055  28.139  29.478  1.00  0.00     0.074 A 
ATOM     56  C   UNL A   1      44.226  32.499  33.532  1.00  0.00     0.029 A 
ATOM     57  N   UNL A   1      43.009  31.350  32.067  1.00  0.00    -0.354 N 
ATOM     58  N   UNL A   1      42.427  29.087  30.304  1.00  0.00    -0.248 NA
ATOM     59  C   UNL A   1      43.111  27.161  29.175  1.00  0.00     0.031 C 
ATOM     60  C   UNL A   1      44.987  31.418  33.077  1.00  0.00     0.029 A 
ATOM     61  C   UNL A   1      44.224  30.695  32.174  1.00  0.00     0.049 A 
ATOM     62  H   UNL A   1      42.259  31.060  31.498  1.00  0.00     0.167 HD
ATOM     63  C   UNL A   1      43.751  28.814  30.629  1.00  0.00     0.074 A 
ATOM     64  C   UNL A   1      44.118  27.610  29.914  1.00  0.00     0.031 C 
ATOM     65  C   UNL A   1      44.582  29.501  31.450  1.00  0.00     0.037 A 
BRANCH  52  66
ATOM     66  C   UNL A   1      42.103  34.621  33.835  1.00  0.00     0.057 A 
ATOM     67  C   UNL A   1      42.691  35.775  33.302  1.00  0.00     0.134 A 
ATOM     68  C   UNL A   1      41.731  34.647  35.185  1.00  0.00     0.134 A 
ATOM     69  F   UNL A   1      43.071  35.812  32.016  1.00  0.00    -0.206 F 
ATOM     70  C   UNL A   1      42.905  36.911  34.082  1.00  0.00     0.040 A 
ATOM     71  C   UNL A   1      41.921  35.784  35.970  1.00  0.00     0.040 A 
ATOM     72  F   UNL A   1      41.150  33.577  35.749  1.00  0.00    -0.206 F 
ATOM     73  C   UNL A   1      42.515  36.920  35.420  1.00  0.00     0.006 A 
ENDBRANCH  52  66
BRANCH  53  74
ATOM     74  C   UNL A   1      40.494  26.794  27.893  1.00  0.00     0.057 A 
ATOM     75  C   UNL A   1      39.783  25.660  28.306  1.00  0.00     0.134 A 
ATOM     76  C   UNL A   1      41.027  26.792  26.601  1.00  0.00     0.134 A 
ATOM     77  F   UNL A   1      39.248  25.608  29.535  1.00  0.00    -0.206 F 
ATOM     78  C   UNL A   1      39.634  24.551  27.474  1.00  0.00     0.040 A 
ATOM     79  C   UNL A   1      40.870  25.697  25.751  1.00  0.00     0.040 A 
ATOM     80  F   UNL A   1      41.700  27.859  26.146  1.00  0.00    -0.206 F 
ATOM     81  C   UNL A   1      40.180  24.567  26.191  1.00  0.00     0.006 A 
ENDBRANCH  53  74
BRANCH  65  82
ATOM     82  C   UNL A   1      45.976  28.979  31.637  1.00  0.00     0.057 A 
ATOM     83  C   UNL A   1      47.009  29.381  30.781  1.00  0.00     0.134 A 
ATOM     84  C   UNL A   1      46.267  27.998  32.591  1.00  0.00     0.134 A 
ATOM     85  F   UNL A   1      46.790  30.310  29.838  1.00  0.00    -0.206 F 
ATOM     86  C   UNL A   1      48.280  28.808  30.854  1.00  0.00     0.040 A 
ATOM     87  C   UNL A   1      47.539  27.430  32.685  1.00  0.00     0.040 A 
ATOM     88  F   UNL A   1      45.320  27.577  33.443  1.00  0.00    -0.206 F 
ATOM     89  C   UNL A   1      48.546  27.827  31.808  1.00  0.00     0.006 A 
ENDBRANCH  65  82
ENDBRANCH  39  40
ENDBRANCH  32  34
ENDBRANCH  31  32
ENDBRANCH  30  31
ENDBRANCH  29  30
ENDBRANCH  28  29
ENDBRANCH  27  28
ENDBRANCH  26  27
ENDBRANCH   1  26
TORSDOF 22
ENDMDL
