MODEL 1
REMARK VINA RESULT:     -10.1      0.000      0.000
REMARK SMILES C[NH2+][C@@]1(C(=O)OCCOCCOCCOC(=O)c2ccc(-c3c4nc(c(-c5c(F)cccc5F)c5ccc([nH]5)c(-c5c(F)cccc5F)c5nc(c(-c6c(F)cccc6F)c6ccc3[nH]6)C=C5)C=C4)cc2)CC[C@H]([NH+]2CC[NH+](C)CC2)C1
REMARK SMILES IDX 11 1 10 2 9 3 8 4 7 5 6 6 4 7 5 8 3 9 72 10 82 11 73 12
REMARK SMILES IDX 74 13 2 14 1 15 75 18 76 19 81 20 77 22 80 23 78 24 79 25
REMARK SMILES IDX 12 27 13 28 14 29 15 30 16 31 17 32 18 33 19 34 71 35 20 36
REMARK SMILES IDX 70 37 21 38 22 39 23 40 64 41 24 42 69 43 63 44 65 45 25 46
REMARK SMILES IDX 68 47 62 48 61 49 26 51 52 52 35 53 51 54 36 55 39 56 50 57
REMARK SMILES IDX 66 58 37 59 38 60 49 62 67 63 40 64 27 65 28 66 33 67 29 68
REMARK SMILES IDX 30 69 32 70 34 71 31 72 53 73 54 74 59 75 55 76 56 77 58 78
REMARK SMILES IDX 60 79 57 80 41 81 42 82 47 83 43 84 44 85 46 86 48 87 45 88
REMARK H PARENT 2 16 2 17 75 21 78 26 65 50 39 61
REMARK Flexibility Score: inf
ROOT
ATOM      1  C   UNL A   1      39.816  19.916  25.766  1.00  0.00     0.188 C 
ENDROOT
BRANCH   1   2
ATOM      2  C   UNL A   1      39.315  21.364  25.826  1.00  0.00     0.188 C 
BRANCH   2   3
ATOM      3  O   UNL A   1      37.920  21.602  25.791  1.00  0.00    -0.376 OA
BRANCH   3   4
ATOM      4  C   UNL A   1      37.113  20.695  25.044  1.00  0.00     0.202 C 
BRANCH   4   5
ATOM      5  C   UNL A   1      35.658  21.103  24.791  1.00  0.00     0.261 C 
BRANCH   5   6
ATOM      6  O   UNL A   1      35.554  22.435  24.232  1.00  0.00    -0.459 OA
BRANCH   6   7
ATOM      7  C   UNL A   1      35.003  23.361  25.057  1.00  0.00     0.368 C 
ATOM      8  O   UNL A   1      35.679  24.079  25.792  1.00  0.00    -0.245 OA
BRANCH   7   9
ATOM      9  C   UNL A   1      33.445  23.534  24.933  1.00  0.00     0.200 C 
ATOM     10  C   UNL A   1      33.086  23.398  23.439  1.00  0.00     0.087 C 
ATOM     11  C   UNL A   1      32.815  24.904  25.255  1.00  0.00     0.146 C 
ATOM     12  C   UNL A   1      33.303  24.794  22.866  1.00  0.00     0.072 C 
ATOM     13  C   UNL A   1      32.845  25.756  23.968  1.00  0.00     0.191 C 
BRANCH   9  14
ATOM     14  N   UNL A   1      32.829  22.368  25.627  1.00  0.00    -0.334 N 
ATOM     15  C   UNL A   1      31.394  22.209  25.475  1.00  0.00     0.331 C 
ATOM     16  H   UNL A   1      33.273  21.523  25.268  1.00  0.00     0.347 HD
ATOM     17  H   UNL A   1      32.978  22.535  26.622  1.00  0.00     0.347 HD
ENDBRANCH   9  14
BRANCH  13  18
ATOM     18  N   UNL A   1      33.441  27.091  24.105  1.00  0.00    -0.323 N 
ATOM     19  C   UNL A   1      33.017  27.842  25.297  1.00  0.00     0.324 C 
ATOM     20  C   UNL A   1      33.391  27.999  22.952  1.00  0.00     0.324 C 
ATOM     21  H   UNL A   1      34.414  26.797  24.195  1.00  0.00     0.348 HD
ATOM     22  C   UNL A   1      31.673  28.595  25.156  1.00  0.00     0.324 C 
ATOM     23  C   UNL A   1      32.036  28.693  22.727  1.00  0.00     0.324 C 
ATOM     24  N   UNL A   1      31.519  29.386  23.918  1.00  0.00    -0.328 N 
ATOM     25  C   UNL A   1      30.116  29.752  23.720  1.00  0.00     0.333 C 
ATOM     26  H   UNL A   1      32.080  30.230  24.038  1.00  0.00     0.348 HD
ENDBRANCH  13  18
ENDBRANCH   7   9
ENDBRANCH   6   7
ENDBRANCH   5   6
ENDBRANCH   4   5
ENDBRANCH   3   4
ENDBRANCH   2   3
ENDBRANCH   1   2
BRANCH   1  27
ATOM     27  O   UNL A   1      41.159  19.585  25.506  1.00  0.00    -0.376 OA
BRANCH  27  28
ATOM     28  C   UNL A   1      42.211  20.071  26.320  1.00  0.00     0.202 C 
BRANCH  28  29
ATOM     29  C   UNL A   1      43.156  21.199  25.875  1.00  0.00     0.261 C 
BRANCH  29  30
ATOM     30  O   UNL A   1      42.532  22.307  25.223  1.00  0.00    -0.460 OA
BRANCH  30  31
ATOM     31  C   UNL A   1      43.311  23.411  25.095  1.00  0.00     0.338 C 
ATOM     32  O   UNL A   1      44.186  23.619  24.269  1.00  0.00    -0.246 OA
BRANCH  31  33
ATOM     33  C   UNL A   1      42.771  24.455  25.983  1.00  0.00     0.060 A 
ATOM     34  C   UNL A   1      43.439  25.689  26.037  1.00  0.00     0.016 A 
ATOM     35  C   UNL A   1      41.613  24.234  26.726  1.00  0.00     0.016 A 
ATOM     36  C   UNL A   1      42.949  26.708  26.847  1.00  0.00     0.010 A 
ATOM     37  C   UNL A   1      41.145  25.244  27.567  1.00  0.00     0.010 A 
ATOM     38  C   UNL A   1      41.825  26.472  27.646  1.00  0.00    -0.014 A 
BRANCH  38  39
ATOM     39  C   UNL A   1      41.501  27.412  28.741  1.00  0.00     0.031 A 
ATOM     40  C   UNL A   1      42.316  27.325  29.999  1.00  0.00     0.074 A 
ATOM     41  C   UNL A   1      40.516  28.318  28.622  1.00  0.00     0.049 A 
ATOM     42  N   UNL A   1      42.166  27.958  31.130  1.00  0.00    -0.248 NA
ATOM     43  C   UNL A   1      43.456  26.393  29.971  1.00  0.00     0.031 C 
ATOM     44  C   UNL A   1      39.703  28.538  27.428  1.00  0.00     0.029 A 
ATOM     45  N   UNL A   1      40.031  29.218  29.536  1.00  0.00    -0.354 N 
ATOM     46  C   UNL A   1      43.185  27.497  31.953  1.00  0.00     0.074 A 
ATOM     47  C   UNL A   1      43.936  26.518  31.198  1.00  0.00     0.031 C 
ATOM     48  C   UNL A   1      38.801  29.502  27.691  1.00  0.00     0.029 A 
ATOM     49  C   UNL A   1      38.953  29.934  29.080  1.00  0.00     0.049 A 
ATOM     50  H   UNL A   1      40.418  29.338  30.433  1.00  0.00     0.167 HD
ATOM     51  C   UNL A   1      43.469  27.855  33.226  1.00  0.00     0.037 A 
ATOM     52  C   UNL A   1      38.163  30.813  29.728  1.00  0.00     0.037 A 
ATOM     53  C   UNL A   1      42.711  28.814  33.979  1.00  0.00     0.049 A 
ATOM     54  C   UNL A   1      38.442  31.126  31.177  1.00  0.00     0.074 A 
ATOM     55  C   UNL A   1      42.906  29.237  35.281  1.00  0.00     0.029 A 
ATOM     56  N   UNL A   1      41.604  29.494  33.496  1.00  0.00    -0.354 N 
ATOM     57  N   UNL A   1      39.403  30.684  31.951  1.00  0.00    -0.248 NA
ATOM     58  C   UNL A   1      37.517  32.056  31.843  1.00  0.00     0.031 C 
ATOM     59  C   UNL A   1      41.889  30.143  35.600  1.00  0.00     0.029 A 
ATOM     60  C   UNL A   1      41.091  30.320  34.481  1.00  0.00     0.049 A 
ATOM     61  H   UNL A   1      41.238  29.403  32.586  1.00  0.00     0.167 HD
ATOM     62  C   UNL A   1      39.217  31.301  33.183  1.00  0.00     0.074 A 
ATOM     63  C   UNL A   1      38.057  32.157  33.050  1.00  0.00     0.031 C 
ATOM     64  C   UNL A   1      39.941  31.173  34.323  1.00  0.00     0.037 A 
BRANCH  51  65
ATOM     65  C   UNL A   1      44.625  27.166  33.884  1.00  0.00     0.057 A 
ATOM     66  C   UNL A   1      44.471  25.955  34.571  1.00  0.00     0.134 A 
ATOM     67  C   UNL A   1      45.908  27.724  33.833  1.00  0.00     0.134 A 
ATOM     68  F   UNL A   1      43.262  25.382  34.677  1.00  0.00    -0.206 F 
ATOM     69  C   UNL A   1      45.550  25.335  35.203  1.00  0.00     0.040 A 
ATOM     70  C   UNL A   1      46.998  27.101  34.439  1.00  0.00     0.040 A 
ATOM     71  F   UNL A   1      46.120  28.885  33.195  1.00  0.00    -0.206 F 
ATOM     72  C   UNL A   1      46.819  25.906  35.133  1.00  0.00     0.006 A 
ENDBRANCH  51  65
BRANCH  52  73
ATOM     73  C   UNL A   1      37.010  31.439  29.033  1.00  0.00     0.057 A 
ATOM     74  C   UNL A   1      37.065  32.765  28.587  1.00  0.00     0.134 A 
ATOM     75  C   UNL A   1      35.813  30.741  28.834  1.00  0.00     0.134 A 
ATOM     76  F   UNL A   1      38.175  33.494  28.774  1.00  0.00    -0.206 F 
ATOM     77  C   UNL A   1      35.966  33.381  27.987  1.00  0.00     0.040 A 
ATOM     78  C   UNL A   1      34.714  31.337  28.212  1.00  0.00     0.040 A 
ATOM     79  F   UNL A   1      35.694  29.470  29.241  1.00  0.00    -0.206 F 
ATOM     80  C   UNL A   1      34.786  32.664  27.795  1.00  0.00     0.006 A 
ENDBRANCH  52  73
BRANCH  64  81
ATOM     81  C   UNL A   1      39.528  32.006  35.501  1.00  0.00     0.057 A 
ATOM     82  C   UNL A   1      38.627  31.531  36.461  1.00  0.00     0.134 A 
ATOM     83  C   UNL A   1      40.085  33.275  35.703  1.00  0.00     0.134 A 
ATOM     84  F   UNL A   1      38.052  30.328  36.321  1.00  0.00    -0.206 F 
ATOM     85  C   UNL A   1      38.280  32.299  37.574  1.00  0.00     0.040 A 
ATOM     86  C   UNL A   1      39.764  34.042  36.824  1.00  0.00     0.040 A 
ATOM     87  F   UNL A   1      40.962  33.782  34.824  1.00  0.00    -0.206 F 
ATOM     88  C   UNL A   1      38.855  33.555  37.762  1.00  0.00     0.006 A 
ENDBRANCH  64  81
ENDBRANCH  38  39
ENDBRANCH  31  33
ENDBRANCH  30  31
ENDBRANCH  29  30
ENDBRANCH  28  29
ENDBRANCH  27  28
ENDBRANCH   1  27
TORSDOF 19
ENDMDL
MODEL 2
REMARK VINA RESULT:     -10.0      2.639      7.896
REMARK SMILES C[NH2+][C@@]1(C(=O)OCCOCCOCCOC(=O)c2ccc(-c3c4nc(c(-c5c(F)cccc5F)c5ccc([nH]5)c(-c5c(F)cccc5F)c5nc(c(-c6c(F)cccc6F)c6ccc3[nH]6)C=C5)C=C4)cc2)CC[C@H]([NH+]2CC[NH+](C)CC2)C1
REMARK SMILES IDX 11 1 10 2 9 3 8 4 7 5 6 6 4 7 5 8 3 9 72 10 82 11 73 12
REMARK SMILES IDX 74 13 2 14 1 15 75 18 76 19 81 20 77 22 80 23 78 24 79 25
REMARK SMILES IDX 12 27 13 28 14 29 15 30 16 31 17 32 18 33 19 34 71 35 20 36
REMARK SMILES IDX 70 37 21 38 22 39 23 40 64 41 24 42 69 43 63 44 65 45 25 46
REMARK SMILES IDX 68 47 62 48 61 49 26 51 52 52 35 53 51 54 36 55 39 56 50 57
REMARK SMILES IDX 66 58 37 59 38 60 49 62 67 63 40 64 27 65 28 66 33 67 29 68
REMARK SMILES IDX 30 69 32 70 34 71 31 72 53 73 54 74 59 75 55 76 56 77 58 78
REMARK SMILES IDX 60 79 57 80 41 81 42 82 47 83 43 84 44 85 46 86 48 87 45 88
REMARK H PARENT 2 16 2 17 75 21 78 26 65 50 39 61
REMARK Flexibility Score: inf
ROOT
ATOM      1  C   UNL A   1      32.634  29.838  26.144  1.00  0.00     0.188 C 
ENDROOT
BRANCH   1   2
ATOM      2  C   UNL A   1      32.401  28.383  26.567  1.00  0.00     0.188 C 
BRANCH   2   3
ATOM      3  O   UNL A   1      33.034  27.353  25.830  1.00  0.00    -0.376 OA
BRANCH   3   4
ATOM      4  C   UNL A   1      32.805  26.008  26.243  1.00  0.00     0.202 C 
BRANCH   4   5
ATOM      5  C   UNL A   1      33.399  24.899  25.368  1.00  0.00     0.261 C 
BRANCH   5   6
ATOM      6  O   UNL A   1      34.005  25.421  24.162  1.00  0.00    -0.459 OA
BRANCH   6   7
ATOM      7  C   UNL A   1      34.044  24.554  23.118  1.00  0.00     0.368 C 
ATOM      8  O   UNL A   1      35.030  23.863  22.868  1.00  0.00    -0.245 OA
BRANCH   7   9
ATOM      9  C   UNL A   1      32.703  24.409  22.310  1.00  0.00     0.200 C 
ATOM     10  C   UNL A   1      32.901  25.131  20.961  1.00  0.00     0.087 C 
ATOM     11  C   UNL A   1      31.435  25.116  22.829  1.00  0.00     0.146 C 
ATOM     12  C   UNL A   1      32.582  26.592  21.259  1.00  0.00     0.072 C 
ATOM     13  C   UNL A   1      31.426  26.552  22.264  1.00  0.00     0.191 C 
BRANCH   9  14
ATOM     14  N   UNL A   1      32.547  22.960  21.998  1.00  0.00    -0.334 N 
ATOM     15  C   UNL A   1      31.911  22.145  23.016  1.00  0.00     0.331 C 
ATOM     16  H   UNL A   1      31.988  22.885  21.147  1.00  0.00     0.347 HD
ATOM     17  H   UNL A   1      33.496  22.597  21.914  1.00  0.00     0.347 HD
ENDBRANCH   9  14
BRANCH  13  18
ATOM     18  N   UNL A   1      31.245  27.621  23.255  1.00  0.00    -0.323 N 
ATOM     19  C   UNL A   1      29.934  27.635  23.922  1.00  0.00     0.324 C 
ATOM     20  C   UNL A   1      31.572  28.998  22.864  1.00  0.00     0.324 C 
ATOM     21  H   UNL A   1      31.974  27.329  23.906  1.00  0.00     0.348 HD
ATOM     22  C   UNL A   1      28.804  28.344  23.138  1.00  0.00     0.324 C 
ATOM     23  C   UNL A   1      30.509  29.701  22.001  1.00  0.00     0.324 C 
ATOM     24  N   UNL A   1      29.156  29.665  22.579  1.00  0.00    -0.328 N 
ATOM     25  C   UNL A   1      28.168  30.074  21.580  1.00  0.00     0.333 C 
ATOM     26  H   UNL A   1      29.149  30.324  23.358  1.00  0.00     0.348 HD
ENDBRANCH  13  18
ENDBRANCH   7   9
ENDBRANCH   6   7
ENDBRANCH   5   6
ENDBRANCH   4   5
ENDBRANCH   3   4
ENDBRANCH   2   3
ENDBRANCH   1   2
BRANCH   1  27
ATOM     27  O   UNL A   1      32.614  30.908  27.059  1.00  0.00    -0.376 OA
BRANCH  27  28
ATOM     28  C   UNL A   1      31.755  32.018  26.878  1.00  0.00     0.202 C 
BRANCH  28  29
ATOM     29  C   UNL A   1      32.217  33.472  27.074  1.00  0.00     0.261 C 
BRANCH  29  30
ATOM     30  O   UNL A   1      32.472  33.861  28.425  1.00  0.00    -0.460 OA
BRANCH  30  31
ATOM     31  C   UNL A   1      33.578  34.629  28.602  1.00  0.00     0.338 C 
ATOM     32  O   UNL A   1      33.643  35.846  28.666  1.00  0.00    -0.246 OA
BRANCH  31  33
ATOM     33  C   UNL A   1      34.699  33.739  28.950  1.00  0.00     0.060 A 
ATOM     34  C   UNL A   1      34.400  32.464  29.456  1.00  0.00     0.016 A 
ATOM     35  C   UNL A   1      36.019  34.140  28.755  1.00  0.00     0.016 A 
ATOM     36  C   UNL A   1      35.429  31.585  29.776  1.00  0.00     0.010 A 
ATOM     37  C   UNL A   1      37.051  33.272  29.112  1.00  0.00     0.010 A 
ATOM     38  C   UNL A   1      36.758  32.005  29.645  1.00  0.00    -0.014 A 
BRANCH  38  39
ATOM     39  C   UNL A   1      37.835  31.221  30.287  1.00  0.00     0.031 A 
ATOM     40  C   UNL A   1      38.126  31.492  31.735  1.00  0.00     0.074 A 
ATOM     41  C   UNL A   1      38.530  30.293  29.609  1.00  0.00     0.049 A 
ATOM     42  N   UNL A   1      39.078  31.018  32.493  1.00  0.00    -0.248 NA
ATOM     43  C   UNL A   1      37.214  32.426  32.418  1.00  0.00     0.031 C 
ATOM     44  C   UNL A   1      38.296  29.899  28.222  1.00  0.00     0.029 A 
ATOM     45  N   UNL A   1      39.592  29.522  30.007  1.00  0.00    -0.354 N 
ATOM     46  C   UNL A   1      38.887  31.603  33.739  1.00  0.00     0.074 A 
ATOM     47  C   UNL A   1      37.741  32.478  33.631  1.00  0.00     0.031 C 
ATOM     48  C   UNL A   1      39.204  28.969  27.876  1.00  0.00     0.029 A 
ATOM     49  C   UNL A   1      40.103  28.735  29.005  1.00  0.00     0.049 A 
ATOM     50  H   UNL A   1      39.954  29.532  30.922  1.00  0.00     0.167 HD
ATOM     51  C   UNL A   1      39.605  31.428  34.871  1.00  0.00     0.037 A 
ATOM     52  C   UNL A   1      41.194  27.944  28.999  1.00  0.00     0.037 A 
ATOM     53  C   UNL A   1      40.753  30.571  34.970  1.00  0.00     0.049 A 
ATOM     54  C   UNL A   1      42.035  27.837  30.247  1.00  0.00     0.074 A 
ATOM     55  C   UNL A   1      41.560  30.335  36.068  1.00  0.00     0.029 A 
ATOM     56  N   UNL A   1      41.262  29.816  33.925  1.00  0.00    -0.354 N 
ATOM     57  N   UNL A   1      41.853  28.395  31.420  1.00  0.00    -0.248 NA
ATOM     58  C   UNL A   1      43.238  26.996  30.165  1.00  0.00     0.031 C 
ATOM     59  C   UNL A   1      42.585  29.468  35.675  1.00  0.00     0.029 A 
ATOM     60  C   UNL A   1      42.387  29.128  34.346  1.00  0.00     0.049 A 
ATOM     61  H   UNL A   1      40.880  29.775  33.019  1.00  0.00     0.167 HD
ATOM     62  C   UNL A   1      42.898  27.951  32.221  1.00  0.00     0.074 A 
ATOM     63  C   UNL A   1      43.706  27.070  31.404  1.00  0.00     0.031 C 
ATOM     64  C   UNL A   1      43.168  28.245  33.518  1.00  0.00     0.037 A 
BRANCH  51  65
ATOM     65  C   UNL A   1      39.183  32.216  36.073  1.00  0.00     0.057 A 
ATOM     66  C   UNL A   1      39.674  33.504  36.323  1.00  0.00     0.134 A 
ATOM     67  C   UNL A   1      38.275  31.678  36.993  1.00  0.00     0.134 A 
ATOM     68  F   UNL A   1      40.566  34.065  35.492  1.00  0.00    -0.206 F 
ATOM     69  C   UNL A   1      39.293  34.220  37.459  1.00  0.00     0.040 A 
ATOM     70  C   UNL A   1      37.868  32.394  38.118  1.00  0.00     0.040 A 
ATOM     71  F   UNL A   1      37.772  30.448  36.812  1.00  0.00    -0.206 F 
ATOM     72  C   UNL A   1      38.383  33.666  38.357  1.00  0.00     0.006 A 
ENDBRANCH  51  65
BRANCH  52  73
ATOM     73  C   UNL A   1      41.583  27.212  27.767  1.00  0.00     0.057 A 
ATOM     74  C   UNL A   1      42.342  27.828  26.766  1.00  0.00     0.134 A 
ATOM     75  C   UNL A   1      41.170  25.892  27.544  1.00  0.00     0.134 A 
ATOM     76  F   UNL A   1      42.743  29.099  26.910  1.00  0.00    -0.206 F 
ATOM     77  C   UNL A   1      42.659  27.168  25.578  1.00  0.00     0.040 A 
ATOM     78  C   UNL A   1      41.502  25.211  26.371  1.00  0.00     0.040 A 
ATOM     79  F   UNL A   1      40.437  25.247  28.462  1.00  0.00    -0.206 F 
ATOM     80  C   UNL A   1      42.242  25.853  25.380  1.00  0.00     0.006 A 
ENDBRANCH  52  73
BRANCH  64  81
ATOM     81  C   UNL A   1      44.358  27.578  34.145  1.00  0.00     0.057 A 
ATOM     82  C   UNL A   1      44.269  26.312  34.735  1.00  0.00     0.134 A 
ATOM     83  C   UNL A   1      45.617  28.190  34.104  1.00  0.00     0.134 A 
ATOM     84  F   UNL A   1      43.090  25.678  34.814  1.00  0.00    -0.206 F 
ATOM     85  C   UNL A   1      45.390  25.684  35.280  1.00  0.00     0.040 A 
ATOM     86  C   UNL A   1      46.750  27.561  34.624  1.00  0.00     0.040 A 
ATOM     87  F   UNL A   1      45.771  29.398  33.543  1.00  0.00    -0.206 F 
ATOM     88  C   UNL A   1      46.637  26.306  35.218  1.00  0.00     0.006 A 
ENDBRANCH  64  81
ENDBRANCH  38  39
ENDBRANCH  31  33
ENDBRANCH  30  31
ENDBRANCH  29  30
ENDBRANCH  28  29
ENDBRANCH  27  28
ENDBRANCH   1  27
TORSDOF 19
ENDMDL
MODEL 3
REMARK VINA RESULT:      -9.8      4.526      9.789
REMARK SMILES C[NH2+][C@@]1(C(=O)OCCOCCOCCOC(=O)c2ccc(-c3c4nc(c(-c5c(F)cccc5F)c5ccc([nH]5)c(-c5c(F)cccc5F)c5nc(c(-c6c(F)cccc6F)c6ccc3[nH]6)C=C5)C=C4)cc2)CC[C@H]([NH+]2CC[NH+](C)CC2)C1
REMARK SMILES IDX 11 1 10 2 9 3 8 4 7 5 6 6 4 7 5 8 3 9 72 10 82 11 73 12
REMARK SMILES IDX 74 13 2 14 1 15 75 18 76 19 81 20 77 22 80 23 78 24 79 25
REMARK SMILES IDX 12 27 13 28 14 29 15 30 16 31 17 32 18 33 19 34 71 35 20 36
REMARK SMILES IDX 70 37 21 38 22 39 23 40 64 41 24 42 69 43 63 44 65 45 25 46
REMARK SMILES IDX 68 47 62 48 61 49 26 51 52 52 35 53 51 54 36 55 39 56 50 57
REMARK SMILES IDX 66 58 37 59 38 60 49 62 67 63 40 64 27 65 28 66 33 67 29 68
REMARK SMILES IDX 30 69 32 70 34 71 31 72 53 73 54 74 59 75 55 76 56 77 58 78
REMARK SMILES IDX 60 79 57 80 41 81 42 82 47 83 43 84 44 85 46 86 48 87 45 88
REMARK H PARENT 2 16 2 17 75 21 78 26 65 50 39 61
REMARK Flexibility Score: inf
ROOT
ATOM      1  C   UNL A   1      34.475  33.150  28.268  1.00  0.00     0.188 C 
ENDROOT
BRANCH   1   2
ATOM      2  C   UNL A   1      34.222  31.642  28.156  1.00  0.00     0.188 C 
BRANCH   2   3
ATOM      3  O   UNL A   1      33.249  31.183  27.236  1.00  0.00    -0.376 OA
BRANCH   3   4
ATOM      4  C   UNL A   1      33.357  29.839  26.774  1.00  0.00     0.202 C 
BRANCH   4   5
ATOM      5  C   UNL A   1      32.109  29.218  26.137  1.00  0.00     0.261 C 
BRANCH   5   6
ATOM      6  O   UNL A   1      32.425  28.045  25.350  1.00  0.00    -0.459 OA
BRANCH   6   7
ATOM      7  C   UNL A   1      31.540  27.764  24.360  1.00  0.00     0.368 C 
ATOM      8  O   UNL A   1      30.577  28.486  24.108  1.00  0.00    -0.245 OA
BRANCH   7   9
ATOM      9  C   UNL A   1      31.887  26.507  23.481  1.00  0.00     0.200 C 
ATOM     10  C   UNL A   1      30.738  25.492  23.659  1.00  0.00     0.087 C 
ATOM     11  C   UNL A   1      33.100  25.636  23.863  1.00  0.00     0.146 C 
ATOM     12  C   UNL A   1      31.100  24.726  24.927  1.00  0.00     0.072 C 
ATOM     13  C   UNL A   1      32.625  24.582  24.887  1.00  0.00     0.191 C 
BRANCH   9  14
ATOM     14  N   UNL A   1      31.843  26.954  22.060  1.00  0.00    -0.334 N 
ATOM     15  C   UNL A   1      32.175  25.958  21.058  1.00  0.00     0.331 C 
ATOM     16  H   UNL A   1      30.896  27.282  21.867  1.00  0.00     0.347 HD
ATOM     17  H   UNL A   1      32.564  27.670  21.979  1.00  0.00     0.347 HD
ENDBRANCH   9  14
BRANCH  13  18
ATOM     18  N   UNL A   1      33.412  24.501  26.125  1.00  0.00    -0.323 N 
ATOM     19  C   UNL A   1      34.839  24.824  25.976  1.00  0.00     0.324 C 
ATOM     20  C   UNL A   1      33.302  23.288  26.944  1.00  0.00     0.324 C 
ATOM     21  H   UNL A   1      32.931  25.239  26.640  1.00  0.00     0.348 HD
ATOM     22  C   UNL A   1      35.730  23.658  25.484  1.00  0.00     0.324 C 
ATOM     23  C   UNL A   1      34.101  22.078  26.428  1.00  0.00     0.324 C 
ATOM     24  N   UNL A   1      35.521  22.369  26.175  1.00  0.00    -0.328 N 
ATOM     25  C   UNL A   1      36.132  21.279  25.413  1.00  0.00     0.333 C 
ATOM     26  H   UNL A   1      35.974  22.448  27.085  1.00  0.00     0.348 HD
ENDBRANCH  13  18
ENDBRANCH   7   9
ENDBRANCH   6   7
ENDBRANCH   5   6
ENDBRANCH   4   5
ENDBRANCH   3   4
ENDBRANCH   2   3
ENDBRANCH   1   2
BRANCH   1  27
ATOM     27  O   UNL A   1      33.755  33.979  29.149  1.00  0.00    -0.376 OA
BRANCH  27  28
ATOM     28  C   UNL A   1      34.271  34.332  30.419  1.00  0.00     0.202 C 
BRANCH  28  29
ATOM     29  C   UNL A   1      34.028  33.488  31.681  1.00  0.00     0.261 C 
BRANCH  29  30
ATOM     30  O   UNL A   1      34.842  32.321  31.809  1.00  0.00    -0.460 OA
BRANCH  30  31
ATOM     31  C   UNL A   1      36.016  32.508  32.465  1.00  0.00     0.338 C 
ATOM     32  O   UNL A   1      36.194  33.047  33.545  1.00  0.00    -0.246 OA
BRANCH  31  33
ATOM     33  C   UNL A   1      37.057  31.734  31.766  1.00  0.00     0.060 A 
ATOM     34  C   UNL A   1      37.924  30.943  32.536  1.00  0.00     0.016 A 
ATOM     35  C   UNL A   1      37.158  31.764  30.376  1.00  0.00     0.016 A 
ATOM     36  C   UNL A   1      38.905  30.180  31.912  1.00  0.00     0.010 A 
ATOM     37  C   UNL A   1      38.167  31.027  29.755  1.00  0.00     0.010 A 
ATOM     38  C   UNL A   1      39.056  30.255  30.523  1.00  0.00    -0.014 A 
BRANCH  38  39
ATOM     39  C   UNL A   1      40.285  29.724  29.895  1.00  0.00     0.031 A 
ATOM     40  C   UNL A   1      41.425  30.676  29.680  1.00  0.00     0.074 A 
ATOM     41  C   UNL A   1      40.388  28.435  29.531  1.00  0.00     0.049 A 
ATOM     42  N   UNL A   1      42.560  30.486  29.062  1.00  0.00    -0.248 NA
ATOM     43  C   UNL A   1      41.258  32.028  30.240  1.00  0.00     0.031 C 
ATOM     44  C   UNL A   1      39.374  27.406  29.747  1.00  0.00     0.029 A 
ATOM     45  N   UNL A   1      41.406  27.780  28.886  1.00  0.00    -0.354 N 
ATOM     46  C   UNL A   1      43.239  31.695  29.151  1.00  0.00     0.074 A 
ATOM     47  C   UNL A   1      42.383  32.616  29.866  1.00  0.00     0.031 C 
ATOM     48  C   UNL A   1      39.814  26.247  29.224  1.00  0.00     0.029 A 
ATOM     49  C   UNL A   1      41.121  26.467  28.605  1.00  0.00     0.049 A 
ATOM     50  H   UNL A   1      42.259  28.210  28.647  1.00  0.00     0.167 HD
ATOM     51  C   UNL A   1      44.465  32.010  28.677  1.00  0.00     0.037 A 
ATOM     52  C   UNL A   1      41.826  25.562  27.897  1.00  0.00     0.037 A 
ATOM     53  C   UNL A   1      45.305  31.098  27.952  1.00  0.00     0.049 A 
ATOM     54  C   UNL A   1      43.150  25.965  27.297  1.00  0.00     0.074 A 
ATOM     55  C   UNL A   1      46.560  31.323  27.415  1.00  0.00     0.029 A 
ATOM     56  N   UNL A   1      44.968  29.787  27.656  1.00  0.00    -0.354 N 
ATOM     57  N   UNL A   1      43.785  27.110  27.380  1.00  0.00    -0.248 NA
ATOM     58  C   UNL A   1      43.850  24.949  26.497  1.00  0.00     0.031 C 
ATOM     59  C   UNL A   1      46.965  30.157  26.756  1.00  0.00     0.029 A 
ATOM     60  C   UNL A   1      45.983  29.194  26.925  1.00  0.00     0.049 A 
ATOM     61  H   UNL A   1      44.132  29.343  27.927  1.00  0.00     0.167 HD
ATOM     62  C   UNL A   1      44.968  26.943  26.670  1.00  0.00     0.074 A 
ATOM     63  C   UNL A   1      44.968  25.584  26.170  1.00  0.00     0.031 C 
ATOM     64  C   UNL A   1      45.967  27.834  26.449  1.00  0.00     0.037 A 
BRANCH  51  65
ATOM     65  C   UNL A   1      44.940  33.413  28.897  1.00  0.00     0.057 A 
ATOM     66  C   UNL A   1      45.700  33.770  30.019  1.00  0.00     0.134 A 
ATOM     67  C   UNL A   1      44.629  34.422  27.977  1.00  0.00     0.134 A 
ATOM     68  F   UNL A   1      46.009  32.854  30.950  1.00  0.00    -0.206 F 
ATOM     69  C   UNL A   1      46.116  35.086  30.228  1.00  0.00     0.040 A 
ATOM     70  C   UNL A   1      45.060  35.735  28.162  1.00  0.00     0.040 A 
ATOM     71  F   UNL A   1      43.900  34.145  26.885  1.00  0.00    -0.206 F 
ATOM     72  C   UNL A   1      45.800  36.071  29.294  1.00  0.00     0.006 A 
ENDBRANCH  51  65
BRANCH  52  73
ATOM     73  C   UNL A   1      41.289  24.195  27.683  1.00  0.00     0.057 A 
ATOM     74  C   UNL A   1      41.829  23.091  28.353  1.00  0.00     0.134 A 
ATOM     75  C   UNL A   1      40.252  23.954  26.774  1.00  0.00     0.134 A 
ATOM     76  F   UNL A   1      42.843  23.254  29.215  1.00  0.00    -0.206 F 
ATOM     77  C   UNL A   1      41.371  21.794  28.112  1.00  0.00     0.040 A 
ATOM     78  C   UNL A   1      39.767  22.665  26.542  1.00  0.00     0.040 A 
ATOM     79  F   UNL A   1      39.695  24.968  26.097  1.00  0.00    -0.206 F 
ATOM     80  C   UNL A   1      40.334  21.580  27.207  1.00  0.00     0.006 A 
ENDBRANCH  52  73
BRANCH  64  81
ATOM     81  C   UNL A   1      47.159  27.357  25.672  1.00  0.00     0.057 A 
ATOM     82  C   UNL A   1      48.199  26.643  26.278  1.00  0.00     0.134 A 
ATOM     83  C   UNL A   1      47.236  27.568  24.289  1.00  0.00     0.134 A 
ATOM     84  F   UNL A   1      48.190  26.416  27.600  1.00  0.00    -0.206 F 
ATOM     85  C   UNL A   1      49.284  26.170  25.538  1.00  0.00     0.040 A 
ATOM     86  C   UNL A   1      48.303  27.079  23.535  1.00  0.00     0.040 A 
ATOM     87  F   UNL A   1      46.266  28.236  23.647  1.00  0.00    -0.206 F 
ATOM     88  C   UNL A   1      49.334  26.381  24.161  1.00  0.00     0.006 A 
ENDBRANCH  64  81
ENDBRANCH  38  39
ENDBRANCH  31  33
ENDBRANCH  30  31
ENDBRANCH  29  30
ENDBRANCH  28  29
ENDBRANCH  27  28
ENDBRANCH   1  27
TORSDOF 19
ENDMDL
