MODEL 1
REMARK VINA RESULT:     -10.9      0.000      0.000
REMARK SMILES COc1c(C)cccc1C(=O)NCc1ccc(C(=O)OCCOCCOCCOC(=O)c2ccc(-c3c4nc(c(-c5c(F)cccc5F)c5ccc([nH]5)c(-c5c(F)cccc5F)c5nc(c(-c6c(F)cccc6F)c6ccc3[nH]6)C=C5)C=C4)cc2)cc1
REMARK SMILES IDX 24 1 23 2 22 3 21 4 20 5 18 6 19 7 17 8 14 9 15 10 87 11
REMARK SMILES IDX 16 12 86 13 13 14 12 15 10 16 11 17 9 19 3 20 4 21 5 22 6 23
REMARK SMILES IDX 8 24 7 25 2 26 1 27 25 28 26 29 27 30 28 31 29 32 30 33
REMARK SMILES IDX 31 34 32 35 33 36 85 37 34 38 84 39 35 40 36 41 37 42 78 43
REMARK SMILES IDX 38 44 83 45 77 46 79 47 39 48 82 49 76 50 75 51 40 53 66 54
REMARK SMILES IDX 49 55 65 56 50 57 53 58 64 59 80 60 51 61 52 62 63 64 81 65
REMARK SMILES IDX 54 66 41 67 42 68 47 69 43 70 44 71 46 72 48 73 45 74 67 75
REMARK SMILES IDX 68 76 73 77 69 78 70 79 72 80 74 81 71 82 55 83 56 84 61 85
REMARK SMILES IDX 57 86 58 87 60 88 62 89 59 90
REMARK H PARENT 12 18 79 52 53 63
REMARK Flexibility Score: inf
ROOT
ATOM      1  C   UNL A   1      33.101  29.123  25.479  1.00  0.00     0.188 C 
ENDROOT
BRANCH   1   2
ATOM      2  O   UNL A   1      33.421  29.700  24.213  1.00  0.00    -0.376 OA
BRANCH   2   3
ATOM      3  C   UNL A   1      33.513  28.808  23.086  1.00  0.00     0.202 C 
BRANCH   3   4
ATOM      4  C   UNL A   1      32.675  27.519  23.194  1.00  0.00     0.261 C 
BRANCH   4   5
ATOM      5  O   UNL A   1      32.179  26.859  21.967  1.00  0.00    -0.460 OA
BRANCH   5   6
ATOM      6  C   UNL A   1      32.614  25.704  21.369  1.00  0.00     0.338 C 
ATOM      7  O   UNL A   1      33.054  25.646  20.234  1.00  0.00    -0.246 OA
BRANCH   6   8
ATOM      8  C   UNL A   1      32.399  24.443  22.286  1.00  0.00     0.060 A 
ATOM      9  C   UNL A   1      32.165  22.056  23.920  1.00  0.00    -0.029 A 
ATOM     10  C   UNL A   1      33.277  22.261  23.155  1.00  0.00     0.006 A 
ATOM     11  C   UNL A   1      31.143  23.033  23.845  1.00  0.00     0.006 A 
ATOM     12  C   UNL A   1      33.370  23.435  22.437  1.00  0.00     0.016 A 
ATOM     13  C   UNL A   1      31.255  24.211  23.031  1.00  0.00     0.016 A 
BRANCH   9  14
ATOM     14  C   UNL A   1      32.248  20.890  24.860  1.00  0.00     0.152 C 
BRANCH  14  15
ATOM     15  N   UNL A   1      32.269  21.185  26.269  1.00  0.00    -0.348 N 
ATOM     16  C   UNL A   1      32.728  22.260  26.988  1.00  0.00     0.255 C 
ATOM     17  O   UNL A   1      32.338  22.371  28.153  1.00  0.00    -0.269 OA
ATOM     18  H   UNL A   1      31.878  20.475  26.827  1.00  0.00     0.164 HD
BRANCH  16  19
ATOM     19  C   UNL A   1      33.792  23.191  26.533  1.00  0.00     0.082 A 
ATOM     20  C   UNL A   1      35.093  22.797  26.120  1.00  0.00     0.134 A 
ATOM     21  C   UNL A   1      35.909  23.749  25.452  1.00  0.00    -0.008 A 
ATOM     22  C   UNL A   1      37.268  23.559  24.819  1.00  0.00     0.048 C 
ATOM     23  C   UNL A   1      35.382  25.042  25.207  1.00  0.00     0.007 A 
ATOM     24  C   UNL A   1      33.311  24.485  26.265  1.00  0.00     0.018 A 
ATOM     25  C   UNL A   1      34.104  25.409  25.604  1.00  0.00     0.001 A 
BRANCH  20  26
ATOM     26  O   UNL A   1      35.367  21.481  26.374  1.00  0.00    -0.496 OA
ATOM     27  C   UNL A   1      35.788  20.621  25.331  1.00  0.00     0.278 C 
ENDBRANCH  20  26
ENDBRANCH  16  19
ENDBRANCH  14  15
ENDBRANCH   9  14
ENDBRANCH   6   8
ENDBRANCH   5   6
ENDBRANCH   4   5
ENDBRANCH   3   4
ENDBRANCH   2   3
ENDBRANCH   1   2
BRANCH   1  28
ATOM     28  C   UNL A   1      31.793  29.601  26.108  1.00  0.00     0.188 C 
BRANCH  28  29
ATOM     29  O   UNL A   1      32.063  30.833  26.769  1.00  0.00    -0.376 OA
BRANCH  29  30
ATOM     30  C   UNL A   1      33.323  30.914  27.420  1.00  0.00     0.202 C 
BRANCH  30  31
ATOM     31  C   UNL A   1      33.610  32.322  27.960  1.00  0.00     0.261 C 
BRANCH  31  32
ATOM     32  O   UNL A   1      34.387  32.219  29.172  1.00  0.00    -0.460 OA
BRANCH  32  33
ATOM     33  C   UNL A   1      35.743  32.256  29.036  1.00  0.00     0.338 C 
ATOM     34  O   UNL A   1      36.406  33.265  28.828  1.00  0.00    -0.246 OA
BRANCH  33  35
ATOM     35  C   UNL A   1      36.271  30.862  28.885  1.00  0.00     0.060 A 
ATOM     36  C   UNL A   1      36.510  30.028  29.979  1.00  0.00     0.016 A 
ATOM     37  C   UNL A   1      36.885  30.520  27.710  1.00  0.00     0.016 A 
ATOM     38  C   UNL A   1      37.476  28.968  29.902  1.00  0.00     0.010 A 
ATOM     39  C   UNL A   1      38.001  29.678  27.799  1.00  0.00     0.010 A 
ATOM     40  C   UNL A   1      38.379  28.818  28.832  1.00  0.00    -0.014 A 
BRANCH  40  41
ATOM     41  C   UNL A   1      39.830  28.177  28.939  1.00  0.00     0.031 A 
ATOM     42  C   UNL A   1      40.515  26.734  28.662  1.00  0.00     0.074 A 
ATOM     43  C   UNL A   1      40.770  29.087  29.309  1.00  0.00     0.049 A 
ATOM     44  N   UNL A   1      41.651  26.355  29.233  1.00  0.00    -0.248 NA
ATOM     45  C   UNL A   1      40.107  25.583  27.825  1.00  0.00     0.031 C 
ATOM     46  C   UNL A   1      42.218  29.009  29.169  1.00  0.00     0.029 A 
ATOM     47  N   UNL A   1      40.584  30.215  30.121  1.00  0.00    -0.354 N 
ATOM     48  C   UNL A   1      42.121  25.228  28.553  1.00  0.00     0.074 A 
ATOM     49  C   UNL A   1      40.999  24.615  27.984  1.00  0.00     0.031 C 
ATOM     50  C   UNL A   1      42.779  29.779  30.113  1.00  0.00     0.029 A 
ATOM     51  C   UNL A   1      41.712  30.293  30.948  1.00  0.00     0.049 A 
ATOM     52  H   UNL A   1      39.815  30.828  30.112  1.00  0.00     0.167 HD
ATOM     53  C   UNL A   1      43.428  25.014  28.231  1.00  0.00     0.037 A 
ATOM     54  C   UNL A   1      41.616  30.232  32.305  1.00  0.00     0.037 A 
ATOM     55  C   UNL A   1      44.290  25.731  29.121  1.00  0.00     0.049 A 
ATOM     56  C   UNL A   1      42.525  29.221  32.955  1.00  0.00     0.074 A 
ATOM     57  C   UNL A   1      45.209  26.750  29.015  1.00  0.00     0.029 A 
ATOM     58  N   UNL A   1      44.096  25.491  30.463  1.00  0.00    -0.354 N 
ATOM     59  N   UNL A   1      43.309  28.419  32.292  1.00  0.00    -0.248 NA
ATOM     60  C   UNL A   1      42.597  28.981  34.394  1.00  0.00     0.031 C 
ATOM     61  C   UNL A   1      45.464  27.214  30.340  1.00  0.00     0.029 A 
ATOM     62  C   UNL A   1      44.740  26.430  31.222  1.00  0.00     0.049 A 
ATOM     63  H   UNL A   1      43.567  24.744  30.828  1.00  0.00     0.167 HD
ATOM     64  C   UNL A   1      43.847  27.487  33.142  1.00  0.00     0.074 A 
ATOM     65  C   UNL A   1      43.438  27.933  34.455  1.00  0.00     0.031 C 
ATOM     66  C   UNL A   1      44.505  26.393  32.656  1.00  0.00     0.037 A 
BRANCH  53  67
ATOM     67  C   UNL A   1      43.917  24.191  27.042  1.00  0.00     0.057 A 
ATOM     68  C   UNL A   1      44.911  23.211  27.212  1.00  0.00     0.134 A 
ATOM     69  C   UNL A   1      43.539  24.398  25.693  1.00  0.00     0.134 A 
ATOM     70  F   UNL A   1      45.404  22.933  28.427  1.00  0.00    -0.206 F 
ATOM     71  C   UNL A   1      45.459  22.482  26.141  1.00  0.00     0.040 A 
ATOM     72  C   UNL A   1      44.027  23.628  24.624  1.00  0.00     0.040 A 
ATOM     73  F   UNL A   1      42.724  25.396  25.325  1.00  0.00    -0.206 F 
ATOM     74  C   UNL A   1      45.001  22.671  24.844  1.00  0.00     0.006 A 
ENDBRANCH  53  67
BRANCH  54  75
ATOM     75  C   UNL A   1      40.325  30.753  32.839  1.00  0.00     0.057 A 
ATOM     76  C   UNL A   1      39.307  29.818  33.111  1.00  0.00     0.134 A 
ATOM     77  C   UNL A   1      40.186  32.019  33.419  1.00  0.00     0.134 A 
ATOM     78  F   UNL A   1      39.385  28.576  32.606  1.00  0.00    -0.206 F 
ATOM     79  C   UNL A   1      38.258  30.088  33.994  1.00  0.00     0.040 A 
ATOM     80  C   UNL A   1      39.123  32.310  34.294  1.00  0.00     0.040 A 
ATOM     81  F   UNL A   1      41.134  32.953  33.259  1.00  0.00    -0.206 F 
ATOM     82  C   UNL A   1      38.177  31.333  34.608  1.00  0.00     0.006 A 
ENDBRANCH  54  75
BRANCH  66  83
ATOM     83  C   UNL A   1      44.877  25.124  33.405  1.00  0.00     0.057 A 
ATOM     84  C   UNL A   1      46.177  24.621  33.537  1.00  0.00     0.134 A 
ATOM     85  C   UNL A   1      43.906  24.470  34.207  1.00  0.00     0.134 A 
ATOM     86  F   UNL A   1      47.222  25.195  32.928  1.00  0.00    -0.206 F 
ATOM     87  C   UNL A   1      46.485  23.535  34.372  1.00  0.00     0.040 A 
ATOM     88  C   UNL A   1      44.214  23.431  35.092  1.00  0.00     0.040 A 
ATOM     89  F   UNL A   1      42.618  24.845  34.199  1.00  0.00    -0.206 F 
ATOM     90  C   UNL A   1      45.510  22.949  35.168  1.00  0.00     0.006 A 
ENDBRANCH  66  83
ENDBRANCH  40  41
ENDBRANCH  33  35
ENDBRANCH  32  33
ENDBRANCH  31  32
ENDBRANCH  30  31
ENDBRANCH  29  30
ENDBRANCH  28  29
ENDBRANCH   1  28
TORSDOF 21
ENDMDL
MODEL 2
REMARK VINA RESULT:     -10.7      3.255      8.751
REMARK SMILES COc1c(C)cccc1C(=O)NCc1ccc(C(=O)OCCOCCOCCOC(=O)c2ccc(-c3c4nc(c(-c5c(F)cccc5F)c5ccc([nH]5)c(-c5c(F)cccc5F)c5nc(c(-c6c(F)cccc6F)c6ccc3[nH]6)C=C5)C=C4)cc2)cc1
REMARK SMILES IDX 24 1 23 2 22 3 21 4 20 5 18 6 19 7 17 8 14 9 15 10 87 11
REMARK SMILES IDX 16 12 86 13 13 14 12 15 10 16 11 17 9 19 3 20 4 21 5 22 6 23
REMARK SMILES IDX 8 24 7 25 2 26 1 27 25 28 26 29 27 30 28 31 29 32 30 33
REMARK SMILES IDX 31 34 32 35 33 36 85 37 34 38 84 39 35 40 36 41 37 42 78 43
REMARK SMILES IDX 38 44 83 45 77 46 79 47 39 48 82 49 76 50 75 51 40 53 66 54
REMARK SMILES IDX 49 55 65 56 50 57 53 58 64 59 80 60 51 61 52 62 63 64 81 65
REMARK SMILES IDX 54 66 41 67 42 68 47 69 43 70 44 71 46 72 48 73 45 74 67 75
REMARK SMILES IDX 68 76 73 77 69 78 70 79 72 80 74 81 71 82 55 83 56 84 61 85
REMARK SMILES IDX 57 86 58 87 60 88 62 89 59 90
REMARK H PARENT 12 18 79 52 53 63
REMARK Flexibility Score: inf
ROOT
ATOM      1  C   UNL A   1      35.729  21.452  25.691  1.00  0.00     0.188 C 
ENDROOT
BRANCH   1   2
ATOM      2  O   UNL A   1      34.507  22.163  25.890  1.00  0.00    -0.376 OA
BRANCH   2   3
ATOM      3  C   UNL A   1      33.602  21.652  26.887  1.00  0.00     0.202 C 
BRANCH   3   4
ATOM      4  C   UNL A   1      32.907  22.719  27.756  1.00  0.00     0.261 C 
BRANCH   4   5
ATOM      5  O   UNL A   1      31.576  23.233  27.368  1.00  0.00    -0.460 OA
BRANCH   5   6
ATOM      6  C   UNL A   1      30.794  22.889  26.295  1.00  0.00     0.338 C 
ATOM      7  O   UNL A   1      30.279  21.795  26.147  1.00  0.00    -0.246 OA
BRANCH   6   8
ATOM      8  C   UNL A   1      30.707  24.044  25.230  1.00  0.00     0.060 A 
ATOM      9  C   UNL A   1      30.500  26.288  23.401  1.00  0.00    -0.029 A 
ATOM     10  C   UNL A   1      30.261  26.462  24.733  1.00  0.00     0.006 A 
ATOM     11  C   UNL A   1      30.812  24.977  22.968  1.00  0.00     0.006 A 
ATOM     12  C   UNL A   1      30.425  25.380  25.574  1.00  0.00     0.016 A 
ATOM     13  C   UNL A   1      30.908  23.864  23.871  1.00  0.00     0.016 A 
BRANCH   9  14
ATOM     14  C   UNL A   1      30.549  27.553  22.596  1.00  0.00     0.152 C 
BRANCH  14  15
ATOM     15  N   UNL A   1      31.812  27.899  21.996  1.00  0.00    -0.348 N 
ATOM     16  C   UNL A   1      33.112  27.648  22.355  1.00  0.00     0.255 C 
ATOM     17  O   UNL A   1      33.979  27.803  21.491  1.00  0.00    -0.269 OA
ATOM     18  H   UNL A   1      31.725  28.418  21.165  1.00  0.00     0.164 HD
BRANCH  16  19
ATOM     19  C   UNL A   1      33.571  27.380  23.742  1.00  0.00     0.082 A 
ATOM     20  C   UNL A   1      33.366  28.250  24.846  1.00  0.00     0.134 A 
ATOM     21  C   UNL A   1      33.607  27.752  26.154  1.00  0.00    -0.008 A 
ATOM     22  C   UNL A   1      33.363  28.422  27.487  1.00  0.00     0.048 C 
ATOM     23  C   UNL A   1      34.020  26.404  26.302  1.00  0.00     0.007 A 
ATOM     24  C   UNL A   1      33.980  26.049  23.938  1.00  0.00     0.018 A 
ATOM     25  C   UNL A   1      34.203  25.561  25.215  1.00  0.00     0.001 A 
BRANCH  20  26
ATOM     26  O   UNL A   1      32.881  29.477  24.486  1.00  0.00    -0.496 OA
ATOM     27  C   UNL A   1      31.668  29.959  25.036  1.00  0.00     0.278 C 
ENDBRANCH  20  26
ENDBRANCH  16  19
ENDBRANCH  14  15
ENDBRANCH   9  14
ENDBRANCH   6   8
ENDBRANCH   5   6
ENDBRANCH   4   5
ENDBRANCH   3   4
ENDBRANCH   2   3
ENDBRANCH   1   2
BRANCH   1  28
ATOM     28  C   UNL A   1      36.828  22.224  24.962  1.00  0.00     0.188 C 
BRANCH  28  29
ATOM     29  O   UNL A   1      37.880  22.449  25.895  1.00  0.00    -0.376 OA
BRANCH  29  30
ATOM     30  C   UNL A   1      38.985  21.561  25.797  1.00  0.00     0.202 C 
BRANCH  30  31
ATOM     31  C   UNL A   1      39.994  21.759  26.936  1.00  0.00     0.261 C 
BRANCH  31  32
ATOM     32  O   UNL A   1      40.923  20.654  26.950  1.00  0.00    -0.460 OA
BRANCH  32  33
ATOM     33  C   UNL A   1      41.932  20.692  26.033  1.00  0.00     0.338 C 
ATOM     34  O   UNL A   1      42.251  19.768  25.294  1.00  0.00    -0.246 OA
BRANCH  33  35
ATOM     35  C   UNL A   1      42.773  21.910  26.261  1.00  0.00     0.060 A 
ATOM     36  C   UNL A   1      43.423  22.157  27.471  1.00  0.00     0.016 A 
ATOM     37  C   UNL A   1      42.609  22.982  25.425  1.00  0.00     0.016 A 
ATOM     38  C   UNL A   1      43.750  23.497  27.874  1.00  0.00     0.010 A 
ATOM     39  C   UNL A   1      42.687  24.255  26.004  1.00  0.00     0.010 A 
ATOM     40  C   UNL A   1      43.275  24.644  27.209  1.00  0.00    -0.014 A 
BRANCH  40  41
ATOM     41  C   UNL A   1      43.002  26.053  27.892  1.00  0.00     0.031 A 
ATOM     42  C   UNL A   1      41.799  27.139  27.936  1.00  0.00     0.074 A 
ATOM     43  C   UNL A   1      44.022  26.439  28.704  1.00  0.00     0.049 A 
ATOM     44  N   UNL A   1      41.993  28.417  28.236  1.00  0.00    -0.248 NA
ATOM     45  C   UNL A   1      40.348  27.027  27.669  1.00  0.00     0.031 C 
ATOM     46  C   UNL A   1      44.014  27.440  29.763  1.00  0.00     0.029 A 
ATOM     47  N   UNL A   1      45.381  26.129  28.563  1.00  0.00    -0.354 N 
ATOM     48  C   UNL A   1      40.747  28.993  28.497  1.00  0.00     0.074 A 
ATOM     49  C   UNL A   1      39.805  28.230  27.797  1.00  0.00     0.031 C 
ATOM     50  C   UNL A   1      45.262  27.906  29.916  1.00  0.00     0.029 A 
ATOM     51  C   UNL A   1      46.086  27.293  28.895  1.00  0.00     0.049 A 
ATOM     52  H   UNL A   1      45.764  25.266  28.286  1.00  0.00     0.167 HD
ATOM     53  C   UNL A   1      40.505  29.874  29.508  1.00  0.00     0.037 A 
ATOM     54  C   UNL A   1      46.909  27.915  28.006  1.00  0.00     0.037 A 
ATOM     55  C   UNL A   1      41.707  30.555  29.881  1.00  0.00     0.049 A 
ATOM     56  C   UNL A   1      46.654  29.391  27.840  1.00  0.00     0.074 A 
ATOM     57  C   UNL A   1      42.498  30.640  31.004  1.00  0.00     0.029 A 
ATOM     58  N   UNL A   1      42.375  31.193  28.859  1.00  0.00    -0.354 N 
ATOM     59  N   UNL A   1      45.696  30.033  28.445  1.00  0.00    -0.248 NA
ATOM     60  C   UNL A   1      47.411  30.264  26.946  1.00  0.00     0.031 C 
ATOM     61  C   UNL A   1      43.732  31.230  30.595  1.00  0.00     0.029 A 
ATOM     62  C   UNL A   1      43.640  31.542  29.249  1.00  0.00     0.049 A 
ATOM     63  H   UNL A   1      41.995  31.373  27.968  1.00  0.00     0.167 HD
ATOM     64  C   UNL A   1      45.594  31.303  27.936  1.00  0.00     0.074 A 
ATOM     65  C   UNL A   1      46.741  31.424  27.064  1.00  0.00     0.031 C 
ATOM     66  C   UNL A   1      44.516  32.090  28.228  1.00  0.00     0.037 A 
BRANCH  53  67
ATOM     67  C   UNL A   1      39.162  30.062  30.207  1.00  0.00     0.057 A 
ATOM     68  C   UNL A   1      38.806  29.252  31.301  1.00  0.00     0.134 A 
ATOM     69  C   UNL A   1      38.130  30.932  29.779  1.00  0.00     0.134 A 
ATOM     70  F   UNL A   1      39.661  28.346  31.794  1.00  0.00    -0.206 F 
ATOM     71  C   UNL A   1      37.550  29.324  31.931  1.00  0.00     0.040 A 
ATOM     72  C   UNL A   1      36.899  31.063  30.442  1.00  0.00     0.040 A 
ATOM     73  F   UNL A   1      38.231  31.661  28.659  1.00  0.00    -0.206 F 
ATOM     74  C   UNL A   1      36.599  30.247  31.518  1.00  0.00     0.006 A 
ENDBRANCH  53  67
BRANCH  54  75
ATOM     75  C   UNL A   1      47.522  26.992  27.008  1.00  0.00     0.057 A 
ATOM     76  C   UNL A   1      46.888  26.872  25.756  1.00  0.00     0.134 A 
ATOM     77  C   UNL A   1      48.843  26.536  27.090  1.00  0.00     0.134 A 
ATOM     78  F   UNL A   1      45.628  27.308  25.598  1.00  0.00    -0.206 F 
ATOM     79  C   UNL A   1      47.560  26.417  24.617  1.00  0.00     0.040 A 
ATOM     80  C   UNL A   1      49.523  26.058  25.955  1.00  0.00     0.040 A 
ATOM     81  F   UNL A   1      49.541  26.662  28.228  1.00  0.00    -0.206 F 
ATOM     82  C   UNL A   1      48.892  26.030  24.711  1.00  0.00     0.006 A 
ENDBRANCH  54  75
BRANCH  66  83
ATOM     83  C   UNL A   1      44.078  33.364  27.524  1.00  0.00     0.057 A 
ATOM     84  C   UNL A   1      43.860  33.486  26.145  1.00  0.00     0.134 A 
ATOM     85  C   UNL A   1      43.658  34.482  28.289  1.00  0.00     0.134 A 
ATOM     86  F   UNL A   1      44.105  32.477  25.300  1.00  0.00    -0.206 F 
ATOM     87  C   UNL A   1      43.303  34.638  25.568  1.00  0.00     0.040 A 
ATOM     88  C   UNL A   1      43.041  35.607  27.731  1.00  0.00     0.040 A 
ATOM     89  F   UNL A   1      43.789  34.511  29.624  1.00  0.00    -0.206 F 
ATOM     90  C   UNL A   1      42.872  35.694  26.360  1.00  0.00     0.006 A 
ENDBRANCH  66  83
ENDBRANCH  40  41
ENDBRANCH  33  35
ENDBRANCH  32  33
ENDBRANCH  31  32
ENDBRANCH  30  31
ENDBRANCH  29  30
ENDBRANCH  28  29
ENDBRANCH   1  28
TORSDOF 21
ENDMDL
MODEL 3
REMARK VINA RESULT:     -10.6      3.088      8.701
REMARK SMILES COc1c(C)cccc1C(=O)NCc1ccc(C(=O)OCCOCCOCCOC(=O)c2ccc(-c3c4nc(c(-c5c(F)cccc5F)c5ccc([nH]5)c(-c5c(F)cccc5F)c5nc(c(-c6c(F)cccc6F)c6ccc3[nH]6)C=C5)C=C4)cc2)cc1
REMARK SMILES IDX 24 1 23 2 22 3 21 4 20 5 18 6 19 7 17 8 14 9 15 10 87 11
REMARK SMILES IDX 16 12 86 13 13 14 12 15 10 16 11 17 9 19 3 20 4 21 5 22 6 23
REMARK SMILES IDX 8 24 7 25 2 26 1 27 25 28 26 29 27 30 28 31 29 32 30 33
REMARK SMILES IDX 31 34 32 35 33 36 85 37 34 38 84 39 35 40 36 41 37 42 78 43
REMARK SMILES IDX 38 44 83 45 77 46 79 47 39 48 82 49 76 50 75 51 40 53 66 54
REMARK SMILES IDX 49 55 65 56 50 57 53 58 64 59 80 60 51 61 52 62 63 64 81 65
REMARK SMILES IDX 54 66 41 67 42 68 47 69 43 70 44 71 46 72 48 73 45 74 67 75
REMARK SMILES IDX 68 76 73 77 69 78 70 79 72 80 74 81 71 82 55 83 56 84 61 85
REMARK SMILES IDX 57 86 58 87 60 88 62 89 59 90
REMARK H PARENT 12 18 79 52 53 63
REMARK Flexibility Score: inf
ROOT
ATOM      1  C   UNL A   1      35.800  20.701  25.009  1.00  0.00     0.188 C 
ENDROOT
BRANCH   1   2
ATOM      2  O   UNL A   1      34.477  20.190  24.851  1.00  0.00    -0.376 OA
BRANCH   2   3
ATOM      3  C   UNL A   1      33.429  21.141  24.590  1.00  0.00     0.202 C 
BRANCH   3   4
ATOM      4  C   UNL A   1      32.384  21.298  25.712  1.00  0.00     0.261 C 
BRANCH   4   5
ATOM      5  O   UNL A   1      31.446  22.441  25.691  1.00  0.00    -0.460 OA
BRANCH   5   6
ATOM      6  C   UNL A   1      31.137  23.327  26.691  1.00  0.00     0.338 C 
ATOM      7  O   UNL A   1      30.370  23.084  27.607  1.00  0.00    -0.246 OA
BRANCH   6   8
ATOM      8  C   UNL A   1      31.821  24.728  26.475  1.00  0.00     0.060 A 
ATOM      9  C   UNL A   1      33.234  27.223  26.028  1.00  0.00    -0.029 A 
ATOM     10  C   UNL A   1      33.861  26.029  25.816  1.00  0.00     0.006 A 
ATOM     11  C   UNL A   1      31.900  27.175  26.501  1.00  0.00     0.006 A 
ATOM     12  C   UNL A   1      33.134  24.869  25.988  1.00  0.00     0.016 A 
ATOM     13  C   UNL A   1      31.202  25.941  26.729  1.00  0.00     0.016 A 
BRANCH   9  14
ATOM     14  C   UNL A   1      34.003  28.430  25.581  1.00  0.00     0.152 C 
BRANCH  14  15
ATOM     15  N   UNL A   1      34.292  28.538  24.174  1.00  0.00    -0.348 N 
ATOM     16  C   UNL A   1      33.494  28.559  23.059  1.00  0.00     0.255 C 
ATOM     17  O   UNL A   1      33.997  28.967  22.009  1.00  0.00    -0.269 OA
ATOM     18  H   UNL A   1      35.253  28.609  23.973  1.00  0.00     0.164 HD
BRANCH  16  19
ATOM     19  C   UNL A   1      32.135  27.966  22.979  1.00  0.00     0.082 A 
ATOM     20  C   UNL A   1      31.862  26.576  22.866  1.00  0.00     0.134 A 
ATOM     21  C   UNL A   1      30.531  26.127  23.078  1.00  0.00    -0.008 A 
ATOM     22  C   UNL A   1      30.001  24.713  23.128  1.00  0.00     0.048 C 
ATOM     23  C   UNL A   1      29.538  27.082  23.414  1.00  0.00     0.007 A 
ATOM     24  C   UNL A   1      31.117  28.875  23.317  1.00  0.00     0.018 A 
ATOM     25  C   UNL A   1      29.821  28.436  23.534  1.00  0.00     0.001 A 
BRANCH  20  26
ATOM     26  O   UNL A   1      32.978  25.823  22.624  1.00  0.00    -0.496 OA
ATOM     27  C   UNL A   1      33.104  25.093  21.417  1.00  0.00     0.278 C 
ENDBRANCH  20  26
ENDBRANCH  16  19
ENDBRANCH  14  15
ENDBRANCH   9  14
ENDBRANCH   6   8
ENDBRANCH   5   6
ENDBRANCH   4   5
ENDBRANCH   3   4
ENDBRANCH   2   3
ENDBRANCH   1   2
BRANCH   1  28
ATOM     28  C   UNL A   1      35.946  22.213  24.838  1.00  0.00     0.188 C 
BRANCH  28  29
ATOM     29  O   UNL A   1      37.278  22.556  25.210  1.00  0.00    -0.376 OA
BRANCH  29  30
ATOM     30  C   UNL A   1      38.157  21.459  25.416  1.00  0.00     0.202 C 
BRANCH  30  31
ATOM     31  C   UNL A   1      39.453  21.878  26.125  1.00  0.00     0.261 C 
BRANCH  31  32
ATOM     32  O   UNL A   1      40.185  20.697  26.519  1.00  0.00    -0.460 OA
BRANCH  32  33
ATOM     33  C   UNL A   1      41.448  20.566  26.023  1.00  0.00     0.338 C 
ATOM     34  O   UNL A   1      41.862  19.604  25.387  1.00  0.00    -0.246 OA
BRANCH  33  35
ATOM     35  C   UNL A   1      42.332  21.623  26.612  1.00  0.00     0.060 A 
ATOM     36  C   UNL A   1      42.474  21.798  27.990  1.00  0.00     0.016 A 
ATOM     37  C   UNL A   1      42.711  22.672  25.819  1.00  0.00     0.016 A 
ATOM     38  C   UNL A   1      42.848  23.073  28.537  1.00  0.00     0.010 A 
ATOM     39  C   UNL A   1      42.778  23.933  26.426  1.00  0.00     0.010 A 
ATOM     40  C   UNL A   1      42.894  24.259  27.778  1.00  0.00    -0.014 A 
BRANCH  40  41
ATOM     41  C   UNL A   1      42.628  25.720  28.344  1.00  0.00     0.031 A 
ATOM     42  C   UNL A   1      41.502  26.875  28.171  1.00  0.00     0.074 A 
ATOM     43  C   UNL A   1      43.557  26.095  29.263  1.00  0.00     0.049 A 
ATOM     44  N   UNL A   1      41.740  28.155  28.426  1.00  0.00    -0.248 NA
ATOM     45  C   UNL A   1      40.094  26.831  27.720  1.00  0.00     0.031 C 
ATOM     46  C   UNL A   1      43.478  27.157  30.257  1.00  0.00     0.029 A 
ATOM     47  N   UNL A   1      44.900  25.698  29.321  1.00  0.00    -0.354 N 
ATOM     48  C   UNL A   1      40.511  28.818  28.489  1.00  0.00     0.074 A 
ATOM     49  C   UNL A   1      39.619  28.069  27.711  1.00  0.00     0.031 C 
ATOM     50  C   UNL A   1      44.723  27.558  30.551  1.00  0.00     0.029 A 
ATOM     51  C   UNL A   1      45.630  26.837  29.682  1.00  0.00     0.049 A 
ATOM     52  H   UNL A   1      45.258  24.798  29.143  1.00  0.00     0.167 HD
ATOM     53  C   UNL A   1      40.198  29.771  29.411  1.00  0.00     0.037 A 
ATOM     54  C   UNL A   1      46.600  27.355  28.878  1.00  0.00     0.037 A 
ATOM     55  C   UNL A   1      41.384  30.402  29.904  1.00  0.00     0.049 A 
ATOM     56  C   UNL A   1      46.467  28.830  28.603  1.00  0.00     0.074 A 
ATOM     57  C   UNL A   1      42.028  30.509  31.116  1.00  0.00     0.029 A 
ATOM     58  N   UNL A   1      42.220  30.936  28.948  1.00  0.00    -0.354 N 
ATOM     59  N   UNL A   1      45.483  29.563  29.040  1.00  0.00    -0.248 NA
ATOM     60  C   UNL A   1      47.388  29.602  27.772  1.00  0.00     0.031 C 
ATOM     61  C   UNL A   1      43.340  31.000  30.845  1.00  0.00     0.029 A 
ATOM     62  C   UNL A   1      43.443  31.235  29.483  1.00  0.00     0.049 A 
ATOM     63  H   UNL A   1      41.970  31.084  28.006  1.00  0.00     0.167 HD
ATOM     64  C   UNL A   1      45.531  30.803  28.456  1.00  0.00     0.074 A 
ATOM     65  C   UNL A   1      46.786  30.804  27.739  1.00  0.00     0.031 C 
ATOM     66  C   UNL A   1      44.478  31.668  28.560  1.00  0.00     0.037 A 
BRANCH  53  67
ATOM     67  C   UNL A   1      38.791  30.079  29.915  1.00  0.00     0.057 A 
ATOM     68  C   UNL A   1      38.319  31.403  29.950  1.00  0.00     0.134 A 
ATOM     69  C   UNL A   1      37.903  29.137  30.488  1.00  0.00     0.134 A 
ATOM     70  F   UNL A   1      39.065  32.414  29.484  1.00  0.00    -0.206 F 
ATOM     71  C   UNL A   1      37.063  31.755  30.481  1.00  0.00     0.040 A 
ATOM     72  C   UNL A   1      36.620  29.465  30.957  1.00  0.00     0.040 A 
ATOM     73  F   UNL A   1      38.249  27.858  30.685  1.00  0.00    -0.206 F 
ATOM     74  C   UNL A   1      36.199  30.783  30.965  1.00  0.00     0.006 A 
ENDBRANCH  53  67
BRANCH  54  75
ATOM     75  C   UNL A   1      47.275  26.339  28.021  1.00  0.00     0.057 A 
ATOM     76  C   UNL A   1      46.832  26.211  26.690  1.00  0.00     0.134 A 
ATOM     77  C   UNL A   1      48.523  25.781  28.324  1.00  0.00     0.134 A 
ATOM     78  F   UNL A   1      45.654  26.741  26.322  1.00  0.00    -0.206 F 
ATOM     79  C   UNL A   1      47.627  25.650  25.686  1.00  0.00     0.040 A 
ATOM     80  C   UNL A   1      49.324  25.197  27.326  1.00  0.00     0.040 A 
ATOM     81  F   UNL A   1      49.048  25.904  29.551  1.00  0.00    -0.206 F 
ATOM     82  C   UNL A   1      48.891  25.161  26.000  1.00  0.00     0.006 A 
ENDBRANCH  54  75
BRANCH  66  83
ATOM     83  C   UNL A   1      44.219  32.920  27.738  1.00  0.00     0.057 A 
ATOM     84  C   UNL A   1      44.157  32.964  26.339  1.00  0.00     0.134 A 
ATOM     85  C   UNL A   1      43.814  34.115  28.385  1.00  0.00     0.134 A 
ATOM     86  F   UNL A   1      44.406  31.885  25.587  1.00  0.00    -0.206 F 
ATOM     87  C   UNL A   1      43.756  34.112  25.637  1.00  0.00     0.040 A 
ATOM     88  C   UNL A   1      43.350  35.242  27.697  1.00  0.00     0.040 A 
ATOM     89  F   UNL A   1      43.807  34.225  29.722  1.00  0.00    -0.206 F 
ATOM     90  C   UNL A   1      43.332  35.248  26.313  1.00  0.00     0.006 A 
ENDBRANCH  66  83
ENDBRANCH  40  41
ENDBRANCH  33  35
ENDBRANCH  32  33
ENDBRANCH  31  32
ENDBRANCH  30  31
ENDBRANCH  29  30
ENDBRANCH  28  29
ENDBRANCH   1  28
TORSDOF 21
ENDMDL
