MODEL 1
REMARK VINA RESULT:     -10.2      0.000      0.000
REMARK SMILES CC1=C(CC(=O)OCCOCCOCCOC(=O)c2ccc(-c3c4nc(c(-c5c(F)cccc5F)c5ccc([nH]5)c(-c5c(F)cccc5F)c5nc(c(-c6c(F)cccc6F)c6ccc3[nH]6)C=C5)C=C4)cc2)c2cc(F)ccc2/C1=C\c1cccc(OCc2ccccc2)c1
REMARK SMILES IDX 10 1 9 2 8 3 7 4 5 5 6 6 4 7 3 8 1 9 2 10 80 11 73 12 79 13
REMARK SMILES IDX 81 14 74 15 78 16 75 17 77 18 76 19 82 20 83 21 95 22 84 23
REMARK SMILES IDX 86 24 85 25 87 26 88 27 89 28 90 29 94 30 91 31 93 32 92 33
REMARK SMILES IDX 11 34 12 35 13 36 14 37 15 38 16 39 17 40 18 41 19 42 20 43
REMARK SMILES IDX 72 44 21 45 71 46 22 47 23 48 24 49 65 50 25 51 70 52 64 53
REMARK SMILES IDX 66 54 26 55 69 56 63 57 62 58 27 60 53 61 36 62 52 63 37 64
REMARK SMILES IDX 40 65 51 66 67 67 38 68 39 69 50 71 68 72 41 73 28 74 29 75
REMARK SMILES IDX 34 76 30 77 31 78 33 79 35 80 32 81 54 82 55 83 60 84 56 85
REMARK SMILES IDX 57 86 59 87 61 88 58 89 42 90 43 91 48 92 44 93 45 94 47 95
REMARK SMILES IDX 49 96 46 97
REMARK H PARENT 66 59 40 70
REMARK Flexibility Score: inf
ROOT
ATOM      1  O   UNL A   1      50.947  24.717  32.430  1.00  0.00    -0.376 OA
ENDROOT
BRANCH   1   2
ATOM      2  C   UNL A   1      49.926  25.325  31.647  1.00  0.00     0.202 C 
BRANCH   2   3
ATOM      3  C   UNL A   1      50.054  25.076  30.143  1.00  0.00     0.261 C 
BRANCH   3   4
ATOM      4  O   UNL A   1      49.040  25.785  29.396  1.00  0.00    -0.463 OA
BRANCH   4   5
ATOM      5  C   UNL A   1      48.721  25.261  28.187  1.00  0.00     0.310 C 
ATOM      6  O   UNL A   1      49.356  24.366  27.636  1.00  0.00    -0.252 OA
BRANCH   5   7
ATOM      7  C   UNL A   1      47.415  25.790  27.591  1.00  0.00     0.159 C 
BRANCH   7   8
ATOM      8  C   UNL A   1      46.263  24.870  27.316  1.00  0.00    -0.025 C 
ATOM      9  C   UNL A   1      46.605  24.362  24.843  1.00  0.00     0.045 C 
ATOM     10  C   UNL A   1      45.909  24.259  26.159  1.00  0.00    -0.039 C 
ATOM     11  C   UNL A   1      44.765  23.359  26.393  1.00  0.00    -0.014 C 
ATOM     12  C   UNL A   1      45.396  24.313  28.377  1.00  0.00    -0.011 A 
ATOM     13  C   UNL A   1      44.409  23.484  27.815  1.00  0.00    -0.010 A 
ATOM     14  C   UNL A   1      44.249  22.499  25.494  1.00  0.00     0.017 C 
ATOM     15  C   UNL A   1      45.469  24.444  29.754  1.00  0.00     0.048 A 
ATOM     16  C   UNL A   1      43.402  22.926  28.595  1.00  0.00     0.012 A 
ATOM     17  C   UNL A   1      44.505  23.807  30.539  1.00  0.00     0.123 A 
ATOM     18  C   UNL A   1      43.449  23.098  29.974  1.00  0.00     0.040 A 
ATOM     19  F   UNL A   1      44.578  23.906  31.872  1.00  0.00    -0.207 F 
BRANCH  14  20
ATOM     20  C   UNL A   1      43.214  21.495  25.778  1.00  0.00    -0.021 A 
ATOM     21  C   UNL A   1      43.560  20.148  25.909  1.00  0.00     0.008 A 
ATOM     22  C   UNL A   1      41.862  21.875  25.835  1.00  0.00     0.054 A 
ATOM     23  C   UNL A   1      42.562  19.187  26.070  1.00  0.00     0.004 A 
ATOM     24  C   UNL A   1      40.861  20.919  26.025  1.00  0.00     0.120 A 
ATOM     25  C   UNL A   1      41.221  19.574  26.123  1.00  0.00     0.046 A 
BRANCH  24  26
ATOM     26  O   UNL A   1      39.516  21.155  26.118  1.00  0.00    -0.489 OA
BRANCH  26  27
ATOM     27  C   UNL A   1      39.061  22.492  26.361  1.00  0.00     0.265 C 
BRANCH  27  28
ATOM     28  C   UNL A   1      37.775  22.815  25.634  1.00  0.00    -0.011 A 
ATOM     29  C   UNL A   1      37.353  22.035  24.549  1.00  0.00     0.007 A 
ATOM     30  C   UNL A   1      36.971  23.886  26.055  1.00  0.00     0.007 A 
ATOM     31  C   UNL A   1      36.133  22.295  23.924  1.00  0.00     0.000 A 
ATOM     32  C   UNL A   1      35.746  24.136  25.436  1.00  0.00     0.000 A 
ATOM     33  C   UNL A   1      35.325  23.338  24.374  1.00  0.00     0.000 A 
ENDBRANCH  27  28
ENDBRANCH  26  27
ENDBRANCH  24  26
ENDBRANCH  14  20
ENDBRANCH   7   8
ENDBRANCH   5   7
ENDBRANCH   4   5
ENDBRANCH   3   4
ENDBRANCH   2   3
ENDBRANCH   1   2
BRANCH   1  34
ATOM     34  C   UNL A   1      50.740  23.373  32.859  1.00  0.00     0.188 C 
BRANCH  34  35
ATOM     35  C   UNL A   1      49.780  23.123  34.033  1.00  0.00     0.188 C 
BRANCH  35  36
ATOM     36  O   UNL A   1      49.976  24.074  35.076  1.00  0.00    -0.376 OA
BRANCH  36  37
ATOM     37  C   UNL A   1      48.871  24.952  35.257  1.00  0.00     0.202 C 
BRANCH  37  38
ATOM     38  C   UNL A   1      47.886  24.335  36.250  1.00  0.00     0.261 C 
BRANCH  38  39
ATOM     39  O   UNL A   1      47.128  25.315  36.983  1.00  0.00    -0.460 OA
BRANCH  39  40
ATOM     40  C   UNL A   1      45.821  25.032  37.171  1.00  0.00     0.338 C 
ATOM     41  O   UNL A   1      45.328  24.391  38.080  1.00  0.00    -0.246 OA
BRANCH  40  42
ATOM     42  C   UNL A   1      45.047  25.726  36.127  1.00  0.00     0.060 A 
ATOM     43  C   UNL A   1      43.802  25.257  35.726  1.00  0.00     0.016 A 
ATOM     44  C   UNL A   1      45.550  26.914  35.599  1.00  0.00     0.016 A 
ATOM     45  C   UNL A   1      43.055  26.005  34.809  1.00  0.00     0.010 A 
ATOM     46  C   UNL A   1      44.787  27.688  34.726  1.00  0.00     0.010 A 
ATOM     47  C   UNL A   1      43.525  27.244  34.324  1.00  0.00    -0.014 A 
BRANCH  47  48
ATOM     48  C   UNL A   1      42.645  28.101  33.487  1.00  0.00     0.031 A 
ATOM     49  C   UNL A   1      42.518  27.907  32.003  1.00  0.00     0.074 A 
ATOM     50  C   UNL A   1      41.962  29.097  34.085  1.00  0.00     0.049 A 
ATOM     51  N   UNL A   1      41.660  28.450  31.175  1.00  0.00    -0.248 NA
ATOM     52  C   UNL A   1      43.490  27.013  31.357  1.00  0.00     0.031 C 
ATOM     53  C   UNL A   1      42.098  29.484  35.492  1.00  0.00     0.029 A 
ATOM     54  N   UNL A   1      41.006  29.951  33.595  1.00  0.00    -0.354 N 
ATOM     55  C   UNL A   1      41.974  27.952  29.918  1.00  0.00     0.074 A 
ATOM     56  C   UNL A   1      43.145  27.116  30.079  1.00  0.00     0.031 C 
ATOM     57  C   UNL A   1      41.208  30.451  35.768  1.00  0.00     0.029 A 
ATOM     58  C   UNL A   1      40.447  30.754  34.560  1.00  0.00     0.049 A 
ATOM     59  H   UNL A   1      40.745  29.984  32.647  1.00  0.00     0.167 HD
ATOM     60  C   UNL A   1      41.327  28.148  28.743  1.00  0.00     0.037 A 
ATOM     61  C   UNL A   1      39.410  31.610  34.491  1.00  0.00     0.037 A 
ATOM     62  C   UNL A   1      40.161  28.979  28.587  1.00  0.00     0.049 A 
ATOM     63  C   UNL A   1      38.662  31.759  33.198  1.00  0.00     0.074 A 
ATOM     64  C   UNL A   1      39.384  29.178  27.458  1.00  0.00     0.029 A 
ATOM     65  N   UNL A   1      39.608  29.759  29.591  1.00  0.00    -0.354 N 
ATOM     66  N   UNL A   1      38.883  31.176  32.045  1.00  0.00    -0.248 NA
ATOM     67  C   UNL A   1      37.508  32.668  33.203  1.00  0.00     0.031 C 
ATOM     68  C   UNL A   1      38.383  30.103  27.770  1.00  0.00     0.029 A 
ATOM     69  C   UNL A   1      38.511  30.452  29.104  1.00  0.00     0.049 A 
ATOM     70  H   UNL A   1      39.946  29.813  30.515  1.00  0.00     0.167 HD
ATOM     71  C   UNL A   1      37.890  31.636  31.191  1.00  0.00     0.074 A 
ATOM     72  C   UNL A   1      37.051  32.527  31.966  1.00  0.00     0.031 C 
ATOM     73  C   UNL A   1      37.693  31.346  29.882  1.00  0.00     0.037 A 
BRANCH  60  74
ATOM     74  C   UNL A   1      41.844  27.421  27.535  1.00  0.00     0.057 A 
ATOM     75  C   UNL A   1      42.905  27.933  26.779  1.00  0.00     0.134 A 
ATOM     76  C   UNL A   1      41.245  26.235  27.087  1.00  0.00     0.134 A 
ATOM     77  F   UNL A   1      43.517  29.069  27.144  1.00  0.00    -0.206 F 
ATOM     78  C   UNL A   1      43.352  27.292  25.621  1.00  0.00     0.040 A 
ATOM     79  C   UNL A   1      41.698  25.573  25.944  1.00  0.00     0.040 A 
ATOM     80  F   UNL A   1      40.226  25.690  27.767  1.00  0.00    -0.206 F 
ATOM     81  C   UNL A   1      42.751  26.107  25.203  1.00  0.00     0.006 A 
ENDBRANCH  60  74
BRANCH  61  82
ATOM     82  C   UNL A   1      38.965  32.321  35.714  1.00  0.00     0.057 A 
ATOM     83  C   UNL A   1      39.342  33.644  35.968  1.00  0.00     0.134 A 
ATOM     84  C   UNL A   1      38.170  31.677  36.669  1.00  0.00     0.134 A 
ATOM     85  F   UNL A   1      40.112  34.308  35.095  1.00  0.00    -0.206 F 
ATOM     86  C   UNL A   1      38.948  34.302  37.135  1.00  0.00     0.040 A 
ATOM     87  C   UNL A   1      37.752  32.329  37.829  1.00  0.00     0.040 A 
ATOM     88  F   UNL A   1      37.768  30.413  36.472  1.00  0.00    -0.206 F 
ATOM     89  C   UNL A   1      38.147  33.644  38.068  1.00  0.00     0.006 A 
ENDBRANCH  61  82
BRANCH  73  90
ATOM     90  C   UNL A   1      36.524  32.001  29.208  1.00  0.00     0.057 A 
ATOM     91  C   UNL A   1      36.558  33.361  28.877  1.00  0.00     0.134 A 
ATOM     92  C   UNL A   1      35.355  31.290  28.910  1.00  0.00     0.134 A 
ATOM     93  F   UNL A   1      37.645  34.100  29.141  1.00  0.00    -0.206 F 
ATOM     94  C   UNL A   1      35.470  33.990  28.269  1.00  0.00     0.040 A 
ATOM     95  C   UNL A   1      34.269  31.903  28.283  1.00  0.00     0.040 A 
ATOM     96  F   UNL A   1      35.264  29.980  29.191  1.00  0.00    -0.206 F 
ATOM     97  C   UNL A   1      34.323  33.258  27.966  1.00  0.00     0.006 A 
ENDBRANCH  73  90
ENDBRANCH  47  48
ENDBRANCH  40  42
ENDBRANCH  39  40
ENDBRANCH  38  39
ENDBRANCH  37  38
ENDBRANCH  36  37
ENDBRANCH  35  36
ENDBRANCH  34  35
ENDBRANCH   1  34
TORSDOF 22
ENDMDL
MODEL 2
REMARK VINA RESULT:      -9.9      4.497     11.483
REMARK SMILES CC1=C(CC(=O)OCCOCCOCCOC(=O)c2ccc(-c3c4nc(c(-c5c(F)cccc5F)c5ccc([nH]5)c(-c5c(F)cccc5F)c5nc(c(-c6c(F)cccc6F)c6ccc3[nH]6)C=C5)C=C4)cc2)c2cc(F)ccc2/C1=C\c1cccc(OCc2ccccc2)c1
REMARK SMILES IDX 10 1 9 2 8 3 7 4 5 5 6 6 4 7 3 8 1 9 2 10 80 11 73 12 79 13
REMARK SMILES IDX 81 14 74 15 78 16 75 17 77 18 76 19 82 20 83 21 95 22 84 23
REMARK SMILES IDX 86 24 85 25 87 26 88 27 89 28 90 29 94 30 91 31 93 32 92 33
REMARK SMILES IDX 11 34 12 35 13 36 14 37 15 38 16 39 17 40 18 41 19 42 20 43
REMARK SMILES IDX 72 44 21 45 71 46 22 47 23 48 24 49 65 50 25 51 70 52 64 53
REMARK SMILES IDX 66 54 26 55 69 56 63 57 62 58 27 60 53 61 36 62 52 63 37 64
REMARK SMILES IDX 40 65 51 66 67 67 38 68 39 69 50 71 68 72 41 73 28 74 29 75
REMARK SMILES IDX 34 76 30 77 31 78 33 79 35 80 32 81 54 82 55 83 60 84 56 85
REMARK SMILES IDX 57 86 59 87 61 88 58 89 42 90 43 91 48 92 44 93 45 94 47 95
REMARK SMILES IDX 49 96 46 97
REMARK H PARENT 66 59 40 70
REMARK Flexibility Score: inf
ROOT
ATOM      1  O   UNL A   1      34.785  36.368  33.258  1.00  0.00    -0.376 OA
ENDROOT
BRANCH   1   2
ATOM      2  C   UNL A   1      33.785  36.723  32.309  1.00  0.00     0.202 C 
BRANCH   2   3
ATOM      3  C   UNL A   1      33.238  35.547  31.499  1.00  0.00     0.261 C 
BRANCH   3   4
ATOM      4  O   UNL A   1      34.207  35.060  30.543  1.00  0.00    -0.463 OA
BRANCH   4   5
ATOM      5  C   UNL A   1      33.709  34.663  29.346  1.00  0.00     0.310 C 
ATOM      6  O   UNL A   1      32.510  34.579  29.094  1.00  0.00    -0.252 OA
BRANCH   5   7
ATOM      7  C   UNL A   1      34.766  34.432  28.265  1.00  0.00     0.159 C 
BRANCH   7   8
ATOM      8  C   UNL A   1      35.580  33.173  28.237  1.00  0.00    -0.025 C 
ATOM      9  C   UNL A   1      37.775  33.971  29.255  1.00  0.00     0.045 C 
ATOM     10  C   UNL A   1      36.853  32.964  28.653  1.00  0.00    -0.039 C 
ATOM     11  C   UNL A   1      37.197  31.536  28.530  1.00  0.00    -0.014 C 
ATOM     12  C   UNL A   1      35.017  31.847  27.902  1.00  0.00    -0.011 A 
ATOM     13  C   UNL A   1      36.018  30.862  27.964  1.00  0.00    -0.010 A 
ATOM     14  C   UNL A   1      38.329  30.961  28.979  1.00  0.00     0.017 C 
ATOM     15  C   UNL A   1      33.713  31.474  27.619  1.00  0.00     0.048 A 
ATOM     16  C   UNL A   1      35.765  29.548  27.584  1.00  0.00     0.012 A 
ATOM     17  C   UNL A   1      33.450  30.134  27.325  1.00  0.00     0.123 A 
ATOM     18  C   UNL A   1      34.465  29.184  27.254  1.00  0.00     0.040 A 
ATOM     19  F   UNL A   1      32.191  29.755  27.073  1.00  0.00    -0.207 F 
BRANCH  14  20
ATOM     20  C   UNL A   1      38.598  29.517  28.995  1.00  0.00    -0.021 A 
ATOM     21  C   UNL A   1      38.186  28.737  30.079  1.00  0.00     0.008 A 
ATOM     22  C   UNL A   1      39.346  28.928  27.960  1.00  0.00     0.054 A 
ATOM     23  C   UNL A   1      38.540  27.390  30.140  1.00  0.00     0.004 A 
ATOM     24  C   UNL A   1      39.678  27.573  28.003  1.00  0.00     0.120 A 
ATOM     25  C   UNL A   1      39.285  26.815  29.108  1.00  0.00     0.046 A 
BRANCH  24  26
ATOM     26  O   UNL A   1      40.379  26.875  27.058  1.00  0.00    -0.489 OA
BRANCH  26  27
ATOM     27  C   UNL A   1      41.717  26.456  27.355  1.00  0.00     0.265 C 
BRANCH  27  28
ATOM     28  C   UNL A   1      41.845  24.956  27.495  1.00  0.00    -0.011 A 
ATOM     29  C   UNL A   1      42.251  24.386  28.709  1.00  0.00     0.007 A 
ATOM     30  C   UNL A   1      41.533  24.112  26.419  1.00  0.00     0.007 A 
ATOM     31  C   UNL A   1      42.304  22.999  28.856  1.00  0.00     0.000 A 
ATOM     32  C   UNL A   1      41.574  22.726  26.571  1.00  0.00     0.000 A 
ATOM     33  C   UNL A   1      41.955  22.170  27.791  1.00  0.00     0.000 A 
ENDBRANCH  27  28
ENDBRANCH  26  27
ENDBRANCH  24  26
ENDBRANCH  14  20
ENDBRANCH   7   8
ENDBRANCH   5   7
ENDBRANCH   4   5
ENDBRANCH   3   4
ENDBRANCH   2   3
ENDBRANCH   1   2
BRANCH   1  34
ATOM     34  C   UNL A   1      34.599  35.161  33.996  1.00  0.00     0.188 C 
BRANCH  34  35
ATOM     35  C   UNL A   1      35.671  34.066  33.882  1.00  0.00     0.188 C 
BRANCH  35  36
ATOM     36  O   UNL A   1      35.093  32.803  33.565  1.00  0.00    -0.376 OA
BRANCH  36  37
ATOM     37  C   UNL A   1      35.250  32.435  32.200  1.00  0.00     0.202 C 
BRANCH  37  38
ATOM     38  C   UNL A   1      36.040  31.129  32.111  1.00  0.00     0.261 C 
BRANCH  38  39
ATOM     39  O   UNL A   1      37.159  31.078  33.015  1.00  0.00    -0.460 OA
BRANCH  39  40
ATOM     40  C   UNL A   1      38.264  31.748  32.624  1.00  0.00     0.338 C 
ATOM     41  O   UNL A   1      38.330  32.896  32.227  1.00  0.00    -0.246 OA
BRANCH  40  42
ATOM     42  C   UNL A   1      39.432  30.880  32.856  1.00  0.00     0.060 A 
ATOM     43  C   UNL A   1      39.290  29.502  32.973  1.00  0.00     0.016 A 
ATOM     44  C   UNL A   1      40.701  31.457  32.879  1.00  0.00     0.016 A 
ATOM     45  C   UNL A   1      40.435  28.706  33.087  1.00  0.00     0.010 A 
ATOM     46  C   UNL A   1      41.845  30.663  32.940  1.00  0.00     0.010 A 
ATOM     47  C   UNL A   1      41.726  29.275  33.039  1.00  0.00    -0.014 A 
BRANCH  47  48
ATOM     48  C   UNL A   1      42.927  28.400  32.989  1.00  0.00     0.031 A 
ATOM     49  C   UNL A   1      43.567  27.996  31.692  1.00  0.00     0.074 A 
ATOM     50  C   UNL A   1      43.436  27.943  34.150  1.00  0.00     0.049 A 
ATOM     51  N   UNL A   1      44.715  27.396  31.495  1.00  0.00    -0.248 NA
ATOM     52  C   UNL A   1      42.817  28.273  30.458  1.00  0.00     0.031 C 
ATOM     53  C   UNL A   1      42.835  28.145  35.470  1.00  0.00     0.029 A 
ATOM     54  N   UNL A   1      44.582  27.233  34.410  1.00  0.00    -0.354 N 
ATOM     55  C   UNL A   1      44.835  27.240  30.121  1.00  0.00     0.074 A 
ATOM     56  C   UNL A   1      43.612  27.746  29.534  1.00  0.00     0.031 C 
ATOM     57  C   UNL A   1      43.650  27.632  36.406  1.00  0.00     0.029 A 
ATOM     58  C   UNL A   1      44.824  27.063  35.752  1.00  0.00     0.049 A 
ATOM     59  H   UNL A   1      45.172  26.882  33.705  1.00  0.00     0.167 HD
ATOM     60  C   UNL A   1      45.881  26.750  29.412  1.00  0.00     0.037 A 
ATOM     61  C   UNL A   1      45.891  26.544  36.387  1.00  0.00     0.037 A 
ATOM     62  C   UNL A   1      47.097  26.250  30.000  1.00  0.00     0.049 A 
ATOM     63  C   UNL A   1      47.069  26.072  35.585  1.00  0.00     0.074 A 
ATOM     64  C   UNL A   1      48.247  25.808  29.366  1.00  0.00     0.029 A 
ATOM     65  N   UNL A   1      47.317  26.114  31.362  1.00  0.00    -0.354 N 
ATOM     66  N   UNL A   1      47.229  26.056  34.285  1.00  0.00    -0.248 NA
ATOM     67  C   UNL A   1      48.223  25.566  36.342  1.00  0.00     0.031 C 
ATOM     68  C   UNL A   1      49.149  25.375  30.344  1.00  0.00     0.029 A 
ATOM     69  C   UNL A   1      48.577  25.582  31.589  1.00  0.00     0.049 A 
ATOM     70  H   UNL A   1      46.673  26.360  32.065  1.00  0.00     0.167 HD
ATOM     71  C   UNL A   1      48.504  25.553  34.066  1.00  0.00     0.074 A 
ATOM     72  C   UNL A   1      49.083  25.298  35.369  1.00  0.00     0.031 C 
ATOM     73  C   UNL A   1      49.136  25.321  32.889  1.00  0.00     0.037 A 
BRANCH  60  74
ATOM     74  C   UNL A   1      45.773  26.764  27.914  1.00  0.00     0.057 A 
ATOM     75  C   UNL A   1      45.914  27.953  27.189  1.00  0.00     0.134 A 
ATOM     76  C   UNL A   1      45.469  25.601  27.194  1.00  0.00     0.134 A 
ATOM     77  F   UNL A   1      46.194  29.106  27.815  1.00  0.00    -0.206 F 
ATOM     78  C   UNL A   1      45.757  27.985  25.801  1.00  0.00     0.040 A 
ATOM     79  C   UNL A   1      45.333  25.615  25.805  1.00  0.00     0.040 A 
ATOM     80  F   UNL A   1      45.324  24.428  27.829  1.00  0.00    -0.206 F 
ATOM     81  C   UNL A   1      45.470  26.812  25.105  1.00  0.00     0.006 A 
ENDBRANCH  60  74
BRANCH  61  82
ATOM     82  C   UNL A   1      45.926  26.532  37.870  1.00  0.00     0.057 A 
ATOM     83  C   UNL A   1      45.330  25.502  38.606  1.00  0.00     0.134 A 
ATOM     84  C   UNL A   1      46.537  27.570  38.582  1.00  0.00     0.134 A 
ATOM     85  F   UNL A   1      44.720  24.486  37.979  1.00  0.00    -0.206 F 
ATOM     86  C   UNL A   1      45.337  25.508  40.002  1.00  0.00     0.040 A 
ATOM     87  C   UNL A   1      46.568  27.578  39.977  1.00  0.00     0.040 A 
ATOM     88  F   UNL A   1      47.134  28.577  37.928  1.00  0.00    -0.206 F 
ATOM     89  C   UNL A   1      45.960  26.547  40.691  1.00  0.00     0.006 A 
ENDBRANCH  61  82
BRANCH  73  90
ATOM     90  C   UNL A   1      50.527  24.764  32.962  1.00  0.00     0.057 A 
ATOM     91  C   UNL A   1      51.641  25.603  32.845  1.00  0.00     0.134 A 
ATOM     92  C   UNL A   1      50.762  23.393  33.125  1.00  0.00     0.134 A 
ATOM     93  F   UNL A   1      51.486  26.925  32.681  1.00  0.00    -0.206 F 
ATOM     94  C   UNL A   1      52.942  25.097  32.888  1.00  0.00     0.040 A 
ATOM     95  C   UNL A   1      52.057  22.878  33.192  1.00  0.00     0.040 A 
ATOM     96  F   UNL A   1      49.735  22.537  33.256  1.00  0.00    -0.206 F 
ATOM     97  C   UNL A   1      53.151  23.731  33.068  1.00  0.00     0.006 A 
ENDBRANCH  73  90
ENDBRANCH  47  48
ENDBRANCH  40  42
ENDBRANCH  39  40
ENDBRANCH  38  39
ENDBRANCH  37  38
ENDBRANCH  36  37
ENDBRANCH  35  36
ENDBRANCH  34  35
ENDBRANCH   1  34
TORSDOF 22
ENDMDL
MODEL 3
REMARK VINA RESULT:      -9.7      5.529     12.911
REMARK SMILES CC1=C(CC(=O)OCCOCCOCCOC(=O)c2ccc(-c3c4nc(c(-c5c(F)cccc5F)c5ccc([nH]5)c(-c5c(F)cccc5F)c5nc(c(-c6c(F)cccc6F)c6ccc3[nH]6)C=C5)C=C4)cc2)c2cc(F)ccc2/C1=C\c1cccc(OCc2ccccc2)c1
REMARK SMILES IDX 10 1 9 2 8 3 7 4 5 5 6 6 4 7 3 8 1 9 2 10 80 11 73 12 79 13
REMARK SMILES IDX 81 14 74 15 78 16 75 17 77 18 76 19 82 20 83 21 95 22 84 23
REMARK SMILES IDX 86 24 85 25 87 26 88 27 89 28 90 29 94 30 91 31 93 32 92 33
REMARK SMILES IDX 11 34 12 35 13 36 14 37 15 38 16 39 17 40 18 41 19 42 20 43
REMARK SMILES IDX 72 44 21 45 71 46 22 47 23 48 24 49 65 50 25 51 70 52 64 53
REMARK SMILES IDX 66 54 26 55 69 56 63 57 62 58 27 60 53 61 36 62 52 63 37 64
REMARK SMILES IDX 40 65 51 66 67 67 38 68 39 69 50 71 68 72 41 73 28 74 29 75
REMARK SMILES IDX 34 76 30 77 31 78 33 79 35 80 32 81 54 82 55 83 60 84 56 85
REMARK SMILES IDX 57 86 59 87 61 88 58 89 42 90 43 91 48 92 44 93 45 94 47 95
REMARK SMILES IDX 49 96 46 97
REMARK H PARENT 66 59 40 70
REMARK Flexibility Score: inf
ROOT
ATOM      1  O   UNL A   1      35.888  20.817  24.986  1.00  0.00    -0.376 OA
ENDROOT
BRANCH   1   2
ATOM      2  C   UNL A   1      34.911  21.481  25.780  1.00  0.00     0.202 C 
BRANCH   2   3
ATOM      3  C   UNL A   1      33.527  21.567  25.135  1.00  0.00     0.261 C 
BRANCH   3   4
ATOM      4  O   UNL A   1      33.615  21.758  23.705  1.00  0.00    -0.463 OA
BRANCH   4   5
ATOM      5  C   UNL A   1      33.768  23.039  23.288  1.00  0.00     0.310 C 
ATOM      6  O   UNL A   1      34.745  23.448  22.667  1.00  0.00    -0.252 OA
BRANCH   5   7
ATOM      7  C   UNL A   1      32.558  23.939  23.547  1.00  0.00     0.159 C 
BRANCH   7   8
ATOM      8  C   UNL A   1      32.704  25.239  24.280  1.00  0.00    -0.025 C 
ATOM      9  C   UNL A   1      32.473  24.478  26.701  1.00  0.00     0.045 C 
ATOM     10  C   UNL A   1      32.671  25.480  25.614  1.00  0.00    -0.039 C 
ATOM     11  C   UNL A   1      32.972  26.900  25.876  1.00  0.00    -0.014 C 
ATOM     12  C   UNL A   1      33.117  26.499  23.627  1.00  0.00    -0.011 A 
ATOM     13  C   UNL A   1      33.170  27.542  24.568  1.00  0.00    -0.010 A 
ATOM     14  C   UNL A   1      33.154  27.449  27.093  1.00  0.00     0.017 C 
ATOM     15  C   UNL A   1      33.492  26.748  22.316  1.00  0.00     0.048 A 
ATOM     16  C   UNL A   1      33.427  28.854  24.182  1.00  0.00     0.012 A 
ATOM     17  C   UNL A   1      33.835  28.053  21.955  1.00  0.00     0.123 A 
ATOM     18  C   UNL A   1      33.757  29.110  22.856  1.00  0.00     0.040 A 
ATOM     19  F   UNL A   1      34.222  28.301  20.698  1.00  0.00    -0.207 F 
BRANCH  14  20
ATOM     20  C   UNL A   1      33.607  28.825  27.342  1.00  0.00    -0.021 A 
ATOM     21  C   UNL A   1      32.692  29.881  27.315  1.00  0.00     0.008 A 
ATOM     22  C   UNL A   1      34.974  29.094  27.527  1.00  0.00     0.054 A 
ATOM     23  C   UNL A   1      33.144  31.194  27.443  1.00  0.00     0.004 A 
ATOM     24  C   UNL A   1      35.427  30.405  27.684  1.00  0.00     0.120 A 
ATOM     25  C   UNL A   1      34.504  31.451  27.623  1.00  0.00     0.046 A 
BRANCH  24  26
ATOM     26  O   UNL A   1      36.721  30.801  27.889  1.00  0.00    -0.489 OA
BRANCH  26  27
ATOM     27  C   UNL A   1      37.469  30.204  28.955  1.00  0.00     0.265 C 
BRANCH  27  28
ATOM     28  C   UNL A   1      38.491  29.202  28.466  1.00  0.00    -0.011 A 
ATOM     29  C   UNL A   1      38.570  27.926  29.039  1.00  0.00     0.007 A 
ATOM     30  C   UNL A   1      39.357  29.528  27.411  1.00  0.00     0.007 A 
ATOM     31  C   UNL A   1      39.469  26.982  28.541  1.00  0.00     0.000 A 
ATOM     32  C   UNL A   1      40.245  28.578  26.906  1.00  0.00     0.000 A 
ATOM     33  C   UNL A   1      40.298  27.304  27.468  1.00  0.00     0.000 A 
ENDBRANCH  27  28
ENDBRANCH  26  27
ENDBRANCH  24  26
ENDBRANCH  14  20
ENDBRANCH   7   8
ENDBRANCH   5   7
ENDBRANCH   4   5
ENDBRANCH   3   4
ENDBRANCH   2   3
ENDBRANCH   1   2
BRANCH   1  34
ATOM     34  C   UNL A   1      37.147  21.465  24.809  1.00  0.00     0.188 C 
BRANCH  34  35
ATOM     35  C   UNL A   1      37.252  22.957  25.158  1.00  0.00     0.188 C 
BRANCH  35  36
ATOM     36  O   UNL A   1      38.275  23.196  26.120  1.00  0.00    -0.376 OA
BRANCH  36  37
ATOM     37  C   UNL A   1      39.234  22.148  26.199  1.00  0.00     0.202 C 
BRANCH  37  38
ATOM     38  C   UNL A   1      40.153  22.386  27.398  1.00  0.00     0.261 C 
BRANCH  38  39
ATOM     39  O   UNL A   1      41.262  23.255  27.101  1.00  0.00    -0.460 OA
BRANCH  39  40
ATOM     40  C   UNL A   1      42.166  23.417  28.090  1.00  0.00     0.338 C 
ATOM     41  O   UNL A   1      42.403  22.653  29.007  1.00  0.00    -0.246 OA
BRANCH  40  42
ATOM     42  C   UNL A   1      42.920  24.655  27.824  1.00  0.00     0.060 A 
ATOM     43  C   UNL A   1      43.541  25.353  28.853  1.00  0.00     0.016 A 
ATOM     44  C   UNL A   1      43.069  25.077  26.504  1.00  0.00     0.016 A 
ATOM     45  C   UNL A   1      44.334  26.463  28.543  1.00  0.00     0.010 A 
ATOM     46  C   UNL A   1      43.900  26.151  26.186  1.00  0.00     0.010 A 
ATOM     47  C   UNL A   1      44.548  26.854  27.204  1.00  0.00    -0.014 A 
BRANCH  47  48
ATOM     48  C   UNL A   1      45.527  27.927  26.886  1.00  0.00     0.031 A 
ATOM     49  C   UNL A   1      45.149  29.380  26.894  1.00  0.00     0.074 A 
ATOM     50  C   UNL A   1      46.785  27.571  26.559  1.00  0.00     0.049 A 
ATOM     51  N   UNL A   1      45.929  30.431  26.819  1.00  0.00    -0.248 NA
ATOM     52  C   UNL A   1      43.717  29.702  26.967  1.00  0.00     0.031 C 
ATOM     53  C   UNL A   1      47.250  26.194  26.379  1.00  0.00     0.029 A 
ATOM     54  N   UNL A   1      47.906  28.333  26.340  1.00  0.00    -0.354 N 
ATOM     55  C   UNL A   1      45.088  31.535  26.855  1.00  0.00     0.074 A 
ATOM     56  C   UNL A   1      43.733  31.027  26.889  1.00  0.00     0.031 C 
ATOM     57  C   UNL A   1      48.572  26.205  26.144  1.00  0.00     0.029 A 
ATOM     58  C   UNL A   1      49.044  27.586  26.152  1.00  0.00     0.049 A 
ATOM     59  H   UNL A   1      47.895  29.317  26.320  1.00  0.00     0.167 HD
ATOM     60  C   UNL A   1      45.416  32.849  26.889  1.00  0.00     0.037 A 
ATOM     61  C   UNL A   1      50.330  27.968  26.040  1.00  0.00     0.037 A 
ATOM     62  C   UNL A   1      46.766  33.351  26.858  1.00  0.00     0.049 A 
ATOM     63  C   UNL A   1      50.679  29.423  26.152  1.00  0.00     0.074 A 
ATOM     64  C   UNL A   1      47.207  34.658  26.971  1.00  0.00     0.029 A 
ATOM     65  N   UNL A   1      47.896  32.564  26.692  1.00  0.00    -0.354 N 
ATOM     66  N   UNL A   1      49.885  30.451  26.325  1.00  0.00    -0.248 NA
ATOM     67  C   UNL A   1      52.105  29.768  26.074  1.00  0.00     0.031 C 
ATOM     68  C   UNL A   1      48.600  34.666  26.839  1.00  0.00     0.029 A 
ATOM     69  C   UNL A   1      49.031  33.359  26.683  1.00  0.00     0.049 A 
ATOM     70  H   UNL A   1      47.892  31.584  26.594  1.00  0.00     0.167 HD
ATOM     71  C   UNL A   1      50.714  31.563  26.391  1.00  0.00     0.074 A 
ATOM     72  C   UNL A   1      52.074  31.080  26.263  1.00  0.00     0.031 C 
ATOM     73  C   UNL A   1      50.377  32.868  26.542  1.00  0.00     0.037 A 
BRANCH  60  74
ATOM     74  C   UNL A   1      44.296  33.843  27.003  1.00  0.00     0.057 A 
ATOM     75  C   UNL A   1      43.733  34.435  25.866  1.00  0.00     0.134 A 
ATOM     76  C   UNL A   1      43.813  34.257  28.252  1.00  0.00     0.134 A 
ATOM     77  F   UNL A   1      44.155  34.094  24.640  1.00  0.00    -0.206 F 
ATOM     78  C   UNL A   1      42.732  35.404  25.967  1.00  0.00     0.040 A 
ATOM     79  C   UNL A   1      42.796  35.207  28.366  1.00  0.00     0.040 A 
ATOM     80  F   UNL A   1      44.307  33.727  29.381  1.00  0.00    -0.206 F 
ATOM     81  C   UNL A   1      42.258  35.789  27.220  1.00  0.00     0.006 A 
ENDBRANCH  60  74
BRANCH  61  82
ATOM     82  C   UNL A   1      51.389  26.939  25.901  1.00  0.00     0.057 A 
ATOM     83  C   UNL A   1      51.795  26.473  24.646  1.00  0.00     0.134 A 
ATOM     84  C   UNL A   1      52.000  26.382  27.029  1.00  0.00     0.134 A 
ATOM     85  F   UNL A   1      51.237  26.962  23.529  1.00  0.00    -0.206 F 
ATOM     86  C   UNL A   1      52.770  25.483  24.518  1.00  0.00     0.040 A 
ATOM     87  C   UNL A   1      52.991  25.406  26.916  1.00  0.00     0.040 A 
ATOM     88  F   UNL A   1      51.660  26.799  28.257  1.00  0.00    -0.206 F 
ATOM     89  C   UNL A   1      53.374  24.949  25.656  1.00  0.00     0.006 A 
ENDBRANCH  61  82
BRANCH  73  90
ATOM     90  C   UNL A   1      51.500  33.861  26.577  1.00  0.00     0.057 A 
ATOM     91  C   UNL A   1      52.141  34.175  27.781  1.00  0.00     0.134 A 
ATOM     92  C   UNL A   1      51.930  34.524  25.421  1.00  0.00     0.134 A 
ATOM     93  F   UNL A   1      51.772  33.581  28.925  1.00  0.00    -0.206 F 
ATOM     94  C   UNL A   1      53.172  35.115  27.834  1.00  0.00     0.040 A 
ATOM     95  C   UNL A   1      52.976  35.449  25.457  1.00  0.00     0.040 A 
ATOM     96  F   UNL A   1      51.365  34.258  24.233  1.00  0.00    -0.206 F 
ATOM     97  C   UNL A   1      53.596  35.749  26.667  1.00  0.00     0.006 A 
ENDBRANCH  73  90
ENDBRANCH  47  48
ENDBRANCH  40  42
ENDBRANCH  39  40
ENDBRANCH  38  39
ENDBRANCH  37  38
ENDBRANCH  36  37
ENDBRANCH  35  36
ENDBRANCH  34  35
ENDBRANCH   1  34
TORSDOF 22
ENDMDL
