MODEL 1
REMARK VINA RESULT:     -10.8      0.000      0.000
REMARK SMILES Cc1ccccc1/[NH+]=C1\S[C@@H](CC(=O)Nc2ccc(C(=O)OCCOCCOCCOC(=O)c3ccc(-c4c5nc(c(-c6c(F)cccc6F)c6ccc([nH]6)c(-c6c(F)cccc6F)c6nc(c(-c7c(F)cccc7F)c7ccc4[nH]7)C=C6)C=C5)cc3)cc2)C(=O)N1C
REMARK SMILES IDX 26 1 25 2 24 3 23 4 22 5 20 6 21 7 19 8 16 9 17 10 89 11
REMARK SMILES IDX 18 12 88 13 15 14 13 15 14 16 12 18 11 19 8 20 9 21 10 23
REMARK SMILES IDX 92 24 90 25 93 26 91 27 7 28 1 29 2 30 3 31 4 32 6 33 5 34
REMARK SMILES IDX 27 35 28 36 29 37 30 38 31 39 32 40 33 41 34 42 35 43 87 44
REMARK SMILES IDX 36 45 86 46 37 47 38 48 39 49 80 50 40 51 85 52 79 53 81 54
REMARK SMILES IDX 41 55 84 56 78 57 77 58 42 60 68 61 51 62 67 63 52 64 55 65
REMARK SMILES IDX 66 66 82 67 53 68 54 69 65 71 83 72 56 73 43 74 44 75 49 76
REMARK SMILES IDX 45 77 46 78 48 79 50 80 47 81 69 82 70 83 75 84 71 85 72 86
REMARK SMILES IDX 74 87 76 88 73 89 57 90 58 91 63 92 59 93 60 94 62 95 64 96
REMARK SMILES IDX 61 97
REMARK H PARENT 15 17 8 22 81 59 55 70
REMARK Flexibility Score: inf
ROOT
ATOM      1  C   UNL A   1      32.948  36.569  32.275  1.00  0.00     0.188 C 
ENDROOT
BRANCH   1   2
ATOM      2  O   UNL A   1      32.692  37.343  31.108  1.00  0.00    -0.376 OA
BRANCH   2   3
ATOM      3  C   UNL A   1      33.443  37.276  29.913  1.00  0.00     0.202 C 
BRANCH   3   4
ATOM      4  C   UNL A   1      32.881  36.287  28.744  1.00  0.00     0.261 C 
BRANCH   4   5
ATOM      5  O   UNL A   1      33.126  34.703  28.653  1.00  0.00    -0.460 OA
BRANCH   5   6
ATOM      6  C   UNL A   1      33.852  33.543  28.418  1.00  0.00     0.338 C 
ATOM      7  O   UNL A   1      35.006  33.506  28.854  1.00  0.00    -0.246 OA
BRANCH   6   8
ATOM      8  C   UNL A   1      33.524  32.252  27.667  1.00  0.00     0.060 A 
ATOM      9  C   UNL A   1      32.700  29.620  27.096  1.00  0.00     0.041 A 
ATOM     10  C   UNL A   1      34.047  29.892  27.314  1.00  0.00     0.027 A 
ATOM     11  C   UNL A   1      31.815  30.669  26.867  1.00  0.00     0.027 A 
ATOM     12  C   UNL A   1      34.447  31.200  27.637  1.00  0.00     0.018 A 
ATOM     13  C   UNL A   1      32.217  31.980  27.186  1.00  0.00     0.018 A 
BRANCH   9  14
ATOM     14  N   UNL A   1      32.235  28.344  27.472  1.00  0.00    -0.326 N 
ATOM     15  C   UNL A   1      31.392  27.597  26.666  1.00  0.00     0.226 C 
ATOM     16  O   UNL A   1      30.686  26.719  27.168  1.00  0.00    -0.275 OA
ATOM     17  H   UNL A   1      32.519  27.971  28.338  1.00  0.00     0.169 HD
BRANCH  15  18
ATOM     18  C   UNL A   1      31.337  27.858  25.173  1.00  0.00     0.128 C 
BRANCH  18  19
ATOM     19  C   UNL A   1      31.354  26.624  24.285  1.00  0.00     0.183 C 
ATOM     20  N   UNL A   1      33.257  23.781  22.704  1.00  0.00    -0.234 N 
ATOM     21  C   UNL A   1      32.885  24.927  23.146  1.00  0.00     0.319 C 
ATOM     22  H   UNL A   1      33.280  23.751  21.720  1.00  0.00     0.313 HD
ATOM     23  S   UNL A   1      32.771  25.584  24.739  1.00  0.00    -0.022 SA
ATOM     24  N   UNL A   1      32.392  25.852  22.260  1.00  0.00    -0.193 N 
ATOM     25  C   UNL A   1      31.475  26.751  22.774  1.00  0.00     0.324 C 
ATOM     26  C   UNL A   1      32.695  25.775  20.842  1.00  0.00     0.301 C 
ATOM     27  O   UNL A   1      30.729  27.443  22.087  1.00  0.00    -0.245 OA
BRANCH  20  28
ATOM     28  C   UNL A   1      33.637  22.566  23.283  1.00  0.00     0.128 A 
ATOM     29  C   UNL A   1      36.181  22.855  23.679  1.00  0.00     0.049 C 
ATOM     30  C   UNL A   1      34.867  22.153  23.832  1.00  0.00    -0.004 A 
ATOM     31  C   UNL A   1      34.918  20.976  24.615  1.00  0.00     0.008 A 
ATOM     32  C   UNL A   1      33.784  20.221  24.887  1.00  0.00     0.001 A 
ATOM     33  C   UNL A   1      32.514  21.747  23.540  1.00  0.00     0.052 A 
ATOM     34  C   UNL A   1      32.573  20.603  24.337  1.00  0.00     0.004 A 
ENDBRANCH  20  28
ENDBRANCH  18  19
ENDBRANCH  15  18
ENDBRANCH   9  14
ENDBRANCH   6   8
ENDBRANCH   5   6
ENDBRANCH   4   5
ENDBRANCH   3   4
ENDBRANCH   2   3
ENDBRANCH   1   2
BRANCH   1  35
ATOM     35  C   UNL A   1      33.867  35.363  32.135  1.00  0.00     0.188 C 
BRANCH  35  36
ATOM     36  O   UNL A   1      35.013  35.533  32.955  1.00  0.00    -0.376 OA
BRANCH  36  37
ATOM     37  C   UNL A   1      35.774  34.353  33.157  1.00  0.00     0.202 C 
BRANCH  37  38
ATOM     38  C   UNL A   1      35.349  33.213  32.217  1.00  0.00     0.261 C 
BRANCH  38  39
ATOM     39  O   UNL A   1      35.538  31.943  32.879  1.00  0.00    -0.460 OA
BRANCH  39  40
ATOM     40  C   UNL A   1      36.836  31.612  33.191  1.00  0.00     0.338 C 
ATOM     41  O   UNL A   1      37.374  31.805  34.246  1.00  0.00    -0.246 OA
BRANCH  40  42
ATOM     42  C   UNL A   1      37.555  31.223  31.930  1.00  0.00     0.060 A 
ATOM     43  C   UNL A   1      37.367  30.015  31.266  1.00  0.00     0.016 A 
ATOM     44  C   UNL A   1      38.642  31.935  31.544  1.00  0.00     0.016 A 
ATOM     45  C   UNL A   1      38.393  29.455  30.413  1.00  0.00     0.010 A 
ATOM     46  C   UNL A   1      39.643  31.273  30.811  1.00  0.00     0.010 A 
ATOM     47  C   UNL A   1      39.680  29.990  30.264  1.00  0.00    -0.014 A 
BRANCH  47  48
ATOM     48  C   UNL A   1      40.986  29.134  29.829  1.00  0.00     0.031 A 
ATOM     49  C   UNL A   1      41.248  27.760  29.102  1.00  0.00     0.074 A 
ATOM     50  C   UNL A   1      42.200  29.672  30.111  1.00  0.00     0.049 A 
ATOM     51  N   UNL A   1      41.720  26.673  29.688  1.00  0.00    -0.248 NA
ATOM     52  C   UNL A   1      41.250  27.548  27.632  1.00  0.00     0.031 C 
ATOM     53  C   UNL A   1      43.530  29.144  29.790  1.00  0.00     0.029 A 
ATOM     54  N   UNL A   1      42.473  30.768  30.931  1.00  0.00    -0.354 N 
ATOM     55  C   UNL A   1      41.995  25.724  28.686  1.00  0.00     0.074 A 
ATOM     56  C   UNL A   1      41.487  26.251  27.459  1.00  0.00     0.031 C 
ATOM     57  C   UNL A   1      44.409  29.673  30.657  1.00  0.00     0.029 A 
ATOM     58  C   UNL A   1      43.663  30.482  31.603  1.00  0.00     0.049 A 
ATOM     59  H   UNL A   1      41.932  31.585  31.017  1.00  0.00     0.167 HD
ATOM     60  C   UNL A   1      42.947  24.741  28.673  1.00  0.00     0.037 A 
ATOM     61  C   UNL A   1      43.687  30.398  32.961  1.00  0.00     0.037 A 
ATOM     62  C   UNL A   1      44.022  25.029  29.574  1.00  0.00     0.049 A 
ATOM     63  C   UNL A   1      44.195  29.075  33.473  1.00  0.00     0.074 A 
ATOM     64  C   UNL A   1      45.269  25.594  29.371  1.00  0.00     0.029 A 
ATOM     65  N   UNL A   1      43.789  25.023  30.929  1.00  0.00    -0.354 N 
ATOM     66  N   UNL A   1      44.350  28.013  32.734  1.00  0.00    -0.248 NA
ATOM     67  C   UNL A   1      44.524  28.829  34.874  1.00  0.00     0.031 C 
ATOM     68  C   UNL A   1      45.763  26.003  30.628  1.00  0.00     0.029 A 
ATOM     69  C   UNL A   1      44.841  25.621  31.583  1.00  0.00     0.049 A 
ATOM     70  H   UNL A   1      42.990  24.646  31.365  1.00  0.00     0.167 HD
ATOM     71  C   UNL A   1      44.712  26.955  33.528  1.00  0.00     0.074 A 
ATOM     72  C   UNL A   1      44.848  27.524  34.850  1.00  0.00     0.031 C 
ATOM     73  C   UNL A   1      44.837  25.694  33.025  1.00  0.00     0.037 A 
BRANCH  60  74
ATOM     74  C   UNL A   1      43.014  23.738  27.534  1.00  0.00     0.057 A 
ATOM     75  C   UNL A   1      43.882  23.812  26.431  1.00  0.00     0.134 A 
ATOM     76  C   UNL A   1      42.152  22.622  27.541  1.00  0.00     0.134 A 
ATOM     77  F   UNL A   1      44.781  24.797  26.309  1.00  0.00    -0.206 F 
ATOM     78  C   UNL A   1      43.840  22.882  25.374  1.00  0.00     0.040 A 
ATOM     79  C   UNL A   1      42.087  21.702  26.484  1.00  0.00     0.040 A 
ATOM     80  F   UNL A   1      41.334  22.408  28.582  1.00  0.00    -0.206 F 
ATOM     81  C   UNL A   1      42.927  21.836  25.386  1.00  0.00     0.006 A 
ENDBRANCH  60  74
BRANCH  61  82
ATOM     82  C   UNL A   1      42.703  31.277  33.664  1.00  0.00     0.057 A 
ATOM     83  C   UNL A   1      42.950  32.666  33.709  1.00  0.00     0.134 A 
ATOM     84  C   UNL A   1      41.419  30.859  34.031  1.00  0.00     0.134 A 
ATOM     85  F   UNL A   1      44.149  33.151  33.350  1.00  0.00    -0.206 F 
ATOM     86  C   UNL A   1      41.951  33.595  34.018  1.00  0.00     0.040 A 
ATOM     87  C   UNL A   1      40.411  31.782  34.357  1.00  0.00     0.040 A 
ATOM     88  F   UNL A   1      41.074  29.567  33.954  1.00  0.00    -0.206 F 
ATOM     89  C   UNL A   1      40.670  33.153  34.331  1.00  0.00     0.006 A 
ENDBRANCH  61  82
BRANCH  73  90
ATOM     90  C   UNL A   1      45.003  24.406  33.793  1.00  0.00     0.057 A 
ATOM     91  C   UNL A   1      43.941  23.600  34.216  1.00  0.00     0.134 A 
ATOM     92  C   UNL A   1      46.292  23.846  33.977  1.00  0.00     0.134 A 
ATOM     93  F   UNL A   1      42.666  23.953  34.008  1.00  0.00    -0.206 F 
ATOM     94  C   UNL A   1      44.144  22.353  34.822  1.00  0.00     0.040 A 
ATOM     95  C   UNL A   1      46.502  22.580  34.526  1.00  0.00     0.040 A 
ATOM     96  F   UNL A   1      47.407  24.496  33.606  1.00  0.00    -0.206 F 
ATOM     97  C   UNL A   1      45.424  21.832  34.965  1.00  0.00     0.006 A 
ENDBRANCH  73  90
ENDBRANCH  47  48
ENDBRANCH  40  42
ENDBRANCH  39  40
ENDBRANCH  38  39
ENDBRANCH  37  38
ENDBRANCH  36  37
ENDBRANCH  35  36
ENDBRANCH   1  35
TORSDOF 21
ENDMDL
MODEL 2
REMARK VINA RESULT:     -10.8      6.048     11.370
REMARK SMILES Cc1ccccc1/[NH+]=C1\S[C@@H](CC(=O)Nc2ccc(C(=O)OCCOCCOCCOC(=O)c3ccc(-c4c5nc(c(-c6c(F)cccc6F)c6ccc([nH]6)c(-c6c(F)cccc6F)c6nc(c(-c7c(F)cccc7F)c7ccc4[nH]7)C=C6)C=C5)cc3)cc2)C(=O)N1C
REMARK SMILES IDX 26 1 25 2 24 3 23 4 22 5 20 6 21 7 19 8 16 9 17 10 89 11
REMARK SMILES IDX 18 12 88 13 15 14 13 15 14 16 12 18 11 19 8 20 9 21 10 23
REMARK SMILES IDX 92 24 90 25 93 26 91 27 7 28 1 29 2 30 3 31 4 32 6 33 5 34
REMARK SMILES IDX 27 35 28 36 29 37 30 38 31 39 32 40 33 41 34 42 35 43 87 44
REMARK SMILES IDX 36 45 86 46 37 47 38 48 39 49 80 50 40 51 85 52 79 53 81 54
REMARK SMILES IDX 41 55 84 56 78 57 77 58 42 60 68 61 51 62 67 63 52 64 55 65
REMARK SMILES IDX 66 66 82 67 53 68 54 69 65 71 83 72 56 73 43 74 44 75 49 76
REMARK SMILES IDX 45 77 46 78 48 79 50 80 47 81 69 82 70 83 75 84 71 85 72 86
REMARK SMILES IDX 74 87 76 88 73 89 57 90 58 91 63 92 59 93 60 94 62 95 64 96
REMARK SMILES IDX 61 97
REMARK H PARENT 15 17 8 22 81 59 55 70
REMARK Flexibility Score: inf
ROOT
ATOM      1  C   UNL A   1      36.854  31.400  30.452  1.00  0.00     0.188 C 
ENDROOT
BRANCH   1   2
ATOM      2  O   UNL A   1      36.176  31.634  29.222  1.00  0.00    -0.376 OA
BRANCH   2   3
ATOM      3  C   UNL A   1      34.797  31.922  29.102  1.00  0.00     0.202 C 
BRANCH   3   4
ATOM      4  C   UNL A   1      34.105  31.622  27.657  1.00  0.00     0.261 C 
BRANCH   4   5
ATOM      5  O   UNL A   1      33.353  30.266  27.237  1.00  0.00    -0.460 OA
BRANCH   5   6
ATOM      6  C   UNL A   1      33.093  29.150  26.453  1.00  0.00     0.338 C 
ATOM      7  O   UNL A   1      33.041  28.061  27.029  1.00  0.00    -0.246 OA
BRANCH   6   8
ATOM      8  C   UNL A   1      32.879  28.970  24.950  1.00  0.00     0.060 A 
ATOM      9  C   UNL A   1      32.589  27.798  22.405  1.00  0.00     0.041 A 
ATOM     10  C   UNL A   1      33.831  28.281  22.808  1.00  0.00     0.027 A 
ATOM     11  C   UNL A   1      31.449  28.155  23.118  1.00  0.00     0.027 A 
ATOM     12  C   UNL A   1      33.978  28.830  24.094  1.00  0.00     0.018 A 
ATOM     13  C   UNL A   1      31.596  28.709  24.404  1.00  0.00     0.018 A 
BRANCH   9  14
ATOM     14  N   UNL A   1      32.585  26.695  21.528  1.00  0.00    -0.326 N 
ATOM     15  C   UNL A   1      32.753  25.395  21.974  1.00  0.00     0.226 C 
ATOM     16  O   UNL A   1      33.157  24.529  21.194  1.00  0.00    -0.275 OA
ATOM     17  H   UNL A   1      32.458  26.855  20.565  1.00  0.00     0.169 HD
BRANCH  15  18
ATOM     18  C   UNL A   1      32.443  25.038  23.415  1.00  0.00     0.128 C 
BRANCH  18  19
ATOM     19  C   UNL A   1      33.338  23.979  24.041  1.00  0.00     0.183 C 
ATOM     20  N   UNL A   1      33.746  20.570  25.594  1.00  0.00    -0.234 N 
ATOM     21  C   UNL A   1      33.332  21.740  25.268  1.00  0.00     0.319 C 
ATOM     22  H   UNL A   1      34.079  20.537  26.520  1.00  0.00     0.313 HD
ATOM     23  S   UNL A   1      32.557  22.352  23.851  1.00  0.00    -0.022 SA
ATOM     24  N   UNL A   1      33.576  22.792  26.115  1.00  0.00    -0.193 N 
ATOM     25  C   UNL A   1      33.696  24.033  25.518  1.00  0.00     0.324 C 
ATOM     26  C   UNL A   1      33.856  22.575  27.524  1.00  0.00     0.301 C 
ATOM     27  O   UNL A   1      34.189  25.016  26.064  1.00  0.00    -0.245 OA
BRANCH  20  28
ATOM     28  C   UNL A   1      33.839  19.331  24.951  1.00  0.00     0.128 A 
ATOM     29  C   UNL A   1      36.390  18.993  24.655  1.00  0.00     0.049 C 
ATOM     30  C   UNL A   1      34.962  18.546  24.624  1.00  0.00    -0.004 A 
ATOM     31  C   UNL A   1      34.777  17.199  24.231  1.00  0.00     0.008 A 
ATOM     32  C   UNL A   1      33.519  16.611  24.183  1.00  0.00     0.001 A 
ATOM     33  C   UNL A   1      32.572  18.714  24.843  1.00  0.00     0.052 A 
ATOM     34  C   UNL A   1      32.406  17.376  24.480  1.00  0.00     0.004 A 
ENDBRANCH  20  28
ENDBRANCH  18  19
ENDBRANCH  15  18
ENDBRANCH   9  14
ENDBRANCH   6   8
ENDBRANCH   5   6
ENDBRANCH   4   5
ENDBRANCH   3   4
ENDBRANCH   2   3
ENDBRANCH   1   2
BRANCH   1  35
ATOM     35  C   UNL A   1      36.012  31.016  31.661  1.00  0.00     0.188 C 
BRANCH  35  36
ATOM     36  O   UNL A   1      35.682  32.177  32.406  1.00  0.00    -0.376 OA
BRANCH  36  37
ATOM     37  C   UNL A   1      36.796  32.957  32.808  1.00  0.00     0.202 C 
BRANCH  37  38
ATOM     38  C   UNL A   1      36.527  33.743  34.102  1.00  0.00     0.261 C 
BRANCH  38  39
ATOM     39  O   UNL A   1      37.652  34.601  34.389  1.00  0.00    -0.460 OA
BRANCH  39  40
ATOM     40  C   UNL A   1      38.451  34.219  35.443  1.00  0.00     0.338 C 
ATOM     41  O   UNL A   1      38.079  34.011  36.563  1.00  0.00    -0.246 OA
BRANCH  40  42
ATOM     42  C   UNL A   1      39.891  34.368  35.039  1.00  0.00     0.060 A 
ATOM     43  C   UNL A   1      40.894  34.835  35.883  1.00  0.00     0.016 A 
ATOM     44  C   UNL A   1      40.216  34.319  33.724  1.00  0.00     0.016 A 
ATOM     45  C   UNL A   1      42.093  35.453  35.360  1.00  0.00     0.010 A 
ATOM     46  C   UNL A   1      41.339  35.044  33.289  1.00  0.00     0.010 A 
ATOM     47  C   UNL A   1      42.312  35.741  34.006  1.00  0.00    -0.014 A 
BRANCH  47  48
ATOM     48  C   UNL A   1      43.303  36.904  33.463  1.00  0.00     0.031 A 
ATOM     49  C   UNL A   1      43.365  38.476  33.565  1.00  0.00     0.074 A 
ATOM     50  C   UNL A   1      44.385  36.509  32.745  1.00  0.00     0.049 A 
ATOM     51  N   UNL A   1      43.144  39.307  32.561  1.00  0.00    -0.248 NA
ATOM     52  C   UNL A   1      43.920  39.245  34.708  1.00  0.00     0.031 C 
ATOM     53  C   UNL A   1      45.458  37.333  32.182  1.00  0.00     0.029 A 
ATOM     54  N   UNL A   1      44.637  35.241  32.219  1.00  0.00    -0.354 N 
ATOM     55  C   UNL A   1      43.479  40.605  32.990  1.00  0.00     0.074 A 
ATOM     56  C   UNL A   1      43.752  40.526  34.390  1.00  0.00     0.031 C 
ATOM     57  C   UNL A   1      46.007  36.661  31.157  1.00  0.00     0.029 A 
ATOM     58  C   UNL A   1      45.253  35.433  30.981  1.00  0.00     0.049 A 
ATOM     59  H   UNL A   1      44.423  34.378  32.640  1.00  0.00     0.167 HD
ATOM     60  C   UNL A   1      43.950  41.657  32.254  1.00  0.00     0.037 A 
ATOM     61  C   UNL A   1      44.669  34.980  29.839  1.00  0.00     0.037 A 
ATOM     62  C   UNL A   1      44.568  41.222  31.037  1.00  0.00     0.049 A 
ATOM     63  C   UNL A   1      44.429  36.059  28.816  1.00  0.00     0.074 A 
ATOM     64  C   UNL A   1      45.892  40.998  30.704  1.00  0.00     0.029 A 
ATOM     65  N   UNL A   1      43.795  40.657  30.051  1.00  0.00    -0.354 N 
ATOM     66  N   UNL A   1      44.513  37.336  29.064  1.00  0.00    -0.248 NA
ATOM     67  C   UNL A   1      44.026  35.787  27.439  1.00  0.00     0.031 C 
ATOM     68  C   UNL A   1      45.912  40.217  29.529  1.00  0.00     0.029 A 
ATOM     69  C   UNL A   1      44.603  40.034  29.128  1.00  0.00     0.049 A 
ATOM     70  H   UNL A   1      42.811  40.693  30.011  1.00  0.00     0.167 HD
ATOM     71  C   UNL A   1      44.121  38.041  27.955  1.00  0.00     0.074 A 
ATOM     72  C   UNL A   1      43.866  37.030  26.953  1.00  0.00     0.031 C 
ATOM     73  C   UNL A   1      44.012  39.400  27.973  1.00  0.00     0.037 A 
BRANCH  60  74
ATOM     74  C   UNL A   1      44.150  43.023  32.888  1.00  0.00     0.057 A 
ATOM     75  C   UNL A   1      43.187  44.045  32.949  1.00  0.00     0.134 A 
ATOM     76  C   UNL A   1      45.392  43.339  33.479  1.00  0.00     0.134 A 
ATOM     77  F   UNL A   1      41.951  43.875  32.462  1.00  0.00    -0.206 F 
ATOM     78  C   UNL A   1      43.465  45.314  33.492  1.00  0.00     0.040 A 
ATOM     79  C   UNL A   1      45.687  44.606  34.003  1.00  0.00     0.040 A 
ATOM     80  F   UNL A   1      46.360  42.413  33.546  1.00  0.00    -0.206 F 
ATOM     81  C   UNL A   1      44.723  45.606  34.001  1.00  0.00     0.006 A 
ENDBRANCH  60  74
BRANCH  61  82
ATOM     82  C   UNL A   1      43.842  33.744  30.002  1.00  0.00     0.057 A 
ATOM     83  C   UNL A   1      42.439  33.875  30.073  1.00  0.00     0.134 A 
ATOM     84  C   UNL A   1      44.340  32.451  29.803  1.00  0.00     0.134 A 
ATOM     85  F   UNL A   1      41.881  35.085  30.240  1.00  0.00    -0.206 F 
ATOM     86  C   UNL A   1      41.574  32.795  29.873  1.00  0.00     0.040 A 
ATOM     87  C   UNL A   1      43.481  31.356  29.613  1.00  0.00     0.040 A 
ATOM     88  F   UNL A   1      45.654  32.241  29.654  1.00  0.00    -0.206 F 
ATOM     89  C   UNL A   1      42.096  31.529  29.628  1.00  0.00     0.006 A 
ENDBRANCH  61  82
BRANCH  73  90
ATOM     90  C   UNL A   1      43.388  40.292  26.928  1.00  0.00     0.057 A 
ATOM     91  C   UNL A   1      44.115  41.111  26.058  1.00  0.00     0.134 A 
ATOM     92  C   UNL A   1      42.000  40.208  26.655  1.00  0.00     0.134 A 
ATOM     93  F   UNL A   1      45.449  41.202  26.129  1.00  0.00    -0.206 F 
ATOM     94  C   UNL A   1      43.504  41.832  25.024  1.00  0.00     0.040 A 
ATOM     95  C   UNL A   1      41.391  40.876  25.591  1.00  0.00     0.040 A 
ATOM     96  F   UNL A   1      41.176  39.449  27.395  1.00  0.00    -0.206 F 
ATOM     97  C   UNL A   1      42.142  41.705  24.777  1.00  0.00     0.006 A 
ENDBRANCH  73  90
ENDBRANCH  47  48
ENDBRANCH  40  42
ENDBRANCH  39  40
ENDBRANCH  38  39
ENDBRANCH  37  38
ENDBRANCH  36  37
ENDBRANCH  35  36
ENDBRANCH   1  35
TORSDOF 21
ENDMDL
MODEL 3
REMARK VINA RESULT:     -10.2      7.697     12.499
REMARK SMILES Cc1ccccc1/[NH+]=C1\S[C@@H](CC(=O)Nc2ccc(C(=O)OCCOCCOCCOC(=O)c3ccc(-c4c5nc(c(-c6c(F)cccc6F)c6ccc([nH]6)c(-c6c(F)cccc6F)c6nc(c(-c7c(F)cccc7F)c7ccc4[nH]7)C=C6)C=C5)cc3)cc2)C(=O)N1C
REMARK SMILES IDX 26 1 25 2 24 3 23 4 22 5 20 6 21 7 19 8 16 9 17 10 89 11
REMARK SMILES IDX 18 12 88 13 15 14 13 15 14 16 12 18 11 19 8 20 9 21 10 23
REMARK SMILES IDX 92 24 90 25 93 26 91 27 7 28 1 29 2 30 3 31 4 32 6 33 5 34
REMARK SMILES IDX 27 35 28 36 29 37 30 38 31 39 32 40 33 41 34 42 35 43 87 44
REMARK SMILES IDX 36 45 86 46 37 47 38 48 39 49 80 50 40 51 85 52 79 53 81 54
REMARK SMILES IDX 41 55 84 56 78 57 77 58 42 60 68 61 51 62 67 63 52 64 55 65
REMARK SMILES IDX 66 66 82 67 53 68 54 69 65 71 83 72 56 73 43 74 44 75 49 76
REMARK SMILES IDX 45 77 46 78 48 79 50 80 47 81 69 82 70 83 75 84 71 85 72 86
REMARK SMILES IDX 74 87 76 88 73 89 57 90 58 91 63 92 59 93 60 94 62 95 64 96
REMARK SMILES IDX 61 97
REMARK H PARENT 15 17 8 22 81 59 55 70
REMARK Flexibility Score: inf
ROOT
ATOM      1  C   UNL A   1      36.697  31.404  30.080  1.00  0.00     0.188 C 
ENDROOT
BRANCH   1   2
ATOM      2  O   UNL A   1      35.672  31.270  29.101  1.00  0.00    -0.376 OA
BRANCH   2   3
ATOM      3  C   UNL A   1      34.483  32.035  29.066  1.00  0.00     0.202 C 
BRANCH   3   4
ATOM      4  C   UNL A   1      33.586  31.939  27.708  1.00  0.00     0.261 C 
BRANCH   4   5
ATOM      5  O   UNL A   1      32.886  30.613  27.133  1.00  0.00    -0.460 OA
BRANCH   5   6
ATOM      6  C   UNL A   1      32.767  29.490  26.326  1.00  0.00     0.338 C 
ATOM      7  O   UNL A   1      32.645  28.402  26.894  1.00  0.00    -0.246 OA
BRANCH   6   8
ATOM      8  C   UNL A   1      32.788  29.300  24.809  1.00  0.00     0.060 A 
ATOM      9  C   UNL A   1      32.873  28.110  22.258  1.00  0.00     0.041 A 
ATOM     10  C   UNL A   1      34.048  28.566  22.849  1.00  0.00     0.027 A 
ATOM     11  C   UNL A   1      31.645  28.502  22.779  1.00  0.00     0.027 A 
ATOM     12  C   UNL A   1      34.004  29.124  24.138  1.00  0.00     0.018 A 
ATOM     13  C   UNL A   1      31.601  29.065  24.068  1.00  0.00     0.018 A 
BRANCH   9  14
ATOM     14  N   UNL A   1      32.979  26.999  21.397  1.00  0.00    -0.326 N 
ATOM     15  C   UNL A   1      32.667  25.714  21.808  1.00  0.00     0.226 C 
ATOM     16  O   UNL A   1      33.149  24.747  21.211  1.00  0.00    -0.275 OA
ATOM     17  H   UNL A   1      33.285  27.142  20.473  1.00  0.00     0.169 HD
BRANCH  15  18
ATOM     18  C   UNL A   1      31.738  25.495  22.986  1.00  0.00     0.128 C 
BRANCH  18  19
ATOM     19  C   UNL A   1      32.208  24.483  24.021  1.00  0.00     0.183 C 
ATOM     20  N   UNL A   1      32.263  20.947  25.320  1.00  0.00    -0.234 N 
ATOM     21  C   UNL A   1      31.912  22.082  24.836  1.00  0.00     0.319 C 
ATOM     22  H   UNL A   1      31.896  20.795  26.221  1.00  0.00     0.313 HD
ATOM     23  S   UNL A   1      32.153  22.821  23.294  1.00  0.00    -0.022 SA
ATOM     24  N   UNL A   1      31.282  22.987  25.655  1.00  0.00    -0.193 N 
ATOM     25  C   UNL A   1      31.474  24.320  25.343  1.00  0.00     0.324 C 
ATOM     26  C   UNL A   1      30.600  22.561  26.865  1.00  0.00     0.301 C 
ATOM     27  O   UNL A   1      31.237  25.249  26.110  1.00  0.00    -0.245 OA
BRANCH  20  28
ATOM     28  C   UNL A   1      33.042  19.873  24.876  1.00  0.00     0.128 A 
ATOM     29  C   UNL A   1      35.460  20.793  24.988  1.00  0.00     0.049 C 
ATOM     30  C   UNL A   1      34.440  19.711  24.821  1.00  0.00    -0.004 A 
ATOM     31  C   UNL A   1      34.982  18.423  24.598  1.00  0.00     0.008 A 
ATOM     32  C   UNL A   1      34.177  17.299  24.457  1.00  0.00     0.001 A 
ATOM     33  C   UNL A   1      32.254  18.715  24.679  1.00  0.00     0.052 A 
ATOM     34  C   UNL A   1      32.802  17.446  24.487  1.00  0.00     0.004 A 
ENDBRANCH  20  28
ENDBRANCH  18  19
ENDBRANCH  15  18
ENDBRANCH   9  14
ENDBRANCH   6   8
ENDBRANCH   5   6
ENDBRANCH   4   5
ENDBRANCH   3   4
ENDBRANCH   2   3
ENDBRANCH   1   2
BRANCH   1  35
ATOM     35  C   UNL A   1      36.347  32.124  31.376  1.00  0.00     0.188 C 
BRANCH  35  36
ATOM     36  O   UNL A   1      36.674  33.500  31.265  1.00  0.00    -0.376 OA
BRANCH  36  37
ATOM     37  C   UNL A   1      37.816  33.772  30.469  1.00  0.00     0.202 C 
BRANCH  37  38
ATOM     38  C   UNL A   1      38.772  34.774  31.136  1.00  0.00     0.261 C 
BRANCH  38  39
ATOM     39  O   UNL A   1      39.925  34.073  31.653  1.00  0.00    -0.460 OA
BRANCH  39  40
ATOM     40  C   UNL A   1      40.579  33.249  30.766  1.00  0.00     0.338 C 
ATOM     41  O   UNL A   1      40.280  32.116  30.511  1.00  0.00    -0.246 OA
BRANCH  40  42
ATOM     42  C   UNL A   1      41.880  33.894  30.374  1.00  0.00     0.060 A 
ATOM     43  C   UNL A   1      43.005  33.939  31.190  1.00  0.00     0.016 A 
ATOM     44  C   UNL A   1      41.909  34.718  29.298  1.00  0.00     0.016 A 
ATOM     45  C   UNL A   1      44.009  34.968  31.034  1.00  0.00     0.010 A 
ATOM     46  C   UNL A   1      42.851  35.762  29.287  1.00  0.00     0.010 A 
ATOM     47  C   UNL A   1      43.902  36.055  30.157  1.00  0.00    -0.014 A 
BRANCH  47  48
ATOM     48  C   UNL A   1      44.658  37.475  30.356  1.00  0.00     0.031 A 
ATOM     49  C   UNL A   1      44.275  38.889  30.941  1.00  0.00     0.074 A 
ATOM     50  C   UNL A   1      45.955  37.546  29.963  1.00  0.00     0.049 A 
ATOM     51  N   UNL A   1      44.115  39.986  30.220  1.00  0.00    -0.248 NA
ATOM     52  C   UNL A   1      44.286  39.260  32.379  1.00  0.00     0.031 C 
ATOM     53  C   UNL A   1      46.883  38.677  30.072  1.00  0.00     0.029 A 
ATOM     54  N   UNL A   1      46.662  36.617  29.199  1.00  0.00    -0.354 N 
ATOM     55  C   UNL A   1      43.970  41.070  31.105  1.00  0.00     0.074 A 
ATOM     56  C   UNL A   1      43.876  40.525  32.423  1.00  0.00     0.031 C 
ATOM     57  C   UNL A   1      47.839  38.524  29.142  1.00  0.00     0.029 A 
ATOM     58  C   UNL A   1      47.510  37.345  28.361  1.00  0.00     0.049 A 
ATOM     59  H   UNL A   1      46.581  35.638  29.243  1.00  0.00     0.167 HD
ATOM     60  C   UNL A   1      44.324  42.379  30.924  1.00  0.00     0.037 A 
ATOM     61  C   UNL A   1      47.387  37.258  27.009  1.00  0.00     0.037 A 
ATOM     62  C   UNL A   1      45.332  42.523  29.917  1.00  0.00     0.049 A 
ATOM     63  C   UNL A   1      47.149  38.587  26.339  1.00  0.00     0.074 A 
ATOM     64  C   UNL A   1      46.708  42.648  30.001  1.00  0.00     0.029 A 
ATOM     65  N   UNL A   1      45.023  42.247  28.607  1.00  0.00    -0.354 N 
ATOM     66  N   UNL A   1      46.826  39.679  26.972  1.00  0.00    -0.248 NA
ATOM     67  C   UNL A   1      47.210  38.781  24.893  1.00  0.00     0.031 C 
ATOM     68  C   UNL A   1      47.242  42.367  28.726  1.00  0.00     0.029 A 
ATOM     69  C   UNL A   1      46.180  42.142  27.870  1.00  0.00     0.049 A 
ATOM     70  H   UNL A   1      44.111  42.142  28.249  1.00  0.00     0.167 HD
ATOM     71  C   UNL A   1      46.567  40.672  26.062  1.00  0.00     0.074 A 
ATOM     72  C   UNL A   1      46.861  40.074  24.779  1.00  0.00     0.031 C 
ATOM     73  C   UNL A   1      46.103  41.894  26.450  1.00  0.00     0.037 A 
BRANCH  60  74
ATOM     74  C   UNL A   1      43.982  43.429  31.968  1.00  0.00     0.057 A 
ATOM     75  C   UNL A   1      44.910  44.115  32.770  1.00  0.00     0.134 A 
ATOM     76  C   UNL A   1      42.633  43.777  32.185  1.00  0.00     0.134 A 
ATOM     77  F   UNL A   1      46.228  43.914  32.649  1.00  0.00    -0.206 F 
ATOM     78  C   UNL A   1      44.517  45.026  33.769  1.00  0.00     0.040 A 
ATOM     79  C   UNL A   1      42.228  44.667  33.191  1.00  0.00     0.040 A 
ATOM     80  F   UNL A   1      41.667  43.242  31.424  1.00  0.00    -0.206 F 
ATOM     81  C   UNL A   1      43.172  45.289  33.998  1.00  0.00     0.006 A 
ENDBRANCH  60  74
BRANCH  61  82
ATOM     82  C   UNL A   1      46.903  35.937  26.504  1.00  0.00     0.057 A 
ATOM     83  C   UNL A   1      47.836  34.888  26.352  1.00  0.00     0.134 A 
ATOM     84  C   UNL A   1      45.550  35.583  26.443  1.00  0.00     0.134 A 
ATOM     85  F   UNL A   1      49.153  35.141  26.421  1.00  0.00    -0.206 F 
ATOM     86  C   UNL A   1      47.447  33.550  26.232  1.00  0.00     0.040 A 
ATOM     87  C   UNL A   1      45.148  34.243  26.310  1.00  0.00     0.040 A 
ATOM     88  F   UNL A   1      44.595  36.499  26.644  1.00  0.00    -0.206 F 
ATOM     89  C   UNL A   1      46.096  33.223  26.224  1.00  0.00     0.006 A 
ENDBRANCH  61  82
BRANCH  73  90
ATOM     90  C   UNL A   1      45.565  42.998  25.574  1.00  0.00     0.057 A 
ATOM     91  C   UNL A   1      46.310  44.107  25.159  1.00  0.00     0.134 A 
ATOM     92  C   UNL A   1      44.288  42.872  24.971  1.00  0.00     0.134 A 
ATOM     93  F   UNL A   1      47.572  44.296  25.564  1.00  0.00    -0.206 F 
ATOM     94  C   UNL A   1      45.808  45.048  24.250  1.00  0.00     0.040 A 
ATOM     95  C   UNL A   1      43.803  43.772  24.020  1.00  0.00     0.040 A 
ATOM     96  F   UNL A   1      43.465  41.851  25.258  1.00  0.00    -0.206 F 
ATOM     97  C   UNL A   1      44.559  44.875  23.665  1.00  0.00     0.006 A 
ENDBRANCH  73  90
ENDBRANCH  47  48
ENDBRANCH  40  42
ENDBRANCH  39  40
ENDBRANCH  38  39
ENDBRANCH  37  38
ENDBRANCH  36  37
ENDBRANCH  35  36
ENDBRANCH   1  35
TORSDOF 21
ENDMDL
