MODEL 1
REMARK VINA RESULT:      -9.5      0.000      0.000
REMARK SMILES COc1ccc([C@@H]([NH3+])CC(=O)OCCOCCOCCOC(=O)c2ccc(-c3c4nc(c(-c5c(F)cccc5F)c5ccc([nH]5)c(-c5c(F)cccc5F)c5nc(c(-c6c(F)cccc6F)c6ccc3[nH]6)C=C5)C=C4)cc2)cc1
REMARK SMILES IDX 16 1 15 2 14 3 13 4 12 5 10 6 11 7 9 8 7 9 6 10 3 11 4 12
REMARK SMILES IDX 79 13 5 14 78 15 2 16 1 17 8 18 17 22 18 23 19 24 20 25
REMARK SMILES IDX 21 26 22 27 23 28 24 29 25 30 77 31 26 32 76 33 27 34 28 35
REMARK SMILES IDX 29 36 70 37 30 38 75 39 69 40 71 41 31 42 74 43 68 44 67 45
REMARK SMILES IDX 32 47 58 48 41 49 57 50 42 51 45 52 56 53 72 54 43 55 44 56
REMARK SMILES IDX 55 58 73 59 46 60 33 61 34 62 39 63 35 64 36 65 38 66 40 67
REMARK SMILES IDX 37 68 59 69 60 70 65 71 61 72 62 73 64 74 66 75 63 76 47 77
REMARK SMILES IDX 48 78 53 79 49 80 50 81 52 82 54 83 51 84
REMARK H PARENT 8 19 8 20 8 21 71 46 45 57
REMARK Flexibility Score: inf
ROOT
ATOM      1  C   UNL A   1      32.906  29.090  24.988  1.00  0.00     0.188 C 
ENDROOT
BRANCH   1   2
ATOM      2  O   UNL A   1      33.270  27.807  24.493  1.00  0.00    -0.376 OA
BRANCH   2   3
ATOM      3  C   UNL A   1      32.692  26.684  25.162  1.00  0.00     0.202 C 
BRANCH   3   4
ATOM      4  C   UNL A   1      33.368  25.322  24.927  1.00  0.00     0.261 C 
BRANCH   4   5
ATOM      5  O   UNL A   1      32.449  24.213  24.807  1.00  0.00    -0.463 OA
BRANCH   5   6
ATOM      6  C   UNL A   1      32.361  23.636  23.580  1.00  0.00     0.312 C 
ATOM      7  O   UNL A   1      31.927  24.201  22.580  1.00  0.00    -0.252 OA
BRANCH   6   8
ATOM      8  C   UNL A   1      32.967  22.248  23.480  1.00  0.00     0.192 C 
BRANCH   8   9
ATOM      9  C   UNL A   1      32.269  21.067  24.169  1.00  0.00     0.223 C 
BRANCH   9  10
ATOM     10  C   UNL A   1      32.943  19.725  23.992  1.00  0.00     0.010 A 
ATOM     11  C   UNL A   1      34.073  17.165  23.995  1.00  0.00     0.118 A 
ATOM     12  C   UNL A   1      32.961  17.433  23.201  1.00  0.00     0.047 A 
ATOM     13  C   UNL A   1      34.699  18.195  24.691  1.00  0.00     0.047 A 
ATOM     14  C   UNL A   1      32.399  18.710  23.195  1.00  0.00     0.014 A 
ATOM     15  C   UNL A   1      34.140  19.471  24.680  1.00  0.00     0.014 A 
BRANCH  11  16
ATOM     16  O   UNL A   1      34.532  15.876  24.016  1.00  0.00    -0.497 OA
ATOM     17  C   UNL A   1      35.299  15.601  25.189  1.00  0.00     0.278 C 
ENDBRANCH  11  16
ENDBRANCH   9  10
BRANCH   9  18
ATOM     18  N   UNL A   1      32.139  21.365  25.605  1.00  0.00    -0.351 N 
ATOM     19  H   UNL A   1      31.440  22.097  25.738  1.00  0.00     0.345 HD
ATOM     20  H   UNL A   1      33.038  21.683  25.968  1.00  0.00     0.345 HD
ATOM     21  H   UNL A   1      31.850  20.524  26.103  1.00  0.00     0.345 HD
ENDBRANCH   9  18
ENDBRANCH   8   9
ENDBRANCH   6   8
ENDBRANCH   5   6
ENDBRANCH   4   5
ENDBRANCH   3   4
ENDBRANCH   2   3
ENDBRANCH   1   2
BRANCH   1  22
ATOM     22  C   UNL A   1      31.428  29.469  24.854  1.00  0.00     0.188 C 
BRANCH  22  23
ATOM     23  O   UNL A   1      31.065  30.728  25.395  1.00  0.00    -0.376 OA
BRANCH  23  24
ATOM     24  C   UNL A   1      31.741  31.179  26.568  1.00  0.00     0.202 C 
BRANCH  24  25
ATOM     25  C   UNL A   1      31.649  32.667  26.956  1.00  0.00     0.261 C 
BRANCH  25  26
ATOM     26  O   UNL A   1      32.891  33.399  27.015  1.00  0.00    -0.460 OA
BRANCH  26  27
ATOM     27  C   UNL A   1      33.236  34.013  28.173  1.00  0.00     0.338 C 
ATOM     28  O   UNL A   1      32.556  34.784  28.817  1.00  0.00    -0.246 OA
BRANCH  27  29
ATOM     29  C   UNL A   1      34.480  33.360  28.681  1.00  0.00     0.060 A 
ATOM     30  C   UNL A   1      34.387  32.051  29.181  1.00  0.00     0.016 A 
ATOM     31  C   UNL A   1      35.733  33.974  28.584  1.00  0.00     0.016 A 
ATOM     32  C   UNL A   1      35.531  31.376  29.622  1.00  0.00     0.010 A 
ATOM     33  C   UNL A   1      36.875  33.303  29.036  1.00  0.00     0.010 A 
ATOM     34  C   UNL A   1      36.775  32.016  29.593  1.00  0.00    -0.014 A 
BRANCH  34  35
ATOM     35  C   UNL A   1      37.923  31.458  30.357  1.00  0.00     0.031 A 
ATOM     36  C   UNL A   1      38.798  30.446  29.665  1.00  0.00     0.074 A 
ATOM     37  C   UNL A   1      38.205  31.831  31.619  1.00  0.00     0.049 A 
ATOM     38  N   UNL A   1      39.796  29.744  30.135  1.00  0.00    -0.248 NA
ATOM     39  C   UNL A   1      38.495  30.189  28.247  1.00  0.00     0.031 C 
ATOM     40  C   UNL A   1      37.481  32.837  32.392  1.00  0.00     0.029 A 
ATOM     41  N   UNL A   1      39.183  31.385  32.477  1.00  0.00    -0.354 N 
ATOM     42  C   UNL A   1      40.232  28.957  29.075  1.00  0.00     0.074 A 
ATOM     43  C   UNL A   1      39.369  29.241  27.950  1.00  0.00     0.031 C 
ATOM     44  C   UNL A   1      38.031  32.921  33.618  1.00  0.00     0.029 A 
ATOM     45  C   UNL A   1      39.120  31.949  33.729  1.00  0.00     0.049 A 
ATOM     46  H   UNL A   1      39.864  30.723  32.219  1.00  0.00     0.167 HD
ATOM     47  C   UNL A   1      41.263  28.081  29.035  1.00  0.00     0.037 A 
ATOM     48  C   UNL A   1      39.839  31.688  34.841  1.00  0.00     0.037 A 
ATOM     49  C   UNL A   1      42.123  27.791  30.151  1.00  0.00     0.049 A 
ATOM     50  C   UNL A   1      40.923  30.638  34.800  1.00  0.00     0.074 A 
ATOM     51  C   UNL A   1      43.197  26.920  30.206  1.00  0.00     0.029 A 
ATOM     52  N   UNL A   1      42.004  28.360  31.409  1.00  0.00    -0.354 N 
ATOM     53  N   UNL A   1      41.334  29.906  33.792  1.00  0.00    -0.248 NA
ATOM     54  C   UNL A   1      41.643  30.377  36.057  1.00  0.00     0.031 C 
ATOM     55  C   UNL A   1      43.692  26.920  31.512  1.00  0.00     0.029 A 
ATOM     56  C   UNL A   1      42.970  27.840  32.254  1.00  0.00     0.049 A 
ATOM     57  H   UNL A   1      41.331  29.033  31.664  1.00  0.00     0.167 HD
ATOM     58  C   UNL A   1      42.384  29.134  34.281  1.00  0.00     0.074 A 
ATOM     59  C   UNL A   1      42.551  29.490  35.674  1.00  0.00     0.031 C 
ATOM     60  C   UNL A   1      43.145  28.218  33.633  1.00  0.00     0.037 A 
BRANCH  47  61
ATOM     61  C   UNL A   1      41.496  27.348  27.747  1.00  0.00     0.057 A 
ATOM     62  C   UNL A   1      42.287  27.883  26.721  1.00  0.00     0.134 A 
ATOM     63  C   UNL A   1      40.943  26.079  27.540  1.00  0.00     0.134 A 
ATOM     64  F   UNL A   1      42.830  29.104  26.847  1.00  0.00    -0.206 F 
ATOM     65  C   UNL A   1      42.498  27.191  25.527  1.00  0.00     0.040 A 
ATOM     66  C   UNL A   1      41.171  25.364  26.363  1.00  0.00     0.040 A 
ATOM     67  F   UNL A   1      40.177  25.507  28.482  1.00  0.00    -0.206 F 
ATOM     68  C   UNL A   1      41.947  25.925  25.349  1.00  0.00     0.006 A 
ENDBRANCH  47  61
BRANCH  48  69
ATOM     69  C   UNL A   1      39.554  32.412  36.109  1.00  0.00     0.057 A 
ATOM     70  C   UNL A   1      38.569  31.962  36.997  1.00  0.00     0.134 A 
ATOM     71  C   UNL A   1      40.219  33.600  36.437  1.00  0.00     0.134 A 
ATOM     72  F   UNL A   1      37.873  30.847  36.726  1.00  0.00    -0.206 F 
ATOM     73  C   UNL A   1      38.238  32.677  38.150  1.00  0.00     0.040 A 
ATOM     74  C   UNL A   1      39.919  34.309  37.603  1.00  0.00     0.040 A 
ATOM     75  F   UNL A   1      41.168  34.090  35.628  1.00  0.00    -0.206 F 
ATOM     76  C   UNL A   1      38.920  33.852  38.458  1.00  0.00     0.006 A 
ENDBRANCH  48  69
BRANCH  60  77
ATOM     77  C   UNL A   1      44.272  27.577  34.393  1.00  0.00     0.057 A 
ATOM     78  C   UNL A   1      45.536  28.170  34.500  1.00  0.00     0.134 A 
ATOM     79  C   UNL A   1      44.066  26.372  35.081  1.00  0.00     0.134 A 
ATOM     80  F   UNL A   1      45.804  29.319  33.861  1.00  0.00    -0.206 F 
ATOM     81  C   UNL A   1      46.560  27.577  35.242  1.00  0.00     0.040 A 
ATOM     82  C   UNL A   1      45.072  25.786  35.850  1.00  0.00     0.040 A 
ATOM     83  F   UNL A   1      42.875  25.756  35.034  1.00  0.00    -0.206 F 
ATOM     84  C   UNL A   1      46.326  26.386  35.927  1.00  0.00     0.006 A 
ENDBRANCH  60  77
ENDBRANCH  34  35
ENDBRANCH  27  29
ENDBRANCH  26  27
ENDBRANCH  25  26
ENDBRANCH  24  25
ENDBRANCH  23  24
ENDBRANCH  22  23
ENDBRANCH   1  22
TORSDOF 21
ENDMDL
MODEL 2
REMARK VINA RESULT:      -9.3      5.789     10.525
REMARK SMILES COc1ccc([C@@H]([NH3+])CC(=O)OCCOCCOCCOC(=O)c2ccc(-c3c4nc(c(-c5c(F)cccc5F)c5ccc([nH]5)c(-c5c(F)cccc5F)c5nc(c(-c6c(F)cccc6F)c6ccc3[nH]6)C=C5)C=C4)cc2)cc1
REMARK SMILES IDX 16 1 15 2 14 3 13 4 12 5 10 6 11 7 9 8 7 9 6 10 3 11 4 12
REMARK SMILES IDX 79 13 5 14 78 15 2 16 1 17 8 18 17 22 18 23 19 24 20 25
REMARK SMILES IDX 21 26 22 27 23 28 24 29 25 30 77 31 26 32 76 33 27 34 28 35
REMARK SMILES IDX 29 36 70 37 30 38 75 39 69 40 71 41 31 42 74 43 68 44 67 45
REMARK SMILES IDX 32 47 58 48 41 49 57 50 42 51 45 52 56 53 72 54 43 55 44 56
REMARK SMILES IDX 55 58 73 59 46 60 33 61 34 62 39 63 35 64 36 65 38 66 40 67
REMARK SMILES IDX 37 68 59 69 60 70 65 71 61 72 62 73 64 74 66 75 63 76 47 77
REMARK SMILES IDX 48 78 53 79 49 80 50 81 52 82 54 83 51 84
REMARK H PARENT 8 19 8 20 8 21 71 46 45 57
REMARK Flexibility Score: inf
ROOT
ATOM      1  C   UNL A   1      35.191  34.843  28.946  1.00  0.00     0.188 C 
ENDROOT
BRANCH   1   2
ATOM      2  O   UNL A   1      33.830  35.008  28.564  1.00  0.00    -0.376 OA
BRANCH   2   3
ATOM      3  C   UNL A   1      32.909  35.305  29.615  1.00  0.00     0.202 C 
BRANCH   3   4
ATOM      4  C   UNL A   1      33.034  36.695  30.264  1.00  0.00     0.261 C 
BRANCH   4   5
ATOM      5  O   UNL A   1      32.689  36.730  31.667  1.00  0.00    -0.463 OA
BRANCH   5   6
ATOM      6  C   UNL A   1      33.647  37.194  32.511  1.00  0.00     0.312 C 
ATOM      7  O   UNL A   1      33.936  38.380  32.642  1.00  0.00    -0.252 OA
BRANCH   6   8
ATOM      8  C   UNL A   1      34.278  36.142  33.405  1.00  0.00     0.192 C 
BRANCH   8   9
ATOM      9  C   UNL A   1      34.337  34.683  32.932  1.00  0.00     0.223 C 
BRANCH   9  10
ATOM     10  C   UNL A   1      35.374  33.823  33.618  1.00  0.00     0.010 A 
ATOM     11  C   UNL A   1      37.527  32.365  34.651  1.00  0.00     0.118 A 
ATOM     12  C   UNL A   1      36.995  33.427  35.377  1.00  0.00     0.047 A 
ATOM     13  C   UNL A   1      36.915  31.948  33.473  1.00  0.00     0.047 A 
ATOM     14  C   UNL A   1      35.918  34.152  34.865  1.00  0.00     0.014 A 
ATOM     15  C   UNL A   1      35.837  32.670  32.965  1.00  0.00     0.014 A 
BRANCH  11  16
ATOM     16  O   UNL A   1      38.629  31.742  35.170  1.00  0.00    -0.497 OA
ATOM     17  C   UNL A   1      38.295  30.886  36.263  1.00  0.00     0.278 C 
ENDBRANCH  11  16
ENDBRANCH   9  10
BRANCH   9  18
ATOM     18  N   UNL A   1      33.006  34.077  33.101  1.00  0.00    -0.351 N 
ATOM     19  H   UNL A   1      32.326  34.588  32.539  1.00  0.00     0.345 HD
ATOM     20  H   UNL A   1      32.736  34.120  34.084  1.00  0.00     0.345 HD
ATOM     21  H   UNL A   1      33.035  33.104  32.799  1.00  0.00     0.345 HD
ENDBRANCH   9  18
ENDBRANCH   8   9
ENDBRANCH   6   8
ENDBRANCH   5   6
ENDBRANCH   4   5
ENDBRANCH   3   4
ENDBRANCH   2   3
ENDBRANCH   1   2
BRANCH   1  22
ATOM     22  C   UNL A   1      35.893  33.592  28.412  1.00  0.00     0.188 C 
BRANCH  22  23
ATOM     23  O   UNL A   1      35.178  32.855  27.435  1.00  0.00    -0.376 OA
BRANCH  23  24
ATOM     24  C   UNL A   1      34.666  31.573  27.800  1.00  0.00     0.202 C 
BRANCH  24  25
ATOM     25  C   UNL A   1      35.024  30.993  29.181  1.00  0.00     0.261 C 
BRANCH  25  26
ATOM     26  O   UNL A   1      35.950  29.887  29.198  1.00  0.00    -0.460 OA
BRANCH  26  27
ATOM     27  C   UNL A   1      36.685  29.665  30.315  1.00  0.00     0.338 C 
ATOM     28  O   UNL A   1      36.267  29.361  31.412  1.00  0.00    -0.246 OA
BRANCH  27  29
ATOM     29  C   UNL A   1      38.119  29.570  29.904  1.00  0.00     0.060 A 
ATOM     30  C   UNL A   1      38.444  29.817  28.560  1.00  0.00     0.016 A 
ATOM     31  C   UNL A   1      39.142  29.341  30.829  1.00  0.00     0.016 A 
ATOM     32  C   UNL A   1      39.776  29.792  28.135  1.00  0.00     0.010 A 
ATOM     33  C   UNL A   1      40.474  29.304  30.401  1.00  0.00     0.010 A 
ATOM     34  C   UNL A   1      40.795  29.490  29.045  1.00  0.00    -0.014 A 
BRANCH  34  35
ATOM     35  C   UNL A   1      42.153  29.126  28.558  1.00  0.00     0.031 A 
ATOM     36  C   UNL A   1      42.392  27.692  28.163  1.00  0.00     0.074 A 
ATOM     37  C   UNL A   1      43.150  30.022  28.450  1.00  0.00     0.049 A 
ATOM     38  N   UNL A   1      43.500  27.099  27.799  1.00  0.00    -0.248 NA
ATOM     39  C   UNL A   1      41.216  26.806  28.192  1.00  0.00     0.031 C 
ATOM     40  C   UNL A   1      43.048  31.450  28.743  1.00  0.00     0.029 A 
ATOM     41  N   UNL A   1      44.461  29.848  28.071  1.00  0.00    -0.354 N 
ATOM     42  C   UNL A   1      43.155  25.773  27.566  1.00  0.00     0.074 A 
ATOM     43  C   UNL A   1      41.746  25.639  27.864  1.00  0.00     0.031 C 
ATOM     44  C   UNL A   1      44.252  32.021  28.547  1.00  0.00     0.029 A 
ATOM     45  C   UNL A   1      45.217  30.993  28.153  1.00  0.00     0.049 A 
ATOM     46  H   UNL A   1      44.824  28.984  27.771  1.00  0.00     0.167 HD
ATOM     47  C   UNL A   1      43.937  24.755  27.135  1.00  0.00     0.037 A 
ATOM     48  C   UNL A   1      46.539  31.181  27.961  1.00  0.00     0.037 A 
ATOM     49  C   UNL A   1      45.339  24.880  26.841  1.00  0.00     0.049 A 
ATOM     50  C   UNL A   1      47.412  30.011  27.572  1.00  0.00     0.074 A 
ATOM     51  C   UNL A   1      46.214  23.905  26.395  1.00  0.00     0.029 A 
ATOM     52  N   UNL A   1      46.072  26.049  26.968  1.00  0.00    -0.354 N 
ATOM     53  N   UNL A   1      47.076  28.763  27.345  1.00  0.00    -0.248 NA
ATOM     54  C   UNL A   1      48.850  30.278  27.415  1.00  0.00     0.031 C 
ATOM     55  C   UNL A   1      47.489  24.471  26.307  1.00  0.00     0.029 A 
ATOM     56  C   UNL A   1      47.395  25.813  26.633  1.00  0.00     0.049 A 
ATOM     57  H   UNL A   1      45.707  26.917  27.255  1.00  0.00     0.167 HD
ATOM     58  C   UNL A   1      48.250  28.111  26.977  1.00  0.00     0.074 A 
ATOM     59  C   UNL A   1      49.304  29.101  27.006  1.00  0.00     0.031 C 
ATOM     60  C   UNL A   1      48.434  26.810  26.641  1.00  0.00     0.037 A 
BRANCH  47  61
ATOM     61  C   UNL A   1      43.294  23.407  26.987  1.00  0.00     0.057 A 
ATOM     62  C   UNL A   1      43.041  22.581  28.090  1.00  0.00     0.134 A 
ATOM     63  C   UNL A   1      42.899  22.942  25.727  1.00  0.00     0.134 A 
ATOM     64  F   UNL A   1      43.413  22.958  29.323  1.00  0.00    -0.206 F 
ATOM     65  C   UNL A   1      42.440  21.329  27.940  1.00  0.00     0.040 A 
ATOM     66  C   UNL A   1      42.270  21.707  25.568  1.00  0.00     0.040 A 
ATOM     67  F   UNL A   1      43.110  23.685  24.629  1.00  0.00    -0.206 F 
ATOM     68  C   UNL A   1      42.045  20.893  26.678  1.00  0.00     0.006 A 
ENDBRANCH  47  61
BRANCH  48  69
ATOM     69  C   UNL A   1      47.145  32.526  28.151  1.00  0.00     0.057 A 
ATOM     70  C   UNL A   1      47.153  33.472  27.119  1.00  0.00     0.134 A 
ATOM     71  C   UNL A   1      47.778  32.879  29.350  1.00  0.00     0.134 A 
ATOM     72  F   UNL A   1      46.592  33.185  25.934  1.00  0.00    -0.206 F 
ATOM     73  C   UNL A   1      47.789  34.708  27.261  1.00  0.00     0.040 A 
ATOM     74  C   UNL A   1      48.391  34.124  29.516  1.00  0.00     0.040 A 
ATOM     75  F   UNL A   1      47.812  32.019  30.377  1.00  0.00    -0.206 F 
ATOM     76  C   UNL A   1      48.405  35.038  28.465  1.00  0.00     0.006 A 
ENDBRANCH  48  69
BRANCH  60  77
ATOM     77  C   UNL A   1      49.811  26.386  26.211  1.00  0.00     0.057 A 
ATOM     78  C   UNL A   1      50.303  26.631  24.923  1.00  0.00     0.134 A 
ATOM     79  C   UNL A   1      50.679  25.774  27.125  1.00  0.00     0.134 A 
ATOM     80  F   UNL A   1      49.522  27.207  23.995  1.00  0.00    -0.206 F 
ATOM     81  C   UNL A   1      51.597  26.262  24.553  1.00  0.00     0.040 A 
ATOM     82  C   UNL A   1      51.986  25.428  26.777  1.00  0.00     0.040 A 
ATOM     83  F   UNL A   1      50.280  25.521  28.381  1.00  0.00    -0.206 F 
ATOM     84  C   UNL A   1      52.447  25.666  25.484  1.00  0.00     0.006 A 
ENDBRANCH  60  77
ENDBRANCH  34  35
ENDBRANCH  27  29
ENDBRANCH  26  27
ENDBRANCH  25  26
ENDBRANCH  24  25
ENDBRANCH  23  24
ENDBRANCH  22  23
ENDBRANCH   1  22
TORSDOF 21
ENDMDL
MODEL 3
REMARK VINA RESULT:      -9.3      0.936      6.335
REMARK SMILES COc1ccc([C@@H]([NH3+])CC(=O)OCCOCCOCCOC(=O)c2ccc(-c3c4nc(c(-c5c(F)cccc5F)c5ccc([nH]5)c(-c5c(F)cccc5F)c5nc(c(-c6c(F)cccc6F)c6ccc3[nH]6)C=C5)C=C4)cc2)cc1
REMARK SMILES IDX 16 1 15 2 14 3 13 4 12 5 10 6 11 7 9 8 7 9 6 10 3 11 4 12
REMARK SMILES IDX 79 13 5 14 78 15 2 16 1 17 8 18 17 22 18 23 19 24 20 25
REMARK SMILES IDX 21 26 22 27 23 28 24 29 25 30 77 31 26 32 76 33 27 34 28 35
REMARK SMILES IDX 29 36 70 37 30 38 75 39 69 40 71 41 31 42 74 43 68 44 67 45
REMARK SMILES IDX 32 47 58 48 41 49 57 50 42 51 45 52 56 53 72 54 43 55 44 56
REMARK SMILES IDX 55 58 73 59 46 60 33 61 34 62 39 63 35 64 36 65 38 66 40 67
REMARK SMILES IDX 37 68 59 69 60 70 65 71 61 72 62 73 64 74 66 75 63 76 47 77
REMARK SMILES IDX 48 78 53 79 49 80 50 81 52 82 54 83 51 84
REMARK H PARENT 8 19 8 20 8 21 71 46 45 57
REMARK Flexibility Score: inf
ROOT
ATOM      1  C   UNL A   1      32.918  29.186  24.982  1.00  0.00     0.188 C 
ENDROOT
BRANCH   1   2
ATOM      2  O   UNL A   1      33.431  28.200  24.092  1.00  0.00    -0.376 OA
BRANCH   2   3
ATOM      3  C   UNL A   1      32.657  27.944  22.919  1.00  0.00     0.202 C 
BRANCH   3   4
ATOM      4  C   UNL A   1      32.074  26.527  22.776  1.00  0.00     0.261 C 
BRANCH   4   5
ATOM      5  O   UNL A   1      32.356  25.652  23.891  1.00  0.00    -0.463 OA
BRANCH   5   6
ATOM      6  C   UNL A   1      31.314  24.911  24.352  1.00  0.00     0.312 C 
ATOM      7  O   UNL A   1      30.151  25.303  24.390  1.00  0.00    -0.252 OA
BRANCH   6   8
ATOM      8  C   UNL A   1      31.658  23.477  24.711  1.00  0.00     0.192 C 
BRANCH   8   9
ATOM      9  C   UNL A   1      32.552  22.655  23.773  1.00  0.00     0.223 C 
BRANCH   9  10
ATOM     10  C   UNL A   1      32.497  21.158  23.974  1.00  0.00     0.010 A 
ATOM     11  C   UNL A   1      32.700  18.373  24.161  1.00  0.00     0.118 A 
ATOM     12  C   UNL A   1      32.918  19.163  25.287  1.00  0.00     0.047 A 
ATOM     13  C   UNL A   1      32.262  18.953  22.975  1.00  0.00     0.047 A 
ATOM     14  C   UNL A   1      32.812  20.551  25.196  1.00  0.00     0.014 A 
ATOM     15  C   UNL A   1      32.152  20.340  22.887  1.00  0.00     0.014 A 
BRANCH  11  16
ATOM     16  O   UNL A   1      32.893  17.025  24.295  1.00  0.00    -0.497 OA
ATOM     17  C   UNL A   1      33.991  16.561  23.510  1.00  0.00     0.278 C 
ENDBRANCH  11  16
ENDBRANCH   9  10
BRANCH   9  18
ATOM     18  N   UNL A   1      32.199  22.977  22.380  1.00  0.00    -0.351 N 
ATOM     19  H   UNL A   1      31.568  23.778  22.366  1.00  0.00     0.345 HD
ATOM     20  H   UNL A   1      31.738  22.173  21.953  1.00  0.00     0.345 HD
ATOM     21  H   UNL A   1      33.046  23.201  21.858  1.00  0.00     0.345 HD
ENDBRANCH   9  18
ENDBRANCH   8   9
ENDBRANCH   6   8
ENDBRANCH   5   6
ENDBRANCH   4   5
ENDBRANCH   3   4
ENDBRANCH   2   3
ENDBRANCH   1   2
BRANCH   1  22
ATOM     22  C   UNL A   1      31.446  29.561  24.796  1.00  0.00     0.188 C 
BRANCH  22  23
ATOM     23  O   UNL A   1      31.040  30.778  25.399  1.00  0.00    -0.376 OA
BRANCH  23  24
ATOM     24  C   UNL A   1      31.786  31.258  26.518  1.00  0.00     0.202 C 
BRANCH  24  25
ATOM     25  C   UNL A   1      31.705  32.752  26.881  1.00  0.00     0.261 C 
BRANCH  25  26
ATOM     26  O   UNL A   1      32.954  33.474  26.932  1.00  0.00    -0.460 OA
BRANCH  26  27
ATOM     27  C   UNL A   1      33.372  33.976  28.120  1.00  0.00     0.338 C 
ATOM     28  O   UNL A   1      32.766  34.742  28.840  1.00  0.00    -0.246 OA
BRANCH  27  29
ATOM     29  C   UNL A   1      34.580  33.202  28.539  1.00  0.00     0.060 A 
ATOM     30  C   UNL A   1      34.439  31.825  28.776  1.00  0.00     0.016 A 
ATOM     31  C   UNL A   1      35.848  33.788  28.607  1.00  0.00     0.016 A 
ATOM     32  C   UNL A   1      35.549  31.047  29.121  1.00  0.00     0.010 A 
ATOM     33  C   UNL A   1      36.957  33.011  28.964  1.00  0.00     0.010 A 
ATOM     34  C   UNL A   1      36.807  31.645  29.261  1.00  0.00    -0.014 A 
BRANCH  34  35
ATOM     35  C   UNL A   1      37.910  30.919  29.946  1.00  0.00     0.031 A 
ATOM     36  C   UNL A   1      38.162  31.240  31.396  1.00  0.00     0.074 A 
ATOM     37  C   UNL A   1      38.668  29.996  29.327  1.00  0.00     0.049 A 
ATOM     38  N   UNL A   1      39.113  30.823  32.192  1.00  0.00    -0.248 NA
ATOM     39  C   UNL A   1      37.210  32.167  32.030  1.00  0.00     0.031 C 
ATOM     40  C   UNL A   1      38.503  29.546  27.947  1.00  0.00     0.029 A 
ATOM     41  N   UNL A   1      39.745  29.278  29.790  1.00  0.00    -0.354 N 
ATOM     42  C   UNL A   1      38.879  31.444  33.413  1.00  0.00     0.074 A 
ATOM     43  C   UNL A   1      37.719  32.292  33.245  1.00  0.00     0.031 C 
ATOM     44  C   UNL A   1      39.457  28.637  27.670  1.00  0.00     0.029 A 
ATOM     45  C   UNL A   1      40.322  28.470  28.839  1.00  0.00     0.049 A 
ATOM     46  H   UNL A   1      40.073  29.338  30.716  1.00  0.00     0.167 HD
ATOM     47  C   UNL A   1      39.560  31.316  34.576  1.00  0.00     0.037 A 
ATOM     48  C   UNL A   1      41.435  27.710  28.899  1.00  0.00     0.037 A 
ATOM     49  C   UNL A   1      40.715  30.477  34.749  1.00  0.00     0.049 A 
ATOM     50  C   UNL A   1      42.235  27.656  30.178  1.00  0.00     0.074 A 
ATOM     51  C   UNL A   1      41.471  30.280  35.892  1.00  0.00     0.029 A 
ATOM     52  N   UNL A   1      41.285  29.701  33.752  1.00  0.00    -0.354 N 
ATOM     53  N   UNL A   1      42.001  28.238  31.330  1.00  0.00    -0.248 NA
ATOM     54  C   UNL A   1      43.458  26.837  30.164  1.00  0.00     0.031 C 
ATOM     55  C   UNL A   1      42.532  29.428  35.570  1.00  0.00     0.029 A 
ATOM     56  C   UNL A   1      42.398  29.043  34.247  1.00  0.00     0.049 A 
ATOM     57  H   UNL A   1      40.949  29.631  32.829  1.00  0.00     0.167 HD
ATOM     58  C   UNL A   1      43.018  27.821  32.185  1.00  0.00     0.074 A 
ATOM     59  C   UNL A   1      43.868  26.934  31.421  1.00  0.00     0.031 C 
ATOM     60  C   UNL A   1      43.225  28.142  33.486  1.00  0.00     0.037 A 
BRANCH  47  61
ATOM     61  C   UNL A   1      39.088  32.129  35.745  1.00  0.00     0.057 A 
ATOM     62  C   UNL A   1      39.485  33.460  35.932  1.00  0.00     0.134 A 
ATOM     63  C   UNL A   1      38.201  31.582  36.681  1.00  0.00     0.134 A 
ATOM     64  F   UNL A   1      40.348  34.038  35.084  1.00  0.00    -0.206 F 
ATOM     65  C   UNL A   1      39.037  34.208  37.023  1.00  0.00     0.040 A 
ATOM     66  C   UNL A   1      37.722  32.329  37.758  1.00  0.00     0.040 A 
ATOM     67  F   UNL A   1      37.778  30.314  36.559  1.00  0.00    -0.206 F 
ATOM     68  C   UNL A   1      38.147  33.645  37.934  1.00  0.00     0.006 A 
ENDBRANCH  47  61
BRANCH  48  69
ATOM     69  C   UNL A   1      41.890  26.945  27.707  1.00  0.00     0.057 A 
ATOM     70  C   UNL A   1      42.731  27.525  26.749  1.00  0.00     0.134 A 
ATOM     71  C   UNL A   1      41.451  25.637  27.468  1.00  0.00     0.134 A 
ATOM     72  F   UNL A   1      43.162  28.786  26.902  1.00  0.00    -0.206 F 
ATOM     73  C   UNL A   1      43.098  26.843  25.586  1.00  0.00     0.040 A 
ATOM     74  C   UNL A   1      41.835  24.932  26.324  1.00  0.00     0.040 A 
ATOM     75  F   UNL A   1      40.639  25.025  28.341  1.00  0.00    -0.206 F 
ATOM     76  C   UNL A   1      42.654  25.540  25.375  1.00  0.00     0.006 A 
ENDBRANCH  48  69
BRANCH  60  77
ATOM     77  C   UNL A   1      44.375  27.484  34.196  1.00  0.00     0.057 A 
ATOM     78  C   UNL A   1      45.650  28.062  34.254  1.00  0.00     0.134 A 
ATOM     79  C   UNL A   1      44.184  26.277  34.883  1.00  0.00     0.134 A 
ATOM     80  F   UNL A   1      45.904  29.212  33.612  1.00  0.00    -0.206 F 
ATOM     81  C   UNL A   1      46.697  27.452  34.949  1.00  0.00     0.040 A 
ATOM     82  C   UNL A   1      45.214  25.674  35.607  1.00  0.00     0.040 A 
ATOM     83  F   UNL A   1      42.985  25.674  34.882  1.00  0.00    -0.206 F 
ATOM     84  C   UNL A   1      46.478  26.259  35.636  1.00  0.00     0.006 A 
ENDBRANCH  60  77
ENDBRANCH  34  35
ENDBRANCH  27  29
ENDBRANCH  26  27
ENDBRANCH  25  26
ENDBRANCH  24  25
ENDBRANCH  23  24
ENDBRANCH  22  23
ENDBRANCH   1  22
TORSDOF 21
ENDMDL
