MODEL 1
REMARK VINA RESULT:     -11.0      0.000      0.000
REMARK SMILES Cc1cc(Br)cc2c1O[C@H](C(F)(F)F)C(C(=O)OCCOCCOCCOC(=O)c1ccc(-c3c4nc(c(-c5c(F)cccc5F)c5ccc([nH]5)c(-c5c(F)cccc5F)c5nc(c(-c6c(F)cccc6F)c6ccc3[nH]6)C=C5)C=C4)cc1)=C2
REMARK SMILES IDX 23 1 22 2 21 3 20 4 19 5 18 6 16 7 17 8 15 9 1 10 2 11 3 12
REMARK SMILES IDX 8 13 4 14 7 15 9 16 5 17 6 18 84 19 10 20 11 21 12 22 13 23
REMARK SMILES IDX 14 24 24 25 25 26 26 27 27 28 28 29 29 30 30 31 31 32 83 33
REMARK SMILES IDX 32 34 82 35 33 36 34 37 35 38 76 39 36 40 81 41 75 42 77 43
REMARK SMILES IDX 37 44 80 45 74 46 73 47 38 49 64 50 47 51 63 52 48 53 51 54
REMARK SMILES IDX 62 55 78 56 49 57 50 58 61 60 79 61 52 62 39 63 40 64 45 65
REMARK SMILES IDX 41 66 42 67 44 68 46 69 43 70 65 71 66 72 71 73 67 74 68 75
REMARK SMILES IDX 70 76 72 77 69 78 53 79 54 80 59 81 55 82 56 83 58 84 60 85
REMARK SMILES IDX 57 86
REMARK H PARENT 77 48 51 59
REMARK Flexibility Score: inf
ROOT
ATOM      1  C   UNL A   1      42.318  19.567  26.391  1.00  0.00     0.188 C 
ENDROOT
BRANCH   1   2
ATOM      2  C   UNL A   1      40.885  20.105  26.195  1.00  0.00     0.188 C 
BRANCH   2   3
ATOM      3  O   UNL A   1      40.664  21.488  26.022  1.00  0.00    -0.376 OA
BRANCH   3   4
ATOM      4  C   UNL A   1      39.409  22.070  26.323  1.00  0.00     0.202 C 
BRANCH   4   5
ATOM      5  C   UNL A   1      38.154  21.896  25.452  1.00  0.00     0.261 C 
BRANCH   5   6
ATOM      6  O   UNL A   1      37.359  23.068  25.243  1.00  0.00    -0.460 OA
BRANCH   6   7
ATOM      7  C   UNL A   1      36.495  23.003  24.202  1.00  0.00     0.338 C 
ATOM      8  O   UNL A   1      36.725  22.561  23.088  1.00  0.00    -0.246 OA
BRANCH   7   9
ATOM      9  C   UNL A   1      35.146  23.400  24.653  1.00  0.00     0.087 C 
ATOM     10  C   UNL A   1      30.356  23.536  26.539  1.00  0.00     0.048 C 
ATOM     11  C   UNL A   1      31.462  24.521  26.278  1.00  0.00    -0.007 A 
ATOM     12  C   UNL A   1      31.289  25.848  26.708  1.00  0.00     0.023 A 
ATOM     13  C   UNL A   1      32.666  24.158  25.650  1.00  0.00     0.130 A 
ATOM     14  C   UNL A   1      32.294  26.791  26.504  1.00  0.00     0.019 A 
ATOM     15  C   UNL A   1      33.686  25.103  25.486  1.00  0.00     0.019 A 
ATOM     16  O   UNL A   1      32.777  22.866  25.218  1.00  0.00    -0.475 OA
ATOM     17  Br  UNL A   1      32.046  28.569  27.096  1.00  0.00    -0.051 Br
ATOM     18  C   UNL A   1      33.490  26.427  25.892  1.00  0.00     0.027 A 
ATOM     19  C   UNL A   1      34.976  24.692  24.958  1.00  0.00     0.027 C 
ATOM     20  C   UNL A   1      34.057  22.368  24.743  1.00  0.00     0.316 C 
BRANCH  20  21
ATOM     21  C   UNL A   1      34.461  21.172  25.613  1.00  0.00     0.430 C 
ATOM     22  F   UNL A   1      35.276  20.325  24.940  1.00  0.00    -0.167 F 
ATOM     23  F   UNL A   1      35.137  21.564  26.720  1.00  0.00    -0.167 F 
ATOM     24  F   UNL A   1      33.388  20.462  26.025  1.00  0.00    -0.167 F 
ENDBRANCH  20  21
ENDBRANCH   7   9
ENDBRANCH   6   7
ENDBRANCH   5   6
ENDBRANCH   4   5
ENDBRANCH   3   4
ENDBRANCH   2   3
ENDBRANCH   1   2
BRANCH   1  25
ATOM     25  O   UNL A   1      43.399  20.468  26.409  1.00  0.00    -0.376 OA
BRANCH  25  26
ATOM     26  C   UNL A   1      44.134  20.714  25.220  1.00  0.00     0.202 C 
BRANCH  26  27
ATOM     27  C   UNL A   1      44.121  22.036  24.424  1.00  0.00     0.261 C 
BRANCH  27  28
ATOM     28  O   UNL A   1      43.410  23.145  24.984  1.00  0.00    -0.460 OA
BRANCH  28  29
ATOM     29  C   UNL A   1      44.143  24.273  25.182  1.00  0.00     0.338 C 
ATOM     30  O   UNL A   1      45.136  24.626  24.580  1.00  0.00    -0.246 OA
BRANCH  29  31
ATOM     31  C   UNL A   1      43.421  25.141  26.135  1.00  0.00     0.060 A 
ATOM     32  C   UNL A   1      43.772  26.497  26.211  1.00  0.00     0.016 A 
ATOM     33  C   UNL A   1      42.416  24.622  26.952  1.00  0.00     0.016 A 
ATOM     34  C   UNL A   1      43.111  27.342  27.102  1.00  0.00     0.010 A 
ATOM     35  C   UNL A   1      41.779  25.463  27.870  1.00  0.00     0.010 A 
ATOM     36  C   UNL A   1      42.137  26.821  27.962  1.00  0.00    -0.014 A 
BRANCH  36  37
ATOM     37  C   UNL A   1      41.636  27.651  29.084  1.00  0.00     0.031 A 
ATOM     38  C   UNL A   1      42.366  27.593  30.396  1.00  0.00     0.074 A 
ATOM     39  C   UNL A   1      40.579  28.471  28.936  1.00  0.00     0.049 A 
ATOM     40  N   UNL A   1      42.105  28.207  31.521  1.00  0.00    -0.248 NA
ATOM     41  C   UNL A   1      43.553  26.723  30.446  1.00  0.00     0.031 C 
ATOM     42  C   UNL A   1      39.820  28.657  27.703  1.00  0.00     0.029 A 
ATOM     43  N   UNL A   1      39.965  29.302  29.841  1.00  0.00    -0.354 N 
ATOM     44  C   UNL A   1      43.097  27.806  32.406  1.00  0.00     0.074 A 
ATOM     45  C   UNL A   1      43.940  26.864  31.704  1.00  0.00     0.031 C 
ATOM     46  C   UNL A   1      38.836  29.547  27.928  1.00  0.00     0.029 A 
ATOM     47  C   UNL A   1      38.878  29.967  29.330  1.00  0.00     0.049 A 
ATOM     48  H   UNL A   1      40.275  29.410  30.769  1.00  0.00     0.167 HD
ATOM     49  C   UNL A   1      43.297  28.201  33.685  1.00  0.00     0.037 A 
ATOM     50  C   UNL A   1      38.009  30.805  29.930  1.00  0.00     0.037 A 
ATOM     51  C   UNL A   1      42.454  29.131  34.387  1.00  0.00     0.049 A 
ATOM     52  C   UNL A   1      38.189  31.146  31.387  1.00  0.00     0.074 A 
ATOM     53  C   UNL A   1      42.579  29.592  35.684  1.00  0.00     0.029 A 
ATOM     54  N   UNL A   1      41.327  29.735  33.853  1.00  0.00    -0.354 N 
ATOM     55  N   UNL A   1      39.141  30.778  32.212  1.00  0.00    -0.248 NA
ATOM     56  C   UNL A   1      37.174  32.017  32.001  1.00  0.00     0.031 C 
ATOM     57  C   UNL A   1      41.495  30.430  35.956  1.00  0.00     0.029 A 
ATOM     58  C   UNL A   1      40.728  30.540  34.807  1.00  0.00     0.049 A 
ATOM     59  H   UNL A   1      41.000  29.610  32.932  1.00  0.00     0.167 HD
ATOM     60  C   UNL A   1      38.854  31.391  33.427  1.00  0.00     0.074 A 
ATOM     61  C   UNL A   1      37.648  32.166  33.230  1.00  0.00     0.031 C 
ATOM     62  C   UNL A   1      39.531  31.315  34.600  1.00  0.00     0.037 A 
BRANCH  49  63
ATOM     63  C   UNL A   1      44.469  27.617  34.416  1.00  0.00     0.057 A 
ATOM     64  C   UNL A   1      44.373  26.410  35.119  1.00  0.00     0.134 A 
ATOM     65  C   UNL A   1      45.724  28.239  34.369  1.00  0.00     0.134 A 
ATOM     66  F   UNL A   1      43.196  25.772  35.216  1.00  0.00    -0.206 F 
ATOM     67  C   UNL A   1      45.479  25.847  35.758  1.00  0.00     0.040 A 
ATOM     68  C   UNL A   1      46.843  27.673  34.980  1.00  0.00     0.040 A 
ATOM     69  F   UNL A   1      45.886  29.397  33.711  1.00  0.00    -0.206 F 
ATOM     70  C   UNL A   1      46.721  26.474  35.679  1.00  0.00     0.006 A 
ENDBRANCH  49  63
BRANCH  50  71
ATOM     71  C   UNL A   1      36.883  31.388  29.153  1.00  0.00     0.057 A 
ATOM     72  C   UNL A   1      36.925  32.713  28.703  1.00  0.00     0.134 A 
ATOM     73  C   UNL A   1      35.738  30.641  28.849  1.00  0.00     0.134 A 
ATOM     74  F   UNL A   1      37.981  33.488  28.986  1.00  0.00    -0.206 F 
ATOM     75  C   UNL A   1      35.867  33.276  27.985  1.00  0.00     0.040 A 
ATOM     76  C   UNL A   1      34.685  31.183  28.110  1.00  0.00     0.040 A 
ATOM     77  F   UNL A   1      35.631  29.368  29.256  1.00  0.00    -0.206 F 
ATOM     78  C   UNL A   1      34.746  32.506  27.679  1.00  0.00     0.006 A 
ENDBRANCH  50  71
BRANCH  62  79
ATOM     79  C   UNL A   1      39.005  32.098  35.770  1.00  0.00     0.057 A 
ATOM     80  C   UNL A   1      38.201  31.507  36.751  1.00  0.00     0.134 A 
ATOM     81  C   UNL A   1      39.391  33.432  35.969  1.00  0.00     0.134 A 
ATOM     82  F   UNL A   1      37.790  30.236  36.619  1.00  0.00    -0.206 F 
ATOM     83  C   UNL A   1      37.791  32.216  37.883  1.00  0.00     0.040 A 
ATOM     84  C   UNL A   1      39.013  34.140  37.109  1.00  0.00     0.040 A 
ATOM     85  F   UNL A   1      40.173  34.056  35.074  1.00  0.00    -0.206 F 
ATOM     86  C   UNL A   1      38.208  33.532  38.070  1.00  0.00     0.006 A 
ENDBRANCH  62  79
ENDBRANCH  36  37
ENDBRANCH  29  31
ENDBRANCH  28  29
ENDBRANCH  27  28
ENDBRANCH  26  27
ENDBRANCH  25  26
ENDBRANCH   1  25
TORSDOF 18
ENDMDL
MODEL 2
REMARK VINA RESULT:     -10.7      4.678      9.692
REMARK SMILES Cc1cc(Br)cc2c1O[C@H](C(F)(F)F)C(C(=O)OCCOCCOCCOC(=O)c1ccc(-c3c4nc(c(-c5c(F)cccc5F)c5ccc([nH]5)c(-c5c(F)cccc5F)c5nc(c(-c6c(F)cccc6F)c6ccc3[nH]6)C=C5)C=C4)cc1)=C2
REMARK SMILES IDX 23 1 22 2 21 3 20 4 19 5 18 6 16 7 17 8 15 9 1 10 2 11 3 12
REMARK SMILES IDX 8 13 4 14 7 15 9 16 5 17 6 18 84 19 10 20 11 21 12 22 13 23
REMARK SMILES IDX 14 24 24 25 25 26 26 27 27 28 28 29 29 30 30 31 31 32 83 33
REMARK SMILES IDX 32 34 82 35 33 36 34 37 35 38 76 39 36 40 81 41 75 42 77 43
REMARK SMILES IDX 37 44 80 45 74 46 73 47 38 49 64 50 47 51 63 52 48 53 51 54
REMARK SMILES IDX 62 55 78 56 49 57 50 58 61 60 79 61 52 62 39 63 40 64 45 65
REMARK SMILES IDX 41 66 42 67 44 68 46 69 43 70 65 71 66 72 71 73 67 74 68 75
REMARK SMILES IDX 70 76 72 77 69 78 53 79 54 80 59 81 55 82 56 83 58 84 60 85
REMARK SMILES IDX 57 86
REMARK H PARENT 77 48 51 59
REMARK Flexibility Score: inf
ROOT
ATOM      1  C   UNL A   1      34.137  32.273  28.042  1.00  0.00     0.188 C 
ENDROOT
BRANCH   1   2
ATOM      2  C   UNL A   1      33.119  31.365  27.322  1.00  0.00     0.188 C 
BRANCH   2   3
ATOM      3  O   UNL A   1      33.566  30.287  26.530  1.00  0.00    -0.376 OA
BRANCH   3   4
ATOM      4  C   UNL A   1      32.664  29.544  25.730  1.00  0.00     0.202 C 
BRANCH   4   5
ATOM      5  C   UNL A   1      32.887  29.249  24.238  1.00  0.00     0.261 C 
BRANCH   5   6
ATOM      6  O   UNL A   1      33.796  28.186  23.930  1.00  0.00    -0.460 OA
BRANCH   6   7
ATOM      7  C   UNL A   1      33.223  27.052  23.461  1.00  0.00     0.338 C 
ATOM      8  O   UNL A   1      32.685  26.899  22.377  1.00  0.00    -0.246 OA
BRANCH   7   9
ATOM      9  C   UNL A   1      33.483  25.942  24.400  1.00  0.00     0.087 C 
ATOM     10  C   UNL A   1      33.154  22.270  27.995  1.00  0.00     0.048 C 
ATOM     11  C   UNL A   1      34.037  22.578  26.817  1.00  0.00    -0.007 A 
ATOM     12  C   UNL A   1      35.011  21.635  26.450  1.00  0.00     0.023 A 
ATOM     13  C   UNL A   1      33.905  23.754  26.060  1.00  0.00     0.130 A 
ATOM     14  C   UNL A   1      35.840  21.869  25.355  1.00  0.00     0.019 A 
ATOM     15  C   UNL A   1      34.715  23.962  24.937  1.00  0.00     0.019 A 
ATOM     16  O   UNL A   1      32.968  24.659  26.475  1.00  0.00    -0.475 OA
ATOM     17  Br  UNL A   1      37.139  20.584  24.870  1.00  0.00    -0.051 Br
ATOM     18  C   UNL A   1      35.700  23.029  24.599  1.00  0.00     0.027 A 
ATOM     19  C   UNL A   1      34.486  25.114  24.082  1.00  0.00     0.027 C 
ATOM     20  C   UNL A   1      32.638  25.798  25.634  1.00  0.00     0.316 C 
BRANCH  20  21
ATOM     21  C   UNL A   1      31.141  25.739  25.310  1.00  0.00     0.430 C 
ATOM     22  F   UNL A   1      30.902  24.975  24.217  1.00  0.00    -0.167 F 
ATOM     23  F   UNL A   1      30.429  25.196  26.326  1.00  0.00    -0.167 F 
ATOM     24  F   UNL A   1      30.627  26.966  25.068  1.00  0.00    -0.167 F 
ENDBRANCH  20  21
ENDBRANCH   7   9
ENDBRANCH   6   7
ENDBRANCH   5   6
ENDBRANCH   4   5
ENDBRANCH   3   4
ENDBRANCH   2   3
ENDBRANCH   1   2
BRANCH   1  25
ATOM     25  O   UNL A   1      33.714  33.511  28.560  1.00  0.00    -0.376 OA
BRANCH  25  26
ATOM     26  C   UNL A   1      34.462  34.139  29.590  1.00  0.00     0.202 C 
BRANCH  26  27
ATOM     27  C   UNL A   1      34.359  33.807  31.094  1.00  0.00     0.261 C 
BRANCH  27  28
ATOM     28  O   UNL A   1      34.563  32.447  31.492  1.00  0.00    -0.460 OA
BRANCH  28  29
ATOM     29  C   UNL A   1      35.553  32.244  32.402  1.00  0.00     0.338 C 
ATOM     30  O   UNL A   1      35.515  32.455  33.597  1.00  0.00    -0.246 OA
BRANCH  29  31
ATOM     31  C   UNL A   1      36.656  31.515  31.742  1.00  0.00     0.060 A 
ATOM     32  C   UNL A   1      37.705  31.021  32.532  1.00  0.00     0.016 A 
ATOM     33  C   UNL A   1      36.660  31.330  30.360  1.00  0.00     0.016 A 
ATOM     34  C   UNL A   1      38.761  30.332  31.938  1.00  0.00     0.010 A 
ATOM     35  C   UNL A   1      37.739  30.669  29.763  1.00  0.00     0.010 A 
ATOM     36  C   UNL A   1      38.803  30.184  30.547  1.00  0.00    -0.014 A 
BRANCH  36  37
ATOM     37  C   UNL A   1      40.046  29.699  29.901  1.00  0.00     0.031 A 
ATOM     38  C   UNL A   1      41.200  30.652  29.767  1.00  0.00     0.074 A 
ATOM     39  C   UNL A   1      40.168  28.428  29.476  1.00  0.00     0.049 A 
ATOM     40  N   UNL A   1      42.374  30.465  29.223  1.00  0.00    -0.248 NA
ATOM     41  C   UNL A   1      41.002  32.000  30.325  1.00  0.00     0.031 C 
ATOM     42  C   UNL A   1      39.143  27.394  29.595  1.00  0.00     0.029 A 
ATOM     43  N   UNL A   1      41.216  27.795  28.855  1.00  0.00    -0.354 N 
ATOM     44  C   UNL A   1      43.056  31.664  29.379  1.00  0.00     0.074 A 
ATOM     45  C   UNL A   1      42.152  32.586  30.031  1.00  0.00     0.031 C 
ATOM     46  C   UNL A   1      39.614  26.253  29.061  1.00  0.00     0.029 A 
ATOM     47  C   UNL A   1      40.959  26.485  28.533  1.00  0.00     0.049 A 
ATOM     48  H   UNL A   1      42.073  28.239  28.658  1.00  0.00     0.167 HD
ATOM     49  C   UNL A   1      44.327  31.966  29.027  1.00  0.00     0.037 A 
ATOM     50  C   UNL A   1      41.717  25.585  27.875  1.00  0.00     0.037 A 
ATOM     51  C   UNL A   1      45.224  31.052  28.372  1.00  0.00     0.049 A 
ATOM     52  C   UNL A   1      43.091  25.978  27.396  1.00  0.00     0.074 A 
ATOM     53  C   UNL A   1      46.531  31.267  27.978  1.00  0.00     0.029 A 
ATOM     54  N   UNL A   1      44.903  29.753  28.008  1.00  0.00    -0.354 N 
ATOM     55  N   UNL A   1      43.736  27.108  27.565  1.00  0.00    -0.248 NA
ATOM     56  C   UNL A   1      43.845  24.971  26.630  1.00  0.00     0.031 C 
ATOM     57  C   UNL A   1      46.984  30.119  27.323  1.00  0.00     0.029 A 
ATOM     58  C   UNL A   1      45.979  29.166  27.364  1.00  0.00     0.049 A 
ATOM     59  H   UNL A   1      44.039  29.314  28.182  1.00  0.00     0.167 HD
ATOM     60  C   UNL A   1      44.973  26.939  26.953  1.00  0.00     0.074 A 
ATOM     61  C   UNL A   1      44.997  25.593  26.421  1.00  0.00     0.031 C 
ATOM     62  C   UNL A   1      45.996  27.822  26.843  1.00  0.00     0.037 A 
BRANCH  49  63
ATOM     63  C   UNL A   1      44.823  33.347  29.332  1.00  0.00     0.057 A 
ATOM     64  C   UNL A   1      44.602  34.419  28.458  1.00  0.00     0.134 A 
ATOM     65  C   UNL A   1      45.478  33.622  30.540  1.00  0.00     0.134 A 
ATOM     66  F   UNL A   1      43.996  34.220  27.278  1.00  0.00    -0.206 F 
ATOM     67  C   UNL A   1      45.025  35.713  28.768  1.00  0.00     0.040 A 
ATOM     68  C   UNL A   1      45.880  34.915  30.874  1.00  0.00     0.040 A 
ATOM     69  F   UNL A   1      45.719  32.641  31.423  1.00  0.00    -0.206 F 
ATOM     70  C   UNL A   1      45.656  35.965  29.985  1.00  0.00     0.006 A 
ENDBRANCH  49  63
BRANCH  50  71
ATOM     71  C   UNL A   1      41.195  24.214  27.629  1.00  0.00     0.057 A 
ATOM     72  C   UNL A   1      41.675  23.117  28.354  1.00  0.00     0.134 A 
ATOM     73  C   UNL A   1      40.214  23.966  26.662  1.00  0.00     0.134 A 
ATOM     74  F   UNL A   1      42.635  23.285  29.274  1.00  0.00    -0.206 F 
ATOM     75  C   UNL A   1      41.204  21.823  28.122  1.00  0.00     0.040 A 
ATOM     76  C   UNL A   1      39.714  22.682  26.437  1.00  0.00     0.040 A 
ATOM     77  F   UNL A   1      39.715  24.972  25.928  1.00  0.00    -0.206 F 
ATOM     78  C   UNL A   1      40.213  21.605  27.166  1.00  0.00     0.006 A 
ENDBRANCH  50  71
BRANCH  62  79
ATOM     79  C   UNL A   1      47.244  27.372  26.137  1.00  0.00     0.057 A 
ATOM     80  C   UNL A   1      48.302  26.767  26.823  1.00  0.00     0.134 A 
ATOM     81  C   UNL A   1      47.344  27.455  24.740  1.00  0.00     0.134 A 
ATOM     82  F   UNL A   1      48.274  26.662  28.161  1.00  0.00    -0.206 F 
ATOM     83  C   UNL A   1      49.420  26.269  26.150  1.00  0.00     0.040 A 
ATOM     84  C   UNL A   1      48.441  26.935  24.053  1.00  0.00     0.040 A 
ATOM     85  F   UNL A   1      46.359  28.011  24.018  1.00  0.00    -0.206 F 
ATOM     86  C   UNL A   1      49.485  26.340  24.760  1.00  0.00     0.006 A 
ENDBRANCH  62  79
ENDBRANCH  36  37
ENDBRANCH  29  31
ENDBRANCH  28  29
ENDBRANCH  27  28
ENDBRANCH  26  27
ENDBRANCH  25  26
ENDBRANCH   1  25
TORSDOF 18
ENDMDL
MODEL 3
REMARK VINA RESULT:     -10.7      3.231      8.461
REMARK SMILES Cc1cc(Br)cc2c1O[C@H](C(F)(F)F)C(C(=O)OCCOCCOCCOC(=O)c1ccc(-c3c4nc(c(-c5c(F)cccc5F)c5ccc([nH]5)c(-c5c(F)cccc5F)c5nc(c(-c6c(F)cccc6F)c6ccc3[nH]6)C=C5)C=C4)cc1)=C2
REMARK SMILES IDX 23 1 22 2 21 3 20 4 19 5 18 6 16 7 17 8 15 9 1 10 2 11 3 12
REMARK SMILES IDX 8 13 4 14 7 15 9 16 5 17 6 18 84 19 10 20 11 21 12 22 13 23
REMARK SMILES IDX 14 24 24 25 25 26 26 27 27 28 28 29 29 30 30 31 31 32 83 33
REMARK SMILES IDX 32 34 82 35 33 36 34 37 35 38 76 39 36 40 81 41 75 42 77 43
REMARK SMILES IDX 37 44 80 45 74 46 73 47 38 49 64 50 47 51 63 52 48 53 51 54
REMARK SMILES IDX 62 55 78 56 49 57 50 58 61 60 79 61 52 62 39 63 40 64 45 65
REMARK SMILES IDX 41 66 42 67 44 68 46 69 43 70 65 71 66 72 71 73 67 74 68 75
REMARK SMILES IDX 70 76 72 77 69 78 53 79 54 80 59 81 55 82 56 83 58 84 60 85
REMARK SMILES IDX 57 86
REMARK H PARENT 77 48 51 59
REMARK Flexibility Score: inf
ROOT
ATOM      1  C   UNL A   1      31.627  29.498  25.528  1.00  0.00     0.188 C 
ENDROOT
BRANCH   1   2
ATOM      2  C   UNL A   1      31.637  28.933  24.093  1.00  0.00     0.188 C 
BRANCH   2   3
ATOM      3  O   UNL A   1      30.422  28.699  23.413  1.00  0.00    -0.376 OA
BRANCH   3   4
ATOM      4  C   UNL A   1      29.716  27.482  23.575  1.00  0.00     0.202 C 
BRANCH   4   5
ATOM      5  C   UNL A   1      30.302  26.238  24.262  1.00  0.00     0.261 C 
BRANCH   5   6
ATOM      6  O   UNL A   1      30.546  25.104  23.421  1.00  0.00    -0.460 OA
BRANCH   6   7
ATOM      7  C   UNL A   1      31.696  25.150  22.708  1.00  0.00     0.338 C 
ATOM      8  O   UNL A   1      32.027  26.009  21.907  1.00  0.00    -0.246 OA
BRANCH   7   9
ATOM      9  C   UNL A   1      32.601  24.073  23.159  1.00  0.00     0.087 C 
ATOM     10  C   UNL A   1      36.331  21.289  25.362  1.00  0.00     0.048 C 
ATOM     11  C   UNL A   1      34.977  21.031  24.762  1.00  0.00    -0.007 A 
ATOM     12  C   UNL A   1      34.444  19.733  24.850  1.00  0.00     0.023 A 
ATOM     13  C   UNL A   1      34.218  22.040  24.144  1.00  0.00     0.130 A 
ATOM     14  C   UNL A   1      33.186  19.452  24.324  1.00  0.00     0.019 A 
ATOM     15  C   UNL A   1      32.938  21.756  23.654  1.00  0.00     0.019 A 
ATOM     16  O   UNL A   1      34.790  23.278  24.049  1.00  0.00    -0.475 OA
ATOM     17  Br  UNL A   1      32.482  17.702  24.460  1.00  0.00    -0.051 Br
ATOM     18  C   UNL A   1      32.431  20.454  23.723  1.00  0.00     0.027 A 
ATOM     19  C   UNL A   1      32.106  22.830  23.137  1.00  0.00     0.027 C 
ATOM     20  C   UNL A   1      33.995  24.411  23.606  1.00  0.00     0.316 C 
BRANCH  20  21
ATOM     21  C   UNL A   1      34.009  25.471  24.714  1.00  0.00     0.430 C 
ATOM     22  F   UNL A   1      35.122  25.371  25.480  1.00  0.00    -0.167 F 
ATOM     23  F   UNL A   1      34.000  26.727  24.205  1.00  0.00    -0.167 F 
ATOM     24  F   UNL A   1      32.939  25.360  25.534  1.00  0.00    -0.167 F 
ENDBRANCH  20  21
ENDBRANCH   7   9
ENDBRANCH   6   7
ENDBRANCH   5   6
ENDBRANCH   4   5
ENDBRANCH   3   4
ENDBRANCH   2   3
ENDBRANCH   1   2
BRANCH   1  25
ATOM     25  O   UNL A   1      31.313  30.854  25.735  1.00  0.00    -0.376 OA
BRANCH  25  26
ATOM     26  C   UNL A   1      31.929  31.568  26.796  1.00  0.00     0.202 C 
BRANCH  26  27
ATOM     27  C   UNL A   1      32.039  33.104  26.888  1.00  0.00     0.261 C 
BRANCH  27  28
ATOM     28  O   UNL A   1      32.192  33.685  28.188  1.00  0.00    -0.460 OA
BRANCH  28  29
ATOM     29  C   UNL A   1      33.263  34.509  28.341  1.00  0.00     0.338 C 
ATOM     30  O   UNL A   1      33.269  35.723  28.345  1.00  0.00    -0.246 OA
BRANCH  29  31
ATOM     31  C   UNL A   1      34.434  33.691  28.717  1.00  0.00     0.060 A 
ATOM     32  C   UNL A   1      34.219  32.425  29.280  1.00  0.00     0.016 A 
ATOM     33  C   UNL A   1      35.729  34.171  28.524  1.00  0.00     0.016 A 
ATOM     34  C   UNL A   1      35.303  31.630  29.648  1.00  0.00     0.010 A 
ATOM     35  C   UNL A   1      36.815  33.386  28.926  1.00  0.00     0.010 A 
ATOM     36  C   UNL A   1      36.607  32.121  29.506  1.00  0.00    -0.014 A 
BRANCH  36  37
ATOM     37  C   UNL A   1      37.733  31.396  30.143  1.00  0.00     0.031 A 
ATOM     38  C   UNL A   1      38.039  31.680  31.586  1.00  0.00     0.074 A 
ATOM     39  C   UNL A   1      38.447  30.476  29.470  1.00  0.00     0.049 A 
ATOM     40  N   UNL A   1      38.982  31.189  32.348  1.00  0.00    -0.248 NA
ATOM     41  C   UNL A   1      37.160  32.648  32.263  1.00  0.00     0.031 C 
ATOM     42  C   UNL A   1      38.217  30.073  28.085  1.00  0.00     0.029 A 
ATOM     43  N   UNL A   1      39.516  29.713  29.871  1.00  0.00    -0.354 N 
ATOM     44  C   UNL A   1      38.806  31.781  33.592  1.00  0.00     0.074 A 
ATOM     45  C   UNL A   1      37.694  32.698  33.473  1.00  0.00     0.031 C 
ATOM     46  C   UNL A   1      39.122  29.136  27.749  1.00  0.00     0.029 A 
ATOM     47  C   UNL A   1      40.014  28.898  28.884  1.00  0.00     0.049 A 
ATOM     48  H   UNL A   1      39.892  29.748  30.780  1.00  0.00     0.167 HD
ATOM     49  C   UNL A   1      39.498  31.567  34.735  1.00  0.00     0.037 A 
ATOM     50  C   UNL A   1      41.077  28.068  28.893  1.00  0.00     0.037 A 
ATOM     51  C   UNL A   1      40.609  30.661  34.851  1.00  0.00     0.049 A 
ATOM     52  C   UNL A   1      41.900  27.928  30.149  1.00  0.00     0.074 A 
ATOM     53  C   UNL A   1      41.371  30.377  35.969  1.00  0.00     0.029 A 
ATOM     54  N   UNL A   1      41.121  29.900  33.812  1.00  0.00    -0.354 N 
ATOM     55  N   UNL A   1      41.715  28.476  31.326  1.00  0.00    -0.248 NA
ATOM     56  C   UNL A   1      43.083  27.055  30.078  1.00  0.00     0.031 C 
ATOM     57  C   UNL A   1      42.382  29.488  35.594  1.00  0.00     0.029 A 
ATOM     58  C   UNL A   1      42.211  29.171  34.255  1.00  0.00     0.049 A 
ATOM     59  H   UNL A   1      40.763  29.881  32.894  1.00  0.00     0.167 HD
ATOM     60  C   UNL A   1      42.737  27.996  32.138  1.00  0.00     0.074 A 
ATOM     61  C   UNL A   1      43.532  27.101  31.325  1.00  0.00     0.031 C 
ATOM     62  C   UNL A   1      42.992  28.275  33.440  1.00  0.00     0.037 A 
BRANCH  49  63
ATOM     63  C   UNL A   1      39.082  32.336  35.953  1.00  0.00     0.057 A 
ATOM     64  C   UNL A   1      38.260  31.770  36.936  1.00  0.00     0.134 A 
ATOM     65  C   UNL A   1      39.555  33.635  36.176  1.00  0.00     0.134 A 
ATOM     66  F   UNL A   1      37.760  30.535  36.775  1.00  0.00    -0.206 F 
ATOM     67  C   UNL A   1      37.914  32.473  38.091  1.00  0.00     0.040 A 
ATOM     68  C   UNL A   1      39.239  34.338  37.339  1.00  0.00     0.040 A 
ATOM     69  F   UNL A   1      40.349  34.235  35.275  1.00  0.00    -0.206 F 
ATOM     70  C   UNL A   1      38.414  33.757  38.299  1.00  0.00     0.006 A 
ENDBRANCH  49  63
BRANCH  50  71
ATOM     71  C   UNL A   1      41.429  27.299  27.671  1.00  0.00     0.057 A 
ATOM     72  C   UNL A   1      42.223  27.863  26.666  1.00  0.00     0.134 A 
ATOM     73  C   UNL A   1      40.975  25.989  27.473  1.00  0.00     0.134 A 
ATOM     74  F   UNL A   1      42.665  29.123  26.783  1.00  0.00    -0.206 F 
ATOM     75  C   UNL A   1      42.548  27.156  25.506  1.00  0.00     0.040 A 
ATOM     76  C   UNL A   1      41.314  25.261  26.331  1.00  0.00     0.040 A 
ATOM     77  F   UNL A   1      40.205  25.392  28.394  1.00  0.00    -0.206 F 
ATOM     78  C   UNL A   1      42.100  25.847  25.340  1.00  0.00     0.006 A 
ENDBRANCH  50  71
BRANCH  62  79
ATOM     79  C   UNL A   1      44.167  27.600  34.089  1.00  0.00     0.057 A 
ATOM     80  C   UNL A   1      45.418  28.223  34.179  1.00  0.00     0.134 A 
ATOM     81  C   UNL A   1      44.020  26.356  34.719  1.00  0.00     0.134 A 
ATOM     82  F   UNL A   1      45.630  29.411  33.592  1.00  0.00    -0.206 F 
ATOM     83  C   UNL A   1      46.481  27.629  34.863  1.00  0.00     0.040 A 
ATOM     84  C   UNL A   1      45.065  25.767  35.431  1.00  0.00     0.040 A 
ATOM     85  F   UNL A   1      42.844  25.710  34.684  1.00  0.00    -0.206 F 
ATOM     86  C   UNL A   1      46.302  26.404  35.502  1.00  0.00     0.006 A 
ENDBRANCH  62  79
ENDBRANCH  36  37
ENDBRANCH  29  31
ENDBRANCH  28  29
ENDBRANCH  27  28
ENDBRANCH  26  27
ENDBRANCH  25  26
ENDBRANCH   1  25
TORSDOF 18
ENDMDL
