MODEL 1
REMARK VINA RESULT:     -10.7      0.000      0.000
REMARK SMILES N#C/C(=C\c1ccc(Oc2ccccc2Cl)c([N+](=O)[O-])c1)C(=O)OCCOCCOCCOC(=O)c1ccc(-c2c3nc(c(-c4c(F)cccc4F)c4ccc([nH]4)c(-c4c(F)cccc4F)c4nc(c(-c5c(F)cccc5F)c5ccc2[nH]5)C=C4)C=C3)cc1
REMARK SMILES IDX 28 1 27 2 26 3 25 4 24 5 22 6 23 7 3 8 4 9 2 10 1 11 5 12
REMARK SMILES IDX 6 13 21 14 7 15 17 16 8 17 18 18 19 19 20 20 9 21 10 22
REMARK SMILES IDX 11 23 15 24 12 25 14 26 16 27 13 28 29 29 30 30 31 31 32 32
REMARK SMILES IDX 33 33 34 34 35 35 36 36 37 37 89 38 38 39 88 40 39 41 40 42
REMARK SMILES IDX 41 43 82 44 42 45 87 46 81 47 83 48 43 49 86 50 80 51 79 52
REMARK SMILES IDX 44 54 70 55 53 56 69 57 54 58 57 59 68 60 84 61 55 62 56 63
REMARK SMILES IDX 67 65 85 66 58 67 45 68 46 69 51 70 47 71 48 72 50 73 52 74
REMARK SMILES IDX 49 75 71 76 72 77 77 78 73 79 74 80 76 81 78 82 75 83 59 84
REMARK SMILES IDX 60 85 65 86 61 87 62 88 64 89 66 90 63 91
REMARK H PARENT 83 53 57 64
REMARK Flexibility Score: inf
ROOT
ATOM      1  C   UNL A   1      41.826  20.473  26.080  1.00  0.00     0.188 C 
ENDROOT
BRANCH   1   2
ATOM      2  O   UNL A   1      40.862  21.466  25.776  1.00  0.00    -0.376 OA
BRANCH   2   3
ATOM      3  C   UNL A   1      39.536  21.386  26.280  1.00  0.00     0.202 C 
BRANCH   3   4
ATOM      4  C   UNL A   1      38.456  22.368  25.817  1.00  0.00     0.261 C 
BRANCH   4   5
ATOM      5  O   UNL A   1      37.790  21.944  24.621  1.00  0.00    -0.459 OA
BRANCH   5   6
ATOM      6  C   UNL A   1      36.859  20.977  24.800  1.00  0.00     0.348 C 
ATOM      7  O   UNL A   1      37.080  19.786  24.959  1.00  0.00    -0.245 OA
BRANCH   6   8
ATOM      8  C   UNL A   1      35.501  21.560  24.917  1.00  0.00     0.138 C 
ATOM      9  C   UNL A   1      34.982  21.737  26.157  1.00  0.00     0.035 C 
BRANCH   8  10
ATOM     10  C   UNL A   1      35.067  22.461  23.773  1.00  0.00     0.107 C 
ATOM     11  N   UNL A   1      34.706  23.208  22.823  1.00  0.00    -0.192 NA
ENDBRANCH   8  10
BRANCH   9  12
ATOM     12  C   UNL A   1      33.979  22.777  26.477  1.00  0.00    -0.017 A 
ATOM     13  C   UNL A   1      34.302  24.124  26.277  1.00  0.00     0.012 A 
ATOM     14  C   UNL A   1      32.667  22.458  26.829  1.00  0.00     0.098 A 
ATOM     15  C   UNL A   1      33.318  25.120  26.389  1.00  0.00     0.055 A 
ATOM     16  C   UNL A   1      31.668  23.448  26.826  1.00  0.00     0.312 A 
ATOM     17  C   UNL A   1      31.976  24.801  26.653  1.00  0.00     0.204 A 
BRANCH  16  18
ATOM     18  N   UNL A   1      30.315  22.930  26.839  1.00  0.00     0.066 N 
ATOM     19  O   UNL A   1      29.496  23.505  27.567  1.00  0.00    -0.258 OA
ATOM     20  O   UNL A   1      30.060  22.009  26.049  1.00  0.00    -0.258 OA
ENDBRANCH  16  18
BRANCH  17  21
ATOM     21  O   UNL A   1      31.168  25.919  26.690  1.00  0.00    -0.449 OA
BRANCH  21  22
ATOM     22  C   UNL A   1      30.765  26.535  25.534  1.00  0.00     0.146 A 
ATOM     23  C   UNL A   1      29.792  25.858  24.790  1.00  0.00     0.049 A 
ATOM     24  C   UNL A   1      31.286  27.746  25.062  1.00  0.00     0.083 A 
ATOM     25  C   UNL A   1      29.255  26.443  23.645  1.00  0.00     0.004 A 
ATOM     26  C   UNL A   1      30.725  28.342  23.929  1.00  0.00     0.024 A 
ATOM     27  Cl  UNL A   1      32.588  28.555  25.856  1.00  0.00    -0.080 Cl
ATOM     28  C   UNL A   1      29.701  27.698  23.232  1.00  0.00     0.002 A 
ENDBRANCH  21  22
ENDBRANCH  17  21
ENDBRANCH   9  12
ENDBRANCH   6   8
ENDBRANCH   5   6
ENDBRANCH   4   5
ENDBRANCH   3   4
ENDBRANCH   2   3
ENDBRANCH   1   2
BRANCH   1  29
ATOM     29  C   UNL A   1      43.337  20.783  25.983  1.00  0.00     0.188 C 
BRANCH  29  30
ATOM     30  O   UNL A   1      43.805  21.484  24.867  1.00  0.00    -0.376 OA
BRANCH  30  31
ATOM     31  C   UNL A   1      44.098  22.862  25.005  1.00  0.00     0.202 C 
BRANCH  31  32
ATOM     32  C   UNL A   1      43.714  23.739  26.221  1.00  0.00     0.261 C 
BRANCH  32  33
ATOM     33  O   UNL A   1      42.413  24.346  26.263  1.00  0.00    -0.460 OA
BRANCH  33  34
ATOM     34  C   UNL A   1      42.328  25.622  25.800  1.00  0.00     0.338 C 
ATOM     35  O   UNL A   1      42.453  25.989  24.639  1.00  0.00    -0.246 OA
BRANCH  34  36
ATOM     36  C   UNL A   1      41.817  26.504  26.875  1.00  0.00     0.060 A 
ATOM     37  C   UNL A   1      42.277  27.830  26.957  1.00  0.00     0.016 A 
ATOM     38  C   UNL A   1      40.905  26.019  27.810  1.00  0.00     0.016 A 
ATOM     39  C   UNL A   1      41.840  28.667  27.989  1.00  0.00     0.010 A 
ATOM     40  C   UNL A   1      40.496  26.847  28.861  1.00  0.00     0.010 A 
ATOM     41  C   UNL A   1      40.984  28.164  28.976  1.00  0.00    -0.014 A 
BRANCH  41  42
ATOM     42  C   UNL A   1      40.745  28.926  30.229  1.00  0.00     0.031 A 
ATOM     43  C   UNL A   1      39.636  29.945  30.245  1.00  0.00     0.074 A 
ATOM     44  C   UNL A   1      41.500  28.744  31.326  1.00  0.00     0.049 A 
ATOM     45  N   UNL A   1      39.304  30.805  31.174  1.00  0.00    -0.248 NA
ATOM     46  C   UNL A   1      38.793  30.005  29.040  1.00  0.00     0.031 C 
ATOM     47  C   UNL A   1      42.566  27.756  31.468  1.00  0.00     0.029 A 
ATOM     48  N   UNL A   1      41.487  29.403  32.533  1.00  0.00    -0.354 N 
ATOM     49  C   UNL A   1      38.228  31.519  30.660  1.00  0.00     0.074 A 
ATOM     50  C   UNL A   1      37.981  31.011  29.328  1.00  0.00     0.031 C 
ATOM     51  C   UNL A   1      43.116  27.883  32.689  1.00  0.00     0.029 A 
ATOM     52  C   UNL A   1      42.466  28.984  33.399  1.00  0.00     0.049 A 
ATOM     53  H   UNL A   1      40.837  30.109  32.754  1.00  0.00     0.167 HD
ATOM     54  C   UNL A   1      37.510  32.507  31.244  1.00  0.00     0.037 A 
ATOM     55  C   UNL A   1      42.811  29.453  34.616  1.00  0.00     0.037 A 
ATOM     56  C   UNL A   1      37.753  33.010  32.572  1.00  0.00     0.049 A 
ATOM     57  C   UNL A   1      42.051  30.611  35.211  1.00  0.00     0.074 A 
ATOM     58  C   UNL A   1      37.057  33.985  33.263  1.00  0.00     0.029 A 
ATOM     59  N   UNL A   1      38.778  32.584  33.403  1.00  0.00    -0.354 N 
ATOM     60  N   UNL A   1      41.019  31.264  34.731  1.00  0.00    -0.248 NA
ATOM     61  C   UNL A   1      42.505  31.098  36.523  1.00  0.00     0.031 C 
ATOM     62  C   UNL A   1      37.701  34.197  34.486  1.00  0.00     0.029 A 
ATOM     63  C   UNL A   1      38.756  33.305  34.585  1.00  0.00     0.049 A 
ATOM     64  H   UNL A   1      39.424  31.874  33.185  1.00  0.00     0.167 HD
ATOM     65  C   UNL A   1      40.679  32.207  35.695  1.00  0.00     0.074 A 
ATOM     66  C   UNL A   1      41.609  32.038  36.791  1.00  0.00     0.031 C 
ATOM     67  C   UNL A   1      39.680  33.124  35.676  1.00  0.00     0.037 A 
BRANCH  54  68
ATOM     68  C   UNL A   1      36.418  33.142  30.431  1.00  0.00     0.057 A 
ATOM     69  C   UNL A   1      36.683  34.059  29.408  1.00  0.00     0.134 A 
ATOM     70  C   UNL A   1      35.077  32.807  30.665  1.00  0.00     0.134 A 
ATOM     71  F   UNL A   1      37.943  34.435  29.140  1.00  0.00    -0.206 F 
ATOM     72  C   UNL A   1      35.655  34.643  28.664  1.00  0.00     0.040 A 
ATOM     73  C   UNL A   1      34.042  33.359  29.908  1.00  0.00     0.040 A 
ATOM     74  F   UNL A   1      34.750  31.930  31.626  1.00  0.00    -0.206 F 
ATOM     75  C   UNL A   1      34.330  34.287  28.909  1.00  0.00     0.006 A 
ENDBRANCH  54  68
BRANCH  55  76
ATOM     76  C   UNL A   1      43.940  28.837  35.363  1.00  0.00     0.057 A 
ATOM     77  C   UNL A   1      43.714  27.836  36.315  1.00  0.00     0.134 A 
ATOM     78  C   UNL A   1      45.261  29.257  35.173  1.00  0.00     0.134 A 
ATOM     79  F   UNL A   1      42.467  27.413  36.568  1.00  0.00    -0.206 F 
ATOM     80  C   UNL A   1      44.758  27.287  37.063  1.00  0.00     0.040 A 
ATOM     81  C   UNL A   1      46.319  28.697  35.893  1.00  0.00     0.040 A 
ATOM     82  F   UNL A   1      45.546  30.218  34.282  1.00  0.00    -0.206 F 
ATOM     83  C   UNL A   1      46.067  27.715  36.848  1.00  0.00     0.006 A 
ENDBRANCH  55  76
BRANCH  67  84
ATOM     84  C   UNL A   1      39.505  33.988  36.895  1.00  0.00     0.057 A 
ATOM     85  C   UNL A   1      39.998  35.298  36.958  1.00  0.00     0.134 A 
ATOM     86  C   UNL A   1      38.793  33.515  38.005  1.00  0.00     0.134 A 
ATOM     87  F   UNL A   1      40.698  35.813  35.936  1.00  0.00    -0.206 F 
ATOM     88  C   UNL A   1      39.811  36.095  38.091  1.00  0.00     0.040 A 
ATOM     89  C   UNL A   1      38.572  34.312  39.129  1.00  0.00     0.040 A 
ATOM     90  F   UNL A   1      38.281  32.274  38.009  1.00  0.00    -0.206 F 
ATOM     91  C   UNL A   1      39.089  35.604  39.177  1.00  0.00     0.006 A 
ENDBRANCH  67  84
ENDBRANCH  41  42
ENDBRANCH  34  36
ENDBRANCH  33  34
ENDBRANCH  32  33
ENDBRANCH  31  32
ENDBRANCH  30  31
ENDBRANCH  29  30
ENDBRANCH   1  29
TORSDOF 22
ENDMDL
MODEL 2
REMARK VINA RESULT:     -10.7      3.053      8.639
REMARK SMILES N#C/C(=C\c1ccc(Oc2ccccc2Cl)c([N+](=O)[O-])c1)C(=O)OCCOCCOCCOC(=O)c1ccc(-c2c3nc(c(-c4c(F)cccc4F)c4ccc([nH]4)c(-c4c(F)cccc4F)c4nc(c(-c5c(F)cccc5F)c5ccc2[nH]5)C=C4)C=C3)cc1
REMARK SMILES IDX 28 1 27 2 26 3 25 4 24 5 22 6 23 7 3 8 4 9 2 10 1 11 5 12
REMARK SMILES IDX 6 13 21 14 7 15 17 16 8 17 18 18 19 19 20 20 9 21 10 22
REMARK SMILES IDX 11 23 15 24 12 25 14 26 16 27 13 28 29 29 30 30 31 31 32 32
REMARK SMILES IDX 33 33 34 34 35 35 36 36 37 37 89 38 38 39 88 40 39 41 40 42
REMARK SMILES IDX 41 43 82 44 42 45 87 46 81 47 83 48 43 49 86 50 80 51 79 52
REMARK SMILES IDX 44 54 70 55 53 56 69 57 54 58 57 59 68 60 84 61 55 62 56 63
REMARK SMILES IDX 67 65 85 66 58 67 45 68 46 69 51 70 47 71 48 72 50 73 52 74
REMARK SMILES IDX 49 75 71 76 72 77 77 78 73 79 74 80 76 81 78 82 75 83 59 84
REMARK SMILES IDX 60 85 65 86 61 87 62 88 64 89 66 90 63 91
REMARK H PARENT 83 53 57 64
REMARK Flexibility Score: inf
ROOT
ATOM      1  C   UNL A   1      33.167  28.755  25.623  1.00  0.00     0.188 C 
ENDROOT
BRANCH   1   2
ATOM      2  O   UNL A   1      33.980  28.321  24.547  1.00  0.00    -0.376 OA
BRANCH   2   3
ATOM      3  C   UNL A   1      33.454  28.180  23.235  1.00  0.00     0.202 C 
BRANCH   3   4
ATOM      4  C   UNL A   1      32.037  28.654  22.897  1.00  0.00     0.261 C 
BRANCH   4   5
ATOM      5  O   UNL A   1      31.203  27.607  22.385  1.00  0.00    -0.459 OA
BRANCH   5   6
ATOM      6  C   UNL A   1      30.138  27.296  23.160  1.00  0.00     0.348 C 
ATOM      7  O   UNL A   1      29.056  27.862  23.158  1.00  0.00    -0.245 OA
BRANCH   6   8
ATOM      8  C   UNL A   1      30.394  26.065  23.945  1.00  0.00     0.138 C 
ATOM      9  C   UNL A   1      31.002  25.022  23.328  1.00  0.00     0.035 C 
BRANCH   8  10
ATOM     10  C   UNL A   1      30.544  26.256  25.445  1.00  0.00     0.107 C 
ATOM     11  N   UNL A   1      30.668  26.415  26.690  1.00  0.00    -0.192 NA
ENDBRANCH   8  10
BRANCH   9  12
ATOM     12  C   UNL A   1      31.822  24.020  24.045  1.00  0.00    -0.017 A 
ATOM     13  C   UNL A   1      31.187  22.979  24.730  1.00  0.00     0.012 A 
ATOM     14  C   UNL A   1      33.213  23.988  23.939  1.00  0.00     0.098 A 
ATOM     15  C   UNL A   1      31.931  21.911  25.258  1.00  0.00     0.055 A 
ATOM     16  C   UNL A   1      33.935  22.861  24.370  1.00  0.00     0.312 A 
ATOM     17  C   UNL A   1      33.321  21.823  25.077  1.00  0.00     0.204 A 
BRANCH  16  18
ATOM     18  N   UNL A   1      35.293  22.796  23.871  1.00  0.00     0.066 N 
ATOM     19  O   UNL A   1      35.475  23.091  22.683  1.00  0.00    -0.258 OA
ATOM     20  O   UNL A   1      36.182  22.540  24.697  1.00  0.00    -0.258 OA
ENDBRANCH  16  18
BRANCH  17  21
ATOM     21  O   UNL A   1      33.853  20.683  25.644  1.00  0.00    -0.449 OA
BRANCH  21  22
ATOM     22  C   UNL A   1      33.769  19.473  25.005  1.00  0.00     0.146 A 
ATOM     23  C   UNL A   1      32.476  18.973  24.817  1.00  0.00     0.049 A 
ATOM     24  C   UNL A   1      34.875  18.727  24.580  1.00  0.00     0.083 A 
ATOM     25  C   UNL A   1      32.281  17.793  24.102  1.00  0.00     0.004 A 
ATOM     26  C   UNL A   1      34.674  17.559  23.840  1.00  0.00     0.024 A 
ATOM     27  Cl  UNL A   1      36.495  19.220  24.914  1.00  0.00    -0.080 Cl
ATOM     28  C   UNL A   1      33.379  17.102  23.589  1.00  0.00     0.002 A 
ENDBRANCH  21  22
ENDBRANCH  17  21
ENDBRANCH   9  12
ENDBRANCH   6   8
ENDBRANCH   5   6
ENDBRANCH   4   5
ENDBRANCH   3   4
ENDBRANCH   2   3
ENDBRANCH   1   2
BRANCH   1  29
ATOM     29  C   UNL A   1      32.884  30.258  25.844  1.00  0.00     0.188 C 
BRANCH  29  30
ATOM     30  O   UNL A   1      31.982  30.628  26.846  1.00  0.00    -0.376 OA
BRANCH  30  31
ATOM     31  C   UNL A   1      31.347  31.889  26.755  1.00  0.00     0.202 C 
BRANCH  31  32
ATOM     32  C   UNL A   1      32.054  33.258  26.899  1.00  0.00     0.261 C 
BRANCH  32  33
ATOM     33  O   UNL A   1      32.302  33.783  28.213  1.00  0.00    -0.460 OA
BRANCH  33  34
ATOM     34  C   UNL A   1      33.431  34.528  28.361  1.00  0.00     0.338 C 
ATOM     35  O   UNL A   1      33.499  35.748  28.417  1.00  0.00    -0.246 OA
BRANCH  34  36
ATOM     36  C   UNL A   1      34.569  33.639  28.690  1.00  0.00     0.060 A 
ATOM     37  C   UNL A   1      34.324  32.291  29.006  1.00  0.00     0.016 A 
ATOM     38  C   UNL A   1      35.869  34.137  28.707  1.00  0.00     0.016 A 
ATOM     39  C   UNL A   1      35.379  31.445  29.362  1.00  0.00     0.010 A 
ATOM     40  C   UNL A   1      36.920  33.298  29.097  1.00  0.00     0.010 A 
ATOM     41  C   UNL A   1      36.678  31.958  29.455  1.00  0.00    -0.014 A 
BRANCH  41  42
ATOM     42  C   UNL A   1      37.755  31.170  30.110  1.00  0.00     0.031 A 
ATOM     43  C   UNL A   1      38.033  31.417  31.570  1.00  0.00     0.074 A 
ATOM     44  C   UNL A   1      38.489  30.270  29.434  1.00  0.00     0.049 A 
ATOM     45  N   UNL A   1      38.983  30.939  32.332  1.00  0.00    -0.248 NA
ATOM     46  C   UNL A   1      37.115  32.338  32.259  1.00  0.00     0.031 C 
ATOM     47  C   UNL A   1      38.293  29.893  28.037  1.00  0.00     0.029 A 
ATOM     48  N   UNL A   1      39.566  29.518  29.839  1.00  0.00    -0.354 N 
ATOM     49  C   UNL A   1      38.790  31.514  33.582  1.00  0.00     0.074 A 
ATOM     50  C   UNL A   1      37.649  32.397  33.469  1.00  0.00     0.031 C 
ATOM     51  C   UNL A   1      39.228  28.988  27.695  1.00  0.00     0.029 A 
ATOM     52  C   UNL A   1      40.111  28.752  28.837  1.00  0.00     0.049 A 
ATOM     53  H   UNL A   1      39.915  29.527  30.759  1.00  0.00     0.167 HD
ATOM     54  C   UNL A   1      39.496  31.323  34.721  1.00  0.00     0.037 A 
ATOM     55  C   UNL A   1      41.210  27.970  28.838  1.00  0.00     0.037 A 
ATOM     56  C   UNL A   1      40.628  30.441  34.836  1.00  0.00     0.049 A 
ATOM     57  C   UNL A   1      42.030  27.840  30.096  1.00  0.00     0.074 A 
ATOM     58  C   UNL A   1      41.388  30.155  35.956  1.00  0.00     0.029 A 
ATOM     59  N   UNL A   1      41.170  29.712  33.788  1.00  0.00    -0.354 N 
ATOM     60  N   UNL A   1      41.826  28.365  31.281  1.00  0.00    -0.248 NA
ATOM     61  C   UNL A   1      43.238  27.003  30.017  1.00  0.00     0.031 C 
ATOM     62  C   UNL A   1      42.430  29.306  35.573  1.00  0.00     0.029 A 
ATOM     63  C   UNL A   1      42.279  29.007  34.229  1.00  0.00     0.049 A 
ATOM     64  H   UNL A   1      40.819  29.697  32.869  1.00  0.00     0.167 HD
ATOM     65  C   UNL A   1      42.852  27.893  32.092  1.00  0.00     0.074 A 
ATOM     66  C   UNL A   1      43.674  27.033  31.268  1.00  0.00     0.031 C 
ATOM     67  C   UNL A   1      43.087  28.144  33.404  1.00  0.00     0.037 A 
BRANCH  54  68
ATOM     68  C   UNL A   1      39.089  32.119  35.929  1.00  0.00     0.057 A 
ATOM     69  C   UNL A   1      38.225  31.609  36.905  1.00  0.00     0.134 A 
ATOM     70  C   UNL A   1      39.594  33.411  36.128  1.00  0.00     0.134 A 
ATOM     71  F   UNL A   1      37.693  30.384  36.771  1.00  0.00    -0.206 F 
ATOM     72  C   UNL A   1      37.853  32.363  38.020  1.00  0.00     0.040 A 
ATOM     73  C   UNL A   1      39.256  34.164  37.253  1.00  0.00     0.040 A 
ATOM     74  F   UNL A   1      40.433  33.961  35.236  1.00  0.00    -0.206 F 
ATOM     75  C   UNL A   1      38.376  33.643  38.200  1.00  0.00     0.006 A 
ENDBRANCH  54  68
BRANCH  55  76
ATOM     76  C   UNL A   1      41.614  27.246  27.604  1.00  0.00     0.057 A 
ATOM     77  C   UNL A   1      42.376  27.877  26.613  1.00  0.00     0.134 A 
ATOM     78  C   UNL A   1      41.219  25.924  27.367  1.00  0.00     0.134 A 
ATOM     79  F   UNL A   1      42.758  29.153  26.765  1.00  0.00    -0.206 F 
ATOM     80  C   UNL A   1      42.717  27.226  25.426  1.00  0.00     0.040 A 
ATOM     81  C   UNL A   1      41.576  25.251  26.196  1.00  0.00     0.040 A 
ATOM     82  F   UNL A   1      40.480  25.264  28.271  1.00  0.00    -0.206 F 
ATOM     83  C   UNL A   1      42.320  25.906  25.217  1.00  0.00     0.006 A 
ENDBRANCH  55  76
BRANCH  67  84
ATOM     84  C   UNL A   1      44.251  27.445  34.050  1.00  0.00     0.057 A 
ATOM     85  C   UNL A   1      44.137  26.164  34.606  1.00  0.00     0.134 A 
ATOM     86  C   UNL A   1      45.517  28.046  34.074  1.00  0.00     0.134 A 
ATOM     87  F   UNL A   1      42.953  25.533  34.627  1.00  0.00    -0.206 F 
ATOM     88  C   UNL A   1      45.233  25.519  35.186  1.00  0.00     0.040 A 
ATOM     89  C   UNL A   1      46.626  27.399  34.621  1.00  0.00     0.040 A 
ATOM     90  F   UNL A   1      45.702  29.267  33.548  1.00  0.00    -0.206 F 
ATOM     91  C   UNL A   1      46.484  26.135  35.187  1.00  0.00     0.006 A 
ENDBRANCH  67  84
ENDBRANCH  41  42
ENDBRANCH  34  36
ENDBRANCH  33  34
ENDBRANCH  32  33
ENDBRANCH  31  32
ENDBRANCH  30  31
ENDBRANCH  29  30
ENDBRANCH   1  29
TORSDOF 22
ENDMDL
MODEL 3
REMARK VINA RESULT:     -10.6      2.869      8.442
REMARK SMILES N#C/C(=C\c1ccc(Oc2ccccc2Cl)c([N+](=O)[O-])c1)C(=O)OCCOCCOCCOC(=O)c1ccc(-c2c3nc(c(-c4c(F)cccc4F)c4ccc([nH]4)c(-c4c(F)cccc4F)c4nc(c(-c5c(F)cccc5F)c5ccc2[nH]5)C=C4)C=C3)cc1
REMARK SMILES IDX 28 1 27 2 26 3 25 4 24 5 22 6 23 7 3 8 4 9 2 10 1 11 5 12
REMARK SMILES IDX 6 13 21 14 7 15 17 16 8 17 18 18 19 19 20 20 9 21 10 22
REMARK SMILES IDX 11 23 15 24 12 25 14 26 16 27 13 28 29 29 30 30 31 31 32 32
REMARK SMILES IDX 33 33 34 34 35 35 36 36 37 37 89 38 38 39 88 40 39 41 40 42
REMARK SMILES IDX 41 43 82 44 42 45 87 46 81 47 83 48 43 49 86 50 80 51 79 52
REMARK SMILES IDX 44 54 70 55 53 56 69 57 54 58 57 59 68 60 84 61 55 62 56 63
REMARK SMILES IDX 67 65 85 66 58 67 45 68 46 69 51 70 47 71 48 72 50 73 52 74
REMARK SMILES IDX 49 75 71 76 72 77 77 78 73 79 74 80 76 81 78 82 75 83 59 84
REMARK SMILES IDX 60 85 65 86 61 87 62 88 64 89 66 90 63 91
REMARK H PARENT 83 53 57 64
REMARK Flexibility Score: inf
ROOT
ATOM      1  C   UNL A   1      32.260  28.749  25.560  1.00  0.00     0.188 C 
ENDROOT
BRANCH   1   2
ATOM      2  O   UNL A   1      33.088  28.053  24.646  1.00  0.00    -0.376 OA
BRANCH   2   3
ATOM      3  C   UNL A   1      32.829  28.075  23.249  1.00  0.00     0.202 C 
BRANCH   3   4
ATOM      4  C   UNL A   1      31.416  28.325  22.713  1.00  0.00     0.261 C 
BRANCH   4   5
ATOM      5  O   UNL A   1      30.702  27.115  22.431  1.00  0.00    -0.459 OA
BRANCH   5   6
ATOM      6  C   UNL A   1      29.849  26.717  23.405  1.00  0.00     0.348 C 
ATOM      7  O   UNL A   1      28.776  27.233  23.676  1.00  0.00    -0.245 OA
BRANCH   6   8
ATOM      8  C   UNL A   1      30.316  25.462  24.040  1.00  0.00     0.138 C 
ATOM      9  C   UNL A   1      30.863  24.505  23.250  1.00  0.00     0.035 C 
BRANCH   8  10
ATOM     10  C   UNL A   1      30.725  25.571  25.500  1.00  0.00     0.107 C 
ATOM     11  N   UNL A   1      31.064  25.662  26.711  1.00  0.00    -0.192 NA
ENDBRANCH   8  10
BRANCH   9  12
ATOM     12  C   UNL A   1      31.857  23.523  23.735  1.00  0.00    -0.017 A 
ATOM     13  C   UNL A   1      32.999  23.268  22.967  1.00  0.00     0.012 A 
ATOM     14  C   UNL A   1      31.774  22.948  25.003  1.00  0.00     0.098 A 
ATOM     15  C   UNL A   1      34.049  22.490  23.482  1.00  0.00     0.055 A 
ATOM     16  C   UNL A   1      32.877  22.268  25.551  1.00  0.00     0.312 A 
ATOM     17  C   UNL A   1      34.015  21.984  24.791  1.00  0.00     0.204 A 
BRANCH  16  18
ATOM     18  N   UNL A   1      32.795  22.055  26.982  1.00  0.00     0.066 N 
ATOM     19  O   UNL A   1      33.373  21.061  27.440  1.00  0.00    -0.258 OA
ATOM     20  O   UNL A   1      32.232  22.935  27.648  1.00  0.00    -0.258 OA
ENDBRANCH  16  18
BRANCH  17  21
ATOM     21  O   UNL A   1      35.156  21.276  25.109  1.00  0.00    -0.449 OA
BRANCH  21  22
ATOM     22  C   UNL A   1      36.321  21.923  25.428  1.00  0.00     0.146 A 
ATOM     23  C   UNL A   1      36.191  23.269  25.790  1.00  0.00     0.049 A 
ATOM     24  C   UNL A   1      37.591  21.336  25.375  1.00  0.00     0.083 A 
ATOM     25  C   UNL A   1      37.305  23.990  26.214  1.00  0.00     0.004 A 
ATOM     26  C   UNL A   1      38.701  22.053  25.827  1.00  0.00     0.024 A 
ATOM     27  Cl  UNL A   1      37.832  19.727  24.796  1.00  0.00    -0.080 Cl
ATOM     28  C   UNL A   1      38.555  23.373  26.259  1.00  0.00     0.002 A 
ENDBRANCH  21  22
ENDBRANCH  17  21
ENDBRANCH   9  12
ENDBRANCH   6   8
ENDBRANCH   5   6
ENDBRANCH   4   5
ENDBRANCH   3   4
ENDBRANCH   2   3
ENDBRANCH   1   2
BRANCH   1  29
ATOM     29  C   UNL A   1      32.377  30.281  25.723  1.00  0.00     0.188 C 
BRANCH  29  30
ATOM     30  O   UNL A   1      31.936  30.861  26.917  1.00  0.00    -0.376 OA
BRANCH  30  31
ATOM     31  C   UNL A   1      31.454  32.191  26.887  1.00  0.00     0.202 C 
BRANCH  31  32
ATOM     32  C   UNL A   1      32.327  33.462  27.015  1.00  0.00     0.261 C 
BRANCH  32  33
ATOM     33  O   UNL A   1      32.318  34.197  28.248  1.00  0.00    -0.460 OA
BRANCH  33  34
ATOM     34  C   UNL A   1      33.455  34.879  28.551  1.00  0.00     0.338 C 
ATOM     35  O   UNL A   1      33.557  36.085  28.738  1.00  0.00    -0.246 OA
BRANCH  34  36
ATOM     36  C   UNL A   1      34.538  33.919  28.867  1.00  0.00     0.060 A 
ATOM     37  C   UNL A   1      34.214  32.677  29.441  1.00  0.00     0.016 A 
ATOM     38  C   UNL A   1      35.867  34.249  28.617  1.00  0.00     0.016 A 
ATOM     39  C   UNL A   1      35.223  31.773  29.787  1.00  0.00     0.010 A 
ATOM     40  C   UNL A   1      36.878  33.358  28.995  1.00  0.00     0.010 A 
ATOM     41  C   UNL A   1      36.565  32.130  29.609  1.00  0.00    -0.014 A 
BRANCH  41  42
ATOM     42  C   UNL A   1      37.649  31.327  30.234  1.00  0.00     0.031 A 
ATOM     43  C   UNL A   1      37.951  31.548  31.692  1.00  0.00     0.074 A 
ATOM     44  C   UNL A   1      38.367  30.434  29.530  1.00  0.00     0.049 A 
ATOM     45  N   UNL A   1      38.912  31.053  32.431  1.00  0.00    -0.248 NA
ATOM     46  C   UNL A   1      37.050  32.463  32.411  1.00  0.00     0.031 C 
ATOM     47  C   UNL A   1      38.146  30.081  28.131  1.00  0.00     0.029 A 
ATOM     48  N   UNL A   1      39.447  29.671  29.905  1.00  0.00    -0.354 N 
ATOM     49  C   UNL A   1      38.741  31.610  33.693  1.00  0.00     0.074 A 
ATOM     50  C   UNL A   1      37.603  32.499  33.613  1.00  0.00     0.031 C 
ATOM     51  C   UNL A   1      39.072  29.178  27.760  1.00  0.00     0.029 A 
ATOM     52  C   UNL A   1      39.972  28.919  28.883  1.00  0.00     0.049 A 
ATOM     53  H   UNL A   1      39.811  29.664  30.820  1.00  0.00     0.167 HD
ATOM     54  C   UNL A   1      39.465  31.397  34.817  1.00  0.00     0.037 A 
ATOM     55  C   UNL A   1      41.067  28.132  28.853  1.00  0.00     0.037 A 
ATOM     56  C   UNL A   1      40.595  30.508  34.899  1.00  0.00     0.049 A 
ATOM     57  C   UNL A   1      41.907  27.978  30.096  1.00  0.00     0.074 A 
ATOM     58  C   UNL A   1      41.371  30.201  36.002  1.00  0.00     0.029 A 
ATOM     59  N   UNL A   1      41.116  29.793  33.831  1.00  0.00    -0.354 N 
ATOM     60  N   UNL A   1      41.725  28.485  31.292  1.00  0.00    -0.248 NA
ATOM     61  C   UNL A   1      43.109  27.137  29.983  1.00  0.00     0.031 C 
ATOM     62  C   UNL A   1      42.403  29.353  35.589  1.00  0.00     0.029 A 
ATOM     63  C   UNL A   1      42.228  29.076  34.242  1.00  0.00     0.049 A 
ATOM     64  H   UNL A   1      40.750  29.795  32.917  1.00  0.00     0.167 HD
ATOM     65  C   UNL A   1      42.762  27.995  32.078  1.00  0.00     0.074 A 
ATOM     66  C   UNL A   1      43.566  27.145  31.227  1.00  0.00     0.031 C 
ATOM     67  C   UNL A   1      43.019  28.224  33.390  1.00  0.00     0.037 A 
BRANCH  54  68
ATOM     68  C   UNL A   1      39.082  32.175  36.044  1.00  0.00     0.057 A 
ATOM     69  C   UNL A   1      39.557  33.470  36.288  1.00  0.00     0.134 A 
ATOM     70  C   UNL A   1      38.201  31.624  36.985  1.00  0.00     0.134 A 
ATOM     71  F   UNL A   1      40.414  34.052  35.435  1.00  0.00    -0.206 F 
ATOM     72  C   UNL A   1      39.193  34.178  37.435  1.00  0.00     0.040 A 
ATOM     73  C   UNL A   1      37.806  32.333  38.120  1.00  0.00     0.040 A 
ATOM     74  F   UNL A   1      37.703  30.391  36.812  1.00  0.00    -0.206 F 
ATOM     75  C   UNL A   1      38.309  33.612  38.352  1.00  0.00     0.006 A 
ENDBRANCH  54  68
BRANCH  55  76
ATOM     76  C   UNL A   1      41.448  27.426  27.601  1.00  0.00     0.057 A 
ATOM     77  C   UNL A   1      40.993  26.129  27.337  1.00  0.00     0.134 A 
ATOM     78  C   UNL A   1      42.301  28.013  26.659  1.00  0.00     0.134 A 
ATOM     79  F   UNL A   1      40.200  25.499  28.215  1.00  0.00    -0.206 F 
ATOM     80  C   UNL A   1      41.387  25.434  26.191  1.00  0.00     0.040 A 
ATOM     81  C   UNL A   1      42.681  27.341  25.495  1.00  0.00     0.040 A 
ATOM     82  F   UNL A   1      42.779  29.251  26.855  1.00  0.00    -0.206 F 
ATOM     83  C   UNL A   1      42.230  26.044  25.263  1.00  0.00     0.006 A 
ENDBRANCH  55  76
BRANCH  67  84
ATOM     84  C   UNL A   1      44.190  27.508  34.005  1.00  0.00     0.057 A 
ATOM     85  C   UNL A   1      45.453  28.103  34.117  1.00  0.00     0.134 A 
ATOM     86  C   UNL A   1      44.038  26.220  34.535  1.00  0.00     0.134 A 
ATOM     87  F   UNL A   1      45.673  29.332  33.623  1.00  0.00    -0.206 F 
ATOM     88  C   UNL A   1      46.528  27.433  34.708  1.00  0.00     0.040 A 
ATOM     89  C   UNL A   1      45.094  25.552  35.156  1.00  0.00     0.040 A 
ATOM     90  F   UNL A   1      42.852  25.593  34.474  1.00  0.00    -0.206 F 
ATOM     91  C   UNL A   1      46.347  26.156  35.236  1.00  0.00     0.006 A 
ENDBRANCH  67  84
ENDBRANCH  41  42
ENDBRANCH  34  36
ENDBRANCH  33  34
ENDBRANCH  32  33
ENDBRANCH  31  32
ENDBRANCH  30  31
ENDBRANCH  29  30
ENDBRANCH   1  29
TORSDOF 22
ENDMDL
