MODEL 1
REMARK VINA RESULT:     -11.2      0.000      0.000
REMARK SMILES CCc1cc(C)c2c(c1)C=C(C(=O)OCCOCCOCCOC(=O)c1ccc(-c3c4nc(c(-c5c(F)cccc5F)c5ccc([nH]5)c(-c5c(F)cccc5F)c5nc(c(-c6c(F)cccc6F)c6ccc3[nH]6)C=C5)C=C4)cc1)[C@@H](C(F)(F)F)O2
REMARK SMILES IDX 19 1 18 2 17 3 16 4 15 5 14 6 12 7 13 8 11 9 3 10 4 11 9 12
REMARK SMILES IDX 5 13 8 14 6 15 7 16 10 17 85 18 80 19 2 20 1 21 81 22 82 23
REMARK SMILES IDX 83 24 84 25 20 26 21 27 22 28 23 29 24 30 25 31 26 32 27 33
REMARK SMILES IDX 79 34 28 35 78 36 29 37 30 38 31 39 72 40 32 41 77 42 71 43
REMARK SMILES IDX 73 44 33 45 76 46 70 47 69 48 34 50 60 51 43 52 59 53 44 54
REMARK SMILES IDX 47 55 58 56 74 57 45 58 46 59 57 61 75 62 48 63 35 64 36 65
REMARK SMILES IDX 41 66 37 67 38 68 40 69 42 70 39 71 61 72 62 73 67 74 63 75
REMARK SMILES IDX 64 76 66 77 68 78 65 79 49 80 50 81 55 82 51 83 52 84 54 85
REMARK SMILES IDX 56 86 53 87
REMARK H PARENT 73 49 47 60
REMARK Flexibility Score: inf
ROOT
ATOM      1  C   UNL A   1      41.409  19.620  26.387  1.00  0.00     0.188 C 
ENDROOT
BRANCH   1   2
ATOM      2  C   UNL A   1      41.355  20.689  27.501  1.00  0.00     0.188 C 
BRANCH   2   3
ATOM      3  O   UNL A   1      40.242  21.548  27.538  1.00  0.00    -0.376 OA
BRANCH   3   4
ATOM      4  C   UNL A   1      39.706  22.108  26.352  1.00  0.00     0.202 C 
BRANCH   4   5
ATOM      5  C   UNL A   1      38.334  21.772  25.738  1.00  0.00     0.261 C 
BRANCH   5   6
ATOM      6  O   UNL A   1      37.354  22.811  25.703  1.00  0.00    -0.460 OA
BRANCH   6   7
ATOM      7  C   UNL A   1      36.627  22.884  24.560  1.00  0.00     0.338 C 
ATOM      8  O   UNL A   1      36.963  22.486  23.457  1.00  0.00    -0.246 OA
BRANCH   7   9
ATOM      9  C   UNL A   1      35.272  23.381  24.868  1.00  0.00     0.087 C 
ATOM     10  C   UNL A   1      32.502  27.020  26.389  1.00  0.00    -0.047 A 
ATOM     11  C   UNL A   1      31.440  26.113  26.542  1.00  0.00     0.011 A 
ATOM     12  C   UNL A   1      33.705  26.547  25.854  1.00  0.00     0.015 A 
ATOM     13  C   UNL A   1      31.561  24.769  26.159  1.00  0.00    -0.008 A 
ATOM     14  C   UNL A   1      33.852  25.199  25.496  1.00  0.00     0.018 A 
ATOM     15  C   UNL A   1      30.416  23.820  26.378  1.00  0.00     0.048 C 
ATOM     16  C   UNL A   1      32.774  24.319  25.622  1.00  0.00     0.130 A 
ATOM     17  C   UNL A   1      35.152  24.696  25.087  1.00  0.00     0.027 C 
ATOM     18  O   UNL A   1      32.836  23.004  25.252  1.00  0.00    -0.475 OA
ATOM     19  C   UNL A   1      34.122  22.414  24.921  1.00  0.00     0.316 C 
BRANCH  10  20
ATOM     20  C   UNL A   1      32.315  28.431  26.904  1.00  0.00     0.032 C 
ATOM     21  C   UNL A   1      32.736  29.568  25.982  1.00  0.00     0.009 C 
ENDBRANCH  10  20
BRANCH  19  22
ATOM     22  C   UNL A   1      34.384  21.253  25.887  1.00  0.00     0.430 C 
ATOM     23  F   UNL A   1      35.262  20.363  25.365  1.00  0.00    -0.167 F 
ATOM     24  F   UNL A   1      34.919  21.684  27.054  1.00  0.00    -0.167 F 
ATOM     25  F   UNL A   1      33.251  20.579  26.190  1.00  0.00    -0.167 F 
ENDBRANCH  19  22
ENDBRANCH   7   9
ENDBRANCH   6   7
ENDBRANCH   5   6
ENDBRANCH   4   5
ENDBRANCH   3   4
ENDBRANCH   2   3
ENDBRANCH   1   2
BRANCH   1  26
ATOM     26  O   UNL A   1      42.375  19.712  25.361  1.00  0.00    -0.376 OA
BRANCH  26  27
ATOM     27  C   UNL A   1      43.650  20.262  25.665  1.00  0.00     0.202 C 
BRANCH  27  28
ATOM     28  C   UNL A   1      44.103  21.639  25.146  1.00  0.00     0.261 C 
BRANCH  28  29
ATOM     29  O   UNL A   1      44.151  22.699  26.112  1.00  0.00    -0.460 OA
BRANCH  29  30
ATOM     30  C   UNL A   1      44.312  23.951  25.608  1.00  0.00     0.338 C 
ATOM     31  O   UNL A   1      44.819  24.269  24.551  1.00  0.00    -0.246 OA
BRANCH  30  32
ATOM     32  C   UNL A   1      43.599  24.904  26.482  1.00  0.00     0.060 A 
ATOM     33  C   UNL A   1      44.070  26.221  26.588  1.00  0.00     0.016 A 
ATOM     34  C   UNL A   1      42.488  24.485  27.212  1.00  0.00     0.016 A 
ATOM     35  C   UNL A   1      43.414  27.133  27.408  1.00  0.00     0.010 A 
ATOM     36  C   UNL A   1      41.858  25.389  28.071  1.00  0.00     0.010 A 
ATOM     37  C   UNL A   1      42.328  26.709  28.184  1.00  0.00    -0.014 A 
BRANCH  37  38
ATOM     38  C   UNL A   1      41.836  27.583  29.273  1.00  0.00     0.031 A 
ATOM     39  C   UNL A   1      42.539  27.522  30.599  1.00  0.00     0.074 A 
ATOM     40  C   UNL A   1      40.802  28.421  29.090  1.00  0.00     0.049 A 
ATOM     41  N   UNL A   1      42.299  28.184  31.701  1.00  0.00    -0.248 NA
ATOM     42  C   UNL A   1      43.666  26.581  30.689  1.00  0.00     0.031 C 
ATOM     43  C   UNL A   1      40.058  28.594  27.845  1.00  0.00     0.029 A 
ATOM     44  N   UNL A   1      40.196  29.280  29.971  1.00  0.00    -0.354 N 
ATOM     45  C   UNL A   1      43.250  27.745  32.613  1.00  0.00     0.074 A 
ATOM     46  C   UNL A   1      44.041  26.732  31.948  1.00  0.00     0.031 C 
ATOM     47  C   UNL A   1      39.080  29.494  28.047  1.00  0.00     0.029 A 
ATOM     48  C   UNL A   1      39.119  29.942  29.438  1.00  0.00     0.049 A 
ATOM     49  H   UNL A   1      40.505  29.409  30.896  1.00  0.00     0.167 HD
ATOM     50  C   UNL A   1      43.455  28.155  33.889  1.00  0.00     0.037 A 
ATOM     51  C   UNL A   1      38.255  30.798  30.020  1.00  0.00     0.037 A 
ATOM     52  C   UNL A   1      42.638  29.128  34.564  1.00  0.00     0.049 A 
ATOM     53  C   UNL A   1      38.442  31.166  31.470  1.00  0.00     0.074 A 
ATOM     54  C   UNL A   1      42.761  29.615  35.853  1.00  0.00     0.029 A 
ATOM     55  N   UNL A   1      41.525  29.744  34.009  1.00  0.00    -0.354 N 
ATOM     56  N   UNL A   1      39.373  30.785  32.313  1.00  0.00    -0.248 NA
ATOM     57  C   UNL A   1      37.459  32.095  32.044  1.00  0.00     0.031 C 
ATOM     58  C   UNL A   1      41.685  30.478  36.098  1.00  0.00     0.029 A 
ATOM     59  C   UNL A   1      40.932  30.582  34.940  1.00  0.00     0.049 A 
ATOM     60  H   UNL A   1      41.204  29.606  33.088  1.00  0.00     0.167 HD
ATOM     61  C   UNL A   1      39.103  31.449  33.506  1.00  0.00     0.074 A 
ATOM     62  C   UNL A   1      37.938  32.274  33.265  1.00  0.00     0.031 C 
ATOM     63  C   UNL A   1      39.759  31.386  34.693  1.00  0.00     0.037 A 
BRANCH  50  64
ATOM     64  C   UNL A   1      44.582  27.499  34.635  1.00  0.00     0.057 A 
ATOM     65  C   UNL A   1      44.370  26.313  35.347  1.00  0.00     0.134 A 
ATOM     66  C   UNL A   1      45.884  28.020  34.621  1.00  0.00     0.134 A 
ATOM     67  F   UNL A   1      43.149  25.760  35.404  1.00  0.00    -0.206 F 
ATOM     68  C   UNL A   1      45.413  25.663  36.007  1.00  0.00     0.040 A 
ATOM     69  C   UNL A   1      46.941  27.360  35.250  1.00  0.00     0.040 A 
ATOM     70  F   UNL A   1      46.160  29.143  33.941  1.00  0.00    -0.206 F 
ATOM     71  C   UNL A   1      46.706  26.179  35.948  1.00  0.00     0.006 A 
ENDBRANCH  50  64
BRANCH  51  72
ATOM     72  C   UNL A   1      37.127  31.368  29.241  1.00  0.00     0.057 A 
ATOM     73  C   UNL A   1      35.945  30.646  29.035  1.00  0.00     0.134 A 
ATOM     74  C   UNL A   1      37.186  32.668  28.724  1.00  0.00     0.134 A 
ATOM     75  F   UNL A   1      35.823  29.397  29.507  1.00  0.00    -0.206 F 
ATOM     76  C   UNL A   1      34.865  31.195  28.343  1.00  0.00     0.040 A 
ATOM     77  C   UNL A   1      36.104  33.240  28.054  1.00  0.00     0.040 A 
ATOM     78  F   UNL A   1      38.281  33.419  28.914  1.00  0.00    -0.206 F 
ATOM     79  C   UNL A   1      34.938  32.500  27.858  1.00  0.00     0.006 A 
ENDBRANCH  51  72
BRANCH  63  80
ATOM     80  C   UNL A   1      39.243  32.259  35.804  1.00  0.00     0.057 A 
ATOM     81  C   UNL A   1      38.294  31.771  36.714  1.00  0.00     0.134 A 
ATOM     82  C   UNL A   1      39.691  33.575  35.990  1.00  0.00     0.134 A 
ATOM     83  F   UNL A   1      37.809  30.527  36.590  1.00  0.00    -0.206 F 
ATOM     84  C   UNL A   1      37.825  32.550  37.772  1.00  0.00     0.040 A 
ATOM     85  C   UNL A   1      39.256  34.351  37.067  1.00  0.00     0.040 A 
ATOM     86  F   UNL A   1      40.604  34.105  35.162  1.00  0.00    -0.206 F 
ATOM     87  C   UNL A   1      38.318  33.839  37.960  1.00  0.00     0.006 A 
ENDBRANCH  63  80
ENDBRANCH  37  38
ENDBRANCH  30  32
ENDBRANCH  29  30
ENDBRANCH  28  29
ENDBRANCH  27  28
ENDBRANCH  26  27
ENDBRANCH   1  26
TORSDOF 19
ENDMDL
MODEL 2
REMARK VINA RESULT:     -10.7      4.803     10.005
REMARK SMILES CCc1cc(C)c2c(c1)C=C(C(=O)OCCOCCOCCOC(=O)c1ccc(-c3c4nc(c(-c5c(F)cccc5F)c5ccc([nH]5)c(-c5c(F)cccc5F)c5nc(c(-c6c(F)cccc6F)c6ccc3[nH]6)C=C5)C=C4)cc1)[C@@H](C(F)(F)F)O2
REMARK SMILES IDX 19 1 18 2 17 3 16 4 15 5 14 6 12 7 13 8 11 9 3 10 4 11 9 12
REMARK SMILES IDX 5 13 8 14 6 15 7 16 10 17 85 18 80 19 2 20 1 21 81 22 82 23
REMARK SMILES IDX 83 24 84 25 20 26 21 27 22 28 23 29 24 30 25 31 26 32 27 33
REMARK SMILES IDX 79 34 28 35 78 36 29 37 30 38 31 39 72 40 32 41 77 42 71 43
REMARK SMILES IDX 73 44 33 45 76 46 70 47 69 48 34 50 60 51 43 52 59 53 44 54
REMARK SMILES IDX 47 55 58 56 74 57 45 58 46 59 57 61 75 62 48 63 35 64 36 65
REMARK SMILES IDX 41 66 37 67 38 68 40 69 42 70 39 71 61 72 62 73 67 74 63 75
REMARK SMILES IDX 64 76 66 77 68 78 65 79 49 80 50 81 55 82 51 83 52 84 54 85
REMARK SMILES IDX 56 86 53 87
REMARK H PARENT 73 49 47 60
REMARK Flexibility Score: inf
ROOT
ATOM      1  C   UNL A   1      34.074  34.275  29.586  1.00  0.00     0.188 C 
ENDROOT
BRANCH   1   2
ATOM      2  C   UNL A   1      34.708  33.213  28.661  1.00  0.00     0.188 C 
BRANCH   2   3
ATOM      3  O   UNL A   1      34.239  31.890  28.755  1.00  0.00    -0.376 OA
BRANCH   3   4
ATOM      4  C   UNL A   1      34.103  31.074  27.605  1.00  0.00     0.202 C 
BRANCH   4   5
ATOM      5  C   UNL A   1      34.410  29.567  27.529  1.00  0.00     0.261 C 
BRANCH   5   6
ATOM      6  O   UNL A   1      34.053  28.881  26.327  1.00  0.00    -0.460 OA
BRANCH   6   7
ATOM      7  C   UNL A   1      32.910  28.153  26.393  1.00  0.00     0.338 C 
ATOM      8  O   UNL A   1      31.866  28.484  26.932  1.00  0.00    -0.246 OA
BRANCH   7   9
ATOM      9  C   UNL A   1      33.049  26.939  25.566  1.00  0.00     0.087 C 
ATOM     10  C   UNL A   1      35.768  23.183  24.249  1.00  0.00    -0.047 A 
ATOM     11  C   UNL A   1      34.900  22.968  23.166  1.00  0.00     0.011 A 
ATOM     12  C   UNL A   1      35.455  24.201  25.157  1.00  0.00     0.015 A 
ATOM     13  C   UNL A   1      33.736  23.733  22.994  1.00  0.00    -0.008 A 
ATOM     14  C   UNL A   1      34.313  24.996  24.980  1.00  0.00     0.018 A 
ATOM     15  C   UNL A   1      32.854  23.500  21.800  1.00  0.00     0.048 C 
ATOM     16  C   UNL A   1      33.442  24.744  23.918  1.00  0.00     0.130 A 
ATOM     17  C   UNL A   1      34.088  26.142  25.844  1.00  0.00     0.027 C 
ATOM     18  O   UNL A   1      32.289  25.452  23.713  1.00  0.00    -0.475 OA
ATOM     19  C   UNL A   1      32.048  26.662  24.479  1.00  0.00     0.316 C 
BRANCH  10  20
ATOM     20  C   UNL A   1      37.043  22.370  24.313  1.00  0.00     0.032 C 
ATOM     21  C   UNL A   1      36.927  20.935  24.812  1.00  0.00     0.009 C 
ENDBRANCH  10  20
BRANCH  19  22
ATOM     22  C   UNL A   1      31.913  27.835  23.501  1.00  0.00     0.430 C 
ATOM     23  F   UNL A   1      31.471  27.422  22.290  1.00  0.00    -0.167 F 
ATOM     24  F   UNL A   1      31.025  28.756  23.945  1.00  0.00    -0.167 F 
ATOM     25  F   UNL A   1      33.090  28.473  23.310  1.00  0.00    -0.167 F 
ENDBRANCH  19  22
ENDBRANCH   7   9
ENDBRANCH   6   7
ENDBRANCH   5   6
ENDBRANCH   4   5
ENDBRANCH   3   4
ENDBRANCH   2   3
ENDBRANCH   1   2
BRANCH   1  26
ATOM     26  O   UNL A   1      34.812  34.803  30.669  1.00  0.00    -0.376 OA
BRANCH  26  27
ATOM     27  C   UNL A   1      34.282  34.690  31.982  1.00  0.00     0.202 C 
BRANCH  27  28
ATOM     28  C   UNL A   1      34.038  33.330  32.663  1.00  0.00     0.261 C 
BRANCH  28  29
ATOM     29  O   UNL A   1      34.949  32.275  32.322  1.00  0.00    -0.460 OA
BRANCH  29  30
ATOM     30  C   UNL A   1      36.101  32.234  33.042  1.00  0.00     0.338 C 
ATOM     31  O   UNL A   1      36.277  32.595  34.189  1.00  0.00    -0.246 OA
BRANCH  30  32
ATOM     32  C   UNL A   1      37.117  31.501  32.261  1.00  0.00     0.060 A 
ATOM     33  C   UNL A   1      38.130  30.805  32.937  1.00  0.00     0.016 A 
ATOM     34  C   UNL A   1      37.079  31.527  30.868  1.00  0.00     0.016 A 
ATOM     35  C   UNL A   1      39.098  30.109  32.218  1.00  0.00     0.010 A 
ATOM     36  C   UNL A   1      38.078  30.867  30.147  1.00  0.00     0.010 A 
ATOM     37  C   UNL A   1      39.098  30.171  30.820  1.00  0.00    -0.014 A 
BRANCH  37  38
ATOM     38  C   UNL A   1      40.290  29.700  30.078  1.00  0.00     0.031 A 
ATOM     39  C   UNL A   1      41.407  30.676  29.843  1.00  0.00     0.074 A 
ATOM     40  C   UNL A   1      40.389  28.435  29.637  1.00  0.00     0.049 A 
ATOM     41  N   UNL A   1      42.547  30.505  29.225  1.00  0.00    -0.248 NA
ATOM     42  C   UNL A   1      41.203  32.030  30.379  1.00  0.00     0.031 C 
ATOM     43  C   UNL A   1      39.389  27.387  29.827  1.00  0.00     0.029 A 
ATOM     44  N   UNL A   1      41.388  27.826  28.922  1.00  0.00    -0.354 N 
ATOM     45  C   UNL A   1      43.199  31.729  29.305  1.00  0.00     0.074 A 
ATOM     46  C   UNL A   1      42.311  32.641  29.992  1.00  0.00     0.031 C 
ATOM     47  C   UNL A   1      39.819  26.264  29.228  1.00  0.00     0.029 A 
ATOM     48  C   UNL A   1      41.112  26.522  28.595  1.00  0.00     0.049 A 
ATOM     49  H   UNL A   1      42.224  28.280  28.669  1.00  0.00     0.167 HD
ATOM     50  C   UNL A   1      44.433  32.063  28.855  1.00  0.00     0.037 A 
ATOM     51  C   UNL A   1      41.820  25.648  27.853  1.00  0.00     0.037 A 
ATOM     52  C   UNL A   1      45.296  31.168  28.129  1.00  0.00     0.049 A 
ATOM     53  C   UNL A   1      43.148  26.071  27.277  1.00  0.00     0.074 A 
ATOM     54  C   UNL A   1      46.565  31.406  27.632  1.00  0.00     0.029 A 
ATOM     55  N   UNL A   1      44.964  29.869  27.774  1.00  0.00    -0.354 N 
ATOM     56  N   UNL A   1      43.782  27.214  27.397  1.00  0.00    -0.248 NA
ATOM     57  C   UNL A   1      43.862  25.072  26.470  1.00  0.00     0.031 C 
ATOM     58  C   UNL A   1      46.975  30.271  26.921  1.00  0.00     0.029 A 
ATOM     59  C   UNL A   1      45.991  29.302  27.035  1.00  0.00     0.049 A 
ATOM     60  H   UNL A   1      44.124  29.416  28.013  1.00  0.00     0.167 HD
ATOM     61  C   UNL A   1      44.980  27.061  26.706  1.00  0.00     0.074 A 
ATOM     62  C   UNL A   1      44.991  25.707  26.192  1.00  0.00     0.031 C 
ATOM     63  C   UNL A   1      45.982  27.957  26.513  1.00  0.00     0.037 A 
BRANCH  50  64
ATOM     64  C   UNL A   1      44.881  33.476  29.100  1.00  0.00     0.057 A 
ATOM     65  C   UNL A   1      44.572  34.490  28.186  1.00  0.00     0.134 A 
ATOM     66  C   UNL A   1      45.586  33.841  30.257  1.00  0.00     0.134 A 
ATOM     67  F   UNL A   1      43.901  34.212  27.059  1.00  0.00    -0.206 F 
ATOM     68  C   UNL A   1      44.937  35.817  28.418  1.00  0.00     0.040 A 
ATOM     69  C   UNL A   1      45.927  35.170  30.515  1.00  0.00     0.040 A 
ATOM     70  F   UNL A   1      45.897  32.921  31.183  1.00  0.00    -0.206 F 
ATOM     71  C   UNL A   1      45.605  36.162  29.592  1.00  0.00     0.006 A 
ENDBRANCH  50  64
BRANCH  51  72
ATOM     72  C   UNL A   1      41.295  24.282  27.600  1.00  0.00     0.057 A 
ATOM     73  C   UNL A   1      41.776  23.174  28.308  1.00  0.00     0.134 A 
ATOM     74  C   UNL A   1      40.265  24.060  26.678  1.00  0.00     0.134 A 
ATOM     75  F   UNL A   1      42.759  23.319  29.208  1.00  0.00    -0.206 F 
ATOM     76  C   UNL A   1      41.254  21.895  28.106  1.00  0.00     0.040 A 
ATOM     77  C   UNL A   1      39.715  22.792  26.486  1.00  0.00     0.040 A 
ATOM     78  F   UNL A   1      39.743  25.086  25.990  1.00  0.00    -0.206 F 
ATOM     79  C   UNL A   1      40.213  21.702  27.199  1.00  0.00     0.006 A 
ENDBRANCH  51  72
BRANCH  63  80
ATOM     80  C   UNL A   1      47.182  27.480  25.740  1.00  0.00     0.057 A 
ATOM     81  C   UNL A   1      48.240  26.835  26.392  1.00  0.00     0.134 A 
ATOM     82  C   UNL A   1      47.288  27.643  24.351  1.00  0.00     0.134 A 
ATOM     83  F   UNL A   1      48.215  26.657  27.722  1.00  0.00    -0.206 F 
ATOM     84  C   UNL A   1      49.349  26.354  25.693  1.00  0.00     0.040 A 
ATOM     85  C   UNL A   1      48.374  27.133  23.636  1.00  0.00     0.040 A 
ATOM     86  F   UNL A   1      46.308  28.244  23.660  1.00  0.00    -0.206 F 
ATOM     87  C   UNL A   1      49.410  26.489  24.308  1.00  0.00     0.006 A 
ENDBRANCH  63  80
ENDBRANCH  37  38
ENDBRANCH  30  32
ENDBRANCH  29  30
ENDBRANCH  28  29
ENDBRANCH  27  28
ENDBRANCH  26  27
ENDBRANCH   1  26
TORSDOF 19
ENDMDL
MODEL 3
REMARK VINA RESULT:     -10.6      4.949     11.486
REMARK SMILES CCc1cc(C)c2c(c1)C=C(C(=O)OCCOCCOCCOC(=O)c1ccc(-c3c4nc(c(-c5c(F)cccc5F)c5ccc([nH]5)c(-c5c(F)cccc5F)c5nc(c(-c6c(F)cccc6F)c6ccc3[nH]6)C=C5)C=C4)cc1)[C@@H](C(F)(F)F)O2
REMARK SMILES IDX 19 1 18 2 17 3 16 4 15 5 14 6 12 7 13 8 11 9 3 10 4 11 9 12
REMARK SMILES IDX 5 13 8 14 6 15 7 16 10 17 85 18 80 19 2 20 1 21 81 22 82 23
REMARK SMILES IDX 83 24 84 25 20 26 21 27 22 28 23 29 24 30 25 31 26 32 27 33
REMARK SMILES IDX 79 34 28 35 78 36 29 37 30 38 31 39 72 40 32 41 77 42 71 43
REMARK SMILES IDX 73 44 33 45 76 46 70 47 69 48 34 50 60 51 43 52 59 53 44 54
REMARK SMILES IDX 47 55 58 56 74 57 45 58 46 59 57 61 75 62 48 63 35 64 36 65
REMARK SMILES IDX 41 66 37 67 38 68 40 69 42 70 39 71 61 72 62 73 67 74 63 75
REMARK SMILES IDX 64 76 66 77 68 78 65 79 49 80 50 81 55 82 51 83 52 84 54 85
REMARK SMILES IDX 56 86 53 87
REMARK H PARENT 73 49 47 60
REMARK Flexibility Score: inf
ROOT
ATOM      1  C   UNL A   1      33.316  35.563  29.598  1.00  0.00     0.188 C 
ENDROOT
BRANCH   1   2
ATOM      2  C   UNL A   1      32.517  36.251  30.727  1.00  0.00     0.188 C 
BRANCH   2   3
ATOM      3  O   UNL A   1      32.893  37.554  31.103  1.00  0.00    -0.376 OA
BRANCH   3   4
ATOM      4  C   UNL A   1      33.674  37.787  32.262  1.00  0.00     0.202 C 
BRANCH   4   5
ATOM      5  C   UNL A   1      33.883  36.795  33.421  1.00  0.00     0.261 C 
BRANCH   5   6
ATOM      6  O   UNL A   1      34.936  35.838  33.288  1.00  0.00    -0.460 OA
BRANCH   6   7
ATOM      7  C   UNL A   1      34.548  34.539  33.330  1.00  0.00     0.338 C 
ATOM      8  O   UNL A   1      33.495  34.081  32.920  1.00  0.00    -0.246 OA
BRANCH   7   9
ATOM      9  C   UNL A   1      35.668  33.705  33.809  1.00  0.00     0.087 C 
ATOM     10  C   UNL A   1      38.899  32.798  37.269  1.00  0.00    -0.047 A 
ATOM     11  C   UNL A   1      39.586  31.964  36.371  1.00  0.00     0.011 A 
ATOM     12  C   UNL A   1      37.697  33.377  36.847  1.00  0.00     0.015 A 
ATOM     13  C   UNL A   1      39.086  31.694  35.088  1.00  0.00    -0.008 A 
ATOM     14  C   UNL A   1      37.200  33.144  35.555  1.00  0.00     0.018 A 
ATOM     15  C   UNL A   1      39.872  30.830  34.142  1.00  0.00     0.048 C 
ATOM     16  C   UNL A   1      37.879  32.283  34.690  1.00  0.00     0.130 A 
ATOM     17  C   UNL A   1      36.035  33.873  35.085  1.00  0.00     0.027 C 
ATOM     18  O   UNL A   1      37.428  31.978  33.434  1.00  0.00    -0.475 OA
ATOM     19  C   UNL A   1      36.325  32.734  32.868  1.00  0.00     0.316 C 
BRANCH  10  20
ATOM     20  C   UNL A   1      39.549  33.102  38.601  1.00  0.00     0.032 C 
ATOM     21  C   UNL A   1      41.072  33.096  38.647  1.00  0.00     0.009 C 
ENDBRANCH  10  20
BRANCH  19  22
ATOM     22  C   UNL A   1      36.813  33.413  31.582  1.00  0.00     0.430 C 
ATOM     23  F   UNL A   1      37.774  34.332  31.842  1.00  0.00    -0.167 F 
ATOM     24  F   UNL A   1      37.354  32.519  30.721  1.00  0.00    -0.167 F 
ATOM     25  F   UNL A   1      35.810  34.043  30.930  1.00  0.00    -0.167 F 
ENDBRANCH  19  22
ENDBRANCH   7   9
ENDBRANCH   6   7
ENDBRANCH   5   6
ENDBRANCH   4   5
ENDBRANCH   3   4
ENDBRANCH   2   3
ENDBRANCH   1   2
BRANCH   1  26
ATOM     26  O   UNL A   1      32.642  35.018  28.483  1.00  0.00    -0.376 OA
BRANCH  26  27
ATOM     27  C   UNL A   1      33.036  33.742  27.998  1.00  0.00     0.202 C 
BRANCH  27  28
ATOM     28  C   UNL A   1      34.457  33.182  28.196  1.00  0.00     0.261 C 
BRANCH  28  29
ATOM     29  O   UNL A   1      34.568  31.994  28.994  1.00  0.00    -0.460 OA
BRANCH  29  30
ATOM     30  C   UNL A   1      34.554  30.820  28.310  1.00  0.00     0.338 C 
ATOM     31  O   UNL A   1      33.685  30.396  27.575  1.00  0.00    -0.246 OA
BRANCH  30  32
ATOM     32  C   UNL A   1      35.876  30.179  28.453  1.00  0.00     0.060 A 
ATOM     33  C   UNL A   1      36.253  29.656  29.698  1.00  0.00     0.016 A 
ATOM     34  C   UNL A   1      36.745  30.121  27.364  1.00  0.00     0.016 A 
ATOM     35  C   UNL A   1      37.496  29.050  29.854  1.00  0.00     0.010 A 
ATOM     36  C   UNL A   1      38.011  29.554  27.533  1.00  0.00     0.010 A 
ATOM     37  C   UNL A   1      38.396  29.032  28.781  1.00  0.00    -0.014 A 
BRANCH  37  38
ATOM     38  C   UNL A   1      39.810  28.675  29.033  1.00  0.00     0.031 A 
ATOM     39  C   UNL A   1      40.681  29.685  29.724  1.00  0.00     0.074 A 
ATOM     40  C   UNL A   1      40.309  27.481  28.673  1.00  0.00     0.049 A 
ATOM     41  N   UNL A   1      41.944  29.609  30.056  1.00  0.00    -0.248 NA
ATOM     42  C   UNL A   1      40.033  30.954  30.088  1.00  0.00     0.031 C 
ATOM     43  C   UNL A   1      39.560  26.407  28.024  1.00  0.00     0.029 A 
ATOM     44  N   UNL A   1      41.580  26.982  28.799  1.00  0.00    -0.354 N 
ATOM     45  C   UNL A   1      42.240  30.818  30.673  1.00  0.00     0.074 A 
ATOM     46  C   UNL A   1      41.037  31.622  30.631  1.00  0.00     0.031 C 
ATOM     47  C   UNL A   1      40.393  25.377  27.793  1.00  0.00     0.029 A 
ATOM     48  C   UNL A   1      41.734  25.730  28.258  1.00  0.00     0.049 A 
ATOM     49  H   UNL A   1      42.311  27.474  29.236  1.00  0.00     0.167 HD
ATOM     50  C   UNL A   1      43.405  31.220  31.234  1.00  0.00     0.037 A 
ATOM     51  C   UNL A   1      42.839  24.969  28.139  1.00  0.00     0.037 A 
ATOM     52  C   UNL A   1      44.613  30.438  31.233  1.00  0.00     0.049 A 
ATOM     53  C   UNL A   1      44.150  25.478  28.683  1.00  0.00     0.074 A 
ATOM     54  C   UNL A   1      45.847  30.752  31.776  1.00  0.00     0.029 A 
ATOM     55  N   UNL A   1      44.746  29.194  30.634  1.00  0.00    -0.354 N 
ATOM     56  N   UNL A   1      44.413  26.600  29.309  1.00  0.00    -0.248 NA
ATOM     57  C   UNL A   1      45.318  24.602  28.510  1.00  0.00     0.031 C 
ATOM     58  C   UNL A   1      46.742  29.725  31.449  1.00  0.00     0.029 A 
ATOM     59  C   UNL A   1      46.049  28.740  30.764  1.00  0.00     0.049 A 
ATOM     60  H   UNL A   1      44.021  28.705  30.182  1.00  0.00     0.167 HD
ATOM     61  C   UNL A   1      45.766  26.553  29.629  1.00  0.00     0.074 A 
ATOM     62  C   UNL A   1      46.260  25.278  29.149  1.00  0.00     0.031 C 
ATOM     63  C   UNL A   1      46.533  27.476  30.265  1.00  0.00     0.037 A 
BRANCH  50  64
ATOM     64  C   UNL A   1      43.420  32.592  31.845  1.00  0.00     0.057 A 
ATOM     65  C   UNL A   1      43.706  33.718  31.063  1.00  0.00     0.134 A 
ATOM     66  C   UNL A   1      43.118  32.806  33.199  1.00  0.00     0.134 A 
ATOM     67  F   UNL A   1      44.005  33.586  29.763  1.00  0.00    -0.206 F 
ATOM     68  C   UNL A   1      43.680  35.005  31.601  1.00  0.00     0.040 A 
ATOM     69  C   UNL A   1      43.056  34.092  33.738  1.00  0.00     0.040 A 
ATOM     70  F   UNL A   1      42.816  31.773  33.999  1.00  0.00    -0.206 F 
ATOM     71  C   UNL A   1      43.340  35.196  32.939  1.00  0.00     0.006 A 
ENDBRANCH  50  64
BRANCH  51  72
ATOM     72  C   UNL A   1      42.768  23.643  27.473  1.00  0.00     0.057 A 
ATOM     73  C   UNL A   1      42.433  22.486  28.187  1.00  0.00     0.134 A 
ATOM     74  C   UNL A   1      42.987  23.510  26.096  1.00  0.00     0.134 A 
ATOM     75  F   UNL A   1      42.208  22.546  29.507  1.00  0.00    -0.206 F 
ATOM     76  C   UNL A   1      42.322  21.246  27.557  1.00  0.00     0.040 A 
ATOM     77  C   UNL A   1      42.852  22.281  25.449  1.00  0.00     0.040 A 
ATOM     78  F   UNL A   1      43.284  24.587  25.354  1.00  0.00    -0.206 F 
ATOM     79  C   UNL A   1      42.522  21.142  26.181  1.00  0.00     0.006 A 
ENDBRANCH  51  72
BRANCH  63  80
ATOM     80  C   UNL A   1      47.975  27.118  30.499  1.00  0.00     0.057 A 
ATOM     81  C   UNL A   1      48.352  26.374  31.626  1.00  0.00     0.134 A 
ATOM     82  C   UNL A   1      48.992  27.491  29.608  1.00  0.00     0.134 A 
ATOM     83  F   UNL A   1      47.436  25.994  32.529  1.00  0.00    -0.206 F 
ATOM     84  C   UNL A   1      49.679  26.001  31.848  1.00  0.00     0.040 A 
ATOM     85  C   UNL A   1      50.317  27.092  29.801  1.00  0.00     0.040 A 
ATOM     86  F   UNL A   1      48.703  28.197  28.504  1.00  0.00    -0.206 F 
ATOM     87  C   UNL A   1      50.663  26.347  30.925  1.00  0.00     0.006 A 
ENDBRANCH  63  80
ENDBRANCH  37  38
ENDBRANCH  30  32
ENDBRANCH  29  30
ENDBRANCH  28  29
ENDBRANCH  27  28
ENDBRANCH  26  27
ENDBRANCH   1  26
TORSDOF 19
ENDMDL
