MODEL 1
REMARK VINA RESULT:     -10.1      0.000      0.000
REMARK SMILES CC(C)[C@@](C)(CC(=O)N[C@H]1CCCC1(C)C)C(=O)OCCOCCOCCOC(=O)c1ccc(-c2c3nc(c(-c4c(F)cccc4F)c4ccc([nH]4)c(-c4c(F)cccc4F)c4nc(c(-c5c(F)cccc5F)c5ccc2[nH]5)C=C4)C=C3)cc1
REMARK SMILES IDX 23 1 22 2 21 3 20 4 19 5 17 6 18 7 4 8 5 9 2 10 1 11 3 12
REMARK SMILES IDX 6 13 7 14 8 15 9 16 10 18 11 19 14 20 12 21 13 22 15 23
REMARK SMILES IDX 16 24 24 25 25 26 26 27 27 28 28 29 29 30 30 31 31 32 32 33
REMARK SMILES IDX 84 34 33 35 83 36 34 37 35 38 36 39 77 40 37 41 82 42 76 43
REMARK SMILES IDX 78 44 38 45 81 46 75 47 74 48 39 50 65 51 48 52 64 53 49 54
REMARK SMILES IDX 52 55 63 56 79 57 50 58 51 59 62 61 80 62 53 63 40 64 41 65
REMARK SMILES IDX 46 66 42 67 43 68 45 69 47 70 44 71 66 72 67 73 72 74 68 75
REMARK SMILES IDX 69 76 71 77 73 78 70 79 54 80 55 81 60 82 56 83 57 84 59 85
REMARK SMILES IDX 61 86 58 87
REMARK H PARENT 9 17 78 49 52 60
REMARK Flexibility Score: inf
ROOT
ATOM      1  C   UNL A   1      31.983  28.186  25.965  1.00  0.00     0.188 C 
ENDROOT
BRANCH   1   2
ATOM      2  O   UNL A   1      30.892  27.482  25.376  1.00  0.00    -0.376 OA
BRANCH   2   3
ATOM      3  C   UNL A   1      30.973  26.060  25.417  1.00  0.00     0.202 C 
BRANCH   3   4
ATOM      4  C   UNL A   1      31.809  25.486  26.562  1.00  0.00     0.261 C 
BRANCH   4   5
ATOM      5  O   UNL A   1      32.173  24.099  26.363  1.00  0.00    -0.463 OA
BRANCH   5   6
ATOM      6  C   UNL A   1      33.034  23.913  25.331  1.00  0.00     0.312 C 
ATOM      7  O   UNL A   1      34.046  24.599  25.199  1.00  0.00    -0.252 OA
BRANCH   6   8
ATOM      8  C   UNL A   1      32.750  22.657  24.460  1.00  0.00     0.076 C 
ATOM      9  C   UNL A   1      31.711  21.887  25.332  1.00  0.00     0.024 C 
BRANCH   8  10
ATOM     10  C   UNL A   1      32.131  23.119  23.109  1.00  0.00     0.000 C 
ATOM     11  C   UNL A   1      32.302  22.159  21.930  1.00  0.00     0.008 C 
ATOM     12  C   UNL A   1      30.650  23.530  23.173  1.00  0.00     0.008 C 
ENDBRANCH   8  10
BRANCH   8  13
ATOM     13  C   UNL A   1      33.916  21.623  24.261  1.00  0.00     0.118 C 
BRANCH  13  14
ATOM     14  C   UNL A   1      34.301  20.671  25.393  1.00  0.00     0.221 C 
ATOM     15  O   UNL A   1      34.910  21.152  26.362  1.00  0.00    -0.275 OA
ATOM     16  N   UNL A   1      34.095  19.335  25.490  1.00  0.00    -0.353 N 
ATOM     17  H   UNL A   1      34.737  18.971  26.139  1.00  0.00     0.163 HD
BRANCH  16  18
ATOM     18  C   UNL A   1      33.266  18.223  24.985  1.00  0.00     0.087 C 
ATOM     19  C   UNL A   1      32.263  18.555  23.892  1.00  0.00     0.025 C 
ATOM     20  C   UNL A   1      33.881  16.847  24.564  1.00  0.00    -0.015 C 
ATOM     21  C   UNL A   1      32.818  17.931  22.622  1.00  0.00     0.003 C 
ATOM     22  C   UNL A   1      33.862  16.887  23.024  1.00  0.00     0.008 C 
ATOM     23  C   UNL A   1      35.246  16.466  25.145  1.00  0.00     0.013 C 
ATOM     24  C   UNL A   1      32.935  15.701  25.019  1.00  0.00     0.013 C 
ENDBRANCH  16  18
ENDBRANCH  13  14
ENDBRANCH   8  13
ENDBRANCH   6   8
ENDBRANCH   5   6
ENDBRANCH   4   5
ENDBRANCH   3   4
ENDBRANCH   2   3
ENDBRANCH   1   2
BRANCH   1  25
ATOM     25  C   UNL A   1      32.526  29.391  25.175  1.00  0.00     0.188 C 
BRANCH  25  26
ATOM     26  O   UNL A   1      32.692  30.589  25.932  1.00  0.00    -0.376 OA
BRANCH  26  27
ATOM     27  C   UNL A   1      31.531  31.078  26.593  1.00  0.00     0.202 C 
BRANCH  27  28
ATOM     28  C   UNL A   1      31.478  32.602  26.710  1.00  0.00     0.261 C 
BRANCH  28  29
ATOM     29  O   UNL A   1      32.792  33.202  26.668  1.00  0.00    -0.460 OA
BRANCH  29  30
ATOM     30  C   UNL A   1      33.281  33.599  27.871  1.00  0.00     0.338 C 
ATOM     31  O   UNL A   1      32.766  34.377  28.653  1.00  0.00    -0.246 OA
BRANCH  30  32
ATOM     32  C   UNL A   1      34.558  32.915  28.182  1.00  0.00     0.060 A 
ATOM     33  C   UNL A   1      34.496  31.595  28.644  1.00  0.00     0.016 A 
ATOM     34  C   UNL A   1      35.776  33.598  28.181  1.00  0.00     0.016 A 
ATOM     35  C   UNL A   1      35.636  30.973  29.160  1.00  0.00     0.010 A 
ATOM     36  C   UNL A   1      36.917  32.981  28.716  1.00  0.00     0.010 A 
ATOM     37  C   UNL A   1      36.844  31.680  29.244  1.00  0.00    -0.014 A 
BRANCH  37  38
ATOM     38  C   UNL A   1      37.972  31.124  30.036  1.00  0.00     0.031 A 
ATOM     39  C   UNL A   1      38.921  30.158  29.380  1.00  0.00     0.074 A 
ATOM     40  C   UNL A   1      38.174  31.482  31.316  1.00  0.00     0.049 A 
ATOM     41  N   UNL A   1      39.937  29.512  29.897  1.00  0.00    -0.248 NA
ATOM     42  C   UNL A   1      38.697  29.885  27.952  1.00  0.00     0.031 C 
ATOM     43  C   UNL A   1      37.367  32.442  32.064  1.00  0.00     0.029 A 
ATOM     44  N   UNL A   1      39.134  31.077  32.212  1.00  0.00    -0.354 N 
ATOM     45  C   UNL A   1      40.467  28.751  28.862  1.00  0.00     0.074 A 
ATOM     46  C   UNL A   1      39.660  29.015  27.688  1.00  0.00     0.031 C 
ATOM     47  C   UNL A   1      37.872  32.560  33.305  1.00  0.00     0.029 A 
ATOM     48  C   UNL A   1      39.012  31.656  33.451  1.00  0.00     0.049 A 
ATOM     49  H   UNL A   1      39.843  30.433  31.986  1.00  0.00     0.167 HD
ATOM     50  C   UNL A   1      41.522  27.901  28.885  1.00  0.00     0.037 A 
ATOM     51  C   UNL A   1      39.724  31.462  34.579  1.00  0.00     0.037 A 
ATOM     52  C   UNL A   1      42.315  27.607  30.048  1.00  0.00     0.049 A 
ATOM     53  C   UNL A   1      40.851  30.463  34.597  1.00  0.00     0.074 A 
ATOM     54  C   UNL A   1      43.373  26.722  30.169  1.00  0.00     0.029 A 
ATOM     55  N   UNL A   1      42.133  28.184  31.294  1.00  0.00    -0.354 N 
ATOM     56  N   UNL A   1      41.328  29.731  33.619  1.00  0.00    -0.248 NA
ATOM     57  C   UNL A   1      41.530  30.249  35.886  1.00  0.00     0.031 C 
ATOM     58  C   UNL A   1      43.811  26.739  31.498  1.00  0.00     0.029 A 
ATOM     59  C   UNL A   1      43.050  27.665  32.193  1.00  0.00     0.049 A 
ATOM     60  H   UNL A   1      41.454  28.863  31.508  1.00  0.00     0.167 HD
ATOM     61  C   UNL A   1      42.359  28.980  34.170  1.00  0.00     0.074 A 
ATOM     62  C   UNL A   1      42.460  29.362  35.563  1.00  0.00     0.031 C 
ATOM     63  C   UNL A   1      43.145  28.049  33.577  1.00  0.00     0.037 A 
BRANCH  50  64
ATOM     64  C   UNL A   1      41.852  27.191  27.608  1.00  0.00     0.057 A 
ATOM     65  C   UNL A   1      42.747  27.729  26.676  1.00  0.00     0.134 A 
ATOM     66  C   UNL A   1      41.285  25.944  27.320  1.00  0.00     0.134 A 
ATOM     67  F   UNL A   1      43.310  28.928  26.888  1.00  0.00    -0.206 F 
ATOM     68  C   UNL A   1      43.056  27.057  25.492  1.00  0.00     0.040 A 
ATOM     69  C   UNL A   1      41.600  25.253  26.149  1.00  0.00     0.040 A 
ATOM     70  F   UNL A   1      40.422  25.374  28.174  1.00  0.00    -0.206 F 
ATOM     71  C   UNL A   1      42.484  25.812  25.229  1.00  0.00     0.006 A 
ENDBRANCH  50  64
BRANCH  51  72
ATOM     72  C   UNL A   1      39.383  32.214  35.812  1.00  0.00     0.057 A 
ATOM     73  C   UNL A   1      38.418  31.734  36.704  1.00  0.00     0.134 A 
ATOM     74  C   UNL A   1      39.985  33.443  36.109  1.00  0.00     0.134 A 
ATOM     75  F   UNL A   1      37.786  30.577  36.459  1.00  0.00    -0.206 F 
ATOM     76  C   UNL A   1      38.050  32.457  37.840  1.00  0.00     0.040 A 
ATOM     77  C   UNL A   1      39.644  34.164  37.253  1.00  0.00     0.040 A 
ATOM     78  F   UNL A   1      40.912  33.957  35.289  1.00  0.00    -0.206 F 
ATOM     79  C   UNL A   1      38.669  33.674  38.120  1.00  0.00     0.006 A 
ENDBRANCH  51  72
BRANCH  63  80
ATOM     80  C   UNL A   1      44.192  27.383  34.423  1.00  0.00     0.057 A 
ATOM     81  C   UNL A   1      45.465  27.942  34.591  1.00  0.00     0.134 A 
ATOM     82  C   UNL A   1      43.908  26.200  35.116  1.00  0.00     0.134 A 
ATOM     83  F   UNL A   1      45.804  29.070  33.946  1.00  0.00    -0.206 F 
ATOM     84  C   UNL A   1      46.426  27.339  35.405  1.00  0.00     0.040 A 
ATOM     85  C   UNL A   1      44.853  25.598  35.948  1.00  0.00     0.040 A 
ATOM     86  F   UNL A   1      42.705  25.618  35.004  1.00  0.00    -0.206 F 
ATOM     87  C   UNL A   1      46.118  26.165  36.092  1.00  0.00     0.006 A 
ENDBRANCH  63  80
ENDBRANCH  37  38
ENDBRANCH  30  32
ENDBRANCH  29  30
ENDBRANCH  28  29
ENDBRANCH  27  28
ENDBRANCH  26  27
ENDBRANCH  25  26
ENDBRANCH   1  25
TORSDOF 21
ENDMDL
MODEL 2
REMARK VINA RESULT:     -10.1      2.656      8.411
REMARK SMILES CC(C)[C@@](C)(CC(=O)N[C@H]1CCCC1(C)C)C(=O)OCCOCCOCCOC(=O)c1ccc(-c2c3nc(c(-c4c(F)cccc4F)c4ccc([nH]4)c(-c4c(F)cccc4F)c4nc(c(-c5c(F)cccc5F)c5ccc2[nH]5)C=C4)C=C3)cc1
REMARK SMILES IDX 23 1 22 2 21 3 20 4 19 5 17 6 18 7 4 8 5 9 2 10 1 11 3 12
REMARK SMILES IDX 6 13 7 14 8 15 9 16 10 18 11 19 14 20 12 21 13 22 15 23
REMARK SMILES IDX 16 24 24 25 25 26 26 27 27 28 28 29 29 30 30 31 31 32 32 33
REMARK SMILES IDX 84 34 33 35 83 36 34 37 35 38 36 39 77 40 37 41 82 42 76 43
REMARK SMILES IDX 78 44 38 45 81 46 75 47 74 48 39 50 65 51 48 52 64 53 49 54
REMARK SMILES IDX 52 55 63 56 79 57 50 58 51 59 62 61 80 62 53 63 40 64 41 65
REMARK SMILES IDX 46 66 42 67 43 68 45 69 47 70 44 71 66 72 67 73 72 74 68 75
REMARK SMILES IDX 69 76 71 77 73 78 70 79 54 80 55 81 60 82 56 83 57 84 59 85
REMARK SMILES IDX 61 86 58 87
REMARK H PARENT 9 17 78 49 52 60
REMARK Flexibility Score: inf
ROOT
ATOM      1  C   UNL A   1      39.451  22.369  26.484  1.00  0.00     0.188 C 
ENDROOT
BRANCH   1   2
ATOM      2  O   UNL A   1      38.166  21.909  26.074  1.00  0.00    -0.376 OA
BRANCH   2   3
ATOM      3  C   UNL A   1      37.264  22.911  25.611  1.00  0.00     0.202 C 
BRANCH   3   4
ATOM      4  C   UNL A   1      36.873  22.806  24.135  1.00  0.00     0.261 C 
BRANCH   4   5
ATOM      5  O   UNL A   1      35.616  22.119  23.927  1.00  0.00    -0.463 OA
BRANCH   5   6
ATOM      6  C   UNL A   1      34.635  22.926  23.452  1.00  0.00     0.312 C 
ATOM      7  O   UNL A   1      34.869  23.834  22.656  1.00  0.00    -0.252 OA
BRANCH   6   8
ATOM      8  C   UNL A   1      33.191  22.495  23.833  1.00  0.00     0.076 C 
ATOM      9  C   UNL A   1      32.382  22.923  22.569  1.00  0.00     0.024 C 
BRANCH   8  10
ATOM     10  C   UNL A   1      33.168  20.952  24.029  1.00  0.00     0.000 C 
ATOM     11  C   UNL A   1      32.784  20.459  25.426  1.00  0.00     0.008 C 
ATOM     12  C   UNL A   1      32.326  20.172  23.004  1.00  0.00     0.008 C 
ENDBRANCH   8  10
BRANCH   8  13
ATOM     13  C   UNL A   1      32.482  23.258  25.009  1.00  0.00     0.118 C 
BRANCH  13  14
ATOM     14  C   UNL A   1      33.255  24.285  25.835  1.00  0.00     0.221 C 
ATOM     15  O   UNL A   1      34.036  23.855  26.699  1.00  0.00    -0.275 OA
ATOM     16  N   UNL A   1      33.197  25.639  25.783  1.00  0.00    -0.353 N 
ATOM     17  H   UNL A   1      33.532  25.995  26.636  1.00  0.00     0.163 HD
BRANCH  16  18
ATOM     18  C   UNL A   1      32.819  26.777  24.923  1.00  0.00     0.087 C 
ATOM     19  C   UNL A   1      33.708  27.057  23.723  1.00  0.00     0.025 C 
ATOM     20  C   UNL A   1      31.358  26.979  24.399  1.00  0.00    -0.015 C 
ATOM     21  C   UNL A   1      32.899  26.638  22.506  1.00  0.00     0.003 C 
ATOM     22  C   UNL A   1      31.429  26.545  22.922  1.00  0.00     0.008 C 
ATOM     23  C   UNL A   1      30.221  26.308  25.175  1.00  0.00     0.013 C 
ATOM     24  C   UNL A   1      31.005  28.493  24.431  1.00  0.00     0.013 C 
ENDBRANCH  16  18
ENDBRANCH  13  14
ENDBRANCH   8  13
ENDBRANCH   6   8
ENDBRANCH   5   6
ENDBRANCH   4   5
ENDBRANCH   3   4
ENDBRANCH   2   3
ENDBRANCH   1   2
BRANCH   1  25
ATOM     25  C   UNL A   1      40.665  21.677  25.838  1.00  0.00     0.188 C 
BRANCH  25  26
ATOM     26  O   UNL A   1      41.236  20.614  26.600  1.00  0.00    -0.376 OA
BRANCH  26  27
ATOM     27  C   UNL A   1      42.619  20.740  26.911  1.00  0.00     0.202 C 
BRANCH  27  28
ATOM     28  C   UNL A   1      43.410  21.573  25.900  1.00  0.00     0.261 C 
BRANCH  28  29
ATOM     29  O   UNL A   1      44.215  22.589  26.537  1.00  0.00    -0.460 OA
BRANCH  29  30
ATOM     30  C   UNL A   1      44.203  23.800  25.922  1.00  0.00     0.338 C 
ATOM     31  O   UNL A   1      44.751  24.098  24.876  1.00  0.00    -0.246 OA
BRANCH  30  32
ATOM     32  C   UNL A   1      43.369  24.771  26.667  1.00  0.00     0.060 A 
ATOM     33  C   UNL A   1      43.699  26.127  26.566  1.00  0.00     0.016 A 
ATOM     34  C   UNL A   1      42.392  24.356  27.576  1.00  0.00     0.016 A 
ATOM     35  C   UNL A   1      43.097  27.067  27.409  1.00  0.00     0.010 A 
ATOM     36  C   UNL A   1      41.801  25.295  28.434  1.00  0.00     0.010 A 
ATOM     37  C   UNL A   1      42.179  26.648  28.382  1.00  0.00    -0.014 A 
BRANCH  37  38
ATOM     38  C   UNL A   1      41.753  27.591  29.450  1.00  0.00     0.031 A 
ATOM     39  C   UNL A   1      42.531  27.638  30.738  1.00  0.00     0.074 A 
ATOM     40  C   UNL A   1      40.704  28.414  29.282  1.00  0.00     0.049 A 
ATOM     41  N   UNL A   1      42.305  28.343  31.819  1.00  0.00    -0.248 NA
ATOM     42  C   UNL A   1      43.723  26.779  30.816  1.00  0.00     0.031 C 
ATOM     43  C   UNL A   1      39.890  28.512  28.074  1.00  0.00     0.029 A 
ATOM     44  N   UNL A   1      40.149  29.334  30.139  1.00  0.00    -0.354 N 
ATOM     45  C   UNL A   1      43.319  28.006  32.707  1.00  0.00     0.074 A 
ATOM     46  C   UNL A   1      44.161  27.035  32.040  1.00  0.00     0.031 C 
ATOM     47  C   UNL A   1      38.944  29.449  28.262  1.00  0.00     0.029 A 
ATOM     48  C   UNL A   1      39.060  29.987  29.616  1.00  0.00     0.049 A 
ATOM     49  H   UNL A   1      40.500  29.508  31.042  1.00  0.00     0.167 HD
ATOM     50  C   UNL A   1      43.528  28.455  33.968  1.00  0.00     0.037 A 
ATOM     51  C   UNL A   1      38.239  30.899  30.175  1.00  0.00     0.037 A 
ATOM     52  C   UNL A   1      42.687  29.398  34.655  1.00  0.00     0.049 A 
ATOM     53  C   UNL A   1      38.454  31.333  31.602  1.00  0.00     0.074 A 
ATOM     54  C   UNL A   1      42.801  29.871  35.952  1.00  0.00     0.029 A 
ATOM     55  N   UNL A   1      41.570  30.006  34.106  1.00  0.00    -0.354 N 
ATOM     56  N   UNL A   1      39.401  30.991  32.440  1.00  0.00    -0.248 NA
ATOM     57  C   UNL A   1      37.469  32.272  32.166  1.00  0.00     0.031 C 
ATOM     58  C   UNL A   1      41.732  30.741  36.198  1.00  0.00     0.029 A 
ATOM     59  C   UNL A   1      40.978  30.840  35.040  1.00  0.00     0.049 A 
ATOM     60  H   UNL A   1      41.246  29.867  33.186  1.00  0.00     0.167 HD
ATOM     61  C   UNL A   1      39.131  31.671  33.622  1.00  0.00     0.074 A 
ATOM     62  C   UNL A   1      37.947  32.470  33.386  1.00  0.00     0.031 C 
ATOM     63  C   UNL A   1      39.799  31.631  34.800  1.00  0.00     0.037 A 
BRANCH  50  64
ATOM     64  C   UNL A   1      44.703  27.891  34.706  1.00  0.00     0.057 A 
ATOM     65  C   UNL A   1      44.610  26.706  35.444  1.00  0.00     0.134 A 
ATOM     66  C   UNL A   1      45.948  28.530  34.658  1.00  0.00     0.134 A 
ATOM     67  F   UNL A   1      43.440  26.056  35.541  1.00  0.00    -0.206 F 
ATOM     68  C   UNL A   1      45.712  26.182  36.122  1.00  0.00     0.040 A 
ATOM     69  C   UNL A   1      47.062  28.007  35.316  1.00  0.00     0.040 A 
ATOM     70  F   UNL A   1      46.103  29.669  33.965  1.00  0.00    -0.206 F 
ATOM     71  C   UNL A   1      46.944  26.831  36.055  1.00  0.00     0.006 A 
ENDBRANCH  50  64
BRANCH  51  72
ATOM     72  C   UNL A   1      37.108  31.458  29.394  1.00  0.00     0.057 A 
ATOM     73  C   UNL A   1      35.947  30.709  29.173  1.00  0.00     0.134 A 
ATOM     74  C   UNL A   1      37.174  32.734  28.822  1.00  0.00     0.134 A 
ATOM     75  F   UNL A   1      35.836  29.469  29.672  1.00  0.00    -0.206 F 
ATOM     76  C   UNL A   1      34.897  31.203  28.396  1.00  0.00     0.040 A 
ATOM     77  C   UNL A   1      36.123  33.249  28.064  1.00  0.00     0.040 A 
ATOM     78  F   UNL A   1      38.263  33.496  28.993  1.00  0.00    -0.206 F 
ATOM     79  C   UNL A   1      34.981  32.479  27.843  1.00  0.00     0.006 A 
ENDBRANCH  51  72
BRANCH  63  80
ATOM     80  C   UNL A   1      39.278  32.478  35.924  1.00  0.00     0.057 A 
ATOM     81  C   UNL A   1      38.345  31.984  36.845  1.00  0.00     0.134 A 
ATOM     82  C   UNL A   1      39.750  33.782  36.118  1.00  0.00     0.134 A 
ATOM     83  F   UNL A   1      37.846  30.746  36.709  1.00  0.00    -0.206 F 
ATOM     84  C   UNL A   1      37.888  32.763  37.910  1.00  0.00     0.040 A 
ATOM     85  C   UNL A   1      39.315  34.563  37.190  1.00  0.00     0.040 A 
ATOM     86  F   UNL A   1      40.650  34.312  35.276  1.00  0.00    -0.206 F 
ATOM     87  C   UNL A   1      38.378  34.056  38.087  1.00  0.00     0.006 A 
ENDBRANCH  63  80
ENDBRANCH  37  38
ENDBRANCH  30  32
ENDBRANCH  29  30
ENDBRANCH  28  29
ENDBRANCH  27  28
ENDBRANCH  26  27
ENDBRANCH  25  26
ENDBRANCH   1  25
TORSDOF 21
ENDMDL
MODEL 3
REMARK VINA RESULT:     -10.0      0.395      6.169
REMARK SMILES CC(C)[C@@](C)(CC(=O)N[C@H]1CCCC1(C)C)C(=O)OCCOCCOCCOC(=O)c1ccc(-c2c3nc(c(-c4c(F)cccc4F)c4ccc([nH]4)c(-c4c(F)cccc4F)c4nc(c(-c5c(F)cccc5F)c5ccc2[nH]5)C=C4)C=C3)cc1
REMARK SMILES IDX 23 1 22 2 21 3 20 4 19 5 17 6 18 7 4 8 5 9 2 10 1 11 3 12
REMARK SMILES IDX 6 13 7 14 8 15 9 16 10 18 11 19 14 20 12 21 13 22 15 23
REMARK SMILES IDX 16 24 24 25 25 26 26 27 27 28 28 29 29 30 30 31 31 32 32 33
REMARK SMILES IDX 84 34 33 35 83 36 34 37 35 38 36 39 77 40 37 41 82 42 76 43
REMARK SMILES IDX 78 44 38 45 81 46 75 47 74 48 39 50 65 51 48 52 64 53 49 54
REMARK SMILES IDX 52 55 63 56 79 57 50 58 51 59 62 61 80 62 53 63 40 64 41 65
REMARK SMILES IDX 46 66 42 67 43 68 45 69 47 70 44 71 66 72 67 73 72 74 68 75
REMARK SMILES IDX 69 76 71 77 73 78 70 79 54 80 55 81 60 82 56 83 57 84 59 85
REMARK SMILES IDX 61 86 58 87
REMARK H PARENT 9 17 78 49 52 60
REMARK Flexibility Score: inf
ROOT
ATOM      1  C   UNL A   1      31.995  28.295  25.869  1.00  0.00     0.188 C 
ENDROOT
BRANCH   1   2
ATOM      2  O   UNL A   1      30.900  27.552  25.339  1.00  0.00    -0.376 OA
BRANCH   2   3
ATOM      3  C   UNL A   1      31.005  26.134  25.433  1.00  0.00     0.202 C 
BRANCH   3   4
ATOM      4  C   UNL A   1      32.020  25.621  26.456  1.00  0.00     0.261 C 
BRANCH   4   5
ATOM      5  O   UNL A   1      32.318  24.212  26.305  1.00  0.00    -0.463 OA
BRANCH   5   6
ATOM      6  C   UNL A   1      33.090  23.940  25.223  1.00  0.00     0.312 C 
ATOM      7  O   UNL A   1      34.107  24.585  24.972  1.00  0.00    -0.252 OA
BRANCH   6   8
ATOM      8  C   UNL A   1      32.705  22.646  24.453  1.00  0.00     0.076 C 
ATOM      9  C   UNL A   1      31.641  22.011  25.401  1.00  0.00     0.024 C 
BRANCH   8  10
ATOM     10  C   UNL A   1      32.082  23.048  23.085  1.00  0.00     0.000 C 
ATOM     11  C   UNL A   1      32.132  21.983  21.987  1.00  0.00     0.008 C 
ATOM     12  C   UNL A   1      30.644  23.591  23.153  1.00  0.00     0.008 C 
ENDBRANCH   8  10
BRANCH   8  13
ATOM     13  C   UNL A   1      33.797  21.526  24.307  1.00  0.00     0.118 C 
BRANCH  13  14
ATOM     14  C   UNL A   1      34.114  20.603  25.483  1.00  0.00     0.221 C 
ATOM     15  O   UNL A   1      34.624  21.116  26.491  1.00  0.00    -0.275 OA
ATOM     16  N   UNL A   1      33.940  19.263  25.585  1.00  0.00    -0.353 N 
ATOM     17  H   UNL A   1      34.536  18.928  26.292  1.00  0.00     0.163 HD
BRANCH  16  18
ATOM     18  C   UNL A   1      33.189  18.118  25.032  1.00  0.00     0.087 C 
ATOM     19  C   UNL A   1      32.198  18.420  23.920  1.00  0.00     0.025 C 
ATOM     20  C   UNL A   1      33.893  16.790  24.597  1.00  0.00    -0.015 C 
ATOM     21  C   UNL A   1      32.822  17.860  22.651  1.00  0.00     0.003 C 
ATOM     22  C   UNL A   1      33.913  16.867  23.058  1.00  0.00     0.008 C 
ATOM     23  C   UNL A   1      35.262  16.473  25.206  1.00  0.00     0.013 C 
ATOM     24  C   UNL A   1      33.003  15.581  24.999  1.00  0.00     0.013 C 
ENDBRANCH  16  18
ENDBRANCH  13  14
ENDBRANCH   8  13
ENDBRANCH   6   8
ENDBRANCH   5   6
ENDBRANCH   4   5
ENDBRANCH   3   4
ENDBRANCH   2   3
ENDBRANCH   1   2
BRANCH   1  25
ATOM     25  C   UNL A   1      32.453  29.517  25.052  1.00  0.00     0.188 C 
BRANCH  25  26
ATOM     26  O   UNL A   1      32.649  30.713  25.805  1.00  0.00    -0.376 OA
BRANCH  26  27
ATOM     27  C   UNL A   1      31.542  31.152  26.584  1.00  0.00     0.202 C 
BRANCH  27  28
ATOM     28  C   UNL A   1      31.515  32.661  26.830  1.00  0.00     0.261 C 
BRANCH  28  29
ATOM     29  O   UNL A   1      32.826  33.258  26.724  1.00  0.00    -0.460 OA
BRANCH  29  30
ATOM     30  C   UNL A   1      33.388  33.623  27.905  1.00  0.00     0.338 C 
ATOM     31  O   UNL A   1      32.936  34.403  28.723  1.00  0.00    -0.246 OA
BRANCH  30  32
ATOM     32  C   UNL A   1      34.660  32.901  28.139  1.00  0.00     0.060 A 
ATOM     33  C   UNL A   1      34.590  31.531  28.421  1.00  0.00     0.016 A 
ATOM     34  C   UNL A   1      35.879  33.574  28.245  1.00  0.00     0.016 A 
ATOM     35  C   UNL A   1      35.722  30.842  28.864  1.00  0.00     0.010 A 
ATOM     36  C   UNL A   1      37.011  32.887  28.708  1.00  0.00     0.010 A 
ATOM     37  C   UNL A   1      36.930  31.528  29.057  1.00  0.00    -0.014 A 
BRANCH  37  38
ATOM     38  C   UNL A   1      38.046  30.868  29.784  1.00  0.00     0.031 A 
ATOM     39  C   UNL A   1      38.269  31.197  31.236  1.00  0.00     0.074 A 
ATOM     40  C   UNL A   1      38.845  29.972  29.179  1.00  0.00     0.049 A 
ATOM     41  N   UNL A   1      39.212  30.781  32.046  1.00  0.00    -0.248 NA
ATOM     42  C   UNL A   1      37.300  32.112  31.857  1.00  0.00     0.031 C 
ATOM     43  C   UNL A   1      38.717  29.522  27.796  1.00  0.00     0.029 A 
ATOM     44  N   UNL A   1      39.924  29.273  29.664  1.00  0.00    -0.354 N 
ATOM     45  C   UNL A   1      38.955  31.391  33.268  1.00  0.00     0.074 A 
ATOM     46  C   UNL A   1      37.769  32.204  33.093  1.00  0.00     0.031 C 
ATOM     47  C   UNL A   1      39.676  28.614  27.545  1.00  0.00     0.029 A 
ATOM     48  C   UNL A   1      40.509  28.448  28.736  1.00  0.00     0.049 A 
ATOM     49  H   UNL A   1      40.247  29.357  30.590  1.00  0.00     0.167 HD
ATOM     50  C   UNL A   1      39.646  31.293  34.428  1.00  0.00     0.037 A 
ATOM     51  C   UNL A   1      41.602  27.665  28.830  1.00  0.00     0.037 A 
ATOM     52  C   UNL A   1      40.841  30.513  34.610  1.00  0.00     0.049 A 
ATOM     53  C   UNL A   1      42.393  27.624  30.111  1.00  0.00     0.074 A 
ATOM     54  C   UNL A   1      41.631  30.396  35.742  1.00  0.00     0.029 A 
ATOM     55  N   UNL A   1      41.424  29.722  33.633  1.00  0.00    -0.354 N 
ATOM     56  N   UNL A   1      42.155  28.223  31.253  1.00  0.00    -0.248 NA
ATOM     57  C   UNL A   1      43.619  26.809  30.111  1.00  0.00     0.031 C 
ATOM     58  C   UNL A   1      42.711  29.559  35.439  1.00  0.00     0.029 A 
ATOM     59  C   UNL A   1      42.570  29.125  34.131  1.00  0.00     0.049 A 
ATOM     60  H   UNL A   1      41.074  29.602  32.721  1.00  0.00     0.167 HD
ATOM     61  C   UNL A   1      43.191  27.855  32.102  1.00  0.00     0.074 A 
ATOM     62  C   UNL A   1      44.048  26.957  31.356  1.00  0.00     0.031 C 
ATOM     63  C   UNL A   1      43.418  28.233  33.383  1.00  0.00     0.037 A 
BRANCH  50  64
ATOM     64  C   UNL A   1      39.143  32.093  35.591  1.00  0.00     0.057 A 
ATOM     65  C   UNL A   1      38.292  31.538  36.553  1.00  0.00     0.134 A 
ATOM     66  C   UNL A   1      39.534  33.427  35.759  1.00  0.00     0.134 A 
ATOM     67  F   UNL A   1      37.870  30.270  36.438  1.00  0.00    -0.206 F 
ATOM     68  C   UNL A   1      37.835  32.288  37.638  1.00  0.00     0.040 A 
ATOM     69  C   UNL A   1      39.098  34.182  36.849  1.00  0.00     0.040 A 
ATOM     70  F   UNL A   1      40.350  34.016  34.872  1.00  0.00    -0.206 F 
ATOM     71  C   UNL A   1      38.242  33.613  37.790  1.00  0.00     0.006 A 
ENDBRANCH  50  64
BRANCH  51  72
ATOM     72  C   UNL A   1      42.045  26.862  27.663  1.00  0.00     0.057 A 
ATOM     73  C   UNL A   1      42.908  27.402  26.703  1.00  0.00     0.134 A 
ATOM     74  C   UNL A   1      41.588  25.555  27.459  1.00  0.00     0.134 A 
ATOM     75  F   UNL A   1      43.357  28.661  26.828  1.00  0.00    -0.206 F 
ATOM     76  C   UNL A   1      43.290  26.676  25.573  1.00  0.00     0.040 A 
ATOM     77  C   UNL A   1      41.981  24.810  26.348  1.00  0.00     0.040 A 
ATOM     78  F   UNL A   1      40.754  24.985  28.340  1.00  0.00    -0.206 F 
ATOM     79  C   UNL A   1      42.830  25.373  25.397  1.00  0.00     0.006 A 
ENDBRANCH  51  72
BRANCH  63  80
ATOM     80  C   UNL A   1      44.632  27.675  34.068  1.00  0.00     0.057 A 
ATOM     81  C   UNL A   1      44.617  26.413  34.675  1.00  0.00     0.134 A 
ATOM     82  C   UNL A   1      45.839  28.384  34.077  1.00  0.00     0.134 A 
ATOM     83  F   UNL A   1      43.489  25.688  34.710  1.00  0.00    -0.206 F 
ATOM     84  C   UNL A   1      45.757  25.882  35.282  1.00  0.00     0.040 A 
ATOM     85  C   UNL A   1      46.991  27.855  34.663  1.00  0.00     0.040 A 
ATOM     86  F   UNL A   1      45.923  29.595  33.507  1.00  0.00    -0.206 F 
ATOM     87  C   UNL A   1      46.951  26.602  35.272  1.00  0.00     0.006 A 
ENDBRANCH  63  80
ENDBRANCH  37  38
ENDBRANCH  30  32
ENDBRANCH  29  30
ENDBRANCH  28  29
ENDBRANCH  27  28
ENDBRANCH  26  27
ENDBRANCH  25  26
ENDBRANCH   1  25
TORSDOF 21
ENDMDL
