MODEL 1
REMARK VINA RESULT:      -9.6      0.000      0.000
REMARK SMILES COc1ccc(C[N@@H+](CC(=O)OCCOCCOCCOC(=O)c2ccc(-c3c4nc(c(-c5c(F)cccc5F)c5ccc([nH]5)c(-c5c(F)cccc5F)c5nc(c(-c6c(F)cccc6F)c6ccc3[nH]6)C=C5)C=C4)cc2)C(C)(C)C)cc1C#N
REMARK SMILES IDX 16 1 15 2 14 3 13 4 12 5 10 6 11 7 9 8 8 9 7 11 6 12 3 13
REMARK SMILES IDX 4 14 83 15 5 16 82 17 2 18 1 19 84 20 85 21 78 22 79 23
REMARK SMILES IDX 80 24 81 25 17 26 18 27 19 28 20 29 21 30 22 31 23 32 24 33
REMARK SMILES IDX 25 34 77 35 26 36 76 37 27 38 28 39 29 40 70 41 30 42 75 43
REMARK SMILES IDX 69 44 71 45 31 46 74 47 68 48 67 49 32 51 58 52 41 53 57 54
REMARK SMILES IDX 42 55 45 56 56 57 72 58 43 59 44 60 55 62 73 63 46 64 33 65
REMARK SMILES IDX 34 66 39 67 35 68 36 69 38 70 40 71 37 72 59 73 60 74 65 75
REMARK SMILES IDX 61 76 62 77 64 78 66 79 63 80 47 81 48 82 53 83 49 84 50 85
REMARK SMILES IDX 52 86 54 87 51 88
REMARK H PARENT 8 10 71 50 45 61
REMARK Flexibility Score: inf
ROOT
ATOM      1  C   UNL A   1      39.999  21.554  26.084  1.00  0.00     0.188 C 
ENDROOT
BRANCH   1   2
ATOM      2  O   UNL A   1      39.225  22.470  26.842  1.00  0.00    -0.376 OA
BRANCH   2   3
ATOM      3  C   UNL A   1      38.547  23.470  26.089  1.00  0.00     0.202 C 
BRANCH   3   4
ATOM      4  C   UNL A   1      37.014  23.331  25.946  1.00  0.00     0.261 C 
BRANCH   4   5
ATOM      5  O   UNL A   1      36.400  23.375  24.618  1.00  0.00    -0.459 OA
BRANCH   5   6
ATOM      6  C   UNL A   1      35.278  22.616  24.459  1.00  0.00     0.361 C 
ATOM      7  O   UNL A   1      35.325  21.383  24.440  1.00  0.00    -0.245 OA
BRANCH   6   8
ATOM      8  C   UNL A   1      33.924  23.302  24.163  1.00  0.00     0.387 C 
BRANCH   8   9
ATOM      9  N   UNL A   1      33.007  23.885  25.200  1.00  0.00    -0.318 N 
ATOM     10  H   UNL A   1      32.190  24.304  24.755  1.00  0.00     0.349 HD
BRANCH   9  11
ATOM     11  C   UNL A   1      33.665  25.039  25.851  1.00  0.00     0.299 C 
BRANCH  11  12
ATOM     12  C   UNL A   1      32.944  26.368  25.800  1.00  0.00     0.008 A 
ATOM     13  C   UNL A   1      31.965  28.957  25.285  1.00  0.00     0.136 A 
ATOM     14  C   UNL A   1      32.825  28.718  26.367  1.00  0.00     0.048 A 
ATOM     15  C   UNL A   1      31.527  27.884  24.501  1.00  0.00     0.094 A 
ATOM     16  C   UNL A   1      33.290  27.428  26.645  1.00  0.00     0.013 A 
ATOM     17  C   UNL A   1      31.998  26.594  24.784  1.00  0.00     0.033 A 
BRANCH  13  18
ATOM     18  O   UNL A   1      31.767  30.283  25.003  1.00  0.00    -0.495 OA
ATOM     19  C   UNL A   1      31.275  31.065  26.085  1.00  0.00     0.278 C 
ENDBRANCH  13  18
BRANCH  15  20
ATOM     20  C   UNL A   1      30.701  28.033  23.338  1.00  0.00     0.103 C 
ATOM     21  N   UNL A   1      30.019  28.205  22.418  1.00  0.00    -0.192 NA
ENDBRANCH  15  20
ENDBRANCH  11  12
ENDBRANCH   9  11
BRANCH   9  22
ATOM     22  C   UNL A   1      32.188  22.914  25.982  1.00  0.00     0.090 C 
ATOM     23  C   UNL A   1      30.820  23.526  26.197  1.00  0.00     0.078 C 
ATOM     24  C   UNL A   1      31.945  21.506  25.368  1.00  0.00     0.078 C 
ATOM     25  C   UNL A   1      32.862  22.562  27.339  1.00  0.00     0.078 C 
ENDBRANCH   9  22
ENDBRANCH   8   9
ENDBRANCH   6   8
ENDBRANCH   5   6
ENDBRANCH   4   5
ENDBRANCH   3   4
ENDBRANCH   2   3
ENDBRANCH   1   2
BRANCH   1  26
ATOM     26  C   UNL A   1      41.000  20.726  26.894  1.00  0.00     0.188 C 
BRANCH  26  27
ATOM     27  O   UNL A   1      42.332  21.214  26.817  1.00  0.00    -0.376 OA
BRANCH  27  28
ATOM     28  C   UNL A   1      43.168  20.790  25.742  1.00  0.00     0.202 C 
BRANCH  28  29
ATOM     29  C   UNL A   1      44.030  21.814  24.990  1.00  0.00     0.261 C 
BRANCH  29  30
ATOM     30  O   UNL A   1      43.383  23.077  24.724  1.00  0.00    -0.460 OA
BRANCH  30  31
ATOM     31  C   UNL A   1      44.067  24.194  25.060  1.00  0.00     0.338 C 
ATOM     32  O   UNL A   1      45.144  24.545  24.614  1.00  0.00    -0.246 OA
BRANCH  31  33
ATOM     33  C   UNL A   1      43.197  25.059  25.903  1.00  0.00     0.060 A 
ATOM     34  C   UNL A   1      43.524  26.414  26.014  1.00  0.00     0.016 A 
ATOM     35  C   UNL A   1      42.089  24.574  26.592  1.00  0.00     0.016 A 
ATOM     36  C   UNL A   1      42.829  27.271  26.857  1.00  0.00     0.010 A 
ATOM     37  C   UNL A   1      41.386  25.432  27.456  1.00  0.00     0.010 A 
ATOM     38  C   UNL A   1      41.790  26.772  27.638  1.00  0.00    -0.014 A 
BRANCH  38  39
ATOM     39  C   UNL A   1      41.334  27.588  28.795  1.00  0.00     0.031 A 
ATOM     40  C   UNL A   1      42.132  27.520  30.072  1.00  0.00     0.074 A 
ATOM     41  C   UNL A   1      40.326  28.476  28.692  1.00  0.00     0.049 A 
ATOM     42  N   UNL A   1      41.901  28.078  31.233  1.00  0.00    -0.248 NA
ATOM     43  C   UNL A   1      43.361  26.712  30.031  1.00  0.00     0.031 C 
ATOM     44  C   UNL A   1      39.543  28.740  27.486  1.00  0.00     0.029 A 
ATOM     45  N   UNL A   1      39.796  29.331  29.628  1.00  0.00    -0.354 N 
ATOM     46  C   UNL A   1      42.930  27.654  32.065  1.00  0.00     0.074 A 
ATOM     47  C   UNL A   1      43.768  26.770  31.288  1.00  0.00     0.031 C 
ATOM     48  C   UNL A   1      38.629  29.688  27.756  1.00  0.00     0.029 A 
ATOM     49  C   UNL A   1      38.724  30.055  29.168  1.00  0.00     0.049 A 
ATOM     50  H   UNL A   1      40.151  29.416  30.543  1.00  0.00     0.167 HD
ATOM     51  C   UNL A   1      43.164  27.978  33.360  1.00  0.00     0.037 A 
ATOM     52  C   UNL A   1      37.889  30.890  29.818  1.00  0.00     0.037 A 
ATOM     53  C   UNL A   1      42.343  28.877  34.128  1.00  0.00     0.049 A 
ATOM     54  C   UNL A   1      38.109  31.161  31.284  1.00  0.00     0.074 A 
ATOM     55  C   UNL A   1      42.485  29.255  35.452  1.00  0.00     0.029 A 
ATOM     56  N   UNL A   1      41.229  29.543  33.640  1.00  0.00    -0.354 N 
ATOM     57  N   UNL A   1      39.050  30.714  32.080  1.00  0.00    -0.248 NA
ATOM     58  C   UNL A   1      37.148  32.058  31.942  1.00  0.00     0.031 C 
ATOM     59  C   UNL A   1      41.419  30.097  35.782  1.00  0.00     0.029 A 
ATOM     60  C   UNL A   1      40.662  30.313  34.643  1.00  0.00     0.049 A 
ATOM     61  H   UNL A   1      40.891  29.478  32.718  1.00  0.00     0.167 HD
ATOM     62  C   UNL A   1      38.820  31.307  33.317  1.00  0.00     0.074 A 
ATOM     63  C   UNL A   1      37.658  32.156  33.160  1.00  0.00     0.031 C 
ATOM     64  C   UNL A   1      39.511  31.166  34.476  1.00  0.00     0.037 A 
BRANCH  51  65
ATOM     65  C   UNL A   1      44.327  27.308  34.038  1.00  0.00     0.057 A 
ATOM     66  C   UNL A   1      44.186  26.134  34.789  1.00  0.00     0.134 A 
ATOM     67  C   UNL A   1      45.613  27.855  33.934  1.00  0.00     0.134 A 
ATOM     68  F   UNL A   1      42.980  25.568  34.948  1.00  0.00    -0.206 F 
ATOM     69  C   UNL A   1      45.274  25.548  35.439  1.00  0.00     0.040 A 
ATOM     70  C   UNL A   1      46.714  27.258  34.548  1.00  0.00     0.040 A 
ATOM     71  F   UNL A   1      45.822  28.976  33.228  1.00  0.00    -0.206 F 
ATOM     72  C   UNL A   1      46.545  26.106  35.313  1.00  0.00     0.006 A 
ENDBRANCH  51  65
BRANCH  52  73
ATOM     73  C   UNL A   1      36.734  31.503  29.105  1.00  0.00     0.057 A 
ATOM     74  C   UNL A   1      35.598  30.756  28.771  1.00  0.00     0.134 A 
ATOM     75  C   UNL A   1      36.761  32.844  28.702  1.00  0.00     0.134 A 
ATOM     76  F   UNL A   1      35.520  29.459  29.102  1.00  0.00    -0.206 F 
ATOM     77  C   UNL A   1      34.545  31.312  28.041  1.00  0.00     0.040 A 
ATOM     78  C   UNL A   1      35.700  33.422  28.002  1.00  0.00     0.040 A 
ATOM     79  F   UNL A   1      37.821  33.616  28.985  1.00  0.00    -0.206 F 
ATOM     80  C   UNL A   1      34.592  32.651  27.660  1.00  0.00     0.006 A 
ENDBRANCH  52  73
BRANCH  64  81
ATOM     81  C   UNL A   1      39.076  32.006  35.647  1.00  0.00     0.057 A 
ATOM     82  C   UNL A   1      38.238  31.516  36.658  1.00  0.00     0.134 A 
ATOM     83  C   UNL A   1      39.511  33.334  35.762  1.00  0.00     0.134 A 
ATOM     84  F   UNL A   1      37.778  30.256  36.611  1.00  0.00    -0.206 F 
ATOM     85  C   UNL A   1      37.808  32.330  37.710  1.00  0.00     0.040 A 
ATOM     86  C   UNL A   1      39.121  34.144  36.830  1.00  0.00     0.040 A 
ATOM     87  F   UNL A   1      40.329  33.867  34.842  1.00  0.00    -0.206 F 
ATOM     88  C   UNL A   1      38.254  33.647  37.799  1.00  0.00     0.006 A 
ENDBRANCH  64  81
ENDBRANCH  38  39
ENDBRANCH  31  33
ENDBRANCH  30  31
ENDBRANCH  29  30
ENDBRANCH  28  29
ENDBRANCH  27  28
ENDBRANCH  26  27
ENDBRANCH   1  26
TORSDOF 23
ENDMDL
MODEL 2
REMARK VINA RESULT:      -9.2      4.293      9.794
REMARK SMILES COc1ccc(C[N@@H+](CC(=O)OCCOCCOCCOC(=O)c2ccc(-c3c4nc(c(-c5c(F)cccc5F)c5ccc([nH]5)c(-c5c(F)cccc5F)c5nc(c(-c6c(F)cccc6F)c6ccc3[nH]6)C=C5)C=C4)cc2)C(C)(C)C)cc1C#N
REMARK SMILES IDX 16 1 15 2 14 3 13 4 12 5 10 6 11 7 9 8 8 9 7 11 6 12 3 13
REMARK SMILES IDX 4 14 83 15 5 16 82 17 2 18 1 19 84 20 85 21 78 22 79 23
REMARK SMILES IDX 80 24 81 25 17 26 18 27 19 28 20 29 21 30 22 31 23 32 24 33
REMARK SMILES IDX 25 34 77 35 26 36 76 37 27 38 28 39 29 40 70 41 30 42 75 43
REMARK SMILES IDX 69 44 71 45 31 46 74 47 68 48 67 49 32 51 58 52 41 53 57 54
REMARK SMILES IDX 42 55 45 56 56 57 72 58 43 59 44 60 55 62 73 63 46 64 33 65
REMARK SMILES IDX 34 66 39 67 35 68 36 69 38 70 40 71 37 72 59 73 60 74 65 75
REMARK SMILES IDX 61 76 62 77 64 78 66 79 63 80 47 81 48 82 53 83 49 84 50 85
REMARK SMILES IDX 52 86 54 87 51 88
REMARK H PARENT 8 10 71 50 45 61
REMARK Flexibility Score: inf
ROOT
ATOM      1  C   UNL A   1      34.407  29.494  27.314  1.00  0.00     0.188 C 
ENDROOT
BRANCH   1   2
ATOM      2  O   UNL A   1      34.037  28.690  26.205  1.00  0.00    -0.376 OA
BRANCH   2   3
ATOM      3  C   UNL A   1      32.839  29.079  25.539  1.00  0.00     0.202 C 
BRANCH   3   4
ATOM      4  C   UNL A   1      32.898  29.212  24.000  1.00  0.00     0.261 C 
BRANCH   4   5
ATOM      5  O   UNL A   1      32.290  28.180  23.157  1.00  0.00    -0.459 OA
BRANCH   5   6
ATOM      6  C   UNL A   1      33.120  27.170  22.768  1.00  0.00     0.361 C 
ATOM      7  O   UNL A   1      33.906  27.300  21.825  1.00  0.00    -0.245 OA
BRANCH   6   8
ATOM      8  C   UNL A   1      32.996  25.778  23.431  1.00  0.00     0.387 C 
BRANCH   8   9
ATOM      9  N   UNL A   1      32.318  25.504  24.743  1.00  0.00    -0.318 N 
ATOM     10  H   UNL A   1      31.972  26.372  25.151  1.00  0.00     0.349 HD
BRANCH   9  11
ATOM     11  C   UNL A   1      33.318  25.041  25.730  1.00  0.00     0.299 C 
BRANCH  11  12
ATOM     12  C   UNL A   1      34.334  24.022  25.262  1.00  0.00     0.008 A 
ATOM     13  C   UNL A   1      36.205  21.945  24.927  1.00  0.00     0.136 A 
ATOM     14  C   UNL A   1      36.628  23.274  25.074  1.00  0.00     0.048 A 
ATOM     15  C   UNL A   1      34.836  21.658  24.868  1.00  0.00     0.094 A 
ATOM     16  C   UNL A   1      35.701  24.313  25.210  1.00  0.00     0.013 A 
ATOM     17  C   UNL A   1      33.913  22.705  25.006  1.00  0.00     0.033 A 
BRANCH  13  18
ATOM     18  O   UNL A   1      37.210  21.018  25.023  1.00  0.00    -0.495 OA
ATOM     19  C   UNL A   1      38.420  21.495  25.601  1.00  0.00     0.278 C 
ENDBRANCH  13  18
BRANCH  15  20
ATOM     20  C   UNL A   1      34.304  20.329  24.784  1.00  0.00     0.103 C 
ATOM     21  N   UNL A   1      33.924  19.239  24.694  1.00  0.00    -0.192 NA
ENDBRANCH  15  20
ENDBRANCH  11  12
ENDBRANCH   9  11
BRANCH   9  22
ATOM     22  C   UNL A   1      30.957  24.897  24.671  1.00  0.00     0.090 C 
ATOM     23  C   UNL A   1      29.954  26.020  24.519  1.00  0.00     0.078 C 
ATOM     24  C   UNL A   1      30.667  23.893  23.520  1.00  0.00     0.078 C 
ATOM     25  C   UNL A   1      30.648  24.039  25.932  1.00  0.00     0.078 C 
ENDBRANCH   9  22
ENDBRANCH   8   9
ENDBRANCH   6   8
ENDBRANCH   5   6
ENDBRANCH   4   5
ENDBRANCH   3   4
ENDBRANCH   2   3
ENDBRANCH   1   2
BRANCH   1  26
ATOM     26  C   UNL A   1      33.833  30.913  27.306  1.00  0.00     0.188 C 
BRANCH  26  27
ATOM     27  O   UNL A   1      34.821  31.923  27.459  1.00  0.00    -0.376 OA
BRANCH  27  28
ATOM     28  C   UNL A   1      34.595  32.981  28.390  1.00  0.00     0.202 C 
BRANCH  28  29
ATOM     29  C   UNL A   1      34.772  32.730  29.894  1.00  0.00     0.261 C 
BRANCH  29  30
ATOM     30  O   UNL A   1      35.452  31.502  30.232  1.00  0.00    -0.460 OA
BRANCH  30  31
ATOM     31  C   UNL A   1      36.584  31.614  30.964  1.00  0.00     0.338 C 
ATOM     32  O   UNL A   1      36.699  32.176  32.037  1.00  0.00    -0.246 OA
BRANCH  31  33
ATOM     33  C   UNL A   1      37.635  30.747  30.365  1.00  0.00     0.060 A 
ATOM     34  C   UNL A   1      38.436  29.991  31.226  1.00  0.00     0.016 A 
ATOM     35  C   UNL A   1      37.862  30.672  28.993  1.00  0.00     0.016 A 
ATOM     36  C   UNL A   1      39.504  29.234  30.763  1.00  0.00     0.010 A 
ATOM     37  C   UNL A   1      38.948  29.917  28.515  1.00  0.00     0.010 A 
ATOM     38  C   UNL A   1      39.811  29.241  29.405  1.00  0.00    -0.014 A 
BRANCH  38  39
ATOM     39  C   UNL A   1      41.157  28.762  28.992  1.00  0.00     0.031 A 
ATOM     40  C   UNL A   1      42.313  29.726  29.077  1.00  0.00     0.074 A 
ATOM     41  C   UNL A   1      41.395  27.473  28.682  1.00  0.00     0.049 A 
ATOM     42  N   UNL A   1      43.560  29.572  28.712  1.00  0.00    -0.248 NA
ATOM     43  C   UNL A   1      42.018  31.047  29.655  1.00  0.00     0.031 C 
ATOM     44  C   UNL A   1      40.401  26.401  28.677  1.00  0.00     0.029 A 
ATOM     45  N   UNL A   1      42.563  26.846  28.318  1.00  0.00    -0.354 N 
ATOM     46  C   UNL A   1      44.183  30.786  28.978  1.00  0.00     0.074 A 
ATOM     47  C   UNL A   1      43.173  31.675  29.505  1.00  0.00     0.031 C 
ATOM     48  C   UNL A   1      41.000  25.251  28.322  1.00  0.00     0.029 A 
ATOM     49  C   UNL A   1      42.404  25.516  28.019  1.00  0.00     0.049 A 
ATOM     50  H   UNL A   1      43.432  27.309  28.276  1.00  0.00     0.167 HD
ATOM     51  C   UNL A   1      45.482  31.129  28.808  1.00  0.00     0.037 A 
ATOM     52  C   UNL A   1      43.281  24.621  27.522  1.00  0.00     0.037 A 
ATOM     53  C   UNL A   1      46.494  30.237  28.306  1.00  0.00     0.049 A 
ATOM     54  C   UNL A   1      44.700  25.051  27.247  1.00  0.00     0.074 A 
ATOM     55  C   UNL A   1      47.834  30.495  28.080  1.00  0.00     0.029 A 
ATOM     56  N   UNL A   1      46.277  28.912  27.957  1.00  0.00    -0.354 N 
ATOM     57  N   UNL A   1      45.269  26.215  27.448  1.00  0.00    -0.248 NA
ATOM     58  C   UNL A   1      45.599  24.037  26.679  1.00  0.00     0.031 C 
ATOM     59  C   UNL A   1      48.414  29.346  27.531  1.00  0.00     0.029 A 
ATOM     60  C   UNL A   1      47.456  28.346  27.496  1.00  0.00     0.049 A 
ATOM     61  H   UNL A   1      45.414  28.444  28.025  1.00  0.00     0.167 HD
ATOM     62  C   UNL A   1      46.599  26.060  27.071  1.00  0.00     0.074 A 
ATOM     63  C   UNL A   1      46.753  24.686  26.643  1.00  0.00     0.031 C 
ATOM     64  C   UNL A   1      47.604  26.973  27.083  1.00  0.00     0.037 A 
BRANCH  51  65
ATOM     65  C   UNL A   1      45.865  32.549  29.119  1.00  0.00     0.057 A 
ATOM     66  C   UNL A   1      45.719  33.588  28.190  1.00  0.00     0.134 A 
ATOM     67  C   UNL A   1      46.392  32.878  30.376  1.00  0.00     0.134 A 
ATOM     68  F   UNL A   1      45.242  33.342  26.962  1.00  0.00    -0.206 F 
ATOM     69  C   UNL A   1      46.115  34.894  28.489  1.00  0.00     0.040 A 
ATOM     70  C   UNL A   1      46.755  34.186  30.698  1.00  0.00     0.040 A 
ATOM     71  F   UNL A   1      46.557  31.934  31.314  1.00  0.00    -0.206 F 
ATOM     72  C   UNL A   1      46.628  35.198  29.749  1.00  0.00     0.006 A 
ENDBRANCH  51  65
BRANCH  52  73
ATOM     73  C   UNL A   1      42.841  23.235  27.203  1.00  0.00     0.057 A 
ATOM     74  C   UNL A   1      42.570  22.834  25.889  1.00  0.00     0.134 A 
ATOM     75  C   UNL A   1      42.637  22.290  28.216  1.00  0.00     0.134 A 
ATOM     76  F   UNL A   1      42.717  23.700  24.874  1.00  0.00    -0.206 F 
ATOM     77  C   UNL A   1      42.090  21.556  25.597  1.00  0.00     0.040 A 
ATOM     78  C   UNL A   1      42.191  20.997  27.935  1.00  0.00     0.040 A 
ATOM     79  F   UNL A   1      42.873  22.607  29.497  1.00  0.00    -0.206 F 
ATOM     80  C   UNL A   1      41.905  20.631  26.622  1.00  0.00     0.006 A 
ENDBRANCH  52  73
BRANCH  64  81
ATOM     81  C   UNL A   1      48.977  26.494  26.693  1.00  0.00     0.057 A 
ATOM     82  C   UNL A   1      49.794  25.756  27.561  1.00  0.00     0.134 A 
ATOM     83  C   UNL A   1      49.488  26.778  25.418  1.00  0.00     0.134 A 
ATOM     84  F   UNL A   1      49.373  25.453  28.799  1.00  0.00    -0.206 F 
ATOM     85  C   UNL A   1      51.084  25.364  27.195  1.00  0.00     0.040 A 
ATOM     86  C   UNL A   1      50.760  26.357  25.027  1.00  0.00     0.040 A 
ATOM     87  F   UNL A   1      48.757  27.464  24.527  1.00  0.00    -0.206 F 
ATOM     88  C   UNL A   1      51.568  25.662  25.922  1.00  0.00     0.006 A 
ENDBRANCH  64  81
ENDBRANCH  38  39
ENDBRANCH  31  33
ENDBRANCH  30  31
ENDBRANCH  29  30
ENDBRANCH  28  29
ENDBRANCH  27  28
ENDBRANCH  26  27
ENDBRANCH   1  26
TORSDOF 23
ENDMDL
MODEL 3
REMARK VINA RESULT:      -9.0      1.468      2.429
REMARK SMILES COc1ccc(C[N@@H+](CC(=O)OCCOCCOCCOC(=O)c2ccc(-c3c4nc(c(-c5c(F)cccc5F)c5ccc([nH]5)c(-c5c(F)cccc5F)c5nc(c(-c6c(F)cccc6F)c6ccc3[nH]6)C=C5)C=C4)cc2)C(C)(C)C)cc1C#N
REMARK SMILES IDX 16 1 15 2 14 3 13 4 12 5 10 6 11 7 9 8 8 9 7 11 6 12 3 13
REMARK SMILES IDX 4 14 83 15 5 16 82 17 2 18 1 19 84 20 85 21 78 22 79 23
REMARK SMILES IDX 80 24 81 25 17 26 18 27 19 28 20 29 21 30 22 31 23 32 24 33
REMARK SMILES IDX 25 34 77 35 26 36 76 37 27 38 28 39 29 40 70 41 30 42 75 43
REMARK SMILES IDX 69 44 71 45 31 46 74 47 68 48 67 49 32 51 58 52 41 53 57 54
REMARK SMILES IDX 42 55 45 56 56 57 72 58 43 59 44 60 55 62 73 63 46 64 33 65
REMARK SMILES IDX 34 66 39 67 35 68 36 69 38 70 40 71 37 72 59 73 60 74 65 75
REMARK SMILES IDX 61 76 62 77 64 78 66 79 63 80 47 81 48 82 53 83 49 84 50 85
REMARK SMILES IDX 52 86 54 87 51 88
REMARK H PARENT 8 10 71 50 45 61
REMARK Flexibility Score: inf
ROOT
ATOM      1  C   UNL A   1      42.760  19.501  25.390  1.00  0.00     0.188 C 
ENDROOT
BRANCH   1   2
ATOM      2  O   UNL A   1      42.010  20.202  26.369  1.00  0.00    -0.376 OA
BRANCH   2   3
ATOM      3  C   UNL A   1      40.615  20.321  26.103  1.00  0.00     0.202 C 
BRANCH   3   4
ATOM      4  C   UNL A   1      39.882  21.542  26.703  1.00  0.00     0.261 C 
BRANCH   4   5
ATOM      5  O   UNL A   1      38.442  21.701  26.493  1.00  0.00    -0.459 OA
BRANCH   5   6
ATOM      6  C   UNL A   1      38.069  22.767  25.729  1.00  0.00     0.361 C 
ATOM      7  O   UNL A   1      38.509  23.901  25.936  1.00  0.00    -0.245 OA
BRANCH   6   8
ATOM      8  C   UNL A   1      36.970  22.594  24.655  1.00  0.00     0.387 C 
BRANCH   8   9
ATOM      9  N   UNL A   1      35.495  22.753  24.895  1.00  0.00    -0.318 N 
ATOM     10  H   UNL A   1      34.997  22.816  24.007  1.00  0.00     0.349 HD
BRANCH   9  11
ATOM     11  C   UNL A   1      35.235  24.068  25.522  1.00  0.00     0.299 C 
BRANCH  11  12
ATOM     12  C   UNL A   1      34.078  24.877  24.979  1.00  0.00     0.008 A 
ATOM     13  C   UNL A   1      31.714  25.880  23.824  1.00  0.00     0.136 A 
ATOM     14  C   UNL A   1      32.925  25.910  23.118  1.00  0.00     0.048 A 
ATOM     15  C   UNL A   1      31.696  25.419  25.145  1.00  0.00     0.094 A 
ATOM     16  C   UNL A   1      34.108  25.441  23.699  1.00  0.00     0.013 A 
ATOM     17  C   UNL A   1      32.885  24.949  25.721  1.00  0.00     0.033 A 
BRANCH  13  18
ATOM     18  O   UNL A   1      30.609  26.163  23.064  1.00  0.00    -0.495 OA
ATOM     19  C   UNL A   1      30.156  27.510  23.134  1.00  0.00     0.278 C 
ENDBRANCH  13  18
BRANCH  15  20
ATOM     20  C   UNL A   1      30.500  25.290  25.927  1.00  0.00     0.103 C 
ATOM     21  N   UNL A   1      29.505  25.191  26.511  1.00  0.00    -0.192 NA
ENDBRANCH  15  20
ENDBRANCH  11  12
ENDBRANCH   9  11
BRANCH   9  22
ATOM     22  C   UNL A   1      34.757  21.529  25.320  1.00  0.00     0.090 C 
ATOM     23  C   UNL A   1      34.468  21.650  26.801  1.00  0.00     0.078 C 
ATOM     24  C   UNL A   1      33.395  21.224  24.633  1.00  0.00     0.078 C 
ATOM     25  C   UNL A   1      35.568  20.238  25.012  1.00  0.00     0.078 C 
ENDBRANCH   9  22
ENDBRANCH   8   9
ENDBRANCH   6   8
ENDBRANCH   5   6
ENDBRANCH   4   5
ENDBRANCH   3   4
ENDBRANCH   2   3
ENDBRANCH   1   2
BRANCH   1  26
ATOM     26  C   UNL A   1      44.145  19.034  25.848  1.00  0.00     0.188 C 
BRANCH  26  27
ATOM     27  O   UNL A   1      45.198  19.471  25.000  1.00  0.00    -0.376 OA
BRANCH  27  28
ATOM     28  C   UNL A   1      45.384  20.869  24.785  1.00  0.00     0.202 C 
BRANCH  28  29
ATOM     29  C   UNL A   1      45.210  21.854  25.949  1.00  0.00     0.261 C 
BRANCH  29  30
ATOM     30  O   UNL A   1      45.026  23.232  25.559  1.00  0.00    -0.460 OA
BRANCH  30  31
ATOM     31  C   UNL A   1      43.874  23.535  24.918  1.00  0.00     0.338 C 
ATOM     32  O   UNL A   1      43.443  23.001  23.913  1.00  0.00    -0.246 OA
BRANCH  31  33
ATOM     33  C   UNL A   1      43.087  24.479  25.758  1.00  0.00     0.060 A 
ATOM     34  C   UNL A   1      43.491  25.817  25.802  1.00  0.00     0.016 A 
ATOM     35  C   UNL A   1      41.983  24.083  26.508  1.00  0.00     0.016 A 
ATOM     36  C   UNL A   1      42.879  26.743  26.636  1.00  0.00     0.010 A 
ATOM     37  C   UNL A   1      41.364  25.012  27.364  1.00  0.00     0.010 A 
ATOM     38  C   UNL A   1      41.847  26.333  27.476  1.00  0.00    -0.014 A 
BRANCH  38  39
ATOM     39  C   UNL A   1      41.483  27.217  28.616  1.00  0.00     0.031 A 
ATOM     40  C   UNL A   1      42.345  27.175  29.852  1.00  0.00     0.074 A 
ATOM     41  C   UNL A   1      40.505  28.137  28.525  1.00  0.00     0.049 A 
ATOM     42  N   UNL A   1      42.197  27.791  30.996  1.00  0.00    -0.248 NA
ATOM     43  C   UNL A   1      43.540  26.318  29.785  1.00  0.00     0.031 C 
ATOM     44  C   UNL A   1      39.669  28.378  27.350  1.00  0.00     0.029 A 
ATOM     45  N   UNL A   1      40.057  29.054  29.446  1.00  0.00    -0.354 N 
ATOM     46  C   UNL A   1      43.253  27.365  31.793  1.00  0.00     0.074 A 
ATOM     47  C   UNL A   1      44.016  26.416  31.015  1.00  0.00     0.031 C 
ATOM     48  C   UNL A   1      38.806  29.372  27.622  1.00  0.00     0.029 A 
ATOM     49  C   UNL A   1      38.989  29.798  29.008  1.00  0.00     0.049 A 
ATOM     50  H   UNL A   1      40.463  29.165  30.336  1.00  0.00     0.167 HD
ATOM     51  C   UNL A   1      43.568  27.737  33.057  1.00  0.00     0.037 A 
ATOM     52  C   UNL A   1      38.222  30.693  29.661  1.00  0.00     0.037 A 
ATOM     53  C   UNL A   1      42.823  28.701  33.825  1.00  0.00     0.049 A 
ATOM     54  C   UNL A   1      38.529  31.020  31.100  1.00  0.00     0.074 A 
ATOM     55  C   UNL A   1      43.049  29.131  35.120  1.00  0.00     0.029 A 
ATOM     56  N   UNL A   1      41.710  29.387  33.364  1.00  0.00    -0.354 N 
ATOM     57  N   UNL A   1      39.495  30.572  31.866  1.00  0.00    -0.248 NA
ATOM     58  C   UNL A   1      37.638  31.982  31.764  1.00  0.00     0.031 C 
ATOM     59  C   UNL A   1      42.034  30.028  35.466  1.00  0.00     0.029 A 
ATOM     60  C   UNL A   1      41.225  30.223  34.359  1.00  0.00     0.049 A 
ATOM     61  H   UNL A   1      41.320  29.295  32.465  1.00  0.00     0.167 HD
ATOM     62  C   UNL A   1      39.352  31.228  33.085  1.00  0.00     0.074 A 
ATOM     63  C   UNL A   1      38.216  32.114  32.948  1.00  0.00     0.031 C 
ATOM     64  C   UNL A   1      40.099  31.111  34.212  1.00  0.00     0.037 A 
BRANCH  51  65
ATOM     65  C   UNL A   1      44.739  27.053  33.705  1.00  0.00     0.057 A 
ATOM     66  C   UNL A   1      44.617  25.836  34.388  1.00  0.00     0.134 A 
ATOM     67  C   UNL A   1      46.016  27.630  33.640  1.00  0.00     0.134 A 
ATOM     68  F   UNL A   1      43.423  25.239  34.507  1.00  0.00    -0.206 F 
ATOM     69  C   UNL A   1      45.714  25.236  35.012  1.00  0.00     0.040 A 
ATOM     70  C   UNL A   1      47.125  27.021  34.228  1.00  0.00     0.040 A 
ATOM     71  F   UNL A   1      46.206  28.793  33.000  1.00  0.00    -0.206 F 
ATOM     72  C   UNL A   1      46.974  25.825  34.926  1.00  0.00     0.006 A 
ENDBRANCH  51  65
BRANCH  52  73
ATOM     73  C   UNL A   1      37.054  31.318  28.981  1.00  0.00     0.057 A 
ATOM     74  C   UNL A   1      37.073  32.657  28.570  1.00  0.00     0.134 A 
ATOM     75  C   UNL A   1      35.871  30.600  28.767  1.00  0.00     0.134 A 
ATOM     76  F   UNL A   1      38.164  33.410  28.772  1.00  0.00    -0.206 F 
ATOM     77  C   UNL A   1      35.954  33.263  27.997  1.00  0.00     0.040 A 
ATOM     78  C   UNL A   1      34.756  31.183  28.162  1.00  0.00     0.040 A 
ATOM     79  F   UNL A   1      35.782  29.314  29.139  1.00  0.00    -0.206 F 
ATOM     80  C   UNL A   1      34.793  32.524  27.786  1.00  0.00     0.006 A 
ENDBRANCH  52  73
BRANCH  64  81
ATOM     81  C   UNL A   1      39.758  32.019  35.363  1.00  0.00     0.057 A 
ATOM     82  C   UNL A   1      40.355  33.275  35.538  1.00  0.00     0.134 A 
ATOM     83  C   UNL A   1      38.807  31.624  36.316  1.00  0.00     0.134 A 
ATOM     84  F   UNL A   1      41.278  33.716  34.668  1.00  0.00    -0.206 F 
ATOM     85  C   UNL A   1      40.059  34.080  36.641  1.00  0.00     0.040 A 
ATOM     86  C   UNL A   1      38.473  32.437  37.400  1.00  0.00     0.040 A 
ATOM     87  F   UNL A   1      38.181  30.443  36.206  1.00  0.00    -0.206 F 
ATOM     88  C   UNL A   1      39.111  33.662  37.574  1.00  0.00     0.006 A 
ENDBRANCH  64  81
ENDBRANCH  38  39
ENDBRANCH  31  33
ENDBRANCH  30  31
ENDBRANCH  29  30
ENDBRANCH  28  29
ENDBRANCH  27  28
ENDBRANCH  26  27
ENDBRANCH   1  26
TORSDOF 23
ENDMDL
