MODEL 1
REMARK VINA RESULT:     -10.9      0.000      0.000
REMARK SMILES O=C(OCCOCCOCCOC(=O)[C@@H]1CCCN(c2cnnc(O)c2Cl)C1)c1ccc(-c2c3nc(c(-c4c(F)cccc4F)c4ccc([nH]4)c(-c4c(F)cccc4F)c4nc(c(-c5c(F)cccc5F)c5ccc2[nH]5)C=C4)C=C3)cc1
REMARK SMILES IDX 7 1 6 2 5 3 4 4 3 5 2 6 1 7 29 8 30 9 82 10 31 11 81 12
REMARK SMILES IDX 32 13 33 14 34 15 75 16 35 17 80 18 74 19 76 20 36 21 79 22
REMARK SMILES IDX 73 23 72 24 37 26 63 27 46 28 62 29 47 30 50 31 61 32 77 33
REMARK SMILES IDX 48 34 49 35 60 37 78 38 51 39 38 40 39 41 44 42 40 43 41 44
REMARK SMILES IDX 43 45 45 46 42 47 64 48 65 49 70 50 66 51 67 52 69 53 71 54
REMARK SMILES IDX 68 55 52 56 53 57 58 58 54 59 55 60 57 61 59 62 56 63 8 64
REMARK SMILES IDX 9 65 10 66 11 67 12 68 13 69 14 70 15 71 16 72 28 73 17 74
REMARK SMILES IDX 19 75 18 76 20 77 21 78 26 79 22 80 24 81 27 82 23 83 25 84
REMARK H PARENT 76 25 50 36 25 85
REMARK Flexibility Score: inf
ROOT
ATOM      1  C   UNL A   1      40.210  20.622  26.123  1.00  0.00     0.188 C 
ENDROOT
BRANCH   1   2
ATOM      2  O   UNL A   1      41.094  20.462  27.229  1.00  0.00    -0.376 OA
BRANCH   2   3
ATOM      3  C   UNL A   1      42.261  21.291  27.151  1.00  0.00     0.202 C 
BRANCH   3   4
ATOM      4  C   UNL A   1      42.864  21.396  25.745  1.00  0.00     0.261 C 
BRANCH   4   5
ATOM      5  O   UNL A   1      42.572  22.653  25.109  1.00  0.00    -0.460 OA
BRANCH   5   6
ATOM      6  C   UNL A   1      43.182  23.854  25.231  1.00  0.00     0.338 C 
ATOM      7  O   UNL A   1      44.216  24.034  24.589  1.00  0.00    -0.246 OA
BRANCH   6   8
ATOM      8  C   UNL A   1      42.751  24.957  26.160  1.00  0.00     0.060 A 
ATOM      9  C   UNL A   1      43.327  26.222  26.267  1.00  0.00     0.016 A 
ATOM     10  C   UNL A   1      41.650  24.681  27.003  1.00  0.00     0.016 A 
ATOM     11  C   UNL A   1      42.838  27.171  27.163  1.00  0.00     0.010 A 
ATOM     12  C   UNL A   1      41.173  25.616  27.934  1.00  0.00     0.010 A 
ATOM     13  C   UNL A   1      41.789  26.861  28.032  1.00  0.00    -0.014 A 
BRANCH  13  14
ATOM     14  C   UNL A   1      41.604  27.765  29.187  1.00  0.00     0.031 A 
ATOM     15  C   UNL A   1      40.423  28.690  29.125  1.00  0.00     0.074 A 
ATOM     16  C   UNL A   1      42.341  27.657  30.304  1.00  0.00     0.049 A 
ATOM     17  N   UNL A   1      39.842  29.368  30.076  1.00  0.00    -0.248 NA
ATOM     18  C   UNL A   1      39.797  28.837  27.799  1.00  0.00     0.031 C 
ATOM     19  C   UNL A   1      43.495  26.783  30.469  1.00  0.00     0.029 A 
ATOM     20  N   UNL A   1      42.182  28.239  31.536  1.00  0.00    -0.354 N 
ATOM     21  C   UNL A   1      38.762  29.995  29.468  1.00  0.00     0.074 A 
ATOM     22  C   UNL A   1      38.767  29.617  28.073  1.00  0.00     0.031 C 
ATOM     23  C   UNL A   1      43.870  26.790  31.760  1.00  0.00     0.029 A 
ATOM     24  C   UNL A   1      43.019  27.719  32.499  1.00  0.00     0.049 A 
ATOM     25  H   UNL A   1      41.533  28.957  31.715  1.00  0.00     0.167 HD
ATOM     26  C   UNL A   1      37.861  30.843  30.017  1.00  0.00     0.037 A 
ATOM     27  C   UNL A   1      43.061  27.963  33.824  1.00  0.00     0.037 A 
ATOM     28  C   UNL A   1      37.953  31.323  31.366  1.00  0.00     0.049 A 
ATOM     29  C   UNL A   1      42.115  28.997  34.383  1.00  0.00     0.074 A 
ATOM     30  C   UNL A   1      37.205  32.299  31.995  1.00  0.00     0.029 A 
ATOM     31  N   UNL A   1      38.893  30.877  32.287  1.00  0.00    -0.354 N 
ATOM     32  N   UNL A   1      41.099  29.596  33.808  1.00  0.00    -0.248 NA
ATOM     33  C   UNL A   1      42.351  29.416  35.771  1.00  0.00     0.031 C 
ATOM     34  C   UNL A   1      37.733  32.485  33.279  1.00  0.00     0.029 A 
ATOM     35  C   UNL A   1      38.761  31.575  33.473  1.00  0.00     0.049 A 
ATOM     36  H   UNL A   1      39.556  30.169  32.118  1.00  0.00     0.167 HD
ATOM     37  C   UNL A   1      40.575  30.460  34.762  1.00  0.00     0.074 A 
ATOM     38  C   UNL A   1      41.354  30.265  35.968  1.00  0.00     0.031 C 
ATOM     39  C   UNL A   1      39.558  31.353  34.654  1.00  0.00     0.037 A 
BRANCH  26  40
ATOM     40  C   UNL A   1      36.814  31.377  29.087  1.00  0.00     0.057 A 
ATOM     41  C   UNL A   1      35.699  30.598  28.754  1.00  0.00     0.134 A 
ATOM     42  C   UNL A   1      36.838  32.701  28.627  1.00  0.00     0.134 A 
ATOM     43  F   UNL A   1      35.605  29.329  29.176  1.00  0.00    -0.206 F 
ATOM     44  C   UNL A   1      34.638  31.122  28.017  1.00  0.00     0.040 A 
ATOM     45  C   UNL A   1      35.769  33.245  27.911  1.00  0.00     0.040 A 
ATOM     46  F   UNL A   1      37.857  33.514  28.947  1.00  0.00    -0.206 F 
ATOM     47  C   UNL A   1      34.663  32.454  27.607  1.00  0.00     0.006 A 
ENDBRANCH  26  40
BRANCH  27  48
ATOM     48  C   UNL A   1      44.001  27.241  34.729  1.00  0.00     0.057 A 
ATOM     49  C   UNL A   1      45.237  27.783  35.104  1.00  0.00     0.134 A 
ATOM     50  C   UNL A   1      43.647  26.015  35.312  1.00  0.00     0.134 A 
ATOM     51  F   UNL A   1      45.642  28.960  34.603  1.00  0.00    -0.206 F 
ATOM     52  C   UNL A   1      46.084  27.135  36.007  1.00  0.00     0.040 A 
ATOM     53  C   UNL A   1      44.470  25.370  36.239  1.00  0.00     0.040 A 
ATOM     54  F   UNL A   1      42.462  25.451  35.035  1.00  0.00    -0.206 F 
ATOM     55  C   UNL A   1      45.695  25.929  36.587  1.00  0.00     0.006 A 
ENDBRANCH  27  48
BRANCH  39  56
ATOM     56  C   UNL A   1      39.224  32.154  35.880  1.00  0.00     0.057 A 
ATOM     57  C   UNL A   1      38.343  31.643  36.842  1.00  0.00     0.134 A 
ATOM     58  C   UNL A   1      39.752  33.433  36.100  1.00  0.00     0.134 A 
ATOM     59  F   UNL A   1      37.794  30.429  36.686  1.00  0.00    -0.206 F 
ATOM     60  C   UNL A   1      38.004  32.373  37.980  1.00  0.00     0.040 A 
ATOM     61  C   UNL A   1      39.446  34.158  37.252  1.00  0.00     0.040 A 
ATOM     62  F   UNL A   1      40.609  33.976  35.222  1.00  0.00    -0.206 F 
ATOM     63  C   UNL A   1      38.564  33.630  38.194  1.00  0.00     0.006 A 
ENDBRANCH  39  56
ENDBRANCH  13  14
ENDBRANCH   6   8
ENDBRANCH   5   6
ENDBRANCH   4   5
ENDBRANCH   3   4
ENDBRANCH   2   3
ENDBRANCH   1   2
BRANCH   1  64
ATOM     64  C   UNL A   1      39.285  21.847  26.167  1.00  0.00     0.188 C 
BRANCH  64  65
ATOM     65  O   UNL A   1      37.909  21.658  25.867  1.00  0.00    -0.376 OA
BRANCH  65  66
ATOM     66  C   UNL A   1      37.389  22.238  24.668  1.00  0.00     0.202 C 
BRANCH  66  67
ATOM     67  C   UNL A   1      36.863  23.669  24.748  1.00  0.00     0.261 C 
BRANCH  67  68
ATOM     68  O   UNL A   1      35.613  23.714  25.455  1.00  0.00    -0.463 OA
BRANCH  68  69
ATOM     69  C   UNL A   1      34.678  24.581  24.990  1.00  0.00     0.310 C 
ATOM     70  O   UNL A   1      34.203  25.502  25.638  1.00  0.00    -0.252 OA
BRANCH  69  71
ATOM     71  C   UNL A   1      34.348  24.349  23.525  1.00  0.00     0.118 C 
ATOM     72  C   UNL A   1      33.176  25.243  23.113  1.00  0.00     0.019 C 
ATOM     73  C   UNL A   1      34.036  22.897  23.176  1.00  0.00     0.132 C 
ATOM     74  C   UNL A   1      31.886  24.766  23.775  1.00  0.00     0.022 C 
ATOM     75  N   UNL A   1      32.749  22.451  23.741  1.00  0.00    -0.368 N 
ATOM     76  C   UNL A   1      31.587  23.301  23.454  1.00  0.00     0.116 C 
BRANCH  75  77
ATOM     77  C   UNL A   1      32.627  21.095  24.070  1.00  0.00     0.082 A 
ATOM     78  C   UNL A   1      32.250  20.180  23.076  1.00  0.00     0.163 A 
ATOM     79  C   UNL A   1      32.860  20.490  25.315  1.00  0.00     0.129 A 
ATOM     80  N   UNL A   1      32.097  18.842  23.233  1.00  0.00    -0.153 NA
ATOM     81  C   UNL A   1      32.698  19.107  25.449  1.00  0.00     0.252 A 
ATOM     82  Cl  UNL A   1      33.292  21.352  26.753  1.00  0.00    -0.076 Cl
ATOM     83  N   UNL A   1      32.330  18.299  24.437  1.00  0.00    -0.111 NA
BRANCH  81  84
ATOM     84  O   UNL A   1      32.905  18.466  26.644  1.00  0.00    -0.491 OA
ATOM     85  H   UNL A   1      32.777  17.540  26.707  1.00  0.00     0.295 HD
ENDBRANCH  81  84
ENDBRANCH  75  77
ENDBRANCH  69  71
ENDBRANCH  68  69
ENDBRANCH  67  68
ENDBRANCH  66  67
ENDBRANCH  65  66
ENDBRANCH  64  65
ENDBRANCH   1  64
TORSDOF 19
ENDMDL
MODEL 2
REMARK VINA RESULT:     -10.7      1.716      3.186
REMARK SMILES O=C(OCCOCCOCCOC(=O)[C@@H]1CCCN(c2cnnc(O)c2Cl)C1)c1ccc(-c2c3nc(c(-c4c(F)cccc4F)c4ccc([nH]4)c(-c4c(F)cccc4F)c4nc(c(-c5c(F)cccc5F)c5ccc2[nH]5)C=C4)C=C3)cc1
REMARK SMILES IDX 7 1 6 2 5 3 4 4 3 5 2 6 1 7 29 8 30 9 82 10 31 11 81 12
REMARK SMILES IDX 32 13 33 14 34 15 75 16 35 17 80 18 74 19 76 20 36 21 79 22
REMARK SMILES IDX 73 23 72 24 37 26 63 27 46 28 62 29 47 30 50 31 61 32 77 33
REMARK SMILES IDX 48 34 49 35 60 37 78 38 51 39 38 40 39 41 44 42 40 43 41 44
REMARK SMILES IDX 43 45 45 46 42 47 64 48 65 49 70 50 66 51 67 52 69 53 71 54
REMARK SMILES IDX 68 55 52 56 53 57 58 58 54 59 55 60 57 61 59 62 56 63 8 64
REMARK SMILES IDX 9 65 10 66 11 67 12 68 13 69 14 70 15 71 16 72 28 73 17 74
REMARK SMILES IDX 19 75 18 76 20 77 21 78 26 79 22 80 24 81 27 82 23 83 25 84
REMARK H PARENT 76 25 50 36 25 85
REMARK Flexibility Score: inf
ROOT
ATOM      1  C   UNL A   1      39.090  21.770  26.015  1.00  0.00     0.188 C 
ENDROOT
BRANCH   1   2
ATOM      2  O   UNL A   1      40.096  20.767  26.129  1.00  0.00    -0.376 OA
BRANCH   2   3
ATOM      3  C   UNL A   1      41.263  21.207  26.836  1.00  0.00     0.202 C 
BRANCH   3   4
ATOM      4  C   UNL A   1      42.493  21.424  25.946  1.00  0.00     0.261 C 
BRANCH   4   5
ATOM      5  O   UNL A   1      42.389  22.607  25.135  1.00  0.00    -0.460 OA
BRANCH   5   6
ATOM      6  C   UNL A   1      43.024  23.797  25.244  1.00  0.00     0.338 C 
ATOM      7  O   UNL A   1      44.061  23.949  24.599  1.00  0.00    -0.246 OA
BRANCH   6   8
ATOM      8  C   UNL A   1      42.618  24.918  26.163  1.00  0.00     0.060 A 
ATOM      9  C   UNL A   1      43.251  26.154  26.292  1.00  0.00     0.016 A 
ATOM     10  C   UNL A   1      41.478  24.695  26.969  1.00  0.00     0.016 A 
ATOM     11  C   UNL A   1      42.779  27.123  27.175  1.00  0.00     0.010 A 
ATOM     12  C   UNL A   1      41.018  25.649  27.888  1.00  0.00     0.010 A 
ATOM     13  C   UNL A   1      41.690  26.863  28.010  1.00  0.00    -0.014 A 
BRANCH  13  14
ATOM     14  C   UNL A   1      41.513  27.774  29.161  1.00  0.00     0.031 A 
ATOM     15  C   UNL A   1      40.334  28.702  29.098  1.00  0.00     0.074 A 
ATOM     16  C   UNL A   1      42.254  27.668  30.275  1.00  0.00     0.049 A 
ATOM     17  N   UNL A   1      39.759  29.386  30.049  1.00  0.00    -0.248 NA
ATOM     18  C   UNL A   1      39.703  28.844  27.775  1.00  0.00     0.031 C 
ATOM     19  C   UNL A   1      43.405  26.792  30.440  1.00  0.00     0.029 A 
ATOM     20  N   UNL A   1      42.101  28.257  31.505  1.00  0.00    -0.354 N 
ATOM     21  C   UNL A   1      38.679  30.014  29.443  1.00  0.00     0.074 A 
ATOM     22  C   UNL A   1      38.678  29.629  28.049  1.00  0.00     0.031 C 
ATOM     23  C   UNL A   1      43.785  26.804  31.730  1.00  0.00     0.029 A 
ATOM     24  C   UNL A   1      42.941  27.739  32.467  1.00  0.00     0.049 A 
ATOM     25  H   UNL A   1      41.455  28.977  31.684  1.00  0.00     0.167 HD
ATOM     26  C   UNL A   1      37.783  30.867  29.990  1.00  0.00     0.037 A 
ATOM     27  C   UNL A   1      42.989  27.989  33.791  1.00  0.00     0.037 A 
ATOM     28  C   UNL A   1      37.882  31.353  31.337  1.00  0.00     0.049 A 
ATOM     29  C   UNL A   1      42.048  29.029  34.348  1.00  0.00     0.074 A 
ATOM     30  C   UNL A   1      37.140  32.335  31.965  1.00  0.00     0.029 A 
ATOM     31  N   UNL A   1      38.823  30.909  32.256  1.00  0.00    -0.354 N 
ATOM     32  N   UNL A   1      41.031  29.628  33.775  1.00  0.00    -0.248 NA
ATOM     33  C   UNL A   1      42.291  29.453  35.734  1.00  0.00     0.031 C 
ATOM     34  C   UNL A   1      37.673  32.526  33.246  1.00  0.00     0.029 A 
ATOM     35  C   UNL A   1      38.699  31.613  33.439  1.00  0.00     0.049 A 
ATOM     36  H   UNL A   1      39.483  30.198  32.088  1.00  0.00     0.167 HD
ATOM     37  C   UNL A   1      40.514  30.499  34.727  1.00  0.00     0.074 A 
ATOM     38  C   UNL A   1      41.297  30.307  35.931  1.00  0.00     0.031 C 
ATOM     39  C   UNL A   1      39.499  31.394  34.619  1.00  0.00     0.037 A 
BRANCH  26  40
ATOM     40  C   UNL A   1      36.734  31.401  29.062  1.00  0.00     0.057 A 
ATOM     41  C   UNL A   1      35.623  30.617  28.725  1.00  0.00     0.134 A 
ATOM     42  C   UNL A   1      36.752  32.727  28.608  1.00  0.00     0.134 A 
ATOM     43  F   UNL A   1      35.536  29.346  29.141  1.00  0.00    -0.206 F 
ATOM     44  C   UNL A   1      34.560  31.140  27.989  1.00  0.00     0.040 A 
ATOM     45  C   UNL A   1      35.681  33.268  27.894  1.00  0.00     0.040 A 
ATOM     46  F   UNL A   1      37.766  33.543  28.933  1.00  0.00    -0.206 F 
ATOM     47  C   UNL A   1      34.578  32.473  27.585  1.00  0.00     0.006 A 
ENDBRANCH  26  40
BRANCH  27  48
ATOM     48  C   UNL A   1      43.930  27.268  34.696  1.00  0.00     0.057 A 
ATOM     49  C   UNL A   1      43.598  26.048  35.296  1.00  0.00     0.134 A 
ATOM     50  C   UNL A   1      45.228  27.750  34.923  1.00  0.00     0.134 A 
ATOM     51  F   UNL A   1      42.382  25.511  35.116  1.00  0.00    -0.206 F 
ATOM     52  C   UNL A   1      44.509  25.343  36.088  1.00  0.00     0.040 A 
ATOM     53  C   UNL A   1      46.159  27.043  35.687  1.00  0.00     0.040 A 
ATOM     54  F   UNL A   1      45.635  28.893  34.350  1.00  0.00    -0.206 F 
ATOM     55  C   UNL A   1      45.799  25.834  36.276  1.00  0.00     0.006 A 
ENDBRANCH  27  48
BRANCH  39  56
ATOM     56  C   UNL A   1      39.173  32.202  35.842  1.00  0.00     0.057 A 
ATOM     57  C   UNL A   1      39.715  33.484  36.008  1.00  0.00     0.134 A 
ATOM     58  C   UNL A   1      38.348  31.711  36.861  1.00  0.00     0.134 A 
ATOM     59  F   UNL A   1      40.523  34.009  35.074  1.00  0.00    -0.206 F 
ATOM     60  C   UNL A   1      39.442  34.249  37.141  1.00  0.00     0.040 A 
ATOM     61  C   UNL A   1      38.040  32.481  37.984  1.00  0.00     0.040 A 
ATOM     62  F   UNL A   1      37.790  30.495  36.759  1.00  0.00    -0.206 F 
ATOM     63  C   UNL A   1      38.594  33.752  38.129  1.00  0.00     0.006 A 
ENDBRANCH  39  56
ENDBRANCH  13  14
ENDBRANCH   6   8
ENDBRANCH   5   6
ENDBRANCH   4   5
ENDBRANCH   3   4
ENDBRANCH   2   3
ENDBRANCH   1   2
BRANCH   1  64
ATOM     64  C   UNL A   1      37.882  21.421  25.135  1.00  0.00     0.188 C 
BRANCH  64  65
ATOM     65  O   UNL A   1      36.726  20.885  25.765  1.00  0.00    -0.376 OA
BRANCH  65  66
ATOM     66  C   UNL A   1      35.513  20.818  25.013  1.00  0.00     0.202 C 
BRANCH  66  67
ATOM     67  C   UNL A   1      34.201  20.778  25.794  1.00  0.00     0.261 C 
BRANCH  67  68
ATOM     68  O   UNL A   1      33.077  20.924  24.910  1.00  0.00    -0.463 OA
BRANCH  68  69
ATOM     69  C   UNL A   1      32.533  22.164  24.813  1.00  0.00     0.310 C 
ATOM     70  O   UNL A   1      31.751  22.512  23.941  1.00  0.00    -0.252 OA
BRANCH  69  71
ATOM     71  C   UNL A   1      32.922  23.062  25.976  1.00  0.00     0.118 C 
ATOM     72  C   UNL A   1      31.702  23.315  26.863  1.00  0.00     0.019 C 
ATOM     73  C   UNL A   1      33.542  24.392  25.558  1.00  0.00     0.132 C 
ATOM     74  C   UNL A   1      30.695  24.206  26.139  1.00  0.00     0.022 C 
ATOM     75  N   UNL A   1      32.557  25.294  24.934  1.00  0.00    -0.368 N 
ATOM     76  C   UNL A   1      31.321  25.527  25.690  1.00  0.00     0.116 C 
BRANCH  75  77
ATOM     77  C   UNL A   1      33.030  26.195  23.970  1.00  0.00     0.082 A 
ATOM     78  C   UNL A   1      33.246  25.745  22.659  1.00  0.00     0.163 A 
ATOM     79  C   UNL A   1      33.313  27.559  24.138  1.00  0.00     0.129 A 
ATOM     80  N   UNL A   1      33.691  26.491  21.617  1.00  0.00    -0.153 NA
ATOM     81  C   UNL A   1      33.767  28.307  23.046  1.00  0.00     0.252 A 
ATOM     82  Cl  UNL A   1      33.193  28.403  25.645  1.00  0.00    -0.076 Cl
ATOM     83  N   UNL A   1      33.949  27.792  21.816  1.00  0.00    -0.111 NA
BRANCH  81  84
ATOM     84  O   UNL A   1      34.066  29.641  23.155  1.00  0.00    -0.491 OA
ATOM     85  H   UNL A   1      34.162  30.031  24.002  1.00  0.00     0.295 HD
ENDBRANCH  81  84
ENDBRANCH  75  77
ENDBRANCH  69  71
ENDBRANCH  68  69
ENDBRANCH  67  68
ENDBRANCH  66  67
ENDBRANCH  65  66
ENDBRANCH  64  65
ENDBRANCH   1  64
TORSDOF 19
ENDMDL
MODEL 3
REMARK VINA RESULT:     -10.7      3.283      8.318
REMARK SMILES O=C(OCCOCCOCCOC(=O)[C@@H]1CCCN(c2cnnc(O)c2Cl)C1)c1ccc(-c2c3nc(c(-c4c(F)cccc4F)c4ccc([nH]4)c(-c4c(F)cccc4F)c4nc(c(-c5c(F)cccc5F)c5ccc2[nH]5)C=C4)C=C3)cc1
REMARK SMILES IDX 7 1 6 2 5 3 4 4 3 5 2 6 1 7 29 8 30 9 82 10 31 11 81 12
REMARK SMILES IDX 32 13 33 14 34 15 75 16 35 17 80 18 74 19 76 20 36 21 79 22
REMARK SMILES IDX 73 23 72 24 37 26 63 27 46 28 62 29 47 30 50 31 61 32 77 33
REMARK SMILES IDX 48 34 49 35 60 37 78 38 51 39 38 40 39 41 44 42 40 43 41 44
REMARK SMILES IDX 43 45 45 46 42 47 64 48 65 49 70 50 66 51 67 52 69 53 71 54
REMARK SMILES IDX 68 55 52 56 53 57 58 58 54 59 55 60 57 61 59 62 56 63 8 64
REMARK SMILES IDX 9 65 10 66 11 67 12 68 13 69 14 70 15 71 16 72 28 73 17 74
REMARK SMILES IDX 19 75 18 76 20 77 21 78 26 79 22 80 24 81 27 82 23 83 25 84
REMARK H PARENT 76 25 50 36 25 85
REMARK Flexibility Score: inf
ROOT
ATOM      1  C   UNL A   1      31.820  29.917  25.929  1.00  0.00     0.188 C 
ENDROOT
BRANCH   1   2
ATOM      2  O   UNL A   1      31.140  31.152  25.723  1.00  0.00    -0.376 OA
BRANCH   2   3
ATOM      3  C   UNL A   1      31.243  32.052  26.834  1.00  0.00     0.202 C 
BRANCH   3   4
ATOM      4  C   UNL A   1      31.914  33.390  26.499  1.00  0.00     0.261 C 
BRANCH   4   5
ATOM      5  O   UNL A   1      32.140  34.204  27.663  1.00  0.00    -0.460 OA
BRANCH   5   6
ATOM      6  C   UNL A   1      33.298  34.576  28.254  1.00  0.00     0.338 C 
ATOM      7  O   UNL A   1      33.530  35.781  28.342  1.00  0.00    -0.246 OA
BRANCH   6   8
ATOM      8  C   UNL A   1      34.371  33.635  28.732  1.00  0.00     0.060 A 
ATOM      9  C   UNL A   1      34.205  32.295  29.078  1.00  0.00     0.016 A 
ATOM     10  C   UNL A   1      35.679  34.165  28.832  1.00  0.00     0.016 A 
ATOM     11  C   UNL A   1      35.279  31.514  29.503  1.00  0.00     0.010 A 
ATOM     12  C   UNL A   1      36.759  33.398  29.294  1.00  0.00     0.010 A 
ATOM     13  C   UNL A   1      36.551  32.070  29.657  1.00  0.00    -0.014 A 
BRANCH  13  14
ATOM     14  C   UNL A   1      37.513  31.293  30.468  1.00  0.00     0.031 A 
ATOM     15  C   UNL A   1      38.440  30.387  29.711  1.00  0.00     0.074 A 
ATOM     16  C   UNL A   1      37.671  31.505  31.784  1.00  0.00     0.049 A 
ATOM     17  N   UNL A   1      39.551  29.820  30.094  1.00  0.00    -0.248 NA
ATOM     18  C   UNL A   1      38.065  30.113  28.313  1.00  0.00     0.031 C 
ATOM     19  C   UNL A   1      36.836  32.372  32.603  1.00  0.00     0.029 A 
ATOM     20  N   UNL A   1      38.638  31.057  32.648  1.00  0.00    -0.354 N 
ATOM     21  C   UNL A   1      40.024  29.151  28.973  1.00  0.00     0.074 A 
ATOM     22  C   UNL A   1      39.084  29.382  27.899  1.00  0.00     0.031 C 
ATOM     23  C   UNL A   1      37.391  32.493  33.822  1.00  0.00     0.029 A 
ATOM     24  C   UNL A   1      38.588  31.659  33.885  1.00  0.00     0.049 A 
ATOM     25  H   UNL A   1      39.303  30.372  32.407  1.00  0.00     0.167 HD
ATOM     26  C   UNL A   1      41.129  28.379  28.855  1.00  0.00     0.037 A 
ATOM     27  C   UNL A   1      39.436  31.554  34.928  1.00  0.00     0.037 A 
ATOM     28  C   UNL A   1      41.974  28.041  29.964  1.00  0.00     0.049 A 
ATOM     29  C   UNL A   1      40.597  30.599  34.800  1.00  0.00     0.074 A 
ATOM     30  C   UNL A   1      43.027  27.147  30.016  1.00  0.00     0.029 A 
ATOM     31  N   UNL A   1      41.825  28.564  31.242  1.00  0.00    -0.354 N 
ATOM     32  N   UNL A   1      41.041  29.960  33.743  1.00  0.00    -0.248 NA
ATOM     33  C   UNL A   1      41.353  30.323  36.030  1.00  0.00     0.031 C 
ATOM     34  C   UNL A   1      43.475  27.087  31.341  1.00  0.00     0.029 A 
ATOM     35  C   UNL A   1      42.750  27.995  32.097  1.00  0.00     0.049 A 
ATOM     36  H   UNL A   1      41.158  29.241  31.500  1.00  0.00     0.167 HD
ATOM     37  C   UNL A   1      42.126  29.208  34.179  1.00  0.00     0.074 A 
ATOM     38  C   UNL A   1      42.304  29.515  35.584  1.00  0.00     0.031 C 
ATOM     39  C   UNL A   1      42.897  28.326  33.493  1.00  0.00     0.037 A 
BRANCH  26  40
ATOM     40  C   UNL A   1      41.361  27.769  27.506  1.00  0.00     0.057 A 
ATOM     41  C   UNL A   1      42.174  28.415  26.566  1.00  0.00     0.134 A 
ATOM     42  C   UNL A   1      40.892  26.488  27.182  1.00  0.00     0.134 A 
ATOM     43  F   UNL A   1      42.669  29.635  26.820  1.00  0.00    -0.206 F 
ATOM     44  C   UNL A   1      42.529  27.801  25.366  1.00  0.00     0.040 A 
ATOM     45  C   UNL A   1      41.263  25.853  25.995  1.00  0.00     0.040 A 
ATOM     46  F   UNL A   1      40.144  25.797  28.056  1.00  0.00    -0.206 F 
ATOM     47  C   UNL A   1      42.087  26.510  25.084  1.00  0.00     0.006 A 
ENDBRANCH  26  40
BRANCH  27  48
ATOM     48  C   UNL A   1      39.255  32.350  36.176  1.00  0.00     0.057 A 
ATOM     49  C   UNL A   1      38.419  31.925  37.216  1.00  0.00     0.134 A 
ATOM     50  C   UNL A   1      39.983  33.530  36.395  1.00  0.00     0.134 A 
ATOM     51  F   UNL A   1      37.701  30.799  37.092  1.00  0.00    -0.206 F 
ATOM     52  C   UNL A   1      38.306  32.639  38.411  1.00  0.00     0.040 A 
ATOM     53  C   UNL A   1      39.904  34.238  37.596  1.00  0.00     0.040 A 
ATOM     54  F   UNL A   1      40.836  33.981  35.462  1.00  0.00    -0.206 F 
ATOM     55  C   UNL A   1      39.060  33.794  38.609  1.00  0.00     0.006 A 
ENDBRANCH  27  48
BRANCH  39  56
ATOM     56  C   UNL A   1      44.009  27.662  34.253  1.00  0.00     0.057 A 
ATOM     57  C   UNL A   1      43.792  26.437  34.899  1.00  0.00     0.134 A 
ATOM     58  C   UNL A   1      45.281  28.237  34.367  1.00  0.00     0.134 A 
ATOM     59  F   UNL A   1      42.592  25.839  34.839  1.00  0.00    -0.206 F 
ATOM     60  C   UNL A   1      44.801  25.807  35.626  1.00  0.00     0.040 A 
ATOM     61  C   UNL A   1      46.309  27.598  35.063  1.00  0.00     0.040 A 
ATOM     62  F   UNL A   1      45.557  29.403  33.765  1.00  0.00    -0.206 F 
ATOM     63  C   UNL A   1      46.068  26.382  35.700  1.00  0.00     0.006 A 
ENDBRANCH  39  56
ENDBRANCH  13  14
ENDBRANCH   6   8
ENDBRANCH   5   6
ENDBRANCH   4   5
ENDBRANCH   3   4
ENDBRANCH   2   3
ENDBRANCH   1   2
BRANCH   1  64
ATOM     64  C   UNL A   1      32.569  29.769  27.261  1.00  0.00     0.188 C 
BRANCH  64  65
ATOM     65  O   UNL A   1      33.314  28.580  27.483  1.00  0.00    -0.376 OA
BRANCH  65  66
ATOM     66  C   UNL A   1      34.213  28.141  26.462  1.00  0.00     0.202 C 
BRANCH  66  67
ATOM     67  C   UNL A   1      33.769  26.970  25.588  1.00  0.00     0.261 C 
BRANCH  67  68
ATOM     68  O   UNL A   1      32.551  26.394  26.089  1.00  0.00    -0.463 OA
BRANCH  68  69
ATOM     69  C   UNL A   1      32.491  25.039  26.137  1.00  0.00     0.310 C 
ATOM     70  O   UNL A   1      33.458  24.306  26.281  1.00  0.00    -0.252 OA
BRANCH  69  71
ATOM     71  C   UNL A   1      31.064  24.518  26.094  1.00  0.00     0.118 C 
ATOM     72  C   UNL A   1      31.024  23.183  25.347  1.00  0.00     0.019 C 
ATOM     73  C   UNL A   1      30.063  25.487  25.472  1.00  0.00     0.132 C 
ATOM     74  C   UNL A   1      31.294  23.399  23.860  1.00  0.00     0.022 C 
ATOM     75  N   UNL A   1      30.262  25.638  24.019  1.00  0.00    -0.368 N 
ATOM     76  C   UNL A   1      30.313  24.395  23.240  1.00  0.00     0.116 C 
BRANCH  75  77
ATOM     77  C   UNL A   1      29.918  26.871  23.447  1.00  0.00     0.082 A 
ATOM     78  C   UNL A   1      28.598  27.331  23.552  1.00  0.00     0.163 A 
ATOM     79  C   UNL A   1      30.761  27.764  22.767  1.00  0.00     0.129 A 
ATOM     80  N   UNL A   1      28.113  28.499  23.062  1.00  0.00    -0.153 NA
ATOM     81  C   UNL A   1      30.236  28.964  22.274  1.00  0.00     0.252 A 
ATOM     82  Cl  UNL A   1      32.433  27.466  22.431  1.00  0.00    -0.076 Cl
ATOM     83  N   UNL A   1      28.949  29.328  22.419  1.00  0.00    -0.111 NA
BRANCH  81  84
ATOM     84  O   UNL A   1      31.012  29.869  21.596  1.00  0.00    -0.491 OA
ATOM     85  H   UNL A   1      31.910  29.991  21.839  1.00  0.00     0.295 HD
ENDBRANCH  81  84
ENDBRANCH  75  77
ENDBRANCH  69  71
ENDBRANCH  68  69
ENDBRANCH  67  68
ENDBRANCH  66  67
ENDBRANCH  65  66
ENDBRANCH  64  65
ENDBRANCH   1  64
TORSDOF 19
ENDMDL
