MODEL 1
REMARK VINA RESULT:     -11.6      0.000      0.000
REMARK SMILES COc1ccc(-c2nc3ccc(C)cc3[nH]2)c(C(=O)OCCOCCOCCOC(=O)c2ccc(-c3c4nc(c(-c5c(F)cccc5F)c5ccc([nH]5)c(-c5c(F)cccc5F)c5nc(c(-c6c(F)cccc6F)c6ccc3[nH]6)C=C5)C=C4)cc2)c1OC
REMARK SMILES IDX 25 1 24 2 23 3 22 4 21 5 20 6 18 7 19 8 17 9 3 10 4 11 86 12
REMARK SMILES IDX 5 13 6 14 2 15 1 16 87 17 88 18 7 19 8 20 16 21 9 22 15 23
REMARK SMILES IDX 10 25 14 26 11 27 12 28 13 29 26 30 27 31 28 32 29 33 30 34
REMARK SMILES IDX 31 35 32 36 33 37 85 38 34 39 84 40 35 41 36 42 37 43 78 44
REMARK SMILES IDX 38 45 83 46 77 47 79 48 39 49 82 50 76 51 75 52 40 54 66 55
REMARK SMILES IDX 49 56 65 57 50 58 53 59 64 60 80 61 51 62 52 63 63 65 81 66
REMARK SMILES IDX 54 67 41 68 42 69 47 70 43 71 44 72 46 73 48 74 45 75 67 76
REMARK SMILES IDX 68 77 73 78 69 79 70 80 72 81 74 82 71 83 55 84 56 85 61 86
REMARK SMILES IDX 57 87 58 88 60 89 62 90 59 91
REMARK H PARENT 16 24 79 53 53 64
REMARK Flexibility Score: inf
ROOT
ATOM      1  C   UNL A   1      39.638  21.622  26.214  1.00  0.00     0.188 C 
ENDROOT
BRANCH   1   2
ATOM      2  C   UNL A   1      38.429  21.014  25.488  1.00  0.00     0.188 C 
BRANCH   2   3
ATOM      3  O   UNL A   1      37.540  21.971  24.913  1.00  0.00    -0.376 OA
BRANCH   3   4
ATOM      4  C   UNL A   1      37.598  23.248  25.554  1.00  0.00     0.202 C 
BRANCH   4   5
ATOM      5  C   UNL A   1      36.241  23.596  26.162  1.00  0.00     0.261 C 
BRANCH   5   6
ATOM      6  O   UNL A   1      35.320  22.499  26.060  1.00  0.00    -0.460 OA
BRANCH   6   7
ATOM      7  C   UNL A   1      34.073  22.668  26.551  1.00  0.00     0.342 C 
ATOM      8  O   UNL A   1      33.738  22.628  27.725  1.00  0.00    -0.246 OA
BRANCH   7   9
ATOM      9  C   UNL A   1      33.158  23.010  25.430  1.00  0.00     0.116 A 
ATOM     10  C   UNL A   1      31.729  24.593  24.277  1.00  0.00     0.161 A 
ATOM     11  C   UNL A   1      31.390  23.607  23.348  1.00  0.00     0.051 A 
ATOM     12  C   UNL A   1      32.621  24.309  25.322  1.00  0.00     0.176 A 
ATOM     13  C   UNL A   1      31.924  22.320  23.452  1.00  0.00     0.017 A 
ATOM     14  C   UNL A   1      32.787  22.001  24.508  1.00  0.00     0.036 A 
BRANCH  10  15
ATOM     15  O   UNL A   1      31.047  25.775  24.183  1.00  0.00    -0.493 OA
ATOM     16  C   UNL A   1      31.297  26.466  22.963  1.00  0.00     0.278 C 
ENDBRANCH  10  15
BRANCH  12  17
ATOM     17  O   UNL A   1      33.051  25.272  26.201  1.00  0.00    -0.492 OA
ATOM     18  C   UNL A   1      33.958  26.225  25.641  1.00  0.00     0.278 C 
ENDBRANCH  12  17
BRANCH  14  19
ATOM     19  C   UNL A   1      33.073  20.596  24.788  1.00  0.00     0.139 A 
ATOM     20  N   UNL A   1      34.152  19.989  24.346  1.00  0.00    -0.228 NA
ATOM     21  N   UNL A   1      32.269  19.705  25.461  1.00  0.00    -0.338 N 
ATOM     22  C   UNL A   1      33.939  18.657  24.531  1.00  0.00     0.089 A 
ATOM     23  C   UNL A   1      32.787  18.441  25.272  1.00  0.00     0.066 A 
ATOM     24  H   UNL A   1      31.465  19.930  25.985  1.00  0.00     0.168 HD
ATOM     25  C   UNL A   1      34.702  17.574  24.078  1.00  0.00     0.031 A 
ATOM     26  C   UNL A   1      32.365  17.161  25.648  1.00  0.00     0.031 A 
ATOM     27  C   UNL A   1      34.292  16.285  24.420  1.00  0.00     0.006 A 
ATOM     28  C   UNL A   1      33.155  16.075  25.215  1.00  0.00    -0.049 A 
ATOM     29  C   UNL A   1      32.820  14.667  25.620  1.00  0.00     0.044 C 
ENDBRANCH  14  19
ENDBRANCH   7   9
ENDBRANCH   6   7
ENDBRANCH   5   6
ENDBRANCH   4   5
ENDBRANCH   3   4
ENDBRANCH   2   3
ENDBRANCH   1   2
BRANCH   1  30
ATOM     30  O   UNL A   1      40.614  20.781  26.824  1.00  0.00    -0.376 OA
BRANCH  30  31
ATOM     31  C   UNL A   1      41.785  20.462  26.095  1.00  0.00     0.202 C 
BRANCH  31  32
ATOM     32  C   UNL A   1      42.844  21.565  26.014  1.00  0.00     0.261 C 
BRANCH  32  33
ATOM     33  O   UNL A   1      42.602  22.547  24.991  1.00  0.00    -0.460 OA
BRANCH  33  34
ATOM     34  C   UNL A   1      43.394  23.645  25.044  1.00  0.00     0.338 C 
ATOM     35  O   UNL A   1      44.466  23.809  24.486  1.00  0.00    -0.246 OA
BRANCH  34  36
ATOM     36  C   UNL A   1      42.755  24.711  25.845  1.00  0.00     0.060 A 
ATOM     37  C   UNL A   1      43.393  25.954  25.929  1.00  0.00     0.016 A 
ATOM     38  C   UNL A   1      41.619  24.455  26.617  1.00  0.00     0.016 A 
ATOM     39  C   UNL A   1      42.931  26.927  26.820  1.00  0.00     0.010 A 
ATOM     40  C   UNL A   1      41.163  25.427  27.518  1.00  0.00     0.010 A 
ATOM     41  C   UNL A   1      41.840  26.653  27.654  1.00  0.00    -0.014 A 
BRANCH  41  42
ATOM     42  C   UNL A   1      41.500  27.569  28.777  1.00  0.00     0.031 A 
ATOM     43  C   UNL A   1      42.268  27.467  30.065  1.00  0.00     0.074 A 
ATOM     44  C   UNL A   1      40.524  28.488  28.678  1.00  0.00     0.049 A 
ATOM     45  N   UNL A   1      42.067  28.087  31.200  1.00  0.00    -0.248 NA
ATOM     46  C   UNL A   1      43.415  26.548  30.069  1.00  0.00     0.031 C 
ATOM     47  C   UNL A   1      39.745  28.747  27.478  1.00  0.00     0.029 A 
ATOM     48  N   UNL A   1      40.011  29.361  29.607  1.00  0.00    -0.354 N 
ATOM     49  C   UNL A   1      43.061  27.636  32.055  1.00  0.00     0.074 A 
ATOM     50  C   UNL A   1      43.844  26.665  31.318  1.00  0.00     0.031 C 
ATOM     51  C   UNL A   1      38.820  29.683  27.749  1.00  0.00     0.029 A 
ATOM     52  C   UNL A   1      38.925  30.066  29.150  1.00  0.00     0.049 A 
ATOM     53  H   UNL A   1      40.385  29.469  30.511  1.00  0.00     0.167 HD
ATOM     54  C   UNL A   1      43.305  28.000  33.336  1.00  0.00     0.037 A 
ATOM     55  C   UNL A   1      38.083  30.902  29.787  1.00  0.00     0.037 A 
ATOM     56  C   UNL A   1      42.526  28.955  34.080  1.00  0.00     0.049 A 
ATOM     57  C   UNL A   1      38.304  31.216  31.236  1.00  0.00     0.074 A 
ATOM     58  C   UNL A   1      42.710  29.390  35.381  1.00  0.00     0.029 A 
ATOM     59  N   UNL A   1      41.408  29.615  33.594  1.00  0.00    -0.354 N 
ATOM     60  N   UNL A   1      39.242  30.779  32.039  1.00  0.00    -0.248 NA
ATOM     61  C   UNL A   1      37.355  32.145  31.868  1.00  0.00     0.031 C 
ATOM     62  C   UNL A   1      41.676  30.280  35.697  1.00  0.00     0.029 A 
ATOM     63  C   UNL A   1      40.877  30.436  34.577  1.00  0.00     0.049 A 
ATOM     64  H   UNL A   1      41.045  29.516  32.684  1.00  0.00     0.167 HD
ATOM     65  C   UNL A   1      39.011  31.391  33.261  1.00  0.00     0.074 A 
ATOM     66  C   UNL A   1      37.846  32.236  33.096  1.00  0.00     0.031 C 
ATOM     67  C   UNL A   1      39.712  31.267  34.413  1.00  0.00     0.037 A 
BRANCH  54  68
ATOM     68  C   UNL A   1      44.456  27.330  34.022  1.00  0.00     0.057 A 
ATOM     69  C   UNL A   1      44.304  26.117  34.705  1.00  0.00     0.134 A 
ATOM     70  C   UNL A   1      45.733  27.904  33.994  1.00  0.00     0.134 A 
ATOM     71  F   UNL A   1      43.104  25.524  34.781  1.00  0.00    -0.206 F 
ATOM     72  C   UNL A   1      45.378  25.512  35.361  1.00  0.00     0.040 A 
ATOM     73  C   UNL A   1      46.818  27.296  34.626  1.00  0.00     0.040 A 
ATOM     74  F   UNL A   1      45.945  29.064  33.355  1.00  0.00    -0.206 F 
ATOM     75  C   UNL A   1      46.640  26.100  35.319  1.00  0.00     0.006 A 
ENDBRANCH  54  68
BRANCH  55  76
ATOM     76  C   UNL A   1      36.919  31.472  29.069  1.00  0.00     0.057 A 
ATOM     77  C   UNL A   1      36.910  32.801  28.633  1.00  0.00     0.134 A 
ATOM     78  C   UNL A   1      35.777  30.700  28.821  1.00  0.00     0.134 A 
ATOM     79  F   UNL A   1      37.963  33.595  28.867  1.00  0.00    -0.206 F 
ATOM     80  C   UNL A   1      35.802  33.345  27.980  1.00  0.00     0.040 A 
ATOM     81  C   UNL A   1      34.670  31.227  28.158  1.00  0.00     0.040 A 
ATOM     82  F   UNL A   1      35.728  29.419  29.217  1.00  0.00    -0.206 F 
ATOM     83  C   UNL A   1      34.679  32.555  27.737  1.00  0.00     0.006 A 
ENDBRANCH  55  76
BRANCH  67  84
ATOM     84  C   UNL A   1      39.256  32.084  35.584  1.00  0.00     0.057 A 
ATOM     85  C   UNL A   1      38.400  31.563  36.562  1.00  0.00     0.134 A 
ATOM     86  C   UNL A   1      39.706  33.400  35.751  1.00  0.00     0.134 A 
ATOM     87  F   UNL A   1      37.920  30.316  36.449  1.00  0.00    -0.206 F 
ATOM     88  C   UNL A   1      37.999  32.326  37.660  1.00  0.00     0.040 A 
ATOM     89  C   UNL A   1      39.329  34.166  36.855  1.00  0.00     0.040 A 
ATOM     90  F   UNL A   1      40.527  33.958  34.849  1.00  0.00    -0.206 F 
ATOM     91  C   UNL A   1      38.470  33.629  37.812  1.00  0.00     0.006 A 
ENDBRANCH  67  84
ENDBRANCH  41  42
ENDBRANCH  34  36
ENDBRANCH  33  34
ENDBRANCH  32  33
ENDBRANCH  31  32
ENDBRANCH  30  31
ENDBRANCH   1  30
TORSDOF 20
ENDMDL
MODEL 2
REMARK VINA RESULT:     -11.0      1.515      2.201
REMARK SMILES COc1ccc(-c2nc3ccc(C)cc3[nH]2)c(C(=O)OCCOCCOCCOC(=O)c2ccc(-c3c4nc(c(-c5c(F)cccc5F)c5ccc([nH]5)c(-c5c(F)cccc5F)c5nc(c(-c6c(F)cccc6F)c6ccc3[nH]6)C=C5)C=C4)cc2)c1OC
REMARK SMILES IDX 25 1 24 2 23 3 22 4 21 5 20 6 18 7 19 8 17 9 3 10 4 11 86 12
REMARK SMILES IDX 5 13 6 14 2 15 1 16 87 17 88 18 7 19 8 20 16 21 9 22 15 23
REMARK SMILES IDX 10 25 14 26 11 27 12 28 13 29 26 30 27 31 28 32 29 33 30 34
REMARK SMILES IDX 31 35 32 36 33 37 85 38 34 39 84 40 35 41 36 42 37 43 78 44
REMARK SMILES IDX 38 45 83 46 77 47 79 48 39 49 82 50 76 51 75 52 40 54 66 55
REMARK SMILES IDX 49 56 65 57 50 58 53 59 64 60 80 61 51 62 52 63 63 65 81 66
REMARK SMILES IDX 54 67 41 68 42 69 47 70 43 71 44 72 46 73 48 74 45 75 67 76
REMARK SMILES IDX 68 77 73 78 69 79 70 80 72 81 74 82 71 83 55 84 56 85 61 86
REMARK SMILES IDX 57 87 58 88 60 89 62 90 59 91
REMARK H PARENT 16 24 79 53 53 64
REMARK Flexibility Score: inf
ROOT
ATOM      1  C   UNL A   1      38.124  21.360  25.079  1.00  0.00     0.188 C 
ENDROOT
BRANCH   1   2
ATOM      2  C   UNL A   1      36.661  21.052  25.431  1.00  0.00     0.188 C 
BRANCH   2   3
ATOM      3  O   UNL A   1      35.967  22.120  26.074  1.00  0.00    -0.376 OA
BRANCH   3   4
ATOM      4  C   UNL A   1      36.049  23.355  25.356  1.00  0.00     0.202 C 
BRANCH   4   5
ATOM      5  C   UNL A   1      34.787  24.183  25.585  1.00  0.00     0.261 C 
BRANCH   5   6
ATOM      6  O   UNL A   1      34.693  25.271  24.651  1.00  0.00    -0.460 OA
BRANCH   6   7
ATOM      7  C   UNL A   1      34.005  25.068  23.507  1.00  0.00     0.342 C 
ATOM      8  O   UNL A   1      34.368  24.412  22.543  1.00  0.00    -0.246 OA
BRANCH   7   9
ATOM      9  C   UNL A   1      32.666  25.703  23.632  1.00  0.00     0.116 A 
ATOM     10  C   UNL A   1      31.282  27.664  23.970  1.00  0.00     0.161 A 
ATOM     11  C   UNL A   1      30.139  26.862  23.928  1.00  0.00     0.051 A 
ATOM     12  C   UNL A   1      32.556  27.096  23.815  1.00  0.00     0.176 A 
ATOM     13  C   UNL A   1      30.248  25.482  23.743  1.00  0.00     0.017 A 
ATOM     14  C   UNL A   1      31.510  24.885  23.623  1.00  0.00     0.036 A 
BRANCH  10  15
ATOM     15  O   UNL A   1      31.089  28.977  24.301  1.00  0.00    -0.493 OA
ATOM     16  C   UNL A   1      30.039  29.589  23.559  1.00  0.00     0.278 C 
ENDBRANCH  10  15
BRANCH  12  17
ATOM     17  O   UNL A   1      33.696  27.858  23.759  1.00  0.00    -0.492 OA
ATOM     18  C   UNL A   1      33.882  28.559  22.527  1.00  0.00     0.278 C 
ENDBRANCH  12  17
BRANCH  14  19
ATOM     19  C   UNL A   1      31.623  23.435  23.758  1.00  0.00     0.139 A 
ATOM     20  N   UNL A   1      31.778  22.840  24.920  1.00  0.00    -0.228 NA
ATOM     21  N   UNL A   1      31.660  22.509  22.741  1.00  0.00    -0.338 N 
ATOM     22  C   UNL A   1      32.145  21.558  24.643  1.00  0.00     0.089 A 
ATOM     23  C   UNL A   1      32.037  21.299  23.284  1.00  0.00     0.066 A 
ATOM     24  H   UNL A   1      31.455  22.680  21.793  1.00  0.00     0.168 HD
ATOM     25  C   UNL A   1      32.592  20.563  25.520  1.00  0.00     0.031 A 
ATOM     26  C   UNL A   1      32.308  20.039  22.737  1.00  0.00     0.031 A 
ATOM     27  C   UNL A   1      32.889  19.304  24.998  1.00  0.00     0.006 A 
ATOM     28  C   UNL A   1      32.727  19.031  23.631  1.00  0.00    -0.049 A 
ATOM     29  C   UNL A   1      32.980  17.631  23.150  1.00  0.00     0.044 C 
ENDBRANCH  14  19
ENDBRANCH   7   9
ENDBRANCH   6   7
ENDBRANCH   5   6
ENDBRANCH   4   5
ENDBRANCH   3   4
ENDBRANCH   2   3
ENDBRANCH   1   2
BRANCH   1  30
ATOM     30  O   UNL A   1      39.126  21.364  26.092  1.00  0.00    -0.376 OA
BRANCH  30  31
ATOM     31  C   UNL A   1      40.024  20.271  26.162  1.00  0.00     0.202 C 
BRANCH  31  32
ATOM     32  C   UNL A   1      41.514  20.626  26.127  1.00  0.00     0.261 C 
BRANCH  32  33
ATOM     33  O   UNL A   1      41.853  21.835  26.828  1.00  0.00    -0.460 OA
BRANCH  33  34
ATOM     34  C   UNL A   1      42.169  22.892  26.040  1.00  0.00     0.338 C 
ATOM     35  O   UNL A   1      42.690  22.861  24.938  1.00  0.00    -0.246 OA
BRANCH  34  36
ATOM     36  C   UNL A   1      41.731  24.158  26.666  1.00  0.00     0.060 A 
ATOM     37  C   UNL A   1      42.479  25.315  26.421  1.00  0.00     0.016 A 
ATOM     38  C   UNL A   1      40.683  24.184  27.591  1.00  0.00     0.016 A 
ATOM     39  C   UNL A   1      42.219  26.488  27.135  1.00  0.00     0.010 A 
ATOM     40  C   UNL A   1      40.431  25.358  28.314  1.00  0.00     0.010 A 
ATOM     41  C   UNL A   1      41.223  26.506  28.119  1.00  0.00    -0.014 A 
BRANCH  41  42
ATOM     42  C   UNL A   1      41.108  27.655  29.058  1.00  0.00     0.031 A 
ATOM     43  C   UNL A   1      42.057  27.752  30.219  1.00  0.00     0.074 A 
ATOM     44  C   UNL A   1      40.180  28.615  28.900  1.00  0.00     0.049 A 
ATOM     45  N   UNL A   1      42.065  28.603  31.213  1.00  0.00    -0.248 NA
ATOM     46  C   UNL A   1      43.139  26.758  30.261  1.00  0.00     0.031 C 
ATOM     47  C   UNL A   1      39.242  28.691  27.791  1.00  0.00     0.029 A 
ATOM     48  N   UNL A   1      39.863  29.698  29.684  1.00  0.00    -0.354 N 
ATOM     49  C   UNL A   1      43.151  28.251  32.000  1.00  0.00     0.074 A 
ATOM     50  C   UNL A   1      43.759  27.088  31.386  1.00  0.00     0.031 C 
ATOM     51  C   UNL A   1      38.422  29.737  27.982  1.00  0.00     0.029 A 
ATOM     52  C   UNL A   1      38.760  30.386  29.241  1.00  0.00     0.049 A 
ATOM     53  H   UNL A   1      40.376  29.955  30.484  1.00  0.00     0.167 HD
ATOM     54  C   UNL A   1      43.607  28.846  33.128  1.00  0.00     0.037 A 
ATOM     55  C   UNL A   1      38.072  31.402  29.795  1.00  0.00     0.037 A 
ATOM     56  C   UNL A   1      43.004  29.994  33.751  1.00  0.00     0.049 A 
ATOM     57  C   UNL A   1      38.528  31.983  31.100  1.00  0.00     0.074 A 
ATOM     58  C   UNL A   1      43.407  30.667  34.892  1.00  0.00     0.029 A 
ATOM     59  N   UNL A   1      41.862  30.635  33.294  1.00  0.00    -0.354 N 
ATOM     60  N   UNL A   1      39.551  31.639  31.840  1.00  0.00    -0.248 NA
ATOM     61  C   UNL A   1      37.738  33.098  31.644  1.00  0.00     0.031 C 
ATOM     62  C   UNL A   1      42.484  31.687  35.151  1.00  0.00     0.029 A 
ATOM     63  C   UNL A   1      41.533  31.680  34.144  1.00  0.00     0.049 A 
ATOM     64  H   UNL A   1      41.360  30.385  32.485  1.00  0.00     0.167 HD
ATOM     65  C   UNL A   1      39.543  32.504  32.924  1.00  0.00     0.074 A 
ATOM     66  C   UNL A   1      38.414  33.394  32.744  1.00  0.00     0.031 C 
ATOM     67  C   UNL A   1      40.403  32.557  33.969  1.00  0.00     0.037 A 
BRANCH  54  68
ATOM     68  C   UNL A   1      44.811  28.233  33.776  1.00  0.00     0.057 A 
ATOM     69  C   UNL A   1      44.697  27.242  34.759  1.00  0.00     0.134 A 
ATOM     70  C   UNL A   1      46.101  28.637  33.407  1.00  0.00     0.134 A 
ATOM     71  F   UNL A   1      43.490  26.823  35.166  1.00  0.00    -0.206 F 
ATOM     72  C   UNL A   1      45.824  26.694  35.373  1.00  0.00     0.040 A 
ATOM     73  C   UNL A   1      47.235  28.079  33.998  1.00  0.00     0.040 A 
ATOM     74  F   UNL A   1      46.278  29.581  32.470  1.00  0.00    -0.206 F 
ATOM     75  C   UNL A   1      47.098  27.110  34.990  1.00  0.00     0.006 A 
ENDBRANCH  54  68
BRANCH  55  76
ATOM     76  C   UNL A   1      36.845  31.912  29.139  1.00  0.00     0.057 A 
ATOM     77  C   UNL A   1      36.821  33.156  28.501  1.00  0.00     0.134 A 
ATOM     78  C   UNL A   1      35.658  31.169  29.156  1.00  0.00     0.134 A 
ATOM     79  F   UNL A   1      37.920  33.923  28.477  1.00  0.00    -0.206 F 
ATOM     80  C   UNL A   1      35.658  33.647  27.906  1.00  0.00     0.040 A 
ATOM     81  C   UNL A   1      34.492  31.641  28.554  1.00  0.00     0.040 A 
ATOM     82  F   UNL A   1      35.619  29.969  29.754  1.00  0.00    -0.206 F 
ATOM     83  C   UNL A   1      34.489  32.886  27.928  1.00  0.00     0.006 A 
ENDBRANCH  55  76
BRANCH  67  84
ATOM     84  C   UNL A   1      40.176  33.630  34.990  1.00  0.00     0.057 A 
ATOM     85  C   UNL A   1      39.456  33.390  36.167  1.00  0.00     0.134 A 
ATOM     86  C   UNL A   1      40.713  34.910  34.807  1.00  0.00     0.134 A 
ATOM     87  F   UNL A   1      38.901  32.191  36.392  1.00  0.00    -0.206 F 
ATOM     88  C   UNL A   1      39.269  34.392  37.121  1.00  0.00     0.040 A 
ATOM     89  C   UNL A   1      40.551  35.913  35.764  1.00  0.00     0.040 A 
ATOM     90  F   UNL A   1      41.413  35.204  33.701  1.00  0.00    -0.206 F 
ATOM     91  C   UNL A   1      39.824  35.656  36.924  1.00  0.00     0.006 A 
ENDBRANCH  67  84
ENDBRANCH  41  42
ENDBRANCH  34  36
ENDBRANCH  33  34
ENDBRANCH  32  33
ENDBRANCH  31  32
ENDBRANCH  30  31
ENDBRANCH   1  30
TORSDOF 20
ENDMDL
MODEL 3
REMARK VINA RESULT:     -10.8      4.096      6.341
REMARK SMILES COc1ccc(-c2nc3ccc(C)cc3[nH]2)c(C(=O)OCCOCCOCCOC(=O)c2ccc(-c3c4nc(c(-c5c(F)cccc5F)c5ccc([nH]5)c(-c5c(F)cccc5F)c5nc(c(-c6c(F)cccc6F)c6ccc3[nH]6)C=C5)C=C4)cc2)c1OC
REMARK SMILES IDX 25 1 24 2 23 3 22 4 21 5 20 6 18 7 19 8 17 9 3 10 4 11 86 12
REMARK SMILES IDX 5 13 6 14 2 15 1 16 87 17 88 18 7 19 8 20 16 21 9 22 15 23
REMARK SMILES IDX 10 25 14 26 11 27 12 28 13 29 26 30 27 31 28 32 29 33 30 34
REMARK SMILES IDX 31 35 32 36 33 37 85 38 34 39 84 40 35 41 36 42 37 43 78 44
REMARK SMILES IDX 38 45 83 46 77 47 79 48 39 49 82 50 76 51 75 52 40 54 66 55
REMARK SMILES IDX 49 56 65 57 50 58 53 59 64 60 80 61 51 62 52 63 63 65 81 66
REMARK SMILES IDX 54 67 41 68 42 69 47 70 43 71 44 72 46 73 48 74 45 75 67 76
REMARK SMILES IDX 68 77 73 78 69 79 70 80 72 81 74 82 71 83 55 84 56 85 61 86
REMARK SMILES IDX 57 87 58 88 60 89 62 90 59 91
REMARK H PARENT 16 24 79 53 53 64
REMARK Flexibility Score: inf
ROOT
ATOM      1  C   UNL A   1      37.108  22.196  24.257  1.00  0.00     0.188 C 
ENDROOT
BRANCH   1   2
ATOM      2  C   UNL A   1      35.586  22.348  24.394  1.00  0.00     0.188 C 
BRANCH   2   3
ATOM      3  O   UNL A   1      35.163  23.051  25.561  1.00  0.00    -0.376 OA
BRANCH   3   4
ATOM      4  C   UNL A   1      34.879  24.431  25.314  1.00  0.00     0.202 C 
BRANCH   4   5
ATOM      5  C   UNL A   1      34.530  24.643  23.842  1.00  0.00     0.261 C 
BRANCH   5   6
ATOM      6  O   UNL A   1      33.837  25.884  23.637  1.00  0.00    -0.460 OA
BRANCH   6   7
ATOM      7  C   UNL A   1      33.085  26.015  22.523  1.00  0.00     0.342 C 
ATOM      8  O   UNL A   1      33.382  25.655  21.394  1.00  0.00    -0.246 OA
BRANCH   7   9
ATOM      9  C   UNL A   1      31.768  26.596  22.898  1.00  0.00     0.116 A 
ATOM     10  C   UNL A   1      30.353  28.515  23.331  1.00  0.00     0.161 A 
ATOM     11  C   UNL A   1      29.301  27.661  23.669  1.00  0.00     0.051 A 
ATOM     12  C   UNL A   1      31.594  27.994  22.935  1.00  0.00     0.176 A 
ATOM     13  C   UNL A   1      29.473  26.275  23.629  1.00  0.00     0.017 A 
ATOM     14  C   UNL A   1      30.713  25.730  23.274  1.00  0.00     0.036 A 
BRANCH  10  15
ATOM     15  O   UNL A   1      30.141  29.851  23.540  1.00  0.00    -0.493 OA
ATOM     16  C   UNL A   1      28.875  30.294  23.061  1.00  0.00     0.278 C 
ENDBRANCH  10  15
BRANCH  12  17
ATOM     17  O   UNL A   1      32.623  28.795  22.508  1.00  0.00    -0.492 OA
ATOM     18  C   UNL A   1      33.508  29.229  23.543  1.00  0.00     0.278 C 
ENDBRANCH  12  17
BRANCH  14  19
ATOM     19  C   UNL A   1      30.970  24.318  23.548  1.00  0.00     0.139 A 
ATOM     20  N   UNL A   1      30.997  23.826  24.767  1.00  0.00    -0.228 NA
ATOM     21  N   UNL A   1      31.284  23.340  22.633  1.00  0.00    -0.338 N 
ATOM     22  C   UNL A   1      31.552  22.587  24.662  1.00  0.00     0.089 A 
ATOM     23  C   UNL A   1      31.703  22.227  23.331  1.00  0.00     0.066 A 
ATOM     24  H   UNL A   1      31.221  23.420  21.653  1.00  0.00     0.168 HD
ATOM     25  C   UNL A   1      31.959  21.717  25.682  1.00  0.00     0.031 A 
ATOM     26  C   UNL A   1      32.206  20.979  22.944  1.00  0.00     0.031 A 
ATOM     27  C   UNL A   1      32.484  20.475  25.323  1.00  0.00     0.006 A 
ATOM     28  C   UNL A   1      32.584  20.095  23.975  1.00  0.00    -0.049 A 
ATOM     29  C   UNL A   1      33.076  18.710  23.663  1.00  0.00     0.044 C 
ENDBRANCH  14  19
ENDBRANCH   7   9
ENDBRANCH   6   7
ENDBRANCH   5   6
ENDBRANCH   4   5
ENDBRANCH   3   4
ENDBRANCH   2   3
ENDBRANCH   1   2
BRANCH   1  30
ATOM     30  O   UNL A   1      37.902  21.823  25.379  1.00  0.00    -0.376 OA
BRANCH  30  31
ATOM     31  C   UNL A   1      38.488  20.533  25.398  1.00  0.00     0.202 C 
BRANCH  31  32
ATOM     32  C   UNL A   1      39.972  20.479  25.770  1.00  0.00     0.261 C 
BRANCH  32  33
ATOM     33  O   UNL A   1      40.442  19.172  26.147  1.00  0.00    -0.460 OA
BRANCH  33  34
ATOM     34  C   UNL A   1      41.786  19.003  26.094  1.00  0.00     0.338 C 
ATOM     35  O   UNL A   1      42.391  17.992  25.778  1.00  0.00    -0.246 OA
BRANCH  34  36
ATOM     36  C   UNL A   1      42.483  20.266  26.418  1.00  0.00     0.060 A 
ATOM     37  C   UNL A   1      42.284  20.831  27.683  1.00  0.00     0.016 A 
ATOM     38  C   UNL A   1      43.212  20.960  25.449  1.00  0.00     0.016 A 
ATOM     39  C   UNL A   1      42.766  22.111  27.969  1.00  0.00     0.010 A 
ATOM     40  C   UNL A   1      43.685  22.249  25.733  1.00  0.00     0.010 A 
ATOM     41  C   UNL A   1      43.432  22.848  26.981  1.00  0.00    -0.014 A 
BRANCH  41  42
ATOM     42  C   UNL A   1      43.720  24.294  27.183  1.00  0.00     0.031 A 
ATOM     43  C   UNL A   1      45.136  24.783  27.075  1.00  0.00     0.074 A 
ATOM     44  C   UNL A   1      42.749  25.182  27.461  1.00  0.00     0.049 A 
ATOM     45  N   UNL A   1      45.623  25.973  27.319  1.00  0.00    -0.248 NA
ATOM     46  C   UNL A   1      46.132  23.799  26.628  1.00  0.00     0.031 C 
ATOM     47  C   UNL A   1      41.331  24.870  27.530  1.00  0.00     0.029 A 
ATOM     48  N   UNL A   1      42.813  26.523  27.754  1.00  0.00    -0.354 N 
ATOM     49  C   UNL A   1      46.981  25.884  27.057  1.00  0.00     0.074 A 
ATOM     50  C   UNL A   1      47.248  24.515  26.666  1.00  0.00     0.031 C 
ATOM     51  C   UNL A   1      40.656  25.975  27.889  1.00  0.00     0.029 A 
ATOM     52  C   UNL A   1      41.600  27.063  28.102  1.00  0.00     0.049 A 
ATOM     53  H   UNL A   1      43.647  27.045  27.719  1.00  0.00     0.167 HD
ATOM     54  C   UNL A   1      47.923  26.855  27.127  1.00  0.00     0.037 A 
ATOM     55  C   UNL A   1      41.278  28.283  28.572  1.00  0.00     0.037 A 
ATOM     56  C   UNL A   1      47.669  28.215  27.526  1.00  0.00     0.049 A 
ATOM     57  C   UNL A   1      42.348  29.318  28.745  1.00  0.00     0.074 A 
ATOM     58  C   UNL A   1      48.564  29.268  27.616  1.00  0.00     0.029 A 
ATOM     59  N   UNL A   1      46.433  28.710  27.911  1.00  0.00    -0.354 N 
ATOM     60  N   UNL A   1      43.631  29.223  28.501  1.00  0.00    -0.248 NA
ATOM     61  C   UNL A   1      41.927  30.632  29.252  1.00  0.00     0.031 C 
ATOM     62  C   UNL A   1      47.878  30.388  28.099  1.00  0.00     0.029 A 
ATOM     63  C   UNL A   1      46.546  30.047  28.263  1.00  0.00     0.049 A 
ATOM     64  H   UNL A   1      45.597  28.190  27.931  1.00  0.00     0.167 HD
ATOM     65  C   UNL A   1      44.168  30.465  28.804  1.00  0.00     0.074 A 
ATOM     66  C   UNL A   1      43.070  31.301  29.246  1.00  0.00     0.031 C 
ATOM     67  C   UNL A   1      45.455  30.873  28.713  1.00  0.00     0.037 A 
BRANCH  54  68
ATOM     68  C   UNL A   1      49.328  26.461  26.790  1.00  0.00     0.057 A 
ATOM     69  C   UNL A   1      50.185  25.893  27.742  1.00  0.00     0.134 A 
ATOM     70  C   UNL A   1      49.829  26.647  25.496  1.00  0.00     0.134 A 
ATOM     71  F   UNL A   1      49.769  25.703  29.003  1.00  0.00    -0.206 F 
ATOM     72  C   UNL A   1      51.500  25.550  27.425  1.00  0.00     0.040 A 
ATOM     73  C   UNL A   1      51.134  26.286  25.161  1.00  0.00     0.040 A 
ATOM     74  F   UNL A   1      49.058  27.184  24.538  1.00  0.00    -0.206 F 
ATOM     75  C   UNL A   1      51.976  25.743  26.130  1.00  0.00     0.006 A 
ENDBRANCH  54  68
BRANCH  55  76
ATOM     76  C   UNL A   1      39.879  28.584  28.958  1.00  0.00     0.057 A 
ATOM     77  C   UNL A   1      38.970  29.125  28.044  1.00  0.00     0.134 A 
ATOM     78  C   UNL A   1      39.427  28.354  30.264  1.00  0.00     0.134 A 
ATOM     79  F   UNL A   1      39.353  29.392  26.788  1.00  0.00    -0.206 F 
ATOM     80  C   UNL A   1      37.659  29.433  28.415  1.00  0.00     0.040 A 
ATOM     81  C   UNL A   1      38.117  28.644  30.645  1.00  0.00     0.040 A 
ATOM     82  F   UNL A   1      40.253  27.838  31.185  1.00  0.00    -0.206 F 
ATOM     83  C   UNL A   1      37.229  29.188  29.719  1.00  0.00     0.006 A 
ENDBRANCH  55  76
BRANCH  67  84
ATOM     84  C   UNL A   1      45.750  32.298  29.073  1.00  0.00     0.057 A 
ATOM     85  C   UNL A   1      46.138  32.669  30.366  1.00  0.00     0.134 A 
ATOM     86  C   UNL A   1      45.675  33.306  28.104  1.00  0.00     0.134 A 
ATOM     87  F   UNL A   1      46.210  31.753  31.343  1.00  0.00    -0.206 F 
ATOM     88  C   UNL A   1      46.431  33.996  30.685  1.00  0.00     0.040 A 
ATOM     89  C   UNL A   1      45.986  34.633  28.405  1.00  0.00     0.040 A 
ATOM     90  F   UNL A   1      45.309  33.016  26.846  1.00  0.00    -0.206 F 
ATOM     91  C   UNL A   1      46.362  34.981  29.701  1.00  0.00     0.006 A 
ENDBRANCH  67  84
ENDBRANCH  41  42
ENDBRANCH  34  36
ENDBRANCH  33  34
ENDBRANCH  32  33
ENDBRANCH  31  32
ENDBRANCH  30  31
ENDBRANCH   1  30
TORSDOF 20
ENDMDL
