MODEL 1
REMARK VINA RESULT:     -11.5      0.000      0.000
REMARK SMILES O=C(COc1ccccc1/C=C1\C(=O)Nc2ccccc21)OCCOCCOCCOC(=O)c1ccc(-c2c3nc(c(-c4c(F)cccc4F)c4ccc([nH]4)c(-c4c(F)cccc4F)c4nc(c(-c5c(F)cccc5F)c5ccc2[nH]5)C=C4)C=C3)cc1
REMARK SMILES IDX 26 1 25 2 24 3 23 4 22 5 2 6 1 7 3 8 4 9 5 10 6 11 10 12
REMARK SMILES IDX 7 13 9 14 8 15 11 16 12 17 13 18 21 19 14 20 15 21 16 22
REMARK SMILES IDX 20 23 17 25 19 26 18 27 27 28 28 29 29 30 30 31 31 32 32 33
REMARK SMILES IDX 33 34 34 35 35 36 87 37 36 38 86 39 37 40 38 41 39 42 80 43
REMARK SMILES IDX 40 44 85 45 79 46 81 47 41 48 84 49 78 50 77 51 42 53 68 54
REMARK SMILES IDX 51 55 67 56 52 57 55 58 66 59 82 60 53 61 54 62 65 64 83 65
REMARK SMILES IDX 56 66 43 67 44 68 49 69 45 70 46 71 48 72 50 73 47 74 69 75
REMARK SMILES IDX 70 76 75 77 71 78 72 79 74 80 76 81 73 82 57 83 58 84 63 85
REMARK SMILES IDX 59 86 60 87 62 88 64 89 61 90
REMARK H PARENT 15 24 81 52 55 63
REMARK Flexibility Score: inf
ROOT
ATOM      1  C   UNL A   1      33.476  34.222  28.904  1.00  0.00     0.188 C 
ENDROOT
BRANCH   1   2
ATOM      2  O   UNL A   1      34.716  34.209  28.219  1.00  0.00    -0.376 OA
BRANCH   2   3
ATOM      3  C   UNL A   1      35.222  32.940  27.858  1.00  0.00     0.202 C 
BRANCH   3   4
ATOM      4  C   UNL A   1      34.336  31.750  28.228  1.00  0.00     0.261 C 
BRANCH   4   5
ATOM      5  O   UNL A   1      34.027  30.787  27.180  1.00  0.00    -0.461 OA
BRANCH   5   6
ATOM      6  C   UNL A   1      34.449  29.516  26.977  1.00  0.00     0.344 C 
ATOM      7  O   UNL A   1      35.361  29.058  27.667  1.00  0.00    -0.248 OA
BRANCH   6   8
ATOM      8  C   UNL A   1      33.857  28.697  25.861  1.00  0.00     0.351 C 
BRANCH   8   9
ATOM      9  O   UNL A   1      33.193  27.553  26.352  1.00  0.00    -0.481 OA
BRANCH   9  10
ATOM     10  C   UNL A   1      33.345  26.496  25.504  1.00  0.00     0.127 A 
ATOM     11  C   UNL A   1      34.488  25.733  25.771  1.00  0.00     0.047 A 
ATOM     12  C   UNL A   1      32.471  26.207  24.435  1.00  0.00     0.017 A 
ATOM     13  C   UNL A   1      34.787  24.644  24.973  1.00  0.00     0.004 A 
ATOM     14  C   UNL A   1      32.865  25.170  23.586  1.00  0.00     0.012 A 
ATOM     15  C   UNL A   1      33.984  24.375  23.869  1.00  0.00     0.001 A 
BRANCH  12  16
ATOM     16  C   UNL A   1      31.193  26.930  24.180  1.00  0.00     0.026 C 
ATOM     17  C   UNL A   1      30.987  27.956  23.323  1.00  0.00     0.050 C 
ATOM     18  C   UNL A   1      32.061  28.671  22.528  1.00  0.00     0.256 C 
ATOM     19  C   UNL A   1      29.715  28.652  23.002  1.00  0.00     0.011 A 
ATOM     20  O   UNL A   1      33.225  28.379  22.367  1.00  0.00    -0.269 OA
ATOM     21  N   UNL A   1      31.437  29.780  21.988  1.00  0.00    -0.321 N 
ATOM     22  C   UNL A   1      30.072  29.763  22.224  1.00  0.00     0.049 A 
ATOM     23  C   UNL A   1      28.368  28.391  23.207  1.00  0.00     0.011 A 
ATOM     24  H   UNL A   1      31.904  30.494  21.497  1.00  0.00     0.170 HD
ATOM     25  C   UNL A   1      29.163  30.662  21.695  1.00  0.00     0.027 A 
ATOM     26  C   UNL A   1      27.419  29.272  22.650  1.00  0.00     0.001 A 
ATOM     27  C   UNL A   1      27.813  30.404  21.912  1.00  0.00     0.002 A 
ENDBRANCH  12  16
ENDBRANCH   9  10
ENDBRANCH   8   9
ENDBRANCH   6   8
ENDBRANCH   5   6
ENDBRANCH   4   5
ENDBRANCH   3   4
ENDBRANCH   2   3
ENDBRANCH   1   2
BRANCH   1  28
ATOM     28  C   UNL A   1      33.258  35.454  29.811  1.00  0.00     0.188 C 
BRANCH  28  29
ATOM     29  O   UNL A   1      32.710  35.276  31.107  1.00  0.00    -0.376 OA
BRANCH  29  30
ATOM     30  C   UNL A   1      33.599  35.165  32.205  1.00  0.00     0.202 C 
BRANCH  30  31
ATOM     31  C   UNL A   1      33.948  33.761  32.738  1.00  0.00     0.261 C 
BRANCH  31  32
ATOM     32  O   UNL A   1      35.048  33.077  32.094  1.00  0.00    -0.460 OA
BRANCH  32  33
ATOM     33  C   UNL A   1      36.003  32.547  32.907  1.00  0.00     0.338 C 
ATOM     34  O   UNL A   1      36.035  32.606  34.125  1.00  0.00    -0.246 OA
BRANCH  33  35
ATOM     35  C   UNL A   1      36.944  31.693  32.129  1.00  0.00     0.060 A 
ATOM     36  C   UNL A   1      37.745  30.756  32.809  1.00  0.00     0.016 A 
ATOM     37  C   UNL A   1      37.090  31.846  30.751  1.00  0.00     0.016 A 
ATOM     38  C   UNL A   1      38.713  30.008  32.125  1.00  0.00     0.010 A 
ATOM     39  C   UNL A   1      38.082  31.118  30.072  1.00  0.00     0.010 A 
ATOM     40  C   UNL A   1      38.926  30.222  30.759  1.00  0.00    -0.014 A 
BRANCH  40  41
ATOM     41  C   UNL A   1      40.148  29.686  30.090  1.00  0.00     0.031 A 
ATOM     42  C   UNL A   1      41.314  30.618  29.873  1.00  0.00     0.074 A 
ATOM     43  C   UNL A   1      40.244  28.408  29.679  1.00  0.00     0.049 A 
ATOM     44  N   UNL A   1      42.433  30.421  29.223  1.00  0.00    -0.248 NA
ATOM     45  C   UNL A   1      41.194  31.960  30.467  1.00  0.00     0.031 C 
ATOM     46  C   UNL A   1      39.229  27.376  29.868  1.00  0.00     0.029 A 
ATOM     47  N   UNL A   1      41.250  27.766  28.993  1.00  0.00    -0.354 N 
ATOM     48  C   UNL A   1      43.141  31.614  29.315  1.00  0.00     0.074 A 
ATOM     49  C   UNL A   1      42.314  32.539  30.060  1.00  0.00     0.031 C 
ATOM     50  C   UNL A   1      39.651  26.236  29.291  1.00  0.00     0.029 A 
ATOM     51  C   UNL A   1      40.950  26.467  28.658  1.00  0.00     0.049 A 
ATOM     52  H   UNL A   1      42.105  28.198  28.763  1.00  0.00     0.167 HD
ATOM     53  C   UNL A   1      44.369  31.915  28.830  1.00  0.00     0.037 A 
ATOM     54  C   UNL A   1      41.629  25.576  27.904  1.00  0.00     0.037 A 
ATOM     55  C   UNL A   1      45.202  31.001  28.091  1.00  0.00     0.049 A 
ATOM     56  C   UNL A   1      42.958  25.963  27.300  1.00  0.00     0.074 A 
ATOM     57  C   UNL A   1      46.470  31.214  27.578  1.00  0.00     0.029 A 
ATOM     58  N   UNL A   1      44.848  29.705  27.753  1.00  0.00    -0.354 N 
ATOM     59  N   UNL A   1      43.625  27.086  27.408  1.00  0.00    -0.248 NA
ATOM     60  C   UNL A   1      43.631  24.952  26.467  1.00  0.00     0.031 C 
ATOM     61  C   UNL A   1      46.857  30.070  26.875  1.00  0.00     0.029 A 
ATOM     62  C   UNL A   1      45.860  29.119  27.011  1.00  0.00     0.049 A 
ATOM     63  H   UNL A   1      44.003  29.266  28.003  1.00  0.00     0.167 HD
ATOM     64  C   UNL A   1      44.806  26.903  26.695  1.00  0.00     0.074 A 
ATOM     65  C   UNL A   1      44.770  25.557  26.166  1.00  0.00     0.031 C 
ATOM     66  C   UNL A   1      45.828  27.772  26.499  1.00  0.00     0.037 A 
BRANCH  53  67
ATOM     67  C   UNL A   1      44.885  33.309  29.055  1.00  0.00     0.057 A 
ATOM     68  C   UNL A   1      45.668  33.643  30.167  1.00  0.00     0.134 A 
ATOM     69  C   UNL A   1      44.636  34.319  28.115  1.00  0.00     0.134 A 
ATOM     70  F   UNL A   1      45.935  32.727  31.111  1.00  0.00    -0.206 F 
ATOM     71  C   UNL A   1      46.166  34.934  30.348  1.00  0.00     0.040 A 
ATOM     72  C   UNL A   1      45.155  35.605  28.269  1.00  0.00     0.040 A 
ATOM     73  F   UNL A   1      43.900  34.066  27.022  1.00  0.00    -0.206 F 
ATOM     74  C   UNL A   1      45.917  35.918  29.392  1.00  0.00     0.006 A 
ENDBRANCH  53  67
BRANCH  54  75
ATOM     75  C   UNL A   1      41.062  24.226  27.640  1.00  0.00     0.057 A 
ATOM     76  C   UNL A   1      41.573  23.084  28.272  1.00  0.00     0.134 A 
ATOM     77  C   UNL A   1      40.034  24.035  26.709  1.00  0.00     0.134 A 
ATOM     78  F   UNL A   1      42.581  23.194  29.150  1.00  0.00    -0.206 F 
ATOM     79  C   UNL A   1      41.103  21.804  27.968  1.00  0.00     0.040 A 
ATOM     80  C   UNL A   1      39.532  22.764  26.419  1.00  0.00     0.040 A 
ATOM     81  F   UNL A   1      39.501  25.083  26.063  1.00  0.00    -0.206 F 
ATOM     82  C   UNL A   1      40.075  21.643  27.042  1.00  0.00     0.006 A 
ENDBRANCH  54  75
BRANCH  66  83
ATOM     83  C   UNL A   1      47.024  27.285  25.727  1.00  0.00     0.057 A 
ATOM     84  C   UNL A   1      47.181  27.530  24.358  1.00  0.00     0.134 A 
ATOM     85  C   UNL A   1      48.058  26.597  26.379  1.00  0.00     0.134 A 
ATOM     86  F   UNL A   1      46.228  28.175  23.667  1.00  0.00    -0.206 F 
ATOM     87  C   UNL A   1      48.308  27.088  23.659  1.00  0.00     0.040 A 
ATOM     88  C   UNL A   1      49.203  26.178  25.699  1.00  0.00     0.040 A 
ATOM     89  F   UNL A   1      47.981  26.338  27.693  1.00  0.00    -0.206 F 
ATOM     90  C   UNL A   1      49.327  26.416  24.333  1.00  0.00     0.006 A 
ENDBRANCH  66  83
ENDBRANCH  40  41
ENDBRANCH  33  35
ENDBRANCH  32  33
ENDBRANCH  31  32
ENDBRANCH  30  31
ENDBRANCH  29  30
ENDBRANCH  28  29
ENDBRANCH   1  28
TORSDOF 20
ENDMDL
MODEL 2
REMARK VINA RESULT:     -11.4      1.296      3.237
REMARK SMILES O=C(COc1ccccc1/C=C1\C(=O)Nc2ccccc21)OCCOCCOCCOC(=O)c1ccc(-c2c3nc(c(-c4c(F)cccc4F)c4ccc([nH]4)c(-c4c(F)cccc4F)c4nc(c(-c5c(F)cccc5F)c5ccc2[nH]5)C=C4)C=C3)cc1
REMARK SMILES IDX 26 1 25 2 24 3 23 4 22 5 2 6 1 7 3 8 4 9 5 10 6 11 10 12
REMARK SMILES IDX 7 13 9 14 8 15 11 16 12 17 13 18 21 19 14 20 15 21 16 22
REMARK SMILES IDX 20 23 17 25 19 26 18 27 27 28 28 29 29 30 30 31 31 32 32 33
REMARK SMILES IDX 33 34 34 35 35 36 87 37 36 38 86 39 37 40 38 41 39 42 80 43
REMARK SMILES IDX 40 44 85 45 79 46 81 47 41 48 84 49 78 50 77 51 42 53 68 54
REMARK SMILES IDX 51 55 67 56 52 57 55 58 66 59 82 60 53 61 54 62 65 64 83 65
REMARK SMILES IDX 56 66 43 67 44 68 49 69 45 70 46 71 48 72 50 73 47 74 69 75
REMARK SMILES IDX 70 76 75 77 71 78 72 79 74 80 76 81 73 82 57 83 58 84 63 85
REMARK SMILES IDX 59 86 60 87 62 88 64 89 61 90
REMARK H PARENT 15 24 81 52 55 63
REMARK Flexibility Score: inf
ROOT
ATOM      1  C   UNL A   1      33.314  34.652  28.390  1.00  0.00     0.188 C 
ENDROOT
BRANCH   1   2
ATOM      2  O   UNL A   1      34.610  34.425  27.866  1.00  0.00    -0.376 OA
BRANCH   2   3
ATOM      3  C   UNL A   1      35.123  33.115  28.001  1.00  0.00     0.202 C 
BRANCH   3   4
ATOM      4  C   UNL A   1      34.108  32.053  28.422  1.00  0.00     0.261 C 
BRANCH   4   5
ATOM      5  O   UNL A   1      33.861  30.952  27.500  1.00  0.00    -0.461 OA
BRANCH   5   6
ATOM      6  C   UNL A   1      34.480  29.758  27.343  1.00  0.00     0.344 C 
ATOM      7  O   UNL A   1      35.658  29.632  27.678  1.00  0.00    -0.248 OA
BRANCH   6   8
ATOM      8  C   UNL A   1      33.751  28.615  26.687  1.00  0.00     0.351 C 
BRANCH   8   9
ATOM      9  O   UNL A   1      34.022  28.552  25.303  1.00  0.00    -0.481 OA
BRANCH   9  10
ATOM     10  C   UNL A   1      32.913  28.184  24.602  1.00  0.00     0.127 A 
ATOM     11  C   UNL A   1      31.918  29.169  24.585  1.00  0.00     0.047 A 
ATOM     12  C   UNL A   1      32.748  26.926  23.984  1.00  0.00     0.017 A 
ATOM     13  C   UNL A   1      30.722  28.924  23.933  1.00  0.00     0.004 A 
ATOM     14  C   UNL A   1      31.488  26.675  23.434  1.00  0.00     0.012 A 
ATOM     15  C   UNL A   1      30.502  27.669  23.375  1.00  0.00     0.001 A 
BRANCH  12  16
ATOM     16  C   UNL A   1      33.817  25.891  23.893  1.00  0.00     0.026 C 
ATOM     17  C   UNL A   1      34.010  24.836  24.715  1.00  0.00     0.050 C 
ATOM     18  C   UNL A   1      33.240  24.558  25.991  1.00  0.00     0.256 C 
ATOM     19  C   UNL A   1      35.025  23.756  24.612  1.00  0.00     0.011 A 
ATOM     20  O   UNL A   1      32.239  25.088  26.418  1.00  0.00    -0.269 OA
ATOM     21  N   UNL A   1      33.924  23.531  26.613  1.00  0.00    -0.321 N 
ATOM     22  C   UNL A   1      34.938  23.033  25.811  1.00  0.00     0.049 A 
ATOM     23  C   UNL A   1      35.883  23.300  23.623  1.00  0.00     0.011 A 
ATOM     24  H   UNL A   1      33.717  23.195  27.515  1.00  0.00     0.170 HD
ATOM     25  C   UNL A   1      35.706  21.919  26.100  1.00  0.00     0.027 A 
ATOM     26  C   UNL A   1      36.653  22.146  23.878  1.00  0.00     0.001 A 
ATOM     27  C   UNL A   1      36.575  21.470  25.111  1.00  0.00     0.002 A 
ENDBRANCH  12  16
ENDBRANCH   9  10
ENDBRANCH   8   9
ENDBRANCH   6   8
ENDBRANCH   5   6
ENDBRANCH   4   5
ENDBRANCH   3   4
ENDBRANCH   2   3
ENDBRANCH   1   2
BRANCH   1  28
ATOM     28  C   UNL A   1      33.243  35.752  29.473  1.00  0.00     0.188 C 
BRANCH  28  29
ATOM     29  O   UNL A   1      32.714  35.439  30.751  1.00  0.00    -0.376 OA
BRANCH  29  30
ATOM     30  C   UNL A   1      33.608  35.346  31.846  1.00  0.00     0.202 C 
BRANCH  30  31
ATOM     31  C   UNL A   1      34.046  33.950  32.331  1.00  0.00     0.261 C 
BRANCH  31  32
ATOM     32  O   UNL A   1      35.338  33.482  31.882  1.00  0.00    -0.460 OA
BRANCH  32  33
ATOM     33  C   UNL A   1      36.069  32.750  32.767  1.00  0.00     0.338 C 
ATOM     34  O   UNL A   1      35.898  32.684  33.972  1.00  0.00    -0.246 OA
BRANCH  33  35
ATOM     35  C   UNL A   1      37.023  31.855  32.052  1.00  0.00     0.060 A 
ATOM     36  C   UNL A   1      37.956  31.109  32.796  1.00  0.00     0.016 A 
ATOM     37  C   UNL A   1      37.049  31.790  30.659  1.00  0.00     0.016 A 
ATOM     38  C   UNL A   1      38.934  30.336  32.155  1.00  0.00     0.010 A 
ATOM     39  C   UNL A   1      38.049  31.041  30.017  1.00  0.00     0.010 A 
ATOM     40  C   UNL A   1      39.022  30.338  30.759  1.00  0.00    -0.014 A 
BRANCH  40  41
ATOM     41  C   UNL A   1      40.233  29.797  30.076  1.00  0.00     0.031 A 
ATOM     42  C   UNL A   1      41.396  30.727  29.834  1.00  0.00     0.074 A 
ATOM     43  C   UNL A   1      40.323  28.515  29.673  1.00  0.00     0.049 A 
ATOM     44  N   UNL A   1      42.506  30.524  29.169  1.00  0.00    -0.248 NA
ATOM     45  C   UNL A   1      41.286  32.073  30.419  1.00  0.00     0.031 C 
ATOM     46  C   UNL A   1      39.310  27.486  29.885  1.00  0.00     0.029 A 
ATOM     47  N   UNL A   1      41.318  27.868  28.976  1.00  0.00    -0.354 N 
ATOM     48  C   UNL A   1      43.216  31.718  29.241  1.00  0.00     0.074 A 
ATOM     49  C   UNL A   1      42.399  32.648  29.991  1.00  0.00     0.031 C 
ATOM     50  C   UNL A   1      39.723  26.341  29.310  1.00  0.00     0.029 A 
ATOM     51  C   UNL A   1      41.013  26.566  28.657  1.00  0.00     0.049 A 
ATOM     52  H   UNL A   1      42.170  28.298  28.731  1.00  0.00     0.167 HD
ATOM     53  C   UNL A   1      44.436  32.015  28.735  1.00  0.00     0.037 A 
ATOM     54  C   UNL A   1      41.681  25.670  27.899  1.00  0.00     0.037 A 
ATOM     55  C   UNL A   1      45.258  31.095  27.991  1.00  0.00     0.049 A 
ATOM     56  C   UNL A   1      43.000  26.051  27.272  1.00  0.00     0.074 A 
ATOM     57  C   UNL A   1      46.518  31.303  27.458  1.00  0.00     0.029 A 
ATOM     58  N   UNL A   1      44.898  29.796  27.668  1.00  0.00    -0.354 N 
ATOM     59  N   UNL A   1      43.669  27.175  27.362  1.00  0.00    -0.248 NA
ATOM     60  C   UNL A   1      43.660  25.034  26.437  1.00  0.00     0.031 C 
ATOM     61  C   UNL A   1      46.894  30.153  26.757  1.00  0.00     0.029 A 
ATOM     62  C   UNL A   1      45.899  29.203  26.916  1.00  0.00     0.049 A 
ATOM     63  H   UNL A   1      44.056  29.359  27.934  1.00  0.00     0.167 HD
ATOM     64  C   UNL A   1      44.839  26.986  26.632  1.00  0.00     0.074 A 
ATOM     65  C   UNL A   1      44.795  25.636  26.114  1.00  0.00     0.031 C 
ATOM     66  C   UNL A   1      45.859  27.853  26.414  1.00  0.00     0.037 A 
BRANCH  53  67
ATOM     67  C   UNL A   1      44.955  33.410  28.941  1.00  0.00     0.057 A 
ATOM     68  C   UNL A   1      45.773  33.747  30.027  1.00  0.00     0.134 A 
ATOM     69  C   UNL A   1      44.675  34.418  28.009  1.00  0.00     0.134 A 
ATOM     70  F   UNL A   1      46.071  32.833  30.964  1.00  0.00    -0.206 F 
ATOM     71  C   UNL A   1      46.274  35.040  30.191  1.00  0.00     0.040 A 
ATOM     72  C   UNL A   1      45.196  35.705  28.144  1.00  0.00     0.040 A 
ATOM     73  F   UNL A   1      43.906  34.162  26.940  1.00  0.00    -0.206 F 
ATOM     74  C   UNL A   1      45.992  36.021  29.242  1.00  0.00     0.006 A 
ENDBRANCH  53  67
BRANCH  54  75
ATOM     75  C   UNL A   1      41.109  24.317  27.655  1.00  0.00     0.057 A 
ATOM     76  C   UNL A   1      41.628  23.181  28.289  1.00  0.00     0.134 A 
ATOM     77  C   UNL A   1      40.068  24.120  26.739  1.00  0.00     0.134 A 
ATOM     78  F   UNL A   1      42.647  23.297  29.152  1.00  0.00    -0.206 F 
ATOM     79  C   UNL A   1      41.153  21.899  28.002  1.00  0.00     0.040 A 
ATOM     80  C   UNL A   1      39.562  22.847  26.466  1.00  0.00     0.040 A 
ATOM     81  F   UNL A   1      39.528  25.162  26.091  1.00  0.00    -0.206 F 
ATOM     82  C   UNL A   1      40.112  21.730  27.091  1.00  0.00     0.006 A 
ENDBRANCH  54  75
BRANCH  66  83
ATOM     83  C   UNL A   1      47.043  27.359  25.629  1.00  0.00     0.057 A 
ATOM     84  C   UNL A   1      47.167  27.573  24.251  1.00  0.00     0.134 A 
ATOM     85  C   UNL A   1      48.098  26.699  26.274  1.00  0.00     0.134 A 
ATOM     86  F   UNL A   1      46.193  28.190  23.566  1.00  0.00    -0.206 F 
ATOM     87  C   UNL A   1      48.284  27.125  23.538  1.00  0.00     0.040 A 
ATOM     88  C   UNL A   1      49.232  26.275  25.580  1.00  0.00     0.040 A 
ATOM     89  F   UNL A   1      48.053  26.471  27.596  1.00  0.00    -0.206 F 
ATOM     90  C   UNL A   1      49.324  26.480  24.206  1.00  0.00     0.006 A 
ENDBRANCH  66  83
ENDBRANCH  40  41
ENDBRANCH  33  35
ENDBRANCH  32  33
ENDBRANCH  31  32
ENDBRANCH  30  31
ENDBRANCH  29  30
ENDBRANCH  28  29
ENDBRANCH   1  28
TORSDOF 20
ENDMDL
MODEL 3
REMARK VINA RESULT:     -11.2      4.823     10.312
REMARK SMILES O=C(COc1ccccc1/C=C1\C(=O)Nc2ccccc21)OCCOCCOCCOC(=O)c1ccc(-c2c3nc(c(-c4c(F)cccc4F)c4ccc([nH]4)c(-c4c(F)cccc4F)c4nc(c(-c5c(F)cccc5F)c5ccc2[nH]5)C=C4)C=C3)cc1
REMARK SMILES IDX 26 1 25 2 24 3 23 4 22 5 2 6 1 7 3 8 4 9 5 10 6 11 10 12
REMARK SMILES IDX 7 13 9 14 8 15 11 16 12 17 13 18 21 19 14 20 15 21 16 22
REMARK SMILES IDX 20 23 17 25 19 26 18 27 27 28 28 29 29 30 30 31 31 32 32 33
REMARK SMILES IDX 33 34 34 35 35 36 87 37 36 38 86 39 37 40 38 41 39 42 80 43
REMARK SMILES IDX 40 44 85 45 79 46 81 47 41 48 84 49 78 50 77 51 42 53 68 54
REMARK SMILES IDX 51 55 67 56 52 57 55 58 66 59 82 60 53 61 54 62 65 64 83 65
REMARK SMILES IDX 56 66 43 67 44 68 49 69 45 70 46 71 48 72 50 73 47 74 69 75
REMARK SMILES IDX 70 76 75 77 71 78 72 79 74 80 76 81 73 82 57 83 58 84 63 85
REMARK SMILES IDX 59 86 60 87 62 88 64 89 61 90
REMARK H PARENT 15 24 81 52 55 63
REMARK Flexibility Score: inf
ROOT
ATOM      1  C   UNL A   1      42.687  18.836  26.092  1.00  0.00     0.188 C 
ENDROOT
BRANCH   1   2
ATOM      2  O   UNL A   1      41.520  19.454  25.581  1.00  0.00    -0.376 OA
BRANCH   2   3
ATOM      3  C   UNL A   1      40.609  19.962  26.534  1.00  0.00     0.202 C 
BRANCH   3   4
ATOM      4  C   UNL A   1      40.275  21.448  26.395  1.00  0.00     0.261 C 
BRANCH   4   5
ATOM      5  O   UNL A   1      38.914  21.802  26.015  1.00  0.00    -0.461 OA
BRANCH   5   6
ATOM      6  C   UNL A   1      38.280  22.998  25.960  1.00  0.00     0.344 C 
ATOM      7  O   UNL A   1      38.712  23.948  26.614  1.00  0.00    -0.248 OA
BRANCH   6   8
ATOM      8  C   UNL A   1      37.009  23.138  25.165  1.00  0.00     0.351 C 
BRANCH   8   9
ATOM      9  O   UNL A   1      35.868  23.053  25.991  1.00  0.00    -0.481 OA
BRANCH   9  10
ATOM     10  C   UNL A   1      34.839  22.437  25.344  1.00  0.00     0.127 A 
ATOM     11  C   UNL A   1      34.871  21.042  25.457  1.00  0.00     0.047 A 
ATOM     12  C   UNL A   1      33.853  23.116  24.597  1.00  0.00     0.017 A 
ATOM     13  C   UNL A   1      33.903  20.280  24.827  1.00  0.00     0.004 A 
ATOM     14  C   UNL A   1      32.961  22.310  23.885  1.00  0.00     0.012 A 
ATOM     15  C   UNL A   1      32.961  20.916  24.025  1.00  0.00     0.001 A 
BRANCH  12  16
ATOM     16  C   UNL A   1      33.724  24.600  24.535  1.00  0.00     0.026 C 
ATOM     17  C   UNL A   1      33.010  25.396  25.363  1.00  0.00     0.050 C 
ATOM     18  C   UNL A   1      32.081  24.921  26.462  1.00  0.00     0.256 C 
ATOM     19  C   UNL A   1      32.914  26.879  25.365  1.00  0.00     0.011 A 
ATOM     20  O   UNL A   1      31.931  23.809  26.918  1.00  0.00    -0.269 OA
ATOM     21  N   UNL A   1      31.399  26.050  26.876  1.00  0.00    -0.321 N 
ATOM     22  C   UNL A   1      31.895  27.195  26.275  1.00  0.00     0.049 A 
ATOM     23  C   UNL A   1      33.631  27.914  24.785  1.00  0.00     0.011 A 
ATOM     24  H   UNL A   1      30.653  26.041  27.518  1.00  0.00     0.170 HD
ATOM     25  C   UNL A   1      31.511  28.487  26.588  1.00  0.00     0.027 A 
ATOM     26  C   UNL A   1      33.283  29.241  25.113  1.00  0.00     0.001 A 
ATOM     27  C   UNL A   1      32.223  29.524  25.996  1.00  0.00     0.002 A 
ENDBRANCH  12  16
ENDBRANCH   9  10
ENDBRANCH   8   9
ENDBRANCH   6   8
ENDBRANCH   5   6
ENDBRANCH   4   5
ENDBRANCH   3   4
ENDBRANCH   2   3
ENDBRANCH   1   2
BRANCH   1  28
ATOM     28  C   UNL A   1      43.904  18.878  25.140  1.00  0.00     0.188 C 
BRANCH  28  29
ATOM     29  O   UNL A   1      44.874  19.902  25.294  1.00  0.00    -0.376 OA
BRANCH  29  30
ATOM     30  C   UNL A   1      44.601  21.177  24.741  1.00  0.00     0.202 C 
BRANCH  30  31
ATOM     31  C   UNL A   1      43.855  22.216  25.601  1.00  0.00     0.261 C 
BRANCH  31  32
ATOM     32  O   UNL A   1      43.400  23.412  24.927  1.00  0.00    -0.460 OA
BRANCH  32  33
ATOM     33  C   UNL A   1      44.088  24.559  25.179  1.00  0.00     0.338 C 
ATOM     34  O   UNL A   1      45.093  24.944  24.607  1.00  0.00    -0.246 OA
BRANCH  33  35
ATOM     35  C   UNL A   1      43.345  25.420  26.142  1.00  0.00     0.060 A 
ATOM     36  C   UNL A   1      43.828  26.711  26.427  1.00  0.00     0.016 A 
ATOM     37  C   UNL A   1      42.216  24.949  26.812  1.00  0.00     0.016 A 
ATOM     38  C   UNL A   1      43.215  27.510  27.401  1.00  0.00     0.010 A 
ATOM     39  C   UNL A   1      41.621  25.738  27.811  1.00  0.00     0.010 A 
ATOM     40  C   UNL A   1      42.138  27.008  28.140  1.00  0.00    -0.014 A 
BRANCH  40  41
ATOM     41  C   UNL A   1      41.686  27.698  29.383  1.00  0.00     0.031 A 
ATOM     42  C   UNL A   1      40.471  28.589  29.308  1.00  0.00     0.074 A 
ATOM     43  C   UNL A   1      42.320  27.552  30.562  1.00  0.00     0.049 A 
ATOM     44  N   UNL A   1      39.952  29.375  30.218  1.00  0.00    -0.248 NA
ATOM     45  C   UNL A   1      39.749  28.598  28.025  1.00  0.00     0.031 C 
ATOM     46  C   UNL A   1      43.468  26.685  30.807  1.00  0.00     0.029 A 
ATOM     47  N   UNL A   1      42.090  28.154  31.779  1.00  0.00    -0.354 N 
ATOM     48  C   UNL A   1      38.856  29.982  29.614  1.00  0.00     0.074 A 
ATOM     49  C   UNL A   1      38.801  29.495  28.252  1.00  0.00     0.031 C 
ATOM     50  C   UNL A   1      43.860  26.828  32.086  1.00  0.00     0.029 A 
ATOM     51  C   UNL A   1      43.013  27.825  32.742  1.00  0.00     0.049 A 
ATOM     52  H   UNL A   1      41.334  28.764  31.942  1.00  0.00     0.167 HD
ATOM     53  C   UNL A   1      37.971  30.861  30.142  1.00  0.00     0.037 A 
ATOM     54  C   UNL A   1      43.176  28.294  33.998  1.00  0.00     0.037 A 
ATOM     55  C   UNL A   1      38.014  31.350  31.496  1.00  0.00     0.049 A 
ATOM     56  C   UNL A   1      42.229  29.340  34.537  1.00  0.00     0.074 A 
ATOM     57  C   UNL A   1      37.147  32.227  32.123  1.00  0.00     0.029 A 
ATOM     58  N   UNL A   1      38.981  31.010  32.429  1.00  0.00    -0.354 N 
ATOM     59  N   UNL A   1      41.187  29.892  33.964  1.00  0.00    -0.248 NA
ATOM     60  C   UNL A   1      42.481  29.826  35.904  1.00  0.00     0.031 C 
ATOM     61  C   UNL A   1      37.624  32.468  33.415  1.00  0.00     0.029 A 
ATOM     62  C   UNL A   1      38.749  31.685  33.615  1.00  0.00     0.049 A 
ATOM     63  H   UNL A   1      39.723  30.382  32.271  1.00  0.00     0.167 HD
ATOM     64  C   UNL A   1      40.641  30.756  34.910  1.00  0.00     0.074 A 
ATOM     65  C   UNL A   1      41.460  30.647  36.097  1.00  0.00     0.031 C 
ATOM     66  C   UNL A   1      39.557  31.563  34.802  1.00  0.00     0.037 A 
BRANCH  53  67
ATOM     67  C   UNL A   1      36.887  31.384  29.242  1.00  0.00     0.057 A 
ATOM     68  C   UNL A   1      35.772  30.610  28.892  1.00  0.00     0.134 A 
ATOM     69  C   UNL A   1      36.933  32.700  28.762  1.00  0.00     0.134 A 
ATOM     70  F   UNL A   1      35.670  29.338  29.307  1.00  0.00    -0.206 F 
ATOM     71  C   UNL A   1      34.757  31.118  28.080  1.00  0.00     0.040 A 
ATOM     72  C   UNL A   1      35.909  33.229  27.977  1.00  0.00     0.040 A 
ATOM     73  F   UNL A   1      37.967  33.499  29.066  1.00  0.00    -0.206 F 
ATOM     74  C   UNL A   1      34.819  32.435  27.627  1.00  0.00     0.006 A 
ENDBRANCH  53  67
BRANCH  54  75
ATOM     75  C   UNL A   1      44.301  27.809  34.843  1.00  0.00     0.057 A 
ATOM     76  C   UNL A   1      45.561  28.421  34.799  1.00  0.00     0.134 A 
ATOM     77  C   UNL A   1      44.163  26.689  35.670  1.00  0.00     0.134 A 
ATOM     78  F   UNL A   1      45.770  29.479  34.001  1.00  0.00    -0.206 F 
ATOM     79  C   UNL A   1      46.646  27.922  35.525  1.00  0.00     0.040 A 
ATOM     80  C   UNL A   1      45.230  26.198  36.426  1.00  0.00     0.040 A 
ATOM     81  F   UNL A   1      42.987  26.050  35.756  1.00  0.00    -0.206 F 
ATOM     82  C   UNL A   1      46.479  26.809  36.346  1.00  0.00     0.006 A 
ENDBRANCH  54  75
BRANCH  66  83
ATOM     83  C   UNL A   1      39.151  32.355  36.014  1.00  0.00     0.057 A 
ATOM     84  C   UNL A   1      38.308  31.832  37.003  1.00  0.00     0.134 A 
ATOM     85  C   UNL A   1      39.651  33.650  36.217  1.00  0.00     0.134 A 
ATOM     86  F   UNL A   1      37.786  30.603  36.871  1.00  0.00    -0.206 F 
ATOM     87  C   UNL A   1      37.956  32.575  38.133  1.00  0.00     0.040 A 
ATOM     88  C   UNL A   1      39.332  34.390  37.357  1.00  0.00     0.040 A 
ATOM     89  F   UNL A   1      40.474  34.211  35.318  1.00  0.00    -0.206 F 
ATOM     90  C   UNL A   1      38.475  33.855  38.316  1.00  0.00     0.006 A 
ENDBRANCH  66  83
ENDBRANCH  40  41
ENDBRANCH  33  35
ENDBRANCH  32  33
ENDBRANCH  31  32
ENDBRANCH  30  31
ENDBRANCH  29  30
ENDBRANCH  28  29
ENDBRANCH   1  28
TORSDOF 20
ENDMDL
