MODEL 1
REMARK VINA RESULT:     -10.8      0.000      0.000
REMARK SMILES C[C@H]1SC[C@H](C(=O)OCCOCCOCCOC(=O)c2ccc(-c3c4nc(c(-c5c(F)cccc5F)c5ccc([nH]5)c(-c5c(F)cccc5F)c5nc(c(-c6c(F)cccc6F)c6ccc3[nH]6)C=C5)C=C4)cc2)N1C(=O)[C@@H]1CSc2ccccc21
REMARK SMILES IDX 12 1 11 2 10 3 9 4 8 5 6 6 7 7 5 8 1 9 2 10 3 11 74 12 4 13
REMARK SMILES IDX 75 14 76 15 77 16 78 17 85 18 79 19 80 20 84 21 81 22 83 23
REMARK SMILES IDX 82 24 13 25 14 26 15 27 16 28 17 29 18 30 19 31 20 32 21 33
REMARK SMILES IDX 73 34 22 35 72 36 23 37 24 38 25 39 66 40 26 41 71 42 65 43
REMARK SMILES IDX 67 44 27 45 70 46 64 47 63 48 28 50 54 51 37 52 53 53 38 54
REMARK SMILES IDX 41 55 52 56 68 57 39 58 40 59 51 61 69 62 42 63 29 64 30 65
REMARK SMILES IDX 35 66 31 67 32 68 34 69 36 70 33 71 55 72 56 73 61 74 57 75
REMARK SMILES IDX 58 76 60 77 62 78 59 79 43 80 44 81 49 82 45 83 46 84 48 85
REMARK SMILES IDX 50 86 47 87
REMARK H PARENT 67 49 41 60
REMARK Flexibility Score: inf
ROOT
ATOM      1  C   UNL A   1      34.403  32.382  28.000  1.00  0.00     0.188 C 
ENDROOT
BRANCH   1   2
ATOM      2  O   UNL A   1      34.039  31.151  27.395  1.00  0.00    -0.376 OA
BRANCH   2   3
ATOM      3  C   UNL A   1      32.667  30.842  27.187  1.00  0.00     0.202 C 
BRANCH   3   4
ATOM      4  C   UNL A   1      32.253  29.833  26.102  1.00  0.00     0.261 C 
BRANCH   4   5
ATOM      5  O   UNL A   1      33.085  29.787  24.921  1.00  0.00    -0.462 OA
BRANCH   5   6
ATOM      6  C   UNL A   1      32.678  28.944  23.942  1.00  0.00     0.329 C 
ATOM      7  O   UNL A   1      33.179  28.929  22.820  1.00  0.00    -0.250 OA
BRANCH   6   8
ATOM      8  C   UNL A   1      31.504  28.010  24.309  1.00  0.00     0.206 C 
ATOM      9  C   UNL A   1      30.225  25.917  26.178  1.00  0.00     0.043 C 
ATOM     10  C   UNL A   1      30.721  25.780  24.733  1.00  0.00     0.141 C 
ATOM     11  S   UNL A   1      29.447  26.401  23.607  1.00  0.00    -0.135 SA
ATOM     12  N   UNL A   1      31.883  26.600  24.435  1.00  0.00    -0.316 N 
ATOM     13  C   UNL A   1      30.266  28.016  23.401  1.00  0.00     0.109 C 
BRANCH  12  14
ATOM     14  C   UNL A   1      33.100  26.220  24.961  1.00  0.00     0.232 C 
ATOM     15  O   UNL A   1      33.412  26.457  26.125  1.00  0.00    -0.274 OA
BRANCH  14  16
ATOM     16  C   UNL A   1      34.088  25.594  23.963  1.00  0.00     0.120 C 
ATOM     17  C   UNL A   1      33.402  25.245  22.630  1.00  0.00     0.093 C 
ATOM     18  C   UNL A   1      34.742  24.319  24.445  1.00  0.00    -0.021 A 
ATOM     19  S   UNL A   1      33.024  23.460  22.637  1.00  0.00    -0.125 SA
ATOM     20  C   UNL A   1      34.227  23.145  23.888  1.00  0.00     0.011 A 
ATOM     21  C   UNL A   1      35.725  24.251  25.430  1.00  0.00     0.006 A 
ATOM     22  C   UNL A   1      34.646  21.898  24.324  1.00  0.00     0.015 A 
ATOM     23  C   UNL A   1      36.143  23.000  25.883  1.00  0.00     0.000 A 
ATOM     24  C   UNL A   1      35.604  21.828  25.336  1.00  0.00     0.001 A 
ENDBRANCH  14  16
ENDBRANCH  12  14
ENDBRANCH   6   8
ENDBRANCH   5   6
ENDBRANCH   4   5
ENDBRANCH   3   4
ENDBRANCH   2   3
ENDBRANCH   1   2
BRANCH   1  25
ATOM     25  C   UNL A   1      33.384  33.529  28.049  1.00  0.00     0.188 C 
BRANCH  25  26
ATOM     26  O   UNL A   1      33.590  34.495  29.043  1.00  0.00    -0.376 OA
BRANCH  26  27
ATOM     27  C   UNL A   1      34.595  34.291  30.018  1.00  0.00     0.202 C 
BRANCH  27  28
ATOM     28  C   UNL A   1      34.300  33.754  31.433  1.00  0.00     0.261 C 
BRANCH  28  29
ATOM     29  O   UNL A   1      34.723  32.421  31.754  1.00  0.00    -0.460 OA
BRANCH  29  30
ATOM     30  C   UNL A   1      35.762  32.286  32.611  1.00  0.00     0.338 C 
ATOM     31  O   UNL A   1      35.768  32.544  33.805  1.00  0.00    -0.246 OA
BRANCH  30  32
ATOM     32  C   UNL A   1      36.827  31.531  31.912  1.00  0.00     0.060 A 
ATOM     33  C   UNL A   1      37.709  30.738  32.664  1.00  0.00     0.016 A 
ATOM     34  C   UNL A   1      36.946  31.589  30.523  1.00  0.00     0.016 A 
ATOM     35  C   UNL A   1      38.725  30.019  32.030  1.00  0.00     0.010 A 
ATOM     36  C   UNL A   1      37.981  30.893  29.892  1.00  0.00     0.010 A 
ATOM     37  C   UNL A   1      38.894  30.129  30.645  1.00  0.00    -0.014 A 
BRANCH  37  38
ATOM     38  C   UNL A   1      40.133  29.625  30.003  1.00  0.00     0.031 A 
ATOM     39  C   UNL A   1      41.277  30.584  29.819  1.00  0.00     0.074 A 
ATOM     40  C   UNL A   1      40.251  28.352  29.588  1.00  0.00     0.049 A 
ATOM     41  N   UNL A   1      42.419  30.413  29.202  1.00  0.00    -0.248 NA
ATOM     42  C   UNL A   1      41.103  31.921  30.407  1.00  0.00     0.031 C 
ATOM     43  C   UNL A   1      39.240  27.310  29.750  1.00  0.00     0.029 A 
ATOM     44  N   UNL A   1      41.279  27.727  28.924  1.00  0.00    -0.354 N 
ATOM     45  C   UNL A   1      43.091  31.624  29.316  1.00  0.00     0.074 A 
ATOM     46  C   UNL A   1      42.219  32.528  30.033  1.00  0.00     0.031 C 
ATOM     47  C   UNL A   1      39.690  26.177  29.181  1.00  0.00     0.029 A 
ATOM     48  C   UNL A   1      41.001  26.426  28.582  1.00  0.00     0.049 A 
ATOM     49  H   UNL A   1      42.133  28.169  28.714  1.00  0.00     0.167 HD
ATOM     50  C   UNL A   1      44.325  31.953  28.865  1.00  0.00     0.037 A 
ATOM     51  C   UNL A   1      41.711  25.549  27.844  1.00  0.00     0.037 A 
ATOM     52  C   UNL A   1      45.188  31.055  28.145  1.00  0.00     0.049 A 
ATOM     53  C   UNL A   1      43.046  25.963  27.279  1.00  0.00     0.074 A 
ATOM     54  C   UNL A   1      46.464  31.289  27.662  1.00  0.00     0.029 A 
ATOM     55  N   UNL A   1      44.859  29.754  27.793  1.00  0.00    -0.354 N 
ATOM     56  N   UNL A   1      43.685  27.102  27.406  1.00  0.00    -0.248 NA
ATOM     57  C   UNL A   1      43.761  24.967  26.466  1.00  0.00     0.031 C 
ATOM     58  C   UNL A   1      46.883  30.151  26.965  1.00  0.00     0.029 A 
ATOM     59  C   UNL A   1      45.896  29.184  27.072  1.00  0.00     0.049 A 
ATOM     60  H   UNL A   1      44.015  29.303  28.022  1.00  0.00     0.167 HD
ATOM     61  C   UNL A   1      44.886  26.947  26.721  1.00  0.00     0.074 A 
ATOM     62  C   UNL A   1      44.892  25.601  26.189  1.00  0.00     0.031 C 
ATOM     63  C   UNL A   1      45.895  27.839  26.552  1.00  0.00     0.037 A 
BRANCH  50  64
ATOM     64  C   UNL A   1      44.793  33.359  29.106  1.00  0.00     0.057 A 
ATOM     65  C   UNL A   1      44.496  34.406  28.221  1.00  0.00     0.134 A 
ATOM     66  C   UNL A   1      45.539  33.673  30.248  1.00  0.00     0.134 A 
ATOM     67  F   UNL A   1      43.800  34.171  27.099  1.00  0.00    -0.206 F 
ATOM     68  C   UNL A   1      44.950  35.706  28.451  1.00  0.00     0.040 A 
ATOM     69  C   UNL A   1      45.971  34.975  30.505  1.00  0.00     0.040 A 
ATOM     70  F   UNL A   1      45.856  32.720  31.139  1.00  0.00    -0.206 F 
ATOM     71  C   UNL A   1      45.685  35.994  29.599  1.00  0.00     0.006 A 
ENDBRANCH  50  64
BRANCH  51  72
ATOM     72  C   UNL A   1      41.170  24.193  27.575  1.00  0.00     0.057 A 
ATOM     73  C   UNL A   1      40.139  23.993  26.648  1.00  0.00     0.134 A 
ATOM     74  C   UNL A   1      41.649  23.066  28.255  1.00  0.00     0.134 A 
ATOM     75  F   UNL A   1      39.616  25.035  25.987  1.00  0.00    -0.206 F 
ATOM     76  C   UNL A   1      39.594  22.727  26.420  1.00  0.00     0.040 A 
ATOM     77  C   UNL A   1      41.135  21.791  28.015  1.00  0.00     0.040 A 
ATOM     78  F   UNL A   1      42.633  23.189  29.159  1.00  0.00    -0.206 F 
ATOM     79  C   UNL A   1      40.098  21.620  27.099  1.00  0.00     0.006 A 
ENDBRANCH  51  72
BRANCH  63  80
ATOM     80  C   UNL A   1      47.113  27.377  25.802  1.00  0.00     0.057 A 
ATOM     81  C   UNL A   1      48.168  26.706  26.433  1.00  0.00     0.134 A 
ATOM     82  C   UNL A   1      47.209  27.569  24.416  1.00  0.00     0.134 A 
ATOM     83  F   UNL A   1      48.146  26.498  27.759  1.00  0.00    -0.206 F 
ATOM     84  C   UNL A   1      49.285  26.266  25.719  1.00  0.00     0.040 A 
ATOM     85  C   UNL A   1      48.305  27.105  23.687  1.00  0.00     0.040 A 
ATOM     86  F   UNL A   1      46.229  28.192  23.745  1.00  0.00    -0.206 F 
ATOM     87  C   UNL A   1      49.351  26.458  24.340  1.00  0.00     0.006 A 
ENDBRANCH  63  80
ENDBRANCH  37  38
ENDBRANCH  30  32
ENDBRANCH  29  30
ENDBRANCH  28  29
ENDBRANCH  27  28
ENDBRANCH  26  27
ENDBRANCH  25  26
ENDBRANCH   1  25
TORSDOF 19
ENDMDL
MODEL 2
REMARK VINA RESULT:     -10.7      4.229      9.600
REMARK SMILES C[C@H]1SC[C@H](C(=O)OCCOCCOCCOC(=O)c2ccc(-c3c4nc(c(-c5c(F)cccc5F)c5ccc([nH]5)c(-c5c(F)cccc5F)c5nc(c(-c6c(F)cccc6F)c6ccc3[nH]6)C=C5)C=C4)cc2)N1C(=O)[C@@H]1CSc2ccccc21
REMARK SMILES IDX 12 1 11 2 10 3 9 4 8 5 6 6 7 7 5 8 1 9 2 10 3 11 74 12 4 13
REMARK SMILES IDX 75 14 76 15 77 16 78 17 85 18 79 19 80 20 84 21 81 22 83 23
REMARK SMILES IDX 82 24 13 25 14 26 15 27 16 28 17 29 18 30 19 31 20 32 21 33
REMARK SMILES IDX 73 34 22 35 72 36 23 37 24 38 25 39 66 40 26 41 71 42 65 43
REMARK SMILES IDX 67 44 27 45 70 46 64 47 63 48 28 50 54 51 37 52 53 53 38 54
REMARK SMILES IDX 41 55 52 56 68 57 39 58 40 59 51 61 69 62 42 63 29 64 30 65
REMARK SMILES IDX 35 66 31 67 32 68 34 69 36 70 33 71 55 72 56 73 61 74 57 75
REMARK SMILES IDX 58 76 60 77 62 78 59 79 43 80 44 81 49 82 45 83 46 84 48 85
REMARK SMILES IDX 50 86 47 87
REMARK H PARENT 67 49 41 60
REMARK Flexibility Score: inf
ROOT
ATOM      1  C   UNL A   1      38.516  21.181  25.803  1.00  0.00     0.188 C 
ENDROOT
BRANCH   1   2
ATOM      2  O   UNL A   1      37.801  21.876  24.793  1.00  0.00    -0.376 OA
BRANCH   2   3
ATOM      3  C   UNL A   1      37.448  23.240  24.986  1.00  0.00     0.202 C 
BRANCH   3   4
ATOM      4  C   UNL A   1      36.542  23.651  26.159  1.00  0.00     0.261 C 
BRANCH   4   5
ATOM      5  O   UNL A   1      35.455  24.551  25.844  1.00  0.00    -0.462 OA
BRANCH   5   6
ATOM      6  C   UNL A   1      34.218  24.000  25.821  1.00  0.00     0.329 C 
ATOM      7  O   UNL A   1      33.498  23.932  26.815  1.00  0.00    -0.250 OA
BRANCH   6   8
ATOM      8  C   UNL A   1      33.769  23.419  24.463  1.00  0.00     0.206 C 
ATOM      9  C   UNL A   1      33.344  23.726  21.424  1.00  0.00     0.043 C 
ATOM     10  C   UNL A   1      32.319  23.570  22.554  1.00  0.00     0.141 C 
ATOM     11  S   UNL A   1      32.171  21.817  22.982  1.00  0.00    -0.135 SA
ATOM     12  N   UNL A   1      32.723  24.201  23.798  1.00  0.00    -0.316 N 
ATOM     13  C   UNL A   1      33.271  21.967  24.427  1.00  0.00     0.109 C 
BRANCH  12  14
ATOM     14  C   UNL A   1      32.691  25.579  23.869  1.00  0.00     0.232 C 
ATOM     15  O   UNL A   1      33.690  26.266  23.669  1.00  0.00    -0.274 OA
BRANCH  14  16
ATOM     16  C   UNL A   1      31.360  26.190  24.335  1.00  0.00     0.120 C 
ATOM     17  C   UNL A   1      30.548  26.749  23.153  1.00  0.00     0.093 C 
ATOM     18  C   UNL A   1      31.503  27.326  25.321  1.00  0.00    -0.021 A 
ATOM     19  S   UNL A   1      30.803  28.554  23.094  1.00  0.00    -0.125 SA
ATOM     20  C   UNL A   1      31.312  28.602  24.782  1.00  0.00     0.011 A 
ATOM     21  C   UNL A   1      31.881  27.182  26.654  1.00  0.00     0.006 A 
ATOM     22  C   UNL A   1      31.530  29.743  25.539  1.00  0.00     0.015 A 
ATOM     23  C   UNL A   1      32.114  28.325  27.419  1.00  0.00     0.000 A 
ATOM     24  C   UNL A   1      31.943  29.600  26.863  1.00  0.00     0.001 A 
ENDBRANCH  14  16
ENDBRANCH  12  14
ENDBRANCH   6   8
ENDBRANCH   5   6
ENDBRANCH   4   5
ENDBRANCH   3   4
ENDBRANCH   2   3
ENDBRANCH   1   2
BRANCH   1  25
ATOM     25  C   UNL A   1      39.973  21.564  26.094  1.00  0.00     0.188 C 
BRANCH  25  26
ATOM     26  O   UNL A   1      40.905  20.518  26.062  1.00  0.00    -0.376 OA
BRANCH  26  27
ATOM     27  C   UNL A   1      42.245  20.765  26.440  1.00  0.00     0.202 C 
BRANCH  27  28
ATOM     28  C   UNL A   1      43.239  21.547  25.559  1.00  0.00     0.261 C 
BRANCH  28  29
ATOM     29  O   UNL A   1      42.811  22.798  25.001  1.00  0.00    -0.460 OA
BRANCH  29  30
ATOM     30  C   UNL A   1      43.657  23.849  25.103  1.00  0.00     0.338 C 
ATOM     31  O   UNL A   1      44.654  24.059  24.428  1.00  0.00    -0.246 OA
BRANCH  30  32
ATOM     32  C   UNL A   1      43.035  24.842  26.008  1.00  0.00     0.060 A 
ATOM     33  C   UNL A   1      43.551  26.147  26.051  1.00  0.00     0.016 A 
ATOM     34  C   UNL A   1      41.937  24.495  26.797  1.00  0.00     0.016 A 
ATOM     35  C   UNL A   1      42.984  27.101  26.898  1.00  0.00     0.010 A 
ATOM     36  C   UNL A   1      41.390  25.443  27.667  1.00  0.00     0.010 A 
ATOM     37  C   UNL A   1      41.929  26.741  27.745  1.00  0.00    -0.014 A 
BRANCH  37  38
ATOM     38  C   UNL A   1      41.523  27.640  28.853  1.00  0.00     0.031 A 
ATOM     39  C   UNL A   1      42.274  27.550  30.152  1.00  0.00     0.074 A 
ATOM     40  C   UNL A   1      40.512  28.517  28.721  1.00  0.00     0.049 A 
ATOM     41  N   UNL A   1      42.048  28.153  31.292  1.00  0.00    -0.248 NA
ATOM     42  C   UNL A   1      43.436  26.648  30.168  1.00  0.00     0.031 C 
ATOM     43  C   UNL A   1      39.736  28.741  27.504  1.00  0.00     0.029 A 
ATOM     44  N   UNL A   1      39.955  29.373  29.641  1.00  0.00    -0.354 N 
ATOM     45  C   UNL A   1      43.029  27.692  32.161  1.00  0.00     0.074 A 
ATOM     46  C   UNL A   1      43.833  26.740  31.427  1.00  0.00     0.031 C 
ATOM     47  C   UNL A   1      38.788  29.660  27.758  1.00  0.00     0.029 A 
ATOM     48  C   UNL A   1      38.866  30.059  29.163  1.00  0.00     0.049 A 
ATOM     49  H   UNL A   1      40.304  29.484  30.555  1.00  0.00     0.167 HD
ATOM     50  C   UNL A   1      43.243  28.034  33.454  1.00  0.00     0.037 A 
ATOM     51  C   UNL A   1      38.014  30.890  29.797  1.00  0.00     0.037 A 
ATOM     52  C   UNL A   1      42.439  28.977  34.184  1.00  0.00     0.049 A 
ATOM     53  C   UNL A   1      38.220  31.192  31.259  1.00  0.00     0.074 A 
ATOM     54  C   UNL A   1      42.586  29.403  35.493  1.00  0.00     0.029 A 
ATOM     55  N   UNL A   1      41.327  29.630  33.673  1.00  0.00    -0.354 N 
ATOM     56  N   UNL A   1      39.161  30.769  32.071  1.00  0.00    -0.248 NA
ATOM     57  C   UNL A   1      37.243  32.089  31.896  1.00  0.00     0.031 C 
ATOM     58  C   UNL A   1      41.528  30.267  35.792  1.00  0.00     0.029 A 
ATOM     59  C   UNL A   1      40.761  30.432  34.651  1.00  0.00     0.049 A 
ATOM     60  H   UNL A   1      40.990  29.537  32.753  1.00  0.00     0.167 HD
ATOM     61  C   UNL A   1      38.909  31.374  33.298  1.00  0.00     0.074 A 
ATOM     62  C   UNL A   1      37.733  32.200  33.122  1.00  0.00     0.031 C 
ATOM     63  C   UNL A   1      39.593  31.258  34.464  1.00  0.00     0.037 A 
BRANCH  50  64
ATOM     64  C   UNL A   1      44.373  27.350  34.168  1.00  0.00     0.057 A 
ATOM     65  C   UNL A   1      44.207  26.121  34.822  1.00  0.00     0.134 A 
ATOM     66  C   UNL A   1      45.651  27.923  34.189  1.00  0.00     0.134 A 
ATOM     67  F   UNL A   1      43.005  25.525  34.855  1.00  0.00    -0.206 F 
ATOM     68  C   UNL A   1      45.263  25.503  35.494  1.00  0.00     0.040 A 
ATOM     69  C   UNL A   1      46.722  27.299  34.830  1.00  0.00     0.040 A 
ATOM     70  F   UNL A   1      45.882  29.096  33.580  1.00  0.00    -0.206 F 
ATOM     71  C   UNL A   1      46.526  26.090  35.493  1.00  0.00     0.006 A 
ENDBRANCH  50  64
BRANCH  51  72
ATOM     72  C   UNL A   1      36.869  31.485  29.061  1.00  0.00     0.057 A 
ATOM     73  C   UNL A   1      36.875  32.830  28.673  1.00  0.00     0.134 A 
ATOM     74  C   UNL A   1      35.730  30.732  28.750  1.00  0.00     0.134 A 
ATOM     75  F   UNL A   1      37.923  33.612  28.968  1.00  0.00    -0.206 F 
ATOM     76  C   UNL A   1      35.785  33.409  28.019  1.00  0.00     0.040 A 
ATOM     77  C   UNL A   1      34.645  31.289  28.071  1.00  0.00     0.040 A 
ATOM     78  F   UNL A   1      35.658  29.438  29.097  1.00  0.00    -0.206 F 
ATOM     79  C   UNL A   1      34.669  32.635  27.709  1.00  0.00     0.006 A 
ENDBRANCH  51  72
BRANCH  63  80
ATOM     80  C   UNL A   1      39.121  32.078  35.632  1.00  0.00     0.057 A 
ATOM     81  C   UNL A   1      38.332  31.536  36.655  1.00  0.00     0.134 A 
ATOM     82  C   UNL A   1      39.502  33.421  35.758  1.00  0.00     0.134 A 
ATOM     83  F   UNL A   1      37.923  30.259  36.593  1.00  0.00    -0.206 F 
ATOM     84  C   UNL A   1      37.919  32.304  37.744  1.00  0.00     0.040 A 
ATOM     85  C   UNL A   1      39.122  34.191  36.858  1.00  0.00     0.040 A 
ATOM     86  F   UNL A   1      40.269  34.002  34.822  1.00  0.00    -0.206 F 
ATOM     87  C   UNL A   1      38.321  33.635  37.852  1.00  0.00     0.006 A 
ENDBRANCH  63  80
ENDBRANCH  37  38
ENDBRANCH  30  32
ENDBRANCH  29  30
ENDBRANCH  28  29
ENDBRANCH  27  28
ENDBRANCH  26  27
ENDBRANCH  25  26
ENDBRANCH   1  25
TORSDOF 19
ENDMDL
MODEL 3
REMARK VINA RESULT:     -10.5      4.542      9.874
REMARK SMILES C[C@H]1SC[C@H](C(=O)OCCOCCOCCOC(=O)c2ccc(-c3c4nc(c(-c5c(F)cccc5F)c5ccc([nH]5)c(-c5c(F)cccc5F)c5nc(c(-c6c(F)cccc6F)c6ccc3[nH]6)C=C5)C=C4)cc2)N1C(=O)[C@@H]1CSc2ccccc21
REMARK SMILES IDX 12 1 11 2 10 3 9 4 8 5 6 6 7 7 5 8 1 9 2 10 3 11 74 12 4 13
REMARK SMILES IDX 75 14 76 15 77 16 78 17 85 18 79 19 80 20 84 21 81 22 83 23
REMARK SMILES IDX 82 24 13 25 14 26 15 27 16 28 17 29 18 30 19 31 20 32 21 33
REMARK SMILES IDX 73 34 22 35 72 36 23 37 24 38 25 39 66 40 26 41 71 42 65 43
REMARK SMILES IDX 67 44 27 45 70 46 64 47 63 48 28 50 54 51 37 52 53 53 38 54
REMARK SMILES IDX 41 55 52 56 68 57 39 58 40 59 51 61 69 62 42 63 29 64 30 65
REMARK SMILES IDX 35 66 31 67 32 68 34 69 36 70 33 71 55 72 56 73 61 74 57 75
REMARK SMILES IDX 58 76 60 77 62 78 59 79 43 80 44 81 49 82 45 83 46 84 48 85
REMARK SMILES IDX 50 86 47 87
REMARK H PARENT 67 49 41 60
REMARK Flexibility Score: inf
ROOT
ATOM      1  C   UNL A   1      40.666  21.332  26.587  1.00  0.00     0.188 C 
ENDROOT
BRANCH   1   2
ATOM      2  O   UNL A   1      39.822  22.472  26.548  1.00  0.00    -0.376 OA
BRANCH   2   3
ATOM      3  C   UNL A   1      38.569  22.403  25.879  1.00  0.00     0.202 C 
BRANCH   3   4
ATOM      4  C   UNL A   1      37.691  23.660  25.743  1.00  0.00     0.261 C 
BRANCH   4   5
ATOM      5  O   UNL A   1      36.300  23.436  25.420  1.00  0.00    -0.462 OA
BRANCH   5   6
ATOM      6  C   UNL A   1      36.044  23.024  24.155  1.00  0.00     0.329 C 
ATOM      7  O   UNL A   1      36.781  23.281  23.206  1.00  0.00    -0.250 OA
BRANCH   6   8
ATOM      8  C   UNL A   1      34.733  22.232  23.962  1.00  0.00     0.206 C 
ATOM      9  C   UNL A   1      32.155  21.657  22.370  1.00  0.00     0.043 C 
ATOM     10  C   UNL A   1      32.339  22.255  23.770  1.00  0.00     0.141 C 
ATOM     11  S   UNL A   1      32.592  20.914  24.959  1.00  0.00    -0.135 SA
ATOM     12  N   UNL A   1      33.533  23.072  23.903  1.00  0.00    -0.316 N 
ATOM     13  C   UNL A   1      34.402  21.126  24.975  1.00  0.00     0.109 C 
BRANCH  12  14
ATOM     14  C   UNL A   1      33.545  24.311  23.298  1.00  0.00     0.232 C 
ATOM     15  O   UNL A   1      33.860  24.461  22.120  1.00  0.00    -0.274 OA
BRANCH  14  16
ATOM     16  C   UNL A   1      33.259  25.505  24.225  1.00  0.00     0.120 C 
ATOM     17  C   UNL A   1      33.223  25.079  25.703  1.00  0.00     0.093 C 
ATOM     18  C   UNL A   1      31.947  26.207  23.956  1.00  0.00    -0.021 A 
ATOM     19  S   UNL A   1      31.476  24.895  26.197  1.00  0.00    -0.125 SA
ATOM     20  C   UNL A   1      30.926  25.913  24.865  1.00  0.00     0.011 A 
ATOM     21  C   UNL A   1      31.691  27.023  22.858  1.00  0.00     0.006 A 
ATOM     22  C   UNL A   1      29.638  26.388  24.677  1.00  0.00     0.015 A 
ATOM     23  C   UNL A   1      30.393  27.495  22.655  1.00  0.00     0.000 A 
ATOM     24  C   UNL A   1      29.371  27.176  23.557  1.00  0.00     0.001 A 
ENDBRANCH  14  16
ENDBRANCH  12  14
ENDBRANCH   6   8
ENDBRANCH   5   6
ENDBRANCH   4   5
ENDBRANCH   3   4
ENDBRANCH   2   3
ENDBRANCH   1   2
BRANCH   1  25
ATOM     25  C   UNL A   1      42.091  21.467  27.138  1.00  0.00     0.188 C 
BRANCH  25  26
ATOM     26  O   UNL A   1      43.118  20.979  26.318  1.00  0.00    -0.376 OA
BRANCH  26  27
ATOM     27  C   UNL A   1      44.085  21.874  25.804  1.00  0.00     0.202 C 
BRANCH  27  28
ATOM     28  C   UNL A   1      43.859  22.722  24.536  1.00  0.00     0.261 C 
BRANCH  28  29
ATOM     29  O   UNL A   1      43.392  24.069  24.697  1.00  0.00    -0.460 OA
BRANCH  29  30
ATOM     30  C   UNL A   1      44.261  24.973  25.207  1.00  0.00     0.338 C 
ATOM     31  O   UNL A   1      45.360  25.268  24.764  1.00  0.00    -0.246 OA
BRANCH  30  32
ATOM     32  C   UNL A   1      43.551  25.736  26.259  1.00  0.00     0.060 A 
ATOM     33  C   UNL A   1      43.941  27.057  26.528  1.00  0.00     0.016 A 
ATOM     34  C   UNL A   1      42.494  25.160  26.964  1.00  0.00     0.016 A 
ATOM     35  C   UNL A   1      43.290  27.798  27.517  1.00  0.00     0.010 A 
ATOM     36  C   UNL A   1      41.862  25.891  27.975  1.00  0.00     0.010 A 
ATOM     37  C   UNL A   1      42.277  27.202  28.278  1.00  0.00    -0.014 A 
BRANCH  37  38
ATOM     38  C   UNL A   1      41.791  27.859  29.516  1.00  0.00     0.031 A 
ATOM     39  C   UNL A   1      40.556  28.712  29.429  1.00  0.00     0.074 A 
ATOM     40  C   UNL A   1      42.423  27.711  30.693  1.00  0.00     0.049 A 
ATOM     41  N   UNL A   1      39.993  29.463  30.341  1.00  0.00    -0.248 NA
ATOM     42  C   UNL A   1      39.865  28.722  28.130  1.00  0.00     0.031 C 
ATOM     43  C   UNL A   1      43.598  26.875  30.927  1.00  0.00     0.029 A 
ATOM     44  N   UNL A   1      42.166  28.283  31.916  1.00  0.00    -0.354 N 
ATOM     45  C   UNL A   1      38.894  30.045  29.721  1.00  0.00     0.074 A 
ATOM     46  C   UNL A   1      38.886  29.584  28.351  1.00  0.00     0.031 C 
ATOM     47  C   UNL A   1      43.974  27.005  32.211  1.00  0.00     0.029 A 
ATOM     48  C   UNL A   1      43.091  27.961  32.878  1.00  0.00     0.049 A 
ATOM     49  H   UNL A   1      41.392  28.867  32.086  1.00  0.00     0.167 HD
ATOM     50  C   UNL A   1      37.973  30.887  30.248  1.00  0.00     0.037 A 
ATOM     51  C   UNL A   1      43.225  28.410  34.142  1.00  0.00     0.037 A 
ATOM     52  C   UNL A   1      37.987  31.350  31.610  1.00  0.00     0.049 A 
ATOM     53  C   UNL A   1      42.237  29.413  34.683  1.00  0.00     0.074 A 
ATOM     54  C   UNL A   1      37.087  32.190  32.244  1.00  0.00     0.029 A 
ATOM     55  N   UNL A   1      38.957  31.024  32.547  1.00  0.00    -0.354 N 
ATOM     56  N   UNL A   1      41.188  29.944  34.100  1.00  0.00    -0.248 NA
ATOM     57  C   UNL A   1      42.451  29.879  36.062  1.00  0.00     0.031 C 
ATOM     58  C   UNL A   1      37.546  32.421  33.544  1.00  0.00     0.029 A 
ATOM     59  C   UNL A   1      38.694  31.670  33.743  1.00  0.00     0.049 A 
ATOM     60  H   UNL A   1      39.718  30.422  32.384  1.00  0.00     0.167 HD
ATOM     61  C   UNL A   1      40.603  30.777  35.048  1.00  0.00     0.074 A 
ATOM     62  C   UNL A   1      41.406  30.672  36.248  1.00  0.00     0.031 C 
ATOM     63  C   UNL A   1      39.497  31.554  34.936  1.00  0.00     0.037 A 
BRANCH  50  64
ATOM     64  C   UNL A   1      36.896  31.389  29.331  1.00  0.00     0.057 A 
ATOM     65  C   UNL A   1      35.806  30.592  28.953  1.00  0.00     0.134 A 
ATOM     66  C   UNL A   1      36.942  32.696  28.831  1.00  0.00     0.134 A 
ATOM     67  F   UNL A   1      35.709  29.324  29.383  1.00  0.00    -0.206 F 
ATOM     68  C   UNL A   1      34.820  31.067  28.088  1.00  0.00     0.040 A 
ATOM     69  C   UNL A   1      35.944  33.193  27.990  1.00  0.00     0.040 A 
ATOM     70  F   UNL A   1      37.954  33.515  29.155  1.00  0.00    -0.206 F 
ATOM     71  C   UNL A   1      34.884  32.374  27.609  1.00  0.00     0.006 A 
ENDBRANCH  50  64
BRANCH  51  72
ATOM     72  C   UNL A   1      44.351  27.935  34.986  1.00  0.00     0.057 A 
ATOM     73  C   UNL A   1      45.554  28.648  35.061  1.00  0.00     0.134 A 
ATOM     74  C   UNL A   1      44.264  26.744  35.718  1.00  0.00     0.134 A 
ATOM     75  F   UNL A   1      45.711  29.781  34.360  1.00  0.00    -0.206 F 
ATOM     76  C   UNL A   1      46.633  28.187  35.818  1.00  0.00     0.040 A 
ATOM     77  C   UNL A   1      45.324  26.286  36.502  1.00  0.00     0.040 A 
ATOM     78  F   UNL A   1      43.141  26.011  35.686  1.00  0.00    -0.206 F 
ATOM     79  C   UNL A   1      46.517  27.006  36.547  1.00  0.00     0.006 A 
ENDBRANCH  51  72
BRANCH  63  80
ATOM     80  C   UNL A   1      39.056  32.318  36.154  1.00  0.00     0.057 A 
ATOM     81  C   UNL A   1      39.453  33.641  36.389  1.00  0.00     0.134 A 
ATOM     82  C   UNL A   1      38.182  31.733  37.082  1.00  0.00     0.134 A 
ATOM     83  F   UNL A   1      40.296  34.258  35.546  1.00  0.00    -0.206 F 
ATOM     84  C   UNL A   1      39.020  34.344  37.514  1.00  0.00     0.040 A 
ATOM     85  C   UNL A   1      37.717  32.438  38.193  1.00  0.00     0.040 A 
ATOM     86  F   UNL A   1      37.751  30.475  36.911  1.00  0.00    -0.206 F 
ATOM     87  C   UNL A   1      38.142  33.745  38.417  1.00  0.00     0.006 A 
ENDBRANCH  63  80
ENDBRANCH  37  38
ENDBRANCH  30  32
ENDBRANCH  29  30
ENDBRANCH  28  29
ENDBRANCH  27  28
ENDBRANCH  26  27
ENDBRANCH  25  26
ENDBRANCH   1  25
TORSDOF 19
ENDMDL
