MODEL 1
REMARK VINA RESULT:     -11.0      0.000      0.000
REMARK SMILES COc1cccc(C(=O)N[C@H]2C=C[C@@H](C(=O)OCCOCCOCCOC(=O)c3ccc(-c4c5nc(c(-c6c(F)cccc6F)c6ccc([nH]6)c(-c6c(F)cccc6F)c6nc(c(-c7c(F)cccc7F)c7ccc4[nH]7)C=C6)C=C5)cc3)C2)c1
REMARK SMILES IDX 21 1 20 2 19 3 18 4 17 5 15 6 16 7 14 8 11 9 12 10 83 11
REMARK SMILES IDX 13 12 10 13 8 14 9 15 7 17 3 18 4 19 84 20 5 21 6 22 2 23
REMARK SMILES IDX 1 24 22 25 23 26 24 27 25 28 26 29 27 30 28 31 29 32 30 33
REMARK SMILES IDX 82 34 31 35 81 36 32 37 33 38 34 39 75 40 35 41 80 42 74 43
REMARK SMILES IDX 76 44 36 45 79 46 73 47 72 48 37 50 63 51 46 52 62 53 47 54
REMARK SMILES IDX 50 55 61 56 77 57 48 58 49 59 60 61 78 62 51 63 38 64 39 65
REMARK SMILES IDX 44 66 40 67 41 68 43 69 45 70 42 71 64 72 65 73 70 74 66 75
REMARK SMILES IDX 67 76 69 77 71 78 68 79 52 80 53 81 58 82 54 83 55 84 57 85
REMARK SMILES IDX 59 86 56 87
REMARK H PARENT 10 16 76 49 50 60
REMARK Flexibility Score: inf
ROOT
ATOM      1  C   UNL A   1      33.043  36.716  31.530  1.00  0.00     0.188 C 
ENDROOT
BRANCH   1   2
ATOM      2  O   UNL A   1      32.915  37.045  30.152  1.00  0.00    -0.376 OA
BRANCH   2   3
ATOM      3  C   UNL A   1      33.504  36.187  29.179  1.00  0.00     0.202 C 
BRANCH   3   4
ATOM      4  C   UNL A   1      33.180  34.683  29.215  1.00  0.00     0.261 C 
BRANCH   4   5
ATOM      5  O   UNL A   1      33.620  33.918  28.070  1.00  0.00    -0.463 OA
BRANCH   5   6
ATOM      6  C   UNL A   1      32.715  33.060  27.532  1.00  0.00     0.312 C 
ATOM      7  O   UNL A   1      31.715  33.415  26.915  1.00  0.00    -0.252 OA
BRANCH   6   8
ATOM      8  C   UNL A   1      33.025  31.574  27.743  1.00  0.00     0.124 C 
ATOM      9  C   UNL A   1      33.810  29.481  26.737  1.00  0.00     0.106 C 
ATOM     10  C   UNL A   1      34.942  30.270  27.298  1.00  0.00    -0.006 C 
ATOM     11  C   UNL A   1      32.706  30.544  26.658  1.00  0.00     0.048 C 
ATOM     12  C   UNL A   1      34.509  31.389  27.895  1.00  0.00    -0.014 C 
BRANCH   9  13
ATOM     13  N   UNL A   1      34.113  28.968  25.424  1.00  0.00    -0.346 N 
ATOM     14  C   UNL A   1      33.479  28.043  24.629  1.00  0.00     0.251 C 
ATOM     15  O   UNL A   1      33.911  27.879  23.487  1.00  0.00    -0.269 OA
ATOM     16  H   UNL A   1      34.926  29.351  25.022  1.00  0.00     0.164 HD
BRANCH  14  17
ATOM     17  C   UNL A   1      32.359  27.178  25.101  1.00  0.00     0.043 A 
ATOM     18  C   UNL A   1      31.411  25.349  26.388  1.00  0.00     0.119 A 
ATOM     19  C   UNL A   1      30.193  25.517  25.727  1.00  0.00     0.046 A 
ATOM     20  C   UNL A   1      32.471  26.218  26.113  1.00  0.00     0.060 A 
ATOM     21  C   UNL A   1      30.032  26.539  24.796  1.00  0.00     0.005 A 
ATOM     22  C   UNL A   1      31.114  27.359  24.476  1.00  0.00     0.014 A 
BRANCH  18  23
ATOM     23  O   UNL A   1      31.442  24.300  27.265  1.00  0.00    -0.497 OA
ATOM     24  C   UNL A   1      31.403  22.988  26.721  1.00  0.00     0.278 C 
ENDBRANCH  18  23
ENDBRANCH  14  17
ENDBRANCH   9  13
ENDBRANCH   6   8
ENDBRANCH   5   6
ENDBRANCH   4   5
ENDBRANCH   3   4
ENDBRANCH   2   3
ENDBRANCH   1   2
BRANCH   1  25
ATOM     25  C   UNL A   1      34.197  35.805  31.982  1.00  0.00     0.188 C 
BRANCH  25  26
ATOM     26  O   UNL A   1      34.703  36.086  33.264  1.00  0.00    -0.376 OA
BRANCH  26  27
ATOM     27  C   UNL A   1      35.023  34.992  34.104  1.00  0.00     0.202 C 
BRANCH  27  28
ATOM     28  C   UNL A   1      36.220  34.090  33.751  1.00  0.00     0.261 C 
BRANCH  28  29
ATOM     29  O   UNL A   1      35.983  32.671  33.707  1.00  0.00    -0.460 OA
BRANCH  29  30
ATOM     30  C   UNL A   1      35.480  32.159  32.564  1.00  0.00     0.338 C 
ATOM     31  O   UNL A   1      34.387  32.402  32.066  1.00  0.00    -0.246 OA
BRANCH  30  32
ATOM     32  C   UNL A   1      36.563  31.421  31.876  1.00  0.00     0.060 A 
ATOM     33  C   UNL A   1      37.474  30.678  32.640  1.00  0.00     0.016 A 
ATOM     34  C   UNL A   1      36.677  31.458  30.485  1.00  0.00     0.016 A 
ATOM     35  C   UNL A   1      38.516  29.986  32.015  1.00  0.00     0.010 A 
ATOM     36  C   UNL A   1      37.735  30.787  29.863  1.00  0.00     0.010 A 
ATOM     37  C   UNL A   1      38.676  30.070  30.625  1.00  0.00    -0.014 A 
BRANCH  37  38
ATOM     38  C   UNL A   1      39.922  29.572  29.989  1.00  0.00     0.031 A 
ATOM     39  C   UNL A   1      41.071  30.530  29.820  1.00  0.00     0.074 A 
ATOM     40  C   UNL A   1      40.044  28.298  29.575  1.00  0.00     0.049 A 
ATOM     41  N   UNL A   1      42.223  30.353  29.227  1.00  0.00    -0.248 NA
ATOM     42  C   UNL A   1      40.891  31.872  30.399  1.00  0.00     0.031 C 
ATOM     43  C   UNL A   1      39.029  27.259  29.720  1.00  0.00     0.029 A 
ATOM     44  N   UNL A   1      41.082  27.668  28.933  1.00  0.00    -0.354 N 
ATOM     45  C   UNL A   1      42.901  31.559  29.355  1.00  0.00     0.074 A 
ATOM     46  C   UNL A   1      42.021  32.470  30.053  1.00  0.00     0.031 C 
ATOM     47  C   UNL A   1      39.488  26.121  29.166  1.00  0.00     0.029 A 
ATOM     48  C   UNL A   1      40.813  26.364  28.596  1.00  0.00     0.049 A 
ATOM     49  H   UNL A   1      41.939  28.110  28.733  1.00  0.00     0.167 HD
ATOM     50  C   UNL A   1      44.148  31.879  28.935  1.00  0.00     0.037 A 
ATOM     51  C   UNL A   1      41.540  25.480  27.885  1.00  0.00     0.037 A 
ATOM     52  C   UNL A   1      45.024  30.977  28.234  1.00  0.00     0.049 A 
ATOM     53  C   UNL A   1      42.890  25.890  27.348  1.00  0.00     0.074 A 
ATOM     54  C   UNL A   1      46.308  31.208  27.772  1.00  0.00     0.029 A 
ATOM     55  N   UNL A   1      44.701  29.675  27.885  1.00  0.00    -0.354 N 
ATOM     56  N   UNL A   1      43.531  27.025  27.491  1.00  0.00    -0.248 NA
ATOM     57  C   UNL A   1      43.619  24.890  26.551  1.00  0.00     0.031 C 
ATOM     58  C   UNL A   1      46.742  30.062  27.097  1.00  0.00     0.029 A 
ATOM     59  C   UNL A   1      45.753  29.098  27.193  1.00  0.00     0.049 A 
ATOM     60  H   UNL A   1      43.850  29.227  28.097  1.00  0.00     0.167 HD
ATOM     61  C   UNL A   1      44.747  26.863  26.836  1.00  0.00     0.074 A 
ATOM     62  C   UNL A   1      44.761  25.515  26.308  1.00  0.00     0.031 C 
ATOM     63  C   UNL A   1      45.763  27.748  26.687  1.00  0.00     0.037 A 
BRANCH  50  64
ATOM     64  C   UNL A   1      44.634  33.274  29.203  1.00  0.00     0.057 A 
ATOM     65  C   UNL A   1      44.372  34.332  28.321  1.00  0.00     0.134 A 
ATOM     66  C   UNL A   1      45.338  33.571  30.377  1.00  0.00     0.134 A 
ATOM     67  F   UNL A   1      43.716  34.112  27.171  1.00  0.00    -0.206 F 
ATOM     68  C   UNL A   1      44.809  35.630  28.588  1.00  0.00     0.040 A 
ATOM     69  C   UNL A   1      45.755  34.871  30.668  1.00  0.00     0.040 A 
ATOM     70  F   UNL A   1      45.620  32.607  31.265  1.00  0.00    -0.206 F 
ATOM     71  C   UNL A   1      45.495  35.904  29.770  1.00  0.00     0.006 A 
ENDBRANCH  50  64
BRANCH  51  72
ATOM     72  C   UNL A   1      41.012  24.117  27.608  1.00  0.00     0.057 A 
ATOM     73  C   UNL A   1      41.512  22.994  28.279  1.00  0.00     0.134 A 
ATOM     74  C   UNL A   1      40.036  23.898  26.628  1.00  0.00     0.134 A 
ATOM     75  F   UNL A   1      42.467  23.134  29.209  1.00  0.00    -0.206 F 
ATOM     76  C   UNL A   1      41.082  21.703  27.967  1.00  0.00     0.040 A 
ATOM     77  C   UNL A   1      39.574  22.615  26.328  1.00  0.00     0.040 A 
ATOM     78  F   UNL A   1      39.517  24.930  25.945  1.00  0.00    -0.206 F 
ATOM     79  C   UNL A   1      40.107  21.512  26.991  1.00  0.00     0.006 A 
ENDBRANCH  51  72
BRANCH  63  80
ATOM     80  C   UNL A   1      46.999  27.276  25.973  1.00  0.00     0.057 A 
ATOM     81  C   UNL A   1      47.205  27.505  24.607  1.00  0.00     0.134 A 
ATOM     82  C   UNL A   1      48.015  26.615  26.677  1.00  0.00     0.134 A 
ATOM     83  F   UNL A   1      46.269  28.123  23.872  1.00  0.00    -0.206 F 
ATOM     84  C   UNL A   1      48.364  27.068  23.961  1.00  0.00     0.040 A 
ATOM     85  C   UNL A   1      49.191  26.202  26.049  1.00  0.00     0.040 A 
ATOM     86  F   UNL A   1      47.889  26.374  27.990  1.00  0.00    -0.206 F 
ATOM     87  C   UNL A   1      49.364  26.421  24.685  1.00  0.00     0.006 A 
ENDBRANCH  63  80
ENDBRANCH  37  38
ENDBRANCH  30  32
ENDBRANCH  29  30
ENDBRANCH  28  29
ENDBRANCH  27  28
ENDBRANCH  26  27
ENDBRANCH  25  26
ENDBRANCH   1  25
TORSDOF 20
ENDMDL
MODEL 2
REMARK VINA RESULT:     -10.3      3.552      9.025
REMARK SMILES COc1cccc(C(=O)N[C@H]2C=C[C@@H](C(=O)OCCOCCOCCOC(=O)c3ccc(-c4c5nc(c(-c6c(F)cccc6F)c6ccc([nH]6)c(-c6c(F)cccc6F)c6nc(c(-c7c(F)cccc7F)c7ccc4[nH]7)C=C6)C=C5)cc3)C2)c1
REMARK SMILES IDX 21 1 20 2 19 3 18 4 17 5 15 6 16 7 14 8 11 9 12 10 83 11
REMARK SMILES IDX 13 12 10 13 8 14 9 15 7 17 3 18 4 19 84 20 5 21 6 22 2 23
REMARK SMILES IDX 1 24 22 25 23 26 24 27 25 28 26 29 27 30 28 31 29 32 30 33
REMARK SMILES IDX 82 34 31 35 81 36 32 37 33 38 34 39 75 40 35 41 80 42 74 43
REMARK SMILES IDX 76 44 36 45 79 46 73 47 72 48 37 50 63 51 46 52 62 53 47 54
REMARK SMILES IDX 50 55 61 56 77 57 48 58 49 59 60 61 78 62 51 63 38 64 39 65
REMARK SMILES IDX 44 66 40 67 41 68 43 69 45 70 42 71 64 72 65 73 70 74 66 75
REMARK SMILES IDX 67 76 69 77 71 78 68 79 52 80 53 81 58 82 54 83 55 84 57 85
REMARK SMILES IDX 59 86 56 87
REMARK H PARENT 10 16 76 49 50 60
REMARK Flexibility Score: inf
ROOT
ATOM      1  C   UNL A   1      36.638  22.592  23.449  1.00  0.00     0.188 C 
ENDROOT
BRANCH   1   2
ATOM      2  O   UNL A   1      35.502  23.421  23.239  1.00  0.00    -0.376 OA
BRANCH   2   3
ATOM      3  C   UNL A   1      34.204  22.836  23.272  1.00  0.00     0.202 C 
BRANCH   3   4
ATOM      4  C   UNL A   1      33.126  23.354  22.302  1.00  0.00     0.261 C 
BRANCH   4   5
ATOM      5  O   UNL A   1      32.657  24.700  22.544  1.00  0.00    -0.463 OA
BRANCH   5   6
ATOM      6  C   UNL A   1      33.133  25.663  21.713  1.00  0.00     0.312 C 
ATOM      7  O   UNL A   1      32.943  25.679  20.499  1.00  0.00    -0.252 OA
BRANCH   6   8
ATOM      8  C   UNL A   1      33.942  26.769  22.398  1.00  0.00     0.124 C 
ATOM      9  C   UNL A   1      33.890  28.781  23.797  1.00  0.00     0.106 C 
ATOM     10  C   UNL A   1      34.003  27.549  24.626  1.00  0.00    -0.006 C 
ATOM     11  C   UNL A   1      33.419  28.206  22.456  1.00  0.00     0.048 C 
ATOM     12  C   UNL A   1      34.086  26.452  23.861  1.00  0.00    -0.014 C 
BRANCH   9  13
ATOM     13  N   UNL A   1      32.908  29.696  24.327  1.00  0.00    -0.346 N 
ATOM     14  C   UNL A   1      31.692  29.490  24.935  1.00  0.00     0.251 C 
ATOM     15  O   UNL A   1      31.109  30.472  25.394  1.00  0.00    -0.269 OA
ATOM     16  H   UNL A   1      33.156  30.644  24.237  1.00  0.00     0.164 HD
BRANCH  14  17
ATOM     17  C   UNL A   1      31.012  28.163  24.992  1.00  0.00     0.043 A 
ATOM     18  C   UNL A   1      30.564  25.985  25.970  1.00  0.00     0.119 A 
ATOM     19  C   UNL A   1      29.812  25.637  24.845  1.00  0.00     0.046 A 
ATOM     20  C   UNL A   1      31.112  27.268  26.064  1.00  0.00     0.060 A 
ATOM     21  C   UNL A   1      29.611  26.557  23.820  1.00  0.00     0.005 A 
ATOM     22  C   UNL A   1      30.218  27.811  23.889  1.00  0.00     0.014 A 
BRANCH  18  23
ATOM     23  O   UNL A   1      30.697  24.986  26.895  1.00  0.00    -0.497 OA
ATOM     24  C   UNL A   1      30.549  23.648  26.441  1.00  0.00     0.278 C 
ENDBRANCH  18  23
ENDBRANCH  14  17
ENDBRANCH   9  13
ENDBRANCH   6   8
ENDBRANCH   5   6
ENDBRANCH   4   5
ENDBRANCH   3   4
ENDBRANCH   2   3
ENDBRANCH   1   2
BRANCH   1  25
ATOM     25  C   UNL A   1      37.205  22.439  24.871  1.00  0.00     0.188 C 
BRANCH  25  26
ATOM     26  O   UNL A   1      37.549  21.123  25.231  1.00  0.00    -0.376 OA
BRANCH  26  27
ATOM     27  C   UNL A   1      38.842  20.898  25.763  1.00  0.00     0.202 C 
BRANCH  27  28
ATOM     28  C   UNL A   1      39.603  19.613  25.387  1.00  0.00     0.261 C 
BRANCH  28  29
ATOM     29  O   UNL A   1      40.704  19.232  26.231  1.00  0.00    -0.460 OA
BRANCH  29  30
ATOM     30  C   UNL A   1      41.928  19.703  25.910  1.00  0.00     0.338 C 
ATOM     31  O   UNL A   1      42.728  19.204  25.128  1.00  0.00    -0.246 OA
BRANCH  30  32
ATOM     32  C   UNL A   1      42.063  21.059  26.486  1.00  0.00     0.060 A 
ATOM     33  C   UNL A   1      42.392  22.130  25.642  1.00  0.00     0.016 A 
ATOM     34  C   UNL A   1      41.861  21.277  27.851  1.00  0.00     0.016 A 
ATOM     35  C   UNL A   1      42.542  23.418  26.164  1.00  0.00     0.010 A 
ATOM     36  C   UNL A   1      42.036  22.561  28.377  1.00  0.00     0.010 A 
ATOM     37  C   UNL A   1      42.404  23.633  27.543  1.00  0.00    -0.014 A 
BRANCH  37  38
ATOM     38  C   UNL A   1      42.826  24.926  28.139  1.00  0.00     0.031 A 
ATOM     39  C   UNL A   1      41.779  25.984  28.366  1.00  0.00     0.074 A 
ATOM     40  C   UNL A   1      44.105  25.162  28.483  1.00  0.00     0.049 A 
ATOM     41  N   UNL A   1      41.914  27.211  28.797  1.00  0.00    -0.248 NA
ATOM     42  C   UNL A   1      40.389  25.600  28.064  1.00  0.00     0.031 C 
ATOM     43  C   UNL A   1      45.205  24.212  28.360  1.00  0.00     0.029 A 
ATOM     44  N   UNL A   1      44.691  26.293  28.998  1.00  0.00    -0.354 N 
ATOM     45  C   UNL A   1      40.633  27.749  28.810  1.00  0.00     0.074 A 
ATOM     46  C   UNL A   1      39.737  26.726  28.315  1.00  0.00     0.031 C 
ATOM     47  C   UNL A   1      46.341  24.804  28.773  1.00  0.00     0.029 A 
ATOM     48  C   UNL A   1      46.051  26.186  29.153  1.00  0.00     0.049 A 
ATOM     49  H   UNL A   1      44.184  27.104  29.234  1.00  0.00     0.167 HD
ATOM     50  C   UNL A   1      40.235  28.981  29.205  1.00  0.00     0.037 A 
ATOM     51  C   UNL A   1      46.961  27.108  29.530  1.00  0.00     0.037 A 
ATOM     52  C   UNL A   1      41.123  30.003  29.691  1.00  0.00     0.049 A 
ATOM     53  C   UNL A   1      46.503  28.504  29.878  1.00  0.00     0.074 A 
ATOM     54  C   UNL A   1      40.814  31.282  30.121  1.00  0.00     0.029 A 
ATOM     55  N   UNL A   1      42.498  29.866  29.803  1.00  0.00    -0.354 N 
ATOM     56  N   UNL A   1      45.287  28.996  29.906  1.00  0.00    -0.248 NA
ATOM     57  C   UNL A   1      47.547  29.471  30.250  1.00  0.00     0.031 C 
ATOM     58  C   UNL A   1      42.007  31.936  30.443  1.00  0.00     0.029 A 
ATOM     59  C   UNL A   1      43.053  31.045  30.273  1.00  0.00     0.049 A 
ATOM     60  H   UNL A   1      43.005  29.051  29.582  1.00  0.00     0.167 HD
ATOM     61  C   UNL A   1      45.419  30.314  30.332  1.00  0.00     0.074 A 
ATOM     62  C   UNL A   1      46.830  30.540  30.564  1.00  0.00     0.031 C 
ATOM     63  C   UNL A   1      44.458  31.253  30.517  1.00  0.00     0.037 A 
BRANCH  50  64
ATOM     64  C   UNL A   1      38.771  29.302  29.106  1.00  0.00     0.057 A 
ATOM     65  C   UNL A   1      38.173  29.661  27.890  1.00  0.00     0.134 A 
ATOM     66  C   UNL A   1      37.944  29.213  30.232  1.00  0.00     0.134 A 
ATOM     67  F   UNL A   1      38.912  29.779  26.777  1.00  0.00    -0.206 F 
ATOM     68  C   UNL A   1      36.807  29.937  27.803  1.00  0.00     0.040 A 
ATOM     69  C   UNL A   1      36.572  29.460  30.152  1.00  0.00     0.040 A 
ATOM     70  F   UNL A   1      38.451  28.873  31.426  1.00  0.00    -0.206 F 
ATOM     71  C   UNL A   1      36.001  29.828  28.935  1.00  0.00     0.006 A 
ENDBRANCH  50  64
BRANCH  51  72
ATOM     72  C   UNL A   1      48.407  26.765  29.583  1.00  0.00     0.057 A 
ATOM     73  C   UNL A   1      48.997  26.281  30.757  1.00  0.00     0.134 A 
ATOM     74  C   UNL A   1      49.245  26.964  28.479  1.00  0.00     0.134 A 
ATOM     75  F   UNL A   1      48.254  26.094  31.858  1.00  0.00    -0.206 F 
ATOM     76  C   UNL A   1      50.368  26.035  30.841  1.00  0.00     0.040 A 
ATOM     77  C   UNL A   1      50.613  26.692  28.539  1.00  0.00     0.040 A 
ATOM     78  F   UNL A   1      48.745  27.428  27.323  1.00  0.00    -0.206 F 
ATOM     79  C   UNL A   1      51.180  26.238  29.727  1.00  0.00     0.006 A 
ENDBRANCH  51  72
BRANCH  63  80
ATOM     80  C   UNL A   1      44.888  32.592  31.047  1.00  0.00     0.057 A 
ATOM     81  C   UNL A   1      45.220  33.658  30.200  1.00  0.00     0.134 A 
ATOM     82  C   UNL A   1      44.931  32.829  32.428  1.00  0.00     0.134 A 
ATOM     83  F   UNL A   1      45.209  33.498  28.869  1.00  0.00    -0.206 F 
ATOM     84  C   UNL A   1      45.607  34.900  30.709  1.00  0.00     0.040 A 
ATOM     85  C   UNL A   1      45.285  34.074  32.947  1.00  0.00     0.040 A 
ATOM     86  F   UNL A   1      44.613  31.857  33.296  1.00  0.00    -0.206 F 
ATOM     87  C   UNL A   1      45.633  35.113  32.086  1.00  0.00     0.006 A 
ENDBRANCH  63  80
ENDBRANCH  37  38
ENDBRANCH  30  32
ENDBRANCH  29  30
ENDBRANCH  28  29
ENDBRANCH  27  28
ENDBRANCH  26  27
ENDBRANCH  25  26
ENDBRANCH   1  25
TORSDOF 20
ENDMDL
MODEL 3
REMARK VINA RESULT:     -10.1      3.238      9.005
REMARK SMILES COc1cccc(C(=O)N[C@H]2C=C[C@@H](C(=O)OCCOCCOCCOC(=O)c3ccc(-c4c5nc(c(-c6c(F)cccc6F)c6ccc([nH]6)c(-c6c(F)cccc6F)c6nc(c(-c7c(F)cccc7F)c7ccc4[nH]7)C=C6)C=C5)cc3)C2)c1
REMARK SMILES IDX 21 1 20 2 19 3 18 4 17 5 15 6 16 7 14 8 11 9 12 10 83 11
REMARK SMILES IDX 13 12 10 13 8 14 9 15 7 17 3 18 4 19 84 20 5 21 6 22 2 23
REMARK SMILES IDX 1 24 22 25 23 26 24 27 25 28 26 29 27 30 28 31 29 32 30 33
REMARK SMILES IDX 82 34 31 35 81 36 32 37 33 38 34 39 75 40 35 41 80 42 74 43
REMARK SMILES IDX 76 44 36 45 79 46 73 47 72 48 37 50 63 51 46 52 62 53 47 54
REMARK SMILES IDX 50 55 61 56 77 57 48 58 49 59 60 61 78 62 51 63 38 64 39 65
REMARK SMILES IDX 44 66 40 67 41 68 43 69 45 70 42 71 64 72 65 73 70 74 66 75
REMARK SMILES IDX 67 76 69 77 71 78 68 79 52 80 53 81 58 82 54 83 55 84 57 85
REMARK SMILES IDX 59 86 56 87
REMARK H PARENT 10 16 76 49 50 60
REMARK Flexibility Score: inf
ROOT
ATOM      1  C   UNL A   1      35.435  22.519  24.429  1.00  0.00     0.188 C 
ENDROOT
BRANCH   1   2
ATOM      2  O   UNL A   1      34.719  21.542  25.174  1.00  0.00    -0.376 OA
BRANCH   2   3
ATOM      3  C   UNL A   1      34.775  21.581  26.597  1.00  0.00     0.202 C 
BRANCH   3   4
ATOM      4  C   UNL A   1      33.612  22.224  27.374  1.00  0.00     0.261 C 
BRANCH   4   5
ATOM      5  O   UNL A   1      32.993  23.369  26.744  1.00  0.00    -0.463 OA
BRANCH   5   6
ATOM      6  C   UNL A   1      31.638  23.357  26.667  1.00  0.00     0.312 C 
ATOM      7  O   UNL A   1      30.897  23.149  27.625  1.00  0.00    -0.252 OA
BRANCH   6   8
ATOM      8  C   UNL A   1      31.065  23.631  25.273  1.00  0.00     0.124 C 
ATOM      9  C   UNL A   1      31.502  24.431  22.998  1.00  0.00     0.106 C 
ATOM     10  C   UNL A   1      31.749  22.967  23.113  1.00  0.00    -0.006 C 
ATOM     11  C   UNL A   1      31.501  24.859  24.471  1.00  0.00     0.048 C 
ATOM     12  C   UNL A   1      31.459  22.518  24.342  1.00  0.00    -0.014 C 
BRANCH   9  13
ATOM     13  N   UNL A   1      32.559  25.098  22.278  1.00  0.00    -0.346 N 
ATOM     14  C   UNL A   1      32.992  26.403  22.279  1.00  0.00     0.251 C 
ATOM     15  O   UNL A   1      34.007  26.669  21.634  1.00  0.00    -0.269 OA
ATOM     16  H   UNL A   1      33.065  24.508  21.673  1.00  0.00     0.164 HD
BRANCH  14  17
ATOM     17  C   UNL A   1      32.256  27.517  22.946  1.00  0.00     0.043 A 
ATOM     18  C   UNL A   1      31.943  29.192  24.676  1.00  0.00     0.119 A 
ATOM     19  C   UNL A   1      30.658  29.449  24.192  1.00  0.00     0.046 A 
ATOM     20  C   UNL A   1      32.758  28.268  24.015  1.00  0.00     0.060 A 
ATOM     21  C   UNL A   1      30.186  28.788  23.061  1.00  0.00     0.005 A 
ATOM     22  C   UNL A   1      30.979  27.818  22.448  1.00  0.00     0.014 A 
BRANCH  18  23
ATOM     23  O   UNL A   1      32.278  29.896  25.800  1.00  0.00    -0.497 OA
ATOM     24  C   UNL A   1      31.801  29.407  27.047  1.00  0.00     0.278 C 
ENDBRANCH  18  23
ENDBRANCH  14  17
ENDBRANCH   9  13
ENDBRANCH   6   8
ENDBRANCH   5   6
ENDBRANCH   4   5
ENDBRANCH   3   4
ENDBRANCH   2   3
ENDBRANCH   1   2
BRANCH   1  25
ATOM     25  C   UNL A   1      36.919  22.278  24.102  1.00  0.00     0.188 C 
BRANCH  25  26
ATOM     26  O   UNL A   1      37.384  20.982  24.395  1.00  0.00    -0.376 OA
BRANCH  26  27
ATOM     27  C   UNL A   1      38.392  20.848  25.380  1.00  0.00     0.202 C 
BRANCH  27  28
ATOM     28  C   UNL A   1      39.274  19.585  25.395  1.00  0.00     0.261 C 
BRANCH  28  29
ATOM     29  O   UNL A   1      40.167  19.421  26.512  1.00  0.00    -0.460 OA
BRANCH  29  30
ATOM     30  C   UNL A   1      41.492  19.429  26.256  1.00  0.00     0.338 C 
ATOM     31  O   UNL A   1      42.150  18.528  25.751  1.00  0.00    -0.246 OA
BRANCH  30  32
ATOM     32  C   UNL A   1      41.993  20.804  26.474  1.00  0.00     0.060 A 
ATOM     33  C   UNL A   1      42.222  21.248  27.784  1.00  0.00     0.016 A 
ATOM     34  C   UNL A   1      42.240  21.652  25.391  1.00  0.00     0.016 A 
ATOM     35  C   UNL A   1      42.679  22.548  28.017  1.00  0.00     0.010 A 
ATOM     36  C   UNL A   1      42.672  22.961  25.627  1.00  0.00     0.010 A 
ATOM     37  C   UNL A   1      42.868  23.426  26.941  1.00  0.00    -0.014 A 
BRANCH  37  38
ATOM     38  C   UNL A   1      43.085  24.874  27.191  1.00  0.00     0.031 A 
ATOM     39  C   UNL A   1      44.435  25.459  26.874  1.00  0.00     0.074 A 
ATOM     40  C   UNL A   1      42.109  25.661  27.679  1.00  0.00     0.049 A 
ATOM     41  N   UNL A   1      44.887  26.669  27.078  1.00  0.00    -0.248 NA
ATOM     42  C   UNL A   1      45.407  24.551  26.241  1.00  0.00     0.031 C 
ATOM     43  C   UNL A   1      40.748  25.233  27.984  1.00  0.00     0.029 A 
ATOM     44  N   UNL A   1      42.128  26.993  28.016  1.00  0.00    -0.354 N 
ATOM     45  C   UNL A   1      46.195  26.667  26.608  1.00  0.00     0.074 A 
ATOM     46  C   UNL A   1      46.475  25.328  26.136  1.00  0.00     0.031 C 
ATOM     47  C   UNL A   1      40.063  26.280  28.480  1.00  0.00     0.029 A 
ATOM     48  C   UNL A   1      40.950  27.440  28.561  1.00  0.00     0.049 A 
ATOM     49  H   UNL A   1      42.913  27.572  27.879  1.00  0.00     0.167 HD
ATOM     50  C   UNL A   1      47.082  27.689  26.565  1.00  0.00     0.037 A 
ATOM     51  C   UNL A   1      40.635  28.639  29.091  1.00  0.00     0.037 A 
ATOM     52  C   UNL A   1      46.809  29.020  27.039  1.00  0.00     0.049 A 
ATOM     53  C   UNL A   1      41.671  29.736  29.116  1.00  0.00     0.074 A 
ATOM     54  C   UNL A   1      47.643  30.125  27.033  1.00  0.00     0.029 A 
ATOM     55  N   UNL A   1      45.614  29.423  27.614  1.00  0.00    -0.354 N 
ATOM     56  N   UNL A   1      42.898  29.730  28.651  1.00  0.00    -0.248 NA
ATOM     57  C   UNL A   1      41.276  31.009  29.738  1.00  0.00     0.031 C 
ATOM     58  C   UNL A   1      46.970  31.184  27.652  1.00  0.00     0.029 A 
ATOM     59  C   UNL A   1      45.696  30.755  27.986  1.00  0.00     0.049 A 
ATOM     60  H   UNL A   1      44.823  28.850  27.737  1.00  0.00     0.167 HD
ATOM     61  C   UNL A   1      43.404  31.003  28.891  1.00  0.00     0.074 A 
ATOM     62  C   UNL A   1      42.347  31.759  29.530  1.00  0.00     0.031 C 
ATOM     63  C   UNL A   1      44.632  31.504  28.606  1.00  0.00     0.037 A 
BRANCH  50  64
ATOM     64  C   UNL A   1      48.445  27.401  26.004  1.00  0.00     0.057 A 
ATOM     65  C   UNL A   1      48.707  27.457  24.629  1.00  0.00     0.134 A 
ATOM     66  C   UNL A   1      49.517  27.104  26.855  1.00  0.00     0.134 A 
ATOM     67  F   UNL A   1      47.721  27.721  23.758  1.00  0.00    -0.206 F 
ATOM     68  C   UNL A   1      49.982  27.208  24.119  1.00  0.00     0.040 A 
ATOM     69  C   UNL A   1      50.802  26.882  26.359  1.00  0.00     0.040 A 
ATOM     70  F   UNL A   1      49.337  27.037  28.182  1.00  0.00    -0.206 F 
ATOM     71  C   UNL A   1      51.037  26.928  24.986  1.00  0.00     0.006 A 
ENDBRANCH  50  64
BRANCH  51  72
ATOM     72  C   UNL A   1      39.286  28.877  29.671  1.00  0.00     0.057 A 
ATOM     73  C   UNL A   1      38.249  29.415  28.900  1.00  0.00     0.134 A 
ATOM     74  C   UNL A   1      39.017  28.626  31.022  1.00  0.00     0.134 A 
ATOM     75  F   UNL A   1      38.450  29.704  27.605  1.00  0.00    -0.206 F 
ATOM     76  C   UNL A   1      37.005  29.720  29.454  1.00  0.00     0.040 A 
ATOM     77  C   UNL A   1      37.768  28.897  31.583  1.00  0.00     0.040 A 
ATOM     78  F   UNL A   1      39.967  28.114  31.819  1.00  0.00    -0.206 F 
ATOM     79  C   UNL A   1      36.760  29.457  30.801  1.00  0.00     0.006 A 
ENDBRANCH  51  72
BRANCH  63  80
ATOM     80  C   UNL A   1      44.886  32.949  28.929  1.00  0.00     0.057 A 
ATOM     81  C   UNL A   1      45.464  33.353  30.140  1.00  0.00     0.134 A 
ATOM     82  C   UNL A   1      44.581  33.949  27.995  1.00  0.00     0.134 A 
ATOM     83  F   UNL A   1      45.772  32.449  31.082  1.00  0.00    -0.206 F 
ATOM     84  C   UNL A   1      45.703  34.701  30.420  1.00  0.00     0.040 A 
ATOM     85  C   UNL A   1      44.845  35.295  28.251  1.00  0.00     0.040 A 
ATOM     86  F   UNL A   1      44.037  33.633  26.811  1.00  0.00    -0.206 F 
ATOM     87  C   UNL A   1      45.400  35.675  29.471  1.00  0.00     0.006 A 
ENDBRANCH  63  80
ENDBRANCH  37  38
ENDBRANCH  30  32
ENDBRANCH  29  30
ENDBRANCH  28  29
ENDBRANCH  27  28
ENDBRANCH  26  27
ENDBRANCH  25  26
ENDBRANCH   1  25
TORSDOF 20
ENDMDL
