MODEL 1
REMARK VINA RESULT:      -9.3      0.000      0.000
REMARK SMILES COC(=O)CCN(C)C(=O)NCc1ccc(C(=O)OCCOCCOCCOC(=O)c2ccc(-c3c4nc(c(-c5c(F)cccc5F)c5ccc([nH]5)c(-c5c(F)cccc5F)c5nc(c(-c6c(F)cccc6F)c6ccc3[nH]6)C=C5)C=C4)cc2)o1
REMARK SMILES IDX 21 1 20 2 19 3 17 4 18 5 16 6 13 7 14 8 85 9 15 10 12 11
REMARK SMILES IDX 11 12 9 13 10 14 7 16 8 17 6 18 5 19 3 20 4 21 2 22 1 23
REMARK SMILES IDX 22 24 23 25 24 26 25 27 26 28 27 29 28 30 29 31 30 32 31 33
REMARK SMILES IDX 32 34 84 35 33 36 83 37 34 38 35 39 36 40 77 41 37 42 82 43
REMARK SMILES IDX 76 44 78 45 38 46 81 47 75 48 74 49 39 51 65 52 48 53 64 54
REMARK SMILES IDX 49 55 52 56 63 57 79 58 50 59 51 60 62 62 80 63 53 64 40 65
REMARK SMILES IDX 41 66 46 67 42 68 43 69 45 70 47 71 44 72 66 73 67 74 72 75
REMARK SMILES IDX 68 76 69 77 71 78 73 79 70 80 54 81 55 82 60 83 56 84 57 85
REMARK SMILES IDX 59 86 61 87 58 88
REMARK H PARENT 11 15 78 50 52 61
REMARK Flexibility Score: inf
ROOT
ATOM      1  C   UNL A   1      40.772  21.405  27.602  1.00  0.00     0.202 C 
ENDROOT
BRANCH   1   2
ATOM      2  C   UNL A   1      40.330  21.954  26.245  1.00  0.00     0.261 C 
BRANCH   2   3
ATOM      3  O   UNL A   1      38.904  21.884  26.076  1.00  0.00    -0.457 OA
BRANCH   3   4
ATOM      4  C   UNL A   1      38.243  23.078  26.126  1.00  0.00     0.374 C 
ATOM      5  O   UNL A   1      38.631  24.066  26.740  1.00  0.00    -0.242 OA
BRANCH   4   6
ATOM      6  C   UNL A   1      37.100  23.040  25.244  1.00  0.00     0.211 A 
ATOM      7  C   UNL A   1      35.296  23.941  24.337  1.00  0.00     0.124 A 
ATOM      8  C   UNL A   1      35.558  22.794  23.619  1.00  0.00     0.048 A 
ATOM      9  O   UNL A   1      36.192  24.056  25.360  1.00  0.00    -0.452 OA
ATOM     10  C   UNL A   1      36.723  22.220  24.194  1.00  0.00     0.058 A 
BRANCH   7  11
ATOM     11  C   UNL A   1      34.321  25.058  24.200  1.00  0.00     0.193 C 
BRANCH  11  12
ATOM     12  N   UNL A   1      34.005  25.175  22.789  1.00  0.00    -0.331 N 
ATOM     13  C   UNL A   1      32.987  25.603  22.034  1.00  0.00     0.317 C 
ATOM     14  O   UNL A   1      33.260  25.791  20.845  1.00  0.00    -0.249 OA
ATOM     15  H   UNL A   1      34.747  24.847  22.231  1.00  0.00     0.165 HD
BRANCH  13  16
ATOM     16  N   UNL A   1      31.732  25.827  22.527  1.00  0.00    -0.327 N 
ATOM     17  C   UNL A   1      30.860  24.837  23.129  1.00  0.00     0.148 C 
BRANCH  16  18
ATOM     18  C   UNL A   1      31.203  27.200  22.445  1.00  0.00     0.132 C 
BRANCH  18  19
ATOM     19  C   UNL A   1      32.134  28.233  23.065  1.00  0.00     0.144 C 
BRANCH  19  20
ATOM     20  C   UNL A   1      31.424  29.036  24.121  1.00  0.00     0.307 C 
ATOM     21  O   UNL A   1      30.407  29.685  23.918  1.00  0.00    -0.252 OA
BRANCH  20  22
ATOM     22  O   UNL A   1      32.059  28.920  25.320  1.00  0.00    -0.469 OA
ATOM     23  C   UNL A   1      31.942  30.083  26.140  1.00  0.00     0.282 C 
ENDBRANCH  20  22
ENDBRANCH  19  20
ENDBRANCH  18  19
ENDBRANCH  16  18
ENDBRANCH  13  16
ENDBRANCH  11  12
ENDBRANCH   7  11
ENDBRANCH   4   6
ENDBRANCH   3   4
ENDBRANCH   2   3
ENDBRANCH   1   2
BRANCH   1  24
ATOM     24  O   UNL A   1      41.995  20.676  27.626  1.00  0.00    -0.376 OA
BRANCH  24  25
ATOM     25  C   UNL A   1      42.047  19.380  27.038  1.00  0.00     0.188 C 
BRANCH  25  26
ATOM     26  C   UNL A   1      42.763  19.195  25.688  1.00  0.00     0.188 C 
BRANCH  26  27
ATOM     27  O   UNL A   1      44.141  19.536  25.704  1.00  0.00    -0.376 OA
BRANCH  27  28
ATOM     28  C   UNL A   1      44.511  20.659  24.916  1.00  0.00     0.202 C 
BRANCH  28  29
ATOM     29  C   UNL A   1      44.731  21.922  25.753  1.00  0.00     0.261 C 
BRANCH  29  30
ATOM     30  O   UNL A   1      43.658  22.874  25.684  1.00  0.00    -0.460 OA
BRANCH  30  31
ATOM     31  C   UNL A   1      43.996  24.154  25.418  1.00  0.00     0.338 C 
ATOM     32  O   UNL A   1      44.412  24.608  24.369  1.00  0.00    -0.246 OA
BRANCH  31  33
ATOM     33  C   UNL A   1      43.637  24.968  26.593  1.00  0.00     0.060 A 
ATOM     34  C   UNL A   1      42.687  24.475  27.496  1.00  0.00     0.016 A 
ATOM     35  C   UNL A   1      44.234  26.214  26.796  1.00  0.00     0.016 A 
ATOM     36  C   UNL A   1      42.315  25.246  28.597  1.00  0.00     0.010 A 
ATOM     37  C   UNL A   1      43.848  26.991  27.889  1.00  0.00     0.010 A 
ATOM     38  C   UNL A   1      42.868  26.521  28.780  1.00  0.00    -0.014 A 
BRANCH  38  39
ATOM     39  C   UNL A   1      42.325  27.434  29.813  1.00  0.00     0.031 A 
ATOM     40  C   UNL A   1      42.963  27.448  31.172  1.00  0.00     0.074 A 
ATOM     41  C   UNL A   1      41.267  28.222  29.557  1.00  0.00     0.049 A 
ATOM     42  N   UNL A   1      42.629  28.124  32.242  1.00  0.00    -0.248 NA
ATOM     43  C   UNL A   1      44.142  26.584  31.350  1.00  0.00     0.031 C 
ATOM     44  C   UNL A   1      40.579  28.325  28.273  1.00  0.00     0.029 A 
ATOM     45  N   UNL A   1      40.582  29.079  30.380  1.00  0.00    -0.354 N 
ATOM     46  C   UNL A   1      43.550  27.767  33.216  1.00  0.00     0.074 A 
ATOM     47  C   UNL A   1      44.446  26.799  32.621  1.00  0.00     0.031 C 
ATOM     48  C   UNL A   1      39.557  29.188  28.397  1.00  0.00     0.029 A 
ATOM     49  C   UNL A   1      39.506  29.679  29.773  1.00  0.00     0.049 A 
ATOM     50  H   UNL A   1      40.836  29.248  31.316  1.00  0.00     0.167 HD
ATOM     51  C   UNL A   1      43.647  28.213  34.490  1.00  0.00     0.037 A 
ATOM     52  C   UNL A   1      38.579  30.516  30.277  1.00  0.00     0.037 A 
ATOM     53  C   UNL A   1      42.750  29.163  35.090  1.00  0.00     0.049 A 
ATOM     54  C   UNL A   1      38.668  30.943  31.718  1.00  0.00     0.074 A 
ATOM     55  C   UNL A   1      42.777  29.684  36.372  1.00  0.00     0.029 A 
ATOM     56  N   UNL A   1      41.656  29.726  34.451  1.00  0.00    -0.354 N 
ATOM     57  N   UNL A   1      39.557  30.620  32.626  1.00  0.00    -0.248 NA
ATOM     58  C   UNL A   1      37.618  31.852  32.205  1.00  0.00     0.031 C 
ATOM     59  C   UNL A   1      41.677  30.535  36.522  1.00  0.00     0.029 A 
ATOM     60  C   UNL A   1      40.988  30.572  35.320  1.00  0.00     0.049 A 
ATOM     61  H   UNL A   1      41.394  29.550  33.519  1.00  0.00     0.167 HD
ATOM     62  C   UNL A   1      39.195  31.310  33.776  1.00  0.00     0.074 A 
ATOM     63  C   UNL A   1      38.003  32.065  33.456  1.00  0.00     0.031 C 
ATOM     64  C   UNL A   1      39.803  31.321  34.987  1.00  0.00     0.037 A 
BRANCH  51  65
ATOM     65  C   UNL A   1      44.758  27.656  35.324  1.00  0.00     0.057 A 
ATOM     66  C   UNL A   1      46.010  28.280  35.391  1.00  0.00     0.134 A 
ATOM     67  C   UNL A   1      44.570  26.493  36.081  1.00  0.00     0.134 A 
ATOM     68  F   UNL A   1      46.258  29.387  34.674  1.00  0.00    -0.206 F 
ATOM     69  C   UNL A   1      47.044  27.755  36.168  1.00  0.00     0.040 A 
ATOM     70  C   UNL A   1      45.590  25.970  36.877  1.00  0.00     0.040 A 
ATOM     71  F   UNL A   1      43.394  25.849  36.059  1.00  0.00    -0.206 F 
ATOM     72  C   UNL A   1      46.833  26.600  36.917  1.00  0.00     0.006 A 
ENDBRANCH  51  65
BRANCH  52  73
ATOM     73  C   UNL A   1      37.471  30.998  29.416  1.00  0.00     0.057 A 
ATOM     74  C   UNL A   1      37.486  32.282  28.862  1.00  0.00     0.134 A 
ATOM     75  C   UNL A   1      36.359  30.192  29.148  1.00  0.00     0.134 A 
ATOM     76  F   UNL A   1      38.506  33.115  29.112  1.00  0.00    -0.206 F 
ATOM     77  C   UNL A   1      36.430  32.752  28.078  1.00  0.00     0.040 A 
ATOM     78  C   UNL A   1      35.305  30.641  28.350  1.00  0.00     0.040 A 
ATOM     79  F   UNL A   1      36.279  28.954  29.660  1.00  0.00    -0.206 F 
ATOM     80  C   UNL A   1      35.337  31.928  27.817  1.00  0.00     0.006 A 
ENDBRANCH  52  73
BRANCH  64  81
ATOM     81  C   UNL A   1      39.211  32.199  36.048  1.00  0.00     0.057 A 
ATOM     82  C   UNL A   1      39.601  33.535  36.199  1.00  0.00     0.134 A 
ATOM     83  C   UNL A   1      38.204  31.716  36.893  1.00  0.00     0.134 A 
ATOM     84  F   UNL A   1      40.566  34.054  35.426  1.00  0.00    -0.206 F 
ATOM     85  C   UNL A   1      39.018  34.357  37.166  1.00  0.00     0.040 A 
ATOM     86  C   UNL A   1      37.601  32.533  37.850  1.00  0.00     0.040 A 
ATOM     87  F   UNL A   1      37.780  30.447  36.791  1.00  0.00    -0.206 F 
ATOM     88  C   UNL A   1      38.010  33.858  37.989  1.00  0.00     0.006 A 
ENDBRANCH  64  81
ENDBRANCH  38  39
ENDBRANCH  31  33
ENDBRANCH  30  31
ENDBRANCH  29  30
ENDBRANCH  28  29
ENDBRANCH  27  28
ENDBRANCH  26  27
ENDBRANCH  25  26
ENDBRANCH  24  25
ENDBRANCH   1  24
TORSDOF 24
ENDMDL
MODEL 2
REMARK VINA RESULT:      -9.3      1.352      2.196
REMARK SMILES COC(=O)CCN(C)C(=O)NCc1ccc(C(=O)OCCOCCOCCOC(=O)c2ccc(-c3c4nc(c(-c5c(F)cccc5F)c5ccc([nH]5)c(-c5c(F)cccc5F)c5nc(c(-c6c(F)cccc6F)c6ccc3[nH]6)C=C5)C=C4)cc2)o1
REMARK SMILES IDX 21 1 20 2 19 3 17 4 18 5 16 6 13 7 14 8 85 9 15 10 12 11
REMARK SMILES IDX 11 12 9 13 10 14 7 16 8 17 6 18 5 19 3 20 4 21 2 22 1 23
REMARK SMILES IDX 22 24 23 25 24 26 25 27 26 28 27 29 28 30 29 31 30 32 31 33
REMARK SMILES IDX 32 34 84 35 33 36 83 37 34 38 35 39 36 40 77 41 37 42 82 43
REMARK SMILES IDX 76 44 78 45 38 46 81 47 75 48 74 49 39 51 65 52 48 53 64 54
REMARK SMILES IDX 49 55 52 56 63 57 79 58 50 59 51 60 62 62 80 63 53 64 40 65
REMARK SMILES IDX 41 66 46 67 42 68 43 69 45 70 47 71 44 72 66 73 67 74 72 75
REMARK SMILES IDX 68 76 69 77 71 78 73 79 70 80 54 81 55 82 60 83 56 84 57 85
REMARK SMILES IDX 59 86 61 87 58 88
REMARK H PARENT 11 15 78 50 52 61
REMARK Flexibility Score: inf
ROOT
ATOM      1  C   UNL A   1      39.151  22.671  26.533  1.00  0.00     0.202 C 
ENDROOT
BRANCH   1   2
ATOM      2  C   UNL A   1      38.290  22.247  25.342  1.00  0.00     0.261 C 
BRANCH   2   3
ATOM      3  O   UNL A   1      36.979  21.821  25.751  1.00  0.00    -0.457 OA
BRANCH   3   4
ATOM      4  C   UNL A   1      36.509  20.689  25.148  1.00  0.00     0.374 C 
ATOM      5  O   UNL A   1      37.171  19.675  24.956  1.00  0.00    -0.242 OA
BRANCH   4   6
ATOM      6  C   UNL A   1      35.094  20.822  24.898  1.00  0.00     0.211 A 
ATOM      7  C   UNL A   1      33.314  21.979  24.279  1.00  0.00     0.124 A 
ATOM      8  C   UNL A   1      32.910  20.663  24.361  1.00  0.00     0.048 A 
ATOM      9  O   UNL A   1      34.619  22.083  24.666  1.00  0.00    -0.452 OA
ATOM     10  C   UNL A   1      34.056  19.917  24.747  1.00  0.00     0.058 A 
BRANCH   7  11
ATOM     11  C   UNL A   1      32.670  23.242  23.822  1.00  0.00     0.193 C 
BRANCH  11  12
ATOM     12  N   UNL A   1      33.142  24.299  24.697  1.00  0.00    -0.331 N 
ATOM     13  C   UNL A   1      32.652  25.405  25.267  1.00  0.00     0.317 C 
ATOM     14  O   UNL A   1      33.335  25.866  26.186  1.00  0.00    -0.249 OA
ATOM     15  H   UNL A   1      34.088  24.165  24.936  1.00  0.00     0.165 HD
BRANCH  13  16
ATOM     16  N   UNL A   1      31.480  25.991  24.879  1.00  0.00    -0.327 N 
ATOM     17  C   UNL A   1      30.146  25.478  25.120  1.00  0.00     0.148 C 
BRANCH  16  18
ATOM     18  C   UNL A   1      31.567  27.268  24.147  1.00  0.00     0.132 C 
BRANCH  18  19
ATOM     19  C   UNL A   1      30.543  27.381  23.026  1.00  0.00     0.144 C 
BRANCH  19  20
ATOM     20  C   UNL A   1      30.269  28.822  22.689  1.00  0.00     0.307 C 
ATOM     21  O   UNL A   1      30.924  29.473  21.887  1.00  0.00    -0.252 OA
BRANCH  20  22
ATOM     22  O   UNL A   1      29.193  29.281  23.384  1.00  0.00    -0.469 OA
ATOM     23  C   UNL A   1      28.045  29.513  22.568  1.00  0.00     0.282 C 
ENDBRANCH  20  22
ENDBRANCH  19  20
ENDBRANCH  18  19
ENDBRANCH  16  18
ENDBRANCH  13  16
ENDBRANCH  11  12
ENDBRANCH   7  11
ENDBRANCH   4   6
ENDBRANCH   3   4
ENDBRANCH   2   3
ENDBRANCH   1   2
BRANCH   1  24
ATOM     24  O   UNL A   1      40.164  21.759  26.942  1.00  0.00    -0.376 OA
BRANCH  24  25
ATOM     25  C   UNL A   1      40.325  20.531  26.238  1.00  0.00     0.188 C 
BRANCH  25  26
ATOM     26  C   UNL A   1      41.649  19.756  26.374  1.00  0.00     0.188 C 
BRANCH  26  27
ATOM     27  O   UNL A   1      42.515  19.875  25.256  1.00  0.00    -0.376 OA
BRANCH  27  28
ATOM     28  C   UNL A   1      43.838  20.309  25.542  1.00  0.00     0.202 C 
BRANCH  28  29
ATOM     29  C   UNL A   1      44.138  21.701  24.980  1.00  0.00     0.261 C 
BRANCH  29  30
ATOM     30  O   UNL A   1      43.670  22.785  25.799  1.00  0.00    -0.460 OA
BRANCH  30  31
ATOM     31  C   UNL A   1      44.052  24.029  25.438  1.00  0.00     0.338 C 
ATOM     32  O   UNL A   1      44.707  24.351  24.464  1.00  0.00    -0.246 OA
BRANCH  31  33
ATOM     33  C   UNL A   1      43.412  24.982  26.362  1.00  0.00     0.060 A 
ATOM     34  C   UNL A   1      43.904  26.290  26.436  1.00  0.00     0.016 A 
ATOM     35  C   UNL A   1      42.334  24.579  27.154  1.00  0.00     0.016 A 
ATOM     36  C   UNL A   1      43.327  27.195  27.327  1.00  0.00     0.010 A 
ATOM     37  C   UNL A   1      41.770  25.481  28.057  1.00  0.00     0.010 A 
ATOM     38  C   UNL A   1      42.281  26.785  28.165  1.00  0.00    -0.014 A 
BRANCH  38  39
ATOM     39  C   UNL A   1      41.809  27.663  29.262  1.00  0.00     0.031 A 
ATOM     40  C   UNL A   1      42.501  27.591  30.593  1.00  0.00     0.074 A 
ATOM     41  C   UNL A   1      40.769  28.495  29.089  1.00  0.00     0.049 A 
ATOM     42  N   UNL A   1      42.232  28.223  31.707  1.00  0.00    -0.248 NA
ATOM     43  C   UNL A   1      43.658  26.682  30.680  1.00  0.00     0.031 C 
ATOM     44  C   UNL A   1      40.034  28.682  27.841  1.00  0.00     0.029 A 
ATOM     45  N   UNL A   1      40.146  29.332  29.980  1.00  0.00    -0.354 N 
ATOM     46  C   UNL A   1      43.180  27.791  32.624  1.00  0.00     0.074 A 
ATOM     47  C   UNL A   1      44.019  26.825  31.947  1.00  0.00     0.031 C 
ATOM     48  C   UNL A   1      39.047  29.570  28.049  1.00  0.00     0.029 A 
ATOM     49  C   UNL A   1      39.067  29.994  29.447  1.00  0.00     0.049 A 
ATOM     50  H   UNL A   1      40.442  29.447  30.911  1.00  0.00     0.167 HD
ATOM     51  C   UNL A   1      43.342  28.170  33.913  1.00  0.00     0.037 A 
ATOM     52  C   UNL A   1      38.189  30.834  30.029  1.00  0.00     0.037 A 
ATOM     53  C   UNL A   1      42.502  29.116  34.595  1.00  0.00     0.049 A 
ATOM     54  C   UNL A   1      38.349  31.186  31.483  1.00  0.00     0.074 A 
ATOM     55  C   UNL A   1      42.597  29.573  35.898  1.00  0.00     0.029 A 
ATOM     56  N   UNL A   1      41.402  29.744  34.029  1.00  0.00    -0.354 N 
ATOM     57  N   UNL A   1      39.263  30.792  32.337  1.00  0.00    -0.248 NA
ATOM     58  C   UNL A   1      37.351  32.102  32.056  1.00  0.00     0.031 C 
ATOM     59  C   UNL A   1      41.532  30.449  36.134  1.00  0.00     0.029 A 
ATOM     60  C   UNL A   1      40.798  30.566  34.964  1.00  0.00     0.049 A 
ATOM     61  H   UNL A   1      41.098  29.623  33.101  1.00  0.00     0.167 HD
ATOM     62  C   UNL A   1      38.970  31.435  33.533  1.00  0.00     0.074 A 
ATOM     63  C   UNL A   1      37.792  32.242  33.299  1.00  0.00     0.031 C 
ATOM     64  C   UNL A   1      39.626  31.367  34.717  1.00  0.00     0.037 A 
BRANCH  51  65
ATOM     65  C   UNL A   1      44.467  27.538  34.673  1.00  0.00     0.057 A 
ATOM     66  C   UNL A   1      44.288  26.354  35.398  1.00  0.00     0.134 A 
ATOM     67  C   UNL A   1      45.745  28.109  34.666  1.00  0.00     0.134 A 
ATOM     68  F   UNL A   1      43.082  25.767  35.457  1.00  0.00    -0.206 F 
ATOM     69  C   UNL A   1      45.338  25.768  36.107  1.00  0.00     0.040 A 
ATOM     70  C   UNL A   1      46.807  27.523  35.354  1.00  0.00     0.040 A 
ATOM     71  F   UNL A   1      45.980  29.244  33.991  1.00  0.00    -0.206 F 
ATOM     72  C   UNL A   1      46.603  26.351  36.082  1.00  0.00     0.006 A 
ENDBRANCH  51  65
BRANCH  52  73
ATOM     73  C   UNL A   1      37.064  31.391  29.238  1.00  0.00     0.057 A 
ATOM     74  C   UNL A   1      37.090  32.707  28.764  1.00  0.00     0.134 A 
ATOM     75  C   UNL A   1      35.925  30.627  28.960  1.00  0.00     0.134 A 
ATOM     76  F   UNL A   1      38.137  33.501  29.029  1.00  0.00    -0.206 F 
ATOM     77  C   UNL A   1      36.020  33.246  28.048  1.00  0.00     0.040 A 
ATOM     78  C   UNL A   1      34.856  31.147  28.230  1.00  0.00     0.040 A 
ATOM     79  F   UNL A   1      35.834  29.362  29.398  1.00  0.00    -0.206 F 
ATOM     80  C   UNL A   1      34.899  32.464  27.775  1.00  0.00     0.006 A 
ENDBRANCH  52  73
BRANCH  64  81
ATOM     81  C   UNL A   1      39.106  32.210  35.842  1.00  0.00     0.057 A 
ATOM     82  C   UNL A   1      38.230  31.694  36.805  1.00  0.00     0.134 A 
ATOM     83  C   UNL A   1      39.528  33.537  35.992  1.00  0.00     0.134 A 
ATOM     84  F   UNL A   1      37.782  30.434  36.711  1.00  0.00    -0.206 F 
ATOM     85  C   UNL A   1      37.780  32.477  37.871  1.00  0.00     0.040 A 
ATOM     86  C   UNL A   1      39.100  34.322  37.063  1.00  0.00     0.040 A 
ATOM     87  F   UNL A   1      40.375  34.087  35.108  1.00  0.00    -0.206 F 
ATOM     88  C   UNL A   1      38.221  33.792  38.005  1.00  0.00     0.006 A 
ENDBRANCH  64  81
ENDBRANCH  38  39
ENDBRANCH  31  33
ENDBRANCH  30  31
ENDBRANCH  29  30
ENDBRANCH  28  29
ENDBRANCH  27  28
ENDBRANCH  26  27
ENDBRANCH  25  26
ENDBRANCH  24  25
ENDBRANCH   1  24
TORSDOF 24
ENDMDL
MODEL 3
REMARK VINA RESULT:      -9.3      1.233      2.254
REMARK SMILES COC(=O)CCN(C)C(=O)NCc1ccc(C(=O)OCCOCCOCCOC(=O)c2ccc(-c3c4nc(c(-c5c(F)cccc5F)c5ccc([nH]5)c(-c5c(F)cccc5F)c5nc(c(-c6c(F)cccc6F)c6ccc3[nH]6)C=C5)C=C4)cc2)o1
REMARK SMILES IDX 21 1 20 2 19 3 17 4 18 5 16 6 13 7 14 8 85 9 15 10 12 11
REMARK SMILES IDX 11 12 9 13 10 14 7 16 8 17 6 18 5 19 3 20 4 21 2 22 1 23
REMARK SMILES IDX 22 24 23 25 24 26 25 27 26 28 27 29 28 30 29 31 30 32 31 33
REMARK SMILES IDX 32 34 84 35 33 36 83 37 34 38 35 39 36 40 77 41 37 42 82 43
REMARK SMILES IDX 76 44 78 45 38 46 81 47 75 48 74 49 39 51 65 52 48 53 64 54
REMARK SMILES IDX 49 55 52 56 63 57 79 58 50 59 51 60 62 62 80 63 53 64 40 65
REMARK SMILES IDX 41 66 46 67 42 68 43 69 45 70 47 71 44 72 66 73 67 74 72 75
REMARK SMILES IDX 68 76 69 77 71 78 73 79 70 80 54 81 55 82 60 83 56 84 57 85
REMARK SMILES IDX 59 86 61 87 58 88
REMARK H PARENT 11 15 78 50 52 61
REMARK Flexibility Score: inf
ROOT
ATOM      1  C   UNL A   1      40.723  21.525  27.573  1.00  0.00     0.202 C 
ENDROOT
BRANCH   1   2
ATOM      2  C   UNL A   1      40.284  22.062  26.209  1.00  0.00     0.261 C 
BRANCH   2   3
ATOM      3  O   UNL A   1      38.852  22.083  26.076  1.00  0.00    -0.457 OA
BRANCH   3   4
ATOM      4  C   UNL A   1      38.261  23.304  26.226  1.00  0.00     0.374 C 
ATOM      5  O   UNL A   1      38.699  24.210  26.927  1.00  0.00    -0.242 OA
BRANCH   4   6
ATOM      6  C   UNL A   1      37.129  23.411  25.338  1.00  0.00     0.211 A 
ATOM      7  C   UNL A   1      35.188  24.283  24.734  1.00  0.00     0.124 A 
ATOM      8  C   UNL A   1      35.625  23.533  23.663  1.00  0.00     0.048 A 
ATOM      9  O   UNL A   1      36.068  24.157  25.770  1.00  0.00    -0.452 OA
ATOM     10  C   UNL A   1      36.877  22.982  24.045  1.00  0.00     0.058 A 
BRANCH   7  11
ATOM     11  C   UNL A   1      34.041  25.204  24.965  1.00  0.00     0.193 C 
BRANCH  11  12
ATOM     12  N   UNL A   1      33.281  25.252  23.730  1.00  0.00    -0.331 N 
ATOM     13  C   UNL A   1      32.287  24.568  23.152  1.00  0.00     0.317 C 
ATOM     14  O   UNL A   1      31.742  25.139  22.203  1.00  0.00    -0.249 OA
ATOM     15  H   UNL A   1      33.579  25.996  23.158  1.00  0.00     0.165 HD
BRANCH  13  16
ATOM     16  N   UNL A   1      31.888  23.330  23.571  1.00  0.00    -0.327 N 
ATOM     17  C   UNL A   1      32.377  22.059  23.073  1.00  0.00     0.148 C 
BRANCH  16  18
ATOM     18  C   UNL A   1      30.865  23.267  24.630  1.00  0.00     0.132 C 
BRANCH  18  19
ATOM     19  C   UNL A   1      31.285  22.404  25.812  1.00  0.00     0.144 C 
BRANCH  19  20
ATOM     20  C   UNL A   1      31.887  23.243  26.907  1.00  0.00     0.307 C 
ATOM     21  O   UNL A   1      31.379  24.268  27.339  1.00  0.00    -0.252 OA
BRANCH  20  22
ATOM     22  O   UNL A   1      33.051  22.693  27.348  1.00  0.00    -0.469 OA
ATOM     23  C   UNL A   1      33.448  21.535  26.614  1.00  0.00     0.282 C 
ENDBRANCH  20  22
ENDBRANCH  19  20
ENDBRANCH  18  19
ENDBRANCH  16  18
ENDBRANCH  13  16
ENDBRANCH  11  12
ENDBRANCH   7  11
ENDBRANCH   4   6
ENDBRANCH   3   4
ENDBRANCH   2   3
ENDBRANCH   1   2
BRANCH   1  24
ATOM     24  O   UNL A   1      41.969  20.839  27.615  1.00  0.00    -0.376 OA
BRANCH  24  25
ATOM     25  C   UNL A   1      42.059  19.521  27.084  1.00  0.00     0.188 C 
BRANCH  25  26
ATOM     26  C   UNL A   1      42.724  19.307  25.711  1.00  0.00     0.188 C 
BRANCH  26  27
ATOM     27  O   UNL A   1      44.109  19.617  25.677  1.00  0.00    -0.376 OA
BRANCH  27  28
ATOM     28  C   UNL A   1      44.469  20.757  24.908  1.00  0.00     0.202 C 
BRANCH  28  29
ATOM     29  C   UNL A   1      44.708  22.000  25.770  1.00  0.00     0.261 C 
BRANCH  29  30
ATOM     30  O   UNL A   1      43.656  22.975  25.710  1.00  0.00    -0.460 OA
BRANCH  30  31
ATOM     31  C   UNL A   1      44.021  24.250  25.455  1.00  0.00     0.338 C 
ATOM     32  O   UNL A   1      44.456  24.703  24.413  1.00  0.00    -0.246 OA
BRANCH  31  33
ATOM     33  C   UNL A   1      43.667  25.063  26.633  1.00  0.00     0.060 A 
ATOM     34  C   UNL A   1      42.719  24.570  27.538  1.00  0.00     0.016 A 
ATOM     35  C   UNL A   1      44.268  26.308  26.835  1.00  0.00     0.016 A 
ATOM     36  C   UNL A   1      42.352  25.341  28.641  1.00  0.00     0.010 A 
ATOM     37  C   UNL A   1      43.886  27.084  27.930  1.00  0.00     0.010 A 
ATOM     38  C   UNL A   1      42.908  26.615  28.824  1.00  0.00    -0.014 A 
BRANCH  38  39
ATOM     39  C   UNL A   1      42.369  27.527  29.859  1.00  0.00     0.031 A 
ATOM     40  C   UNL A   1      43.015  27.543  31.215  1.00  0.00     0.074 A 
ATOM     41  C   UNL A   1      41.309  28.314  29.609  1.00  0.00     0.049 A 
ATOM     42  N   UNL A   1      42.686  28.219  32.286  1.00  0.00    -0.248 NA
ATOM     43  C   UNL A   1      44.197  26.680  31.386  1.00  0.00     0.031 C 
ATOM     44  C   UNL A   1      40.614  28.416  28.329  1.00  0.00     0.029 A 
ATOM     45  N   UNL A   1      40.627  29.171  30.436  1.00  0.00    -0.354 N 
ATOM     46  C   UNL A   1      43.614  27.864  33.255  1.00  0.00     0.074 A 
ATOM     47  C   UNL A   1      44.507  26.897  32.655  1.00  0.00     0.031 C 
ATOM     48  C   UNL A   1      39.591  29.278  28.459  1.00  0.00     0.029 A 
ATOM     49  C   UNL A   1      39.547  29.769  29.834  1.00  0.00     0.049 A 
ATOM     50  H   UNL A   1      40.887  29.341  31.370  1.00  0.00     0.167 HD
ATOM     51  C   UNL A   1      43.717  28.311  34.528  1.00  0.00     0.037 A 
ATOM     52  C   UNL A   1      38.622  30.605  30.344  1.00  0.00     0.037 A 
ATOM     53  C   UNL A   1      42.823  29.260  35.133  1.00  0.00     0.049 A 
ATOM     54  C   UNL A   1      38.719  31.033  31.783  1.00  0.00     0.074 A 
ATOM     55  C   UNL A   1      42.856  29.781  36.415  1.00  0.00     0.029 A 
ATOM     56  N   UNL A   1      41.724  29.821  34.500  1.00  0.00    -0.354 N 
ATOM     57  N   UNL A   1      39.614  30.712  32.686  1.00  0.00    -0.248 NA
ATOM     58  C   UNL A   1      37.671  31.941  32.276  1.00  0.00     0.031 C 
ATOM     59  C   UNL A   1      41.756  30.631  36.571  1.00  0.00     0.029 A 
ATOM     60  C   UNL A   1      41.060  30.666  35.373  1.00  0.00     0.049 A 
ATOM     61  H   UNL A   1      41.457  29.645  33.570  1.00  0.00     0.167 HD
ATOM     62  C   UNL A   1      39.258  31.402  33.838  1.00  0.00     0.074 A 
ATOM     63  C   UNL A   1      38.063  32.155  33.525  1.00  0.00     0.031 C 
ATOM     64  C   UNL A   1      39.872  31.414  35.046  1.00  0.00     0.037 A 
BRANCH  51  65
ATOM     65  C   UNL A   1      44.834  27.755  35.356  1.00  0.00     0.057 A 
ATOM     66  C   UNL A   1      44.676  26.587  36.111  1.00  0.00     0.134 A 
ATOM     67  C   UNL A   1      46.084  28.384  35.386  1.00  0.00     0.134 A 
ATOM     68  F   UNL A   1      43.496  25.948  36.138  1.00  0.00    -0.206 F 
ATOM     69  C   UNL A   1      45.719  26.073  36.884  1.00  0.00     0.040 A 
ATOM     70  C   UNL A   1      47.140  27.870  36.139  1.00  0.00     0.040 A 
ATOM     71  F   UNL A   1      46.299  29.507  34.685  1.00  0.00    -0.206 F 
ATOM     72  C   UNL A   1      46.957  26.713  36.895  1.00  0.00     0.006 A 
ENDBRANCH  51  65
BRANCH  52  73
ATOM     73  C   UNL A   1      37.509  31.085  29.489  1.00  0.00     0.057 A 
ATOM     74  C   UNL A   1      36.405  30.272  29.207  1.00  0.00     0.134 A 
ATOM     75  C   UNL A   1      37.535  32.360  28.912  1.00  0.00     0.134 A 
ATOM     76  F   UNL A   1      36.338  29.027  29.700  1.00  0.00    -0.206 F 
ATOM     77  C   UNL A   1      35.371  30.707  28.377  1.00  0.00     0.040 A 
ATOM     78  C   UNL A   1      36.500  32.815  28.095  1.00  0.00     0.040 A 
ATOM     79  F   UNL A   1      38.572  33.182  29.133  1.00  0.00    -0.206 F 
ATOM     80  C   UNL A   1      35.414  31.984  27.820  1.00  0.00     0.006 A 
ENDBRANCH  52  73
BRANCH  64  81
ATOM     81  C   UNL A   1      39.286  32.292  36.110  1.00  0.00     0.057 A 
ATOM     82  C   UNL A   1      39.708  33.615  36.288  1.00  0.00     0.134 A 
ATOM     83  C   UNL A   1      38.252  31.824  36.930  1.00  0.00     0.134 A 
ATOM     84  F   UNL A   1      40.701  34.119  35.540  1.00  0.00    -0.206 F 
ATOM     85  C   UNL A   1      39.130  34.438  37.257  1.00  0.00     0.040 A 
ATOM     86  C   UNL A   1      37.653  32.643  37.888  1.00  0.00     0.040 A 
ATOM     87  F   UNL A   1      37.795  30.568  36.801  1.00  0.00    -0.206 F 
ATOM     88  C   UNL A   1      38.095  33.953  38.055  1.00  0.00     0.006 A 
ENDBRANCH  64  81
ENDBRANCH  38  39
ENDBRANCH  31  33
ENDBRANCH  30  31
ENDBRANCH  29  30
ENDBRANCH  28  29
ENDBRANCH  27  28
ENDBRANCH  26  27
ENDBRANCH  25  26
ENDBRANCH  24  25
ENDBRANCH   1  24
TORSDOF 24
ENDMDL
