MODEL 1
REMARK VINA RESULT:     -12.6      0.000      0.000
REMARK SMILES O=C(OCCOCCOCCOC(=O)c1ccc(-c2c3nc(c(-c4c(F)cccc4F)c4ccc([nH]4)c(-c4c(F)cccc4F)c4nc(c(-c5c(F)cccc5F)c5ccc2[nH]5)C=C4)C=C3)cc1)C1=Cc2cc(Cl)c(Cl)c(Cl)c2O[C@@H]1C(F)(F)F
REMARK SMILES IDX 8 1 7 2 6 3 5 4 4 5 3 6 2 7 1 8 69 9 70 10 81 11 71 12 80 13
REMARK SMILES IDX 72 14 79 15 73 16 77 17 74 18 75 19 78 20 76 21 82 22 83 23
REMARK SMILES IDX 84 24 85 25 9 26 10 27 11 28 12 29 13 30 14 31 15 32 16 33
REMARK SMILES IDX 68 34 17 35 67 36 18 37 19 38 20 39 61 40 21 41 66 42 60 43
REMARK SMILES IDX 62 44 22 45 65 46 59 47 58 48 23 50 49 51 32 52 48 53 33 54
REMARK SMILES IDX 36 55 47 56 63 57 34 58 35 59 46 61 64 62 37 63 24 64 25 65
REMARK SMILES IDX 30 66 26 67 27 68 29 69 31 70 28 71 50 72 51 73 56 74 52 75
REMARK SMILES IDX 53 76 55 77 57 78 54 79 38 80 39 81 44 82 40 83 41 84 43 85
REMARK SMILES IDX 45 86 42 87
REMARK H PARENT 62 49 36 60
REMARK Flexibility Score: inf
ROOT
ATOM      1  C   UNL A   1      43.020  19.276  25.766  1.00  0.00     0.188 C 
ENDROOT
BRANCH   1   2
ATOM      2  C   UNL A   1      42.256  19.749  27.011  1.00  0.00     0.188 C 
BRANCH   2   3
ATOM      3  O   UNL A   1      40.778  19.954  27.076  1.00  0.00    -0.376 OA
BRANCH   3   4
ATOM      4  C   UNL A   1      39.637  19.958  25.783  1.00  0.00     0.202 C 
BRANCH   4   5
ATOM      5  C   UNL A   1      38.228  21.558  25.367  1.00  0.00     0.261 C 
BRANCH   5   6
ATOM      6  O   UNL A   1      36.713  21.461  25.396  1.00  0.00    -0.460 OA
BRANCH   6   7
ATOM      7  C   UNL A   1      36.150  22.158  24.401  1.00  0.00     0.338 C 
ATOM      8  O   UNL A   1      36.693  22.691  23.464  1.00  0.00    -0.246 OA
BRANCH   7   9
ATOM      9  C   UNL A   1      34.907  22.474  25.088  1.00  0.00     0.087 C 
ATOM     10  C   UNL A   1      34.820  23.807  25.676  1.00  0.00     0.027 C 
ATOM     11  C   UNL A   1      33.828  21.852  23.633  1.00  0.00     0.316 C 
ATOM     12  C   UNL A   1      33.914  25.175  24.946  1.00  0.00     0.020 A 
ATOM     13  O   UNL A   1      32.967  23.352  22.718  1.00  0.00    -0.474 OA
ATOM     14  C   UNL A   1      34.017  26.412  25.516  1.00  0.00     0.034 A 
ATOM     15  C   UNL A   1      33.058  25.030  23.452  1.00  0.00     0.148 A 
ATOM     16  C   UNL A   1      33.375  27.459  24.821  1.00  0.00     0.062 A 
ATOM     17  C   UNL A   1      32.475  26.105  22.824  1.00  0.00     0.103 A 
ATOM     18  Cl  UNL A   1      33.551  29.018  25.593  1.00  0.00    -0.083 Cl
ATOM     19  C   UNL A   1      32.640  27.325  23.549  1.00  0.00     0.082 A 
ATOM     20  Cl  UNL A   1      31.718  25.995  21.300  1.00  0.00    -0.079 Cl
ATOM     21  Cl  UNL A   1      31.936  28.787  22.883  1.00  0.00    -0.081 Cl
BRANCH  11  22
ATOM     22  C   UNL A   1      33.240  20.579  24.572  1.00  0.00     0.430 C 
ATOM     23  F   UNL A   1      32.800  20.761  25.813  1.00  0.00    -0.167 F 
ATOM     24  F   UNL A   1      32.184  20.040  23.898  1.00  0.00    -0.167 F 
ATOM     25  F   UNL A   1      34.131  19.545  24.673  1.00  0.00    -0.167 F 
ENDBRANCH  11  22
ENDBRANCH   7   9
ENDBRANCH   6   7
ENDBRANCH   5   6
ENDBRANCH   4   5
ENDBRANCH   3   4
ENDBRANCH   2   3
ENDBRANCH   1   2
BRANCH   1  26
ATOM     26  O   UNL A   1      43.492  20.219  24.846  1.00  0.00    -0.376 OA
BRANCH  26  27
ATOM     27  C   UNL A   1      44.873  20.532  24.936  1.00  0.00     0.202 C 
BRANCH  27  28
ATOM     28  C   UNL A   1      45.274  21.774  25.747  1.00  0.00     0.261 C 
BRANCH  28  29
ATOM     29  O   UNL A   1      44.190  22.700  25.984  1.00  0.00    -0.460 OA
BRANCH  29  30
ATOM     30  C   UNL A   1      44.320  23.947  25.468  1.00  0.00     0.338 C 
ATOM     31  O   UNL A   1      44.888  24.268  24.439  1.00  0.00    -0.246 OA
BRANCH  30  32
ATOM     32  C   UNL A   1      43.537  24.903  26.275  1.00  0.00     0.060 A 
ATOM     33  C   UNL A   1      43.927  26.250  26.325  1.00  0.00     0.016 A 
ATOM     34  C   UNL A   1      42.460  24.452  27.039  1.00  0.00     0.016 A 
ATOM     35  C   UNL A   1      43.226  27.154  27.126  1.00  0.00     0.010 A 
ATOM     36  C   UNL A   1      41.790  25.347  27.878  1.00  0.00     0.010 A 
ATOM     37  C   UNL A   1      42.184  26.695  27.942  1.00  0.00    -0.014 A 
BRANCH  37  38
ATOM     38  C   UNL A   1      41.688  27.558  29.040  1.00  0.00     0.031 A 
ATOM     39  C   UNL A   1      42.391  27.467  30.368  1.00  0.00     0.074 A 
ATOM     40  C   UNL A   1      40.662  28.410  28.871  1.00  0.00     0.049 A 
ATOM     41  N   UNL A   1      42.141  28.091  31.490  1.00  0.00    -0.248 NA
ATOM     42  C   UNL A   1      43.534  26.540  30.435  1.00  0.00     0.031 C 
ATOM     43  C   UNL A   1      39.924  28.613  27.627  1.00  0.00     0.029 A 
ATOM     44  N   UNL A   1      40.059  29.262  29.764  1.00  0.00    -0.354 N 
ATOM     45  C   UNL A   1      43.102  27.642  32.388  1.00  0.00     0.074 A 
ATOM     46  C   UNL A   1      43.903  26.655  31.699  1.00  0.00     0.031 C 
ATOM     47  C   UNL A   1      38.956  29.522  27.838  1.00  0.00     0.029 A 
ATOM     48  C   UNL A   1      38.988  29.945  29.238  1.00  0.00     0.049 A 
ATOM     49  H   UNL A   1      40.365  29.374  30.692  1.00  0.00     0.167 HD
ATOM     50  C   UNL A   1      43.309  28.030  33.667  1.00  0.00     0.037 A 
ATOM     51  C   UNL A   1      38.126  30.794  29.832  1.00  0.00     0.037 A 
ATOM     52  C   UNL A   1      42.487  28.986  34.359  1.00  0.00     0.049 A 
ATOM     53  C   UNL A   1      38.314  31.130  31.292  1.00  0.00     0.074 A 
ATOM     54  C   UNL A   1      42.601  29.439  35.661  1.00  0.00     0.029 A 
ATOM     55  N   UNL A   1      41.389  29.627  33.806  1.00  0.00    -0.354 N 
ATOM     56  N   UNL A   1      39.244  30.727  32.127  1.00  0.00    -0.248 NA
ATOM     57  C   UNL A   1      37.337  32.051  31.893  1.00  0.00     0.031 C 
ATOM     58  C   UNL A   1      41.532  30.302  35.916  1.00  0.00     0.029 A 
ATOM     59  C   UNL A   1      40.800  30.451  34.750  1.00  0.00     0.049 A 
ATOM     60  H   UNL A   1      41.074  29.512  32.880  1.00  0.00     0.167 HD
ATOM     61  C   UNL A   1      38.986  31.374  33.331  1.00  0.00     0.074 A 
ATOM     62  C   UNL A   1      37.825  32.210  33.113  1.00  0.00     0.031 C 
ATOM     63  C   UNL A   1      39.648  31.286  34.513  1.00  0.00     0.037 A 
BRANCH  50  64
ATOM     64  C   UNL A   1      44.456  27.396  34.402  1.00  0.00     0.057 A 
ATOM     65  C   UNL A   1      45.729  27.982  34.431  1.00  0.00     0.134 A 
ATOM     66  C   UNL A   1      44.283  26.197  35.103  1.00  0.00     0.134 A 
ATOM     67  F   UNL A   1      45.969  29.123  33.767  1.00  0.00    -0.206 F 
ATOM     68  C   UNL A   1      46.795  27.382  35.104  1.00  0.00     0.040 A 
ATOM     69  C   UNL A   1      45.331  25.606  35.810  1.00  0.00     0.040 A 
ATOM     70  F   UNL A   1      43.091  25.582  35.121  1.00  0.00    -0.206 F 
ATOM     71  C   UNL A   1      46.594  26.194  35.804  1.00  0.00     0.006 A 
ENDBRANCH  50  64
BRANCH  51  72
ATOM     72  C   UNL A   1      36.987  31.376  29.069  1.00  0.00     0.057 A 
ATOM     73  C   UNL A   1      36.998  32.710  28.640  1.00  0.00     0.134 A 
ATOM     74  C   UNL A   1      35.830  30.631  28.808  1.00  0.00     0.134 A 
ATOM     75  F   UNL A   1      38.064  33.488  28.880  1.00  0.00    -0.206 F 
ATOM     76  C   UNL A   1      35.891  33.291  28.017  1.00  0.00     0.040 A 
ATOM     77  C   UNL A   1      34.729  31.189  28.153  1.00  0.00     0.040 A 
ATOM     78  F   UNL A   1      35.747  29.349  29.190  1.00  0.00    -0.206 F 
ATOM     79  C   UNL A   1      34.753  32.527  27.769  1.00  0.00     0.006 A 
ENDBRANCH  51  72
BRANCH  63  80
ATOM     80  C   UNL A   1      39.172  32.159  35.641  1.00  0.00     0.057 A 
ATOM     81  C   UNL A   1      38.287  31.697  36.625  1.00  0.00     0.134 A 
ATOM     82  C   UNL A   1      39.632  33.478  35.761  1.00  0.00     0.134 A 
ATOM     83  F   UNL A   1      37.801  30.447  36.571  1.00  0.00    -0.206 F 
ATOM     84  C   UNL A   1      37.845  32.526  37.658  1.00  0.00     0.040 A 
ATOM     85  C   UNL A   1      39.228  34.303  36.812  1.00  0.00     0.040 A 
ATOM     86  F   UNL A   1      40.494  33.984  34.866  1.00  0.00    -0.206 F 
ATOM     87  C   UNL A   1      38.321  33.831  37.757  1.00  0.00     0.006 A 
ENDBRANCH  63  80
ENDBRANCH  37  38
ENDBRANCH  30  32
ENDBRANCH  29  30
ENDBRANCH  28  29
ENDBRANCH  27  28
ENDBRANCH  26  27
ENDBRANCH   1  26
TORSDOF 18
ENDMDL
MODEL 2
REMARK VINA RESULT:     -12.5      5.108     10.146
REMARK SMILES O=C(OCCOCCOCCOC(=O)c1ccc(-c2c3nc(c(-c4c(F)cccc4F)c4ccc([nH]4)c(-c4c(F)cccc4F)c4nc(c(-c5c(F)cccc5F)c5ccc2[nH]5)C=C4)C=C3)cc1)C1=Cc2cc(Cl)c(Cl)c(Cl)c2O[C@@H]1C(F)(F)F
REMARK SMILES IDX 8 1 7 2 6 3 5 4 4 5 3 6 2 7 1 8 69 9 70 10 81 11 71 12 80 13
REMARK SMILES IDX 72 14 79 15 73 16 77 17 74 18 75 19 78 20 76 21 82 22 83 23
REMARK SMILES IDX 84 24 85 25 9 26 10 27 11 28 12 29 13 30 14 31 15 32 16 33
REMARK SMILES IDX 68 34 17 35 67 36 18 37 19 38 20 39 61 40 21 41 66 42 60 43
REMARK SMILES IDX 62 44 22 45 65 46 59 47 58 48 23 50 49 51 32 52 48 53 33 54
REMARK SMILES IDX 36 55 47 56 63 57 34 58 35 59 46 61 64 62 37 63 24 64 25 65
REMARK SMILES IDX 30 66 26 67 27 68 29 69 31 70 28 71 50 72 51 73 56 74 52 75
REMARK SMILES IDX 53 76 55 77 57 78 54 79 38 80 39 81 44 82 40 83 41 84 43 85
REMARK SMILES IDX 45 86 42 87
REMARK H PARENT 62 49 36 60
REMARK Flexibility Score: inf
ROOT
ATOM      1  C   UNL A   1      34.255  34.701  29.005  1.00  0.00     0.188 C 
ENDROOT
BRANCH   1   2
ATOM      2  C   UNL A   1      34.513  33.497  28.088  1.00  0.00     0.188 C 
BRANCH   2   3
ATOM      3  O   UNL A   1      34.542  32.073  28.540  1.00  0.00    -0.376 OA
BRANCH   3   4
ATOM      4  C   UNL A   1      34.033  30.664  27.684  1.00  0.00     0.202 C 
BRANCH   4   5
ATOM      5  C   UNL A   1      32.175  30.480  26.574  1.00  0.00     0.261 C 
BRANCH   5   6
ATOM      6  O   UNL A   1      31.895  29.522  25.430  1.00  0.00    -0.460 OA
BRANCH   6   7
ATOM      7  C   UNL A   1      31.850  28.250  25.845  1.00  0.00     0.338 C 
ATOM      8  O   UNL A   1      32.101  27.815  26.942  1.00  0.00    -0.246 OA
BRANCH   7   9
ATOM      9  C   UNL A   1      31.942  27.633  24.530  1.00  0.00     0.087 C 
ATOM     10  C   UNL A   1      33.226  27.026  24.195  1.00  0.00     0.027 C 
ATOM     11  C   UNL A   1      30.306  26.664  24.761  1.00  0.00     0.316 C 
ATOM     12  C   UNL A   1      33.551  25.261  24.243  1.00  0.00     0.020 A 
ATOM     13  O   UNL A   1      30.657  24.754  24.987  1.00  0.00    -0.474 OA
ATOM     14  C   UNL A   1      34.828  24.820  24.041  1.00  0.00     0.034 A 
ATOM     15  C   UNL A   1      32.351  24.108  24.707  1.00  0.00     0.148 A 
ATOM     16  C   UNL A   1      35.029  23.434  24.211  1.00  0.00     0.062 A 
ATOM     17  C   UNL A   1      32.630  22.772  24.873  1.00  0.00     0.103 A 
ATOM     18  Cl  UNL A   1      36.684  22.933  23.949  1.00  0.00    -0.083 Cl
ATOM     19  C   UNL A   1      33.997  22.455  24.601  1.00  0.00     0.082 A 
ATOM     20  Cl  UNL A   1      31.481  21.642  25.430  1.00  0.00    -0.079 Cl
ATOM     21  Cl  UNL A   1      34.507  20.784  24.753  1.00  0.00    -0.081 Cl
BRANCH  11  22
ATOM     22  C   UNL A   1      29.563  27.568  23.544  1.00  0.00     0.430 C 
ATOM     23  F   UNL A   1      29.550  28.897  23.559  1.00  0.00    -0.167 F 
ATOM     24  F   UNL A   1      30.171  27.233  22.370  1.00  0.00    -0.167 F 
ATOM     25  F   UNL A   1      28.255  27.216  23.352  1.00  0.00    -0.167 F 
ENDBRANCH  11  22
ENDBRANCH   7   9
ENDBRANCH   6   7
ENDBRANCH   5   6
ENDBRANCH   4   5
ENDBRANCH   3   4
ENDBRANCH   2   3
ENDBRANCH   1   2
BRANCH   1  26
ATOM     26  O   UNL A   1      33.549  34.520  30.200  1.00  0.00    -0.376 OA
BRANCH  26  27
ATOM     27  C   UNL A   1      34.287  34.736  31.392  1.00  0.00     0.202 C 
BRANCH  27  28
ATOM     28  C   UNL A   1      34.162  33.690  32.510  1.00  0.00     0.261 C 
BRANCH  28  29
ATOM     29  O   UNL A   1      34.885  32.465  32.256  1.00  0.00    -0.460 OA
BRANCH  29  30
ATOM     30  C   UNL A   1      36.008  32.249  32.985  1.00  0.00     0.338 C 
ATOM     31  O   UNL A   1      36.208  32.556  34.146  1.00  0.00    -0.246 OA
BRANCH  30  32
ATOM     32  C   UNL A   1      36.960  31.435  32.202  1.00  0.00     0.060 A 
ATOM     33  C   UNL A   1      37.905  30.641  32.869  1.00  0.00     0.016 A 
ATOM     34  C   UNL A   1      36.963  31.515  30.809  1.00  0.00     0.016 A 
ATOM     35  C   UNL A   1      38.845  29.909  32.142  1.00  0.00     0.010 A 
ATOM     36  C   UNL A   1      37.934  30.820  30.084  1.00  0.00     0.010 A 
ATOM     37  C   UNL A   1      38.893  30.033  30.747  1.00  0.00    -0.014 A 
BRANCH  37  38
ATOM     38  C   UNL A   1      40.090  29.556  30.016  1.00  0.00     0.031 A 
ATOM     39  C   UNL A   1      41.212  30.536  29.805  1.00  0.00     0.074 A 
ATOM     40  C   UNL A   1      40.197  28.293  29.568  1.00  0.00     0.049 A 
ATOM     41  N   UNL A   1      42.351  30.381  29.181  1.00  0.00    -0.248 NA
ATOM     42  C   UNL A   1      41.017  31.879  30.378  1.00  0.00     0.031 C 
ATOM     43  C   UNL A   1      39.195  27.244  29.740  1.00  0.00     0.029 A 
ATOM     44  N   UNL A   1      41.207  27.683  28.864  1.00  0.00    -0.354 N 
ATOM     45  C   UNL A   1      43.010  31.598  29.298  1.00  0.00     0.074 A 
ATOM     46  C   UNL A   1      42.125  32.497  30.004  1.00  0.00     0.031 C 
ATOM     47  C   UNL A   1      39.635  26.121  29.145  1.00  0.00     0.029 A 
ATOM     48  C   UNL A   1      40.934  26.379  28.526  1.00  0.00     0.049 A 
ATOM     49  H   UNL A   1      42.047  28.137  28.625  1.00  0.00     0.167 HD
ATOM     50  C   UNL A   1      44.250  31.932  28.872  1.00  0.00     0.037 A 
ATOM     51  C   UNL A   1      41.648  25.509  27.784  1.00  0.00     0.037 A 
ATOM     52  C   UNL A   1      45.113  31.046  28.139  1.00  0.00     0.049 A 
ATOM     53  C   UNL A   1      42.984  25.941  27.228  1.00  0.00     0.074 A 
ATOM     54  C   UNL A   1      46.383  31.289  27.647  1.00  0.00     0.029 A 
ATOM     55  N   UNL A   1      44.787  29.746  27.783  1.00  0.00    -0.354 N 
ATOM     56  N   UNL A   1      43.616  27.083  27.370  1.00  0.00    -0.248 NA
ATOM     57  C   UNL A   1      43.714  24.957  26.414  1.00  0.00     0.031 C 
ATOM     58  C   UNL A   1      46.797  30.160  26.936  1.00  0.00     0.029 A 
ATOM     59  C   UNL A   1      45.821  29.184  27.053  1.00  0.00     0.049 A 
ATOM     60  H   UNL A   1      43.945  29.290  28.013  1.00  0.00     0.167 HD
ATOM     61  C   UNL A   1      44.827  26.939  26.701  1.00  0.00     0.074 A 
ATOM     62  C   UNL A   1      44.850  25.593  26.170  1.00  0.00     0.031 C 
ATOM     63  C   UNL A   1      45.832  27.837  26.539  1.00  0.00     0.037 A 
BRANCH  50  64
ATOM     64  C   UNL A   1      44.728  33.325  29.169  1.00  0.00     0.057 A 
ATOM     65  C   UNL A   1      44.468  34.397  28.303  1.00  0.00     0.134 A 
ATOM     66  C   UNL A   1      45.441  33.604  30.341  1.00  0.00     0.134 A 
ATOM     67  F   UNL A   1      43.805  34.198  27.154  1.00  0.00    -0.206 F 
ATOM     68  C   UNL A   1      44.927  35.686  28.577  1.00  0.00     0.040 A 
ATOM     69  C   UNL A   1      45.874  34.895  30.644  1.00  0.00     0.040 A 
ATOM     70  F   UNL A   1      45.723  32.627  31.217  1.00  0.00    -0.206 F 
ATOM     71  C   UNL A   1      45.625  35.939  29.757  1.00  0.00     0.006 A 
ENDBRANCH  50  64
BRANCH  51  72
ATOM     72  C   UNL A   1      41.120  24.147  27.494  1.00  0.00     0.057 A 
ATOM     73  C   UNL A   1      40.063  23.946  26.597  1.00  0.00     0.134 A 
ATOM     74  C   UNL A   1      41.616  23.018  28.159  1.00  0.00     0.134 A 
ATOM     75  F   UNL A   1      39.524  24.987  25.945  1.00  0.00    -0.206 F 
ATOM     76  C   UNL A   1      39.494  22.686  26.400  1.00  0.00     0.040 A 
ATOM     77  C   UNL A   1      41.081  21.745  27.944  1.00  0.00     0.040 A 
ATOM     78  F   UNL A   1      42.625  23.134  29.033  1.00  0.00    -0.206 F 
ATOM     79  C   UNL A   1      40.007  21.579  27.074  1.00  0.00     0.006 A 
ENDBRANCH  51  72
BRANCH  63  80
ATOM     80  C   UNL A   1      47.064  27.375  25.810  1.00  0.00     0.057 A 
ATOM     81  C   UNL A   1      47.256  27.605  24.441  1.00  0.00     0.134 A 
ATOM     82  C   UNL A   1      48.090  26.714  26.500  1.00  0.00     0.134 A 
ATOM     83  F   UNL A   1      46.312  28.227  23.716  1.00  0.00    -0.206 F 
ATOM     84  C   UNL A   1      48.400  27.157  23.778  1.00  0.00     0.040 A 
ATOM     85  C   UNL A   1      49.256  26.297  25.855  1.00  0.00     0.040 A 
ATOM     86  F   UNL A   1      47.984  26.475  27.815  1.00  0.00    -0.206 F 
ATOM     87  C   UNL A   1      49.407  26.507  24.487  1.00  0.00     0.006 A 
ENDBRANCH  63  80
ENDBRANCH  37  38
ENDBRANCH  30  32
ENDBRANCH  29  30
ENDBRANCH  28  29
ENDBRANCH  27  28
ENDBRANCH  26  27
ENDBRANCH   1  26
TORSDOF 18
ENDMDL
MODEL 3
REMARK VINA RESULT:     -12.1      5.248     10.308
REMARK SMILES O=C(OCCOCCOCCOC(=O)c1ccc(-c2c3nc(c(-c4c(F)cccc4F)c4ccc([nH]4)c(-c4c(F)cccc4F)c4nc(c(-c5c(F)cccc5F)c5ccc2[nH]5)C=C4)C=C3)cc1)C1=Cc2cc(Cl)c(Cl)c(Cl)c2O[C@@H]1C(F)(F)F
REMARK SMILES IDX 8 1 7 2 6 3 5 4 4 5 3 6 2 7 1 8 69 9 70 10 81 11 71 12 80 13
REMARK SMILES IDX 72 14 79 15 73 16 77 17 74 18 75 19 78 20 76 21 82 22 83 23
REMARK SMILES IDX 84 24 85 25 9 26 10 27 11 28 12 29 13 30 14 31 15 32 16 33
REMARK SMILES IDX 68 34 17 35 67 36 18 37 19 38 20 39 61 40 21 41 66 42 60 43
REMARK SMILES IDX 62 44 22 45 65 46 59 47 58 48 23 50 49 51 32 52 48 53 33 54
REMARK SMILES IDX 36 55 47 56 63 57 34 58 35 59 46 61 64 62 37 63 24 64 25 65
REMARK SMILES IDX 30 66 26 67 27 68 29 69 31 70 28 71 50 72 51 73 56 74 52 75
REMARK SMILES IDX 53 76 55 77 57 78 54 79 38 80 39 81 44 82 40 83 41 84 43 85
REMARK SMILES IDX 45 86 42 87
REMARK H PARENT 62 49 36 60
REMARK Flexibility Score: inf
ROOT
ATOM      1  C   UNL A   1      34.027  34.720  29.772  1.00  0.00     0.188 C 
ENDROOT
BRANCH   1   2
ATOM      2  C   UNL A   1      34.036  33.555  28.773  1.00  0.00     0.188 C 
BRANCH   2   3
ATOM      3  O   UNL A   1      35.179  32.615  28.571  1.00  0.00    -0.376 OA
BRANCH   3   4
ATOM      4  C   UNL A   1      35.219  31.152  27.658  1.00  0.00     0.202 C 
BRANCH   4   5
ATOM      5  C   UNL A   1      33.471  30.089  26.926  1.00  0.00     0.261 C 
BRANCH   5   6
ATOM      6  O   UNL A   1      33.425  29.116  25.761  1.00  0.00    -0.460 OA
BRANCH   6   7
ATOM      7  C   UNL A   1      32.638  28.064  26.022  1.00  0.00     0.338 C 
ATOM      8  O   UNL A   1      32.370  27.582  27.096  1.00  0.00    -0.246 OA
BRANCH   7   9
ATOM      9  C   UNL A   1      32.699  27.467  24.697  1.00  0.00     0.087 C 
ATOM     10  C   UNL A   1      33.904  26.702  24.392  1.00  0.00     0.027 C 
ATOM     11  C   UNL A   1      30.942  26.717  24.846  1.00  0.00     0.316 C 
ATOM     12  C   UNL A   1      33.993  24.909  24.407  1.00  0.00     0.020 A 
ATOM     13  O   UNL A   1      31.032  24.773  25.037  1.00  0.00    -0.474 OA
ATOM     14  C   UNL A   1      35.209  24.309  24.239  1.00  0.00     0.034 A 
ATOM     15  C   UNL A   1      32.636  23.915  24.801  1.00  0.00     0.148 A 
ATOM     16  C   UNL A   1      35.220  22.905  24.382  1.00  0.00     0.062 A 
ATOM     17  C   UNL A   1      32.732  22.551  24.943  1.00  0.00     0.103 A 
ATOM     18  Cl  UNL A   1      36.804  22.196  24.166  1.00  0.00    -0.083 Cl
ATOM     19  C   UNL A   1      34.055  22.063  24.711  1.00  0.00     0.082 A 
ATOM     20  Cl  UNL A   1      31.424  21.572  25.432  1.00  0.00    -0.079 Cl
ATOM     21  Cl  UNL A   1      34.335  20.337  24.840  1.00  0.00    -0.081 Cl
BRANCH  11  22
ATOM     22  C   UNL A   1      30.370  27.735  23.627  1.00  0.00     0.430 C 
ATOM     23  F   UNL A   1      31.068  27.972  22.520  1.00  0.00    -0.167 F 
ATOM     24  F   UNL A   1      29.186  27.213  23.193  1.00  0.00    -0.167 F 
ATOM     25  F   UNL A   1      30.035  28.977  24.092  1.00  0.00    -0.167 F 
ENDBRANCH  11  22
ENDBRANCH   7   9
ENDBRANCH   6   7
ENDBRANCH   5   6
ENDBRANCH   4   5
ENDBRANCH   3   4
ENDBRANCH   2   3
ENDBRANCH   1   2
BRANCH   1  26
ATOM     26  O   UNL A   1      33.353  34.579  30.991  1.00  0.00    -0.376 OA
BRANCH  26  27
ATOM     27  C   UNL A   1      34.174  34.511  32.146  1.00  0.00     0.202 C 
BRANCH  27  28
ATOM     28  C   UNL A   1      34.398  33.132  32.785  1.00  0.00     0.261 C 
BRANCH  28  29
ATOM     29  O   UNL A   1      35.457  32.362  32.172  1.00  0.00    -0.460 OA
BRANCH  29  30
ATOM     30  C   UNL A   1      36.473  31.963  32.975  1.00  0.00     0.338 C 
ATOM     31  O   UNL A   1      36.534  32.041  34.190  1.00  0.00    -0.246 OA
BRANCH  30  32
ATOM     32  C   UNL A   1      37.497  31.264  32.172  1.00  0.00     0.060 A 
ATOM     33  C   UNL A   1      38.592  30.666  32.814  1.00  0.00     0.016 A 
ATOM     34  C   UNL A   1      37.409  31.264  30.780  1.00  0.00     0.016 A 
ATOM     35  C   UNL A   1      39.594  30.048  32.063  1.00  0.00     0.010 A 
ATOM     36  C   UNL A   1      38.436  30.688  30.027  1.00  0.00     0.010 A 
ATOM     37  C   UNL A   1      39.542  30.099  30.664  1.00  0.00    -0.014 A 
BRANCH  37  38
ATOM     38  C   UNL A   1      40.757  29.773  29.880  1.00  0.00     0.031 A 
ATOM     39  C   UNL A   1      40.870  28.382  29.317  1.00  0.00     0.074 A 
ATOM     40  C   UNL A   1      41.725  30.678  29.653  1.00  0.00     0.049 A 
ATOM     41  N   UNL A   1      41.835  27.837  28.622  1.00  0.00    -0.248 NA
ATOM     42  C   UNL A   1      39.734  27.481  29.581  1.00  0.00     0.031 C 
ATOM     43  C   UNL A   1      41.714  32.064  30.116  1.00  0.00     0.029 A 
ATOM     44  N   UNL A   1      42.914  30.557  28.978  1.00  0.00    -0.354 N 
ATOM     45  C   UNL A   1      41.416  26.540  28.355  1.00  0.00     0.074 A 
ATOM     46  C   UNL A   1      40.138  26.361  29.007  1.00  0.00     0.031 C 
ATOM     47  C   UNL A   1      42.853  32.663  29.721  1.00  0.00     0.029 A 
ATOM     48  C   UNL A   1      43.683  31.696  29.003  1.00  0.00     0.049 A 
ATOM     49  H   UNL A   1      43.190  29.732  28.517  1.00  0.00     0.167 HD
ATOM     50  C   UNL A   1      42.032  25.588  27.617  1.00  0.00     0.037 A 
ATOM     51  C   UNL A   1      44.922  31.917  28.520  1.00  0.00     0.037 A 
ATOM     52  C   UNL A   1      43.320  25.759  27.000  1.00  0.00     0.049 A 
ATOM     53  C   UNL A   1      45.635  30.802  27.791  1.00  0.00     0.074 A 
ATOM     54  C   UNL A   1      44.041  24.854  26.243  1.00  0.00     0.029 A 
ATOM     55  N   UNL A   1      44.084  26.914  27.081  1.00  0.00    -0.354 N 
ATOM     56  N   UNL A   1      45.220  29.589  27.514  1.00  0.00    -0.248 NA
ATOM     57  C   UNL A   1      46.989  31.093  27.297  1.00  0.00     0.031 C 
ATOM     58  C   UNL A   1      45.270  25.436  25.923  1.00  0.00     0.029 A 
ATOM     59  C   UNL A   1      45.282  26.733  26.409  1.00  0.00     0.049 A 
ATOM     60  H   UNL A   1      43.816  27.739  27.546  1.00  0.00     0.167 HD
ATOM     61  C   UNL A   1      46.241  28.990  26.782  1.00  0.00     0.074 A 
ATOM     62  C   UNL A   1      47.286  29.981  26.642  1.00  0.00     0.031 C 
ATOM     63  C   UNL A   1      46.310  27.735  26.271  1.00  0.00     0.037 A 
BRANCH  50  64
ATOM     64  C   UNL A   1      41.326  24.271  27.464  1.00  0.00     0.057 A 
ATOM     65  C   UNL A   1      41.701  23.141  28.204  1.00  0.00     0.134 A 
ATOM     66  C   UNL A   1      40.249  24.133  26.579  1.00  0.00     0.134 A 
ATOM     67  F   UNL A   1      42.734  23.198  29.057  1.00  0.00    -0.206 F 
ATOM     68  C   UNL A   1      41.050  21.916  28.048  1.00  0.00     0.040 A 
ATOM     69  C   UNL A   1      39.568  22.924  26.441  1.00  0.00     0.040 A 
ATOM     70  F   UNL A   1      39.835  25.174  25.841  1.00  0.00    -0.206 F 
ATOM     71  C   UNL A   1      39.974  21.808  27.169  1.00  0.00     0.006 A 
ENDBRANCH  50  64
BRANCH  51  72
ATOM     72  C   UNL A   1      45.592  33.231  28.720  1.00  0.00     0.057 A 
ATOM     73  C   UNL A   1      45.549  34.233  27.741  1.00  0.00     0.134 A 
ATOM     74  C   UNL A   1      46.349  33.495  29.870  1.00  0.00     0.134 A 
ATOM     75  F   UNL A   1      44.864  34.037  26.605  1.00  0.00    -0.206 F 
ATOM     76  C   UNL A   1      46.262  35.426  27.878  1.00  0.00     0.040 A 
ATOM     77  C   UNL A   1      47.037  34.698  30.036  1.00  0.00     0.040 A 
ATOM     78  F   UNL A   1      46.437  32.582  30.848  1.00  0.00    -0.206 F 
ATOM     79  C   UNL A   1      47.007  35.662  29.032  1.00  0.00     0.006 A 
ENDBRANCH  51  72
BRANCH  63  80
ATOM     80  C   UNL A   1      47.528  27.382  25.462  1.00  0.00     0.057 A 
ATOM     81  C   UNL A   1      47.610  27.623  24.084  1.00  0.00     0.134 A 
ATOM     82  C   UNL A   1      48.652  26.818  26.083  1.00  0.00     0.134 A 
ATOM     83  F   UNL A   1      46.569  28.156  23.423  1.00  0.00    -0.206 F 
ATOM     84  C   UNL A   1      48.744  27.276  23.347  1.00  0.00     0.040 A 
ATOM     85  C   UNL A   1      49.806  26.503  25.363  1.00  0.00     0.040 A 
ATOM     86  F   UNL A   1      48.653  26.575  27.401  1.00  0.00    -0.206 F 
ATOM     87  C   UNL A   1      49.849  26.721  23.988  1.00  0.00     0.006 A 
ENDBRANCH  63  80
ENDBRANCH  37  38
ENDBRANCH  30  32
ENDBRANCH  29  30
ENDBRANCH  28  29
ENDBRANCH  27  28
ENDBRANCH  26  27
ENDBRANCH   1  26
TORSDOF 18
ENDMDL
