MODEL 1
REMARK VINA RESULT:     -10.7      0.000      0.000
REMARK SMILES Cc1cc(C)cc(C(=O)N2CC[C@H](C(=O)OCCOCCOCCOC(=O)c3ccc(-c4c5nc(c(-c6c(F)cccc6F)c6ccc([nH]6)c(-c6c(F)cccc6F)c6nc(c(-c7c(F)cccc7F)c7ccc4[nH]7)C=C6)C=C5)cc3)[C@@H]2C)c1
REMARK SMILES IDX 20 1 19 2 18 3 17 4 16 5 14 6 15 7 13 8 10 9 11 10 82 11
REMARK SMILES IDX 12 12 83 13 8 14 9 15 7 16 1 17 2 18 3 19 84 20 4 21 5 22
REMARK SMILES IDX 6 23 21 24 22 25 23 26 24 27 25 28 26 29 27 30 28 31 29 32
REMARK SMILES IDX 81 33 30 34 80 35 31 36 32 37 33 38 74 39 34 40 79 41 73 42
REMARK SMILES IDX 75 43 35 44 78 45 72 46 71 47 36 49 62 50 45 51 61 52 46 53
REMARK SMILES IDX 49 54 60 55 76 56 47 57 48 58 59 60 77 61 50 62 37 63 38 64
REMARK SMILES IDX 43 65 39 66 40 67 42 68 44 69 41 70 63 71 64 72 69 73 65 74
REMARK SMILES IDX 66 75 68 76 70 77 67 78 51 79 52 80 57 81 53 82 54 83 56 84
REMARK SMILES IDX 58 85 55 86
REMARK H PARENT 75 48 49 59
REMARK Flexibility Score: inf
ROOT
ATOM      1  C   UNL A   1      40.044  22.249  27.183  1.00  0.00     0.188 C 
ENDROOT
BRANCH   1   2
ATOM      2  O   UNL A   1      39.366  22.206  25.931  1.00  0.00    -0.376 OA
BRANCH   2   3
ATOM      3  C   UNL A   1      38.557  21.080  25.636  1.00  0.00     0.202 C 
BRANCH   3   4
ATOM      4  C   UNL A   1      37.374  21.317  24.695  1.00  0.00     0.261 C 
BRANCH   4   5
ATOM      5  O   UNL A   1      36.187  21.869  25.296  1.00  0.00    -0.463 OA
BRANCH   5   6
ATOM      6  C   UNL A   1      35.025  21.276  24.897  1.00  0.00     0.311 C 
ATOM      7  O   UNL A   1      34.784  20.083  25.028  1.00  0.00    -0.252 OA
BRANCH   6   8
ATOM      8  C   UNL A   1      34.148  22.246  24.115  1.00  0.00     0.123 C 
ATOM      9  N   UNL A   1      32.595  23.495  25.445  1.00  0.00    -0.335 N 
ATOM     10  C   UNL A   1      32.101  22.134  25.324  1.00  0.00     0.121 C 
ATOM     11  C   UNL A   1      33.862  23.645  24.706  1.00  0.00     0.096 C 
ATOM     12  C   UNL A   1      32.736  21.646  24.031  1.00  0.00     0.039 C 
ATOM     13  C   UNL A   1      34.977  24.253  25.533  1.00  0.00     0.032 C 
BRANCH   9  14
ATOM     14  C   UNL A   1      31.810  24.397  26.153  1.00  0.00     0.254 C 
ATOM     15  O   UNL A   1      31.207  24.036  27.166  1.00  0.00    -0.269 OA
BRANCH  14  16
ATOM     16  C   UNL A   1      31.607  25.806  25.711  1.00  0.00     0.040 A 
ATOM     17  C   UNL A   1      29.704  27.837  23.111  1.00  0.00     0.044 C 
ATOM     18  C   UNL A   1      30.561  27.489  24.293  1.00  0.00    -0.050 A 
ATOM     19  C   UNL A   1      31.053  28.497  25.129  1.00  0.00     0.006 A 
ATOM     20  C   UNL A   1      30.801  26.148  24.623  1.00  0.00     0.017 A 
ATOM     21  C   UNL A   1      31.806  28.178  26.265  1.00  0.00    -0.050 A 
ATOM     22  C   UNL A   1      32.209  29.261  27.224  1.00  0.00     0.044 C 
ATOM     23  C   UNL A   1      32.091  26.833  26.539  1.00  0.00     0.017 A 
ENDBRANCH  14  16
ENDBRANCH   9  14
ENDBRANCH   6   8
ENDBRANCH   5   6
ENDBRANCH   4   5
ENDBRANCH   3   4
ENDBRANCH   2   3
ENDBRANCH   1   2
BRANCH   1  24
ATOM     24  C   UNL A   1      41.033  21.122  27.526  1.00  0.00     0.188 C 
BRANCH  24  25
ATOM     25  O   UNL A   1      42.401  21.344  27.204  1.00  0.00    -0.376 OA
BRANCH  25  26
ATOM     26  C   UNL A   1      42.809  21.064  25.868  1.00  0.00     0.202 C 
BRANCH  26  27
ATOM     27  C   UNL A   1      43.525  22.214  25.153  1.00  0.00     0.261 C 
BRANCH  27  28
ATOM     28  O   UNL A   1      44.284  23.022  26.081  1.00  0.00    -0.460 OA
BRANCH  28  29
ATOM     29  C   UNL A   1      44.433  24.325  25.744  1.00  0.00     0.338 C 
ATOM     30  O   UNL A   1      45.120  24.773  24.842  1.00  0.00    -0.246 OA
BRANCH  29  31
ATOM     31  C   UNL A   1      43.534  25.184  26.543  1.00  0.00     0.060 A 
ATOM     32  C   UNL A   1      43.773  26.563  26.524  1.00  0.00     0.016 A 
ATOM     33  C   UNL A   1      42.570  24.649  27.402  1.00  0.00     0.016 A 
ATOM     34  C   UNL A   1      43.099  27.404  27.408  1.00  0.00     0.010 A 
ATOM     35  C   UNL A   1      41.901  25.496  28.297  1.00  0.00     0.010 A 
ATOM     36  C   UNL A   1      42.197  26.871  28.337  1.00  0.00    -0.014 A 
BRANCH  36  37
ATOM     37  C   UNL A   1      41.714  27.729  29.451  1.00  0.00     0.031 A 
ATOM     38  C   UNL A   1      42.491  27.766  30.740  1.00  0.00     0.074 A 
ATOM     39  C   UNL A   1      40.654  28.542  29.294  1.00  0.00     0.049 A 
ATOM     40  N   UNL A   1      42.251  28.433  31.841  1.00  0.00    -0.248 NA
ATOM     41  C   UNL A   1      43.712  26.946  30.791  1.00  0.00     0.031 C 
ATOM     42  C   UNL A   1      39.870  28.681  28.071  1.00  0.00     0.029 A 
ATOM     43  N   UNL A   1      40.072  29.425  30.171  1.00  0.00    -0.354 N 
ATOM     44  C   UNL A   1      43.277  28.104  32.716  1.00  0.00     0.074 A 
ATOM     45  C   UNL A   1      44.133  27.161  32.027  1.00  0.00     0.031 C 
ATOM     46  C   UNL A   1      38.922  29.614  28.265  1.00  0.00     0.029 A 
ATOM     47  C   UNL A   1      39.009  30.110  29.638  1.00  0.00     0.049 A 
ATOM     48  H   UNL A   1      40.388  29.554  31.095  1.00  0.00     0.167 HD
ATOM     49  C   UNL A   1      43.496  28.549  33.977  1.00  0.00     0.037 A 
ATOM     50  C   UNL A   1      38.193  31.025  30.195  1.00  0.00     0.037 A 
ATOM     51  C   UNL A   1      42.660  29.495  34.667  1.00  0.00     0.049 A 
ATOM     52  C   UNL A   1      38.401  31.436  31.628  1.00  0.00     0.074 A 
ATOM     53  C   UNL A   1      42.789  29.986  35.954  1.00  0.00     0.029 A 
ATOM     54  N   UNL A   1      41.537  30.098  34.120  1.00  0.00    -0.354 N 
ATOM     55  N   UNL A   1      39.348  31.084  32.462  1.00  0.00    -0.248 NA
ATOM     56  C   UNL A   1      37.413  32.365  32.199  1.00  0.00     0.031 C 
ATOM     57  C   UNL A   1      41.724  30.860  36.199  1.00  0.00     0.029 A 
ATOM     58  C   UNL A   1      40.953  30.941  35.051  1.00  0.00     0.049 A 
ATOM     59  H   UNL A   1      41.205  29.950  33.205  1.00  0.00     0.167 HD
ATOM     60  C   UNL A   1      39.083  31.760  33.647  1.00  0.00     0.074 A 
ATOM     61  C   UNL A   1      37.893  32.553  33.421  1.00  0.00     0.031 C 
ATOM     62  C   UNL A   1      39.767  31.726  34.817  1.00  0.00     0.037 A 
BRANCH  49  63
ATOM     63  C   UNL A   1      44.675  27.973  34.705  1.00  0.00     0.057 A 
ATOM     64  C   UNL A   1      45.953  28.539  34.614  1.00  0.00     0.134 A 
ATOM     65  C   UNL A   1      44.528  26.832  35.502  1.00  0.00     0.134 A 
ATOM     66  F   UNL A   1      46.163  29.624  33.852  1.00  0.00    -0.206 F 
ATOM     67  C   UNL A   1      47.049  27.973  35.267  1.00  0.00     0.040 A 
ATOM     68  C   UNL A   1      45.611  26.269  36.178  1.00  0.00     0.040 A 
ATOM     69  F   UNL A   1      43.329  26.242  35.635  1.00  0.00    -0.206 F 
ATOM     70  C   UNL A   1      46.878  26.836  36.054  1.00  0.00     0.006 A 
ENDBRANCH  49  63
BRANCH  50  71
ATOM     71  C   UNL A   1      37.090  31.614  29.396  1.00  0.00     0.057 A 
ATOM     72  C   UNL A   1      37.197  32.900  28.854  1.00  0.00     0.134 A 
ATOM     73  C   UNL A   1      35.902  30.912  29.165  1.00  0.00     0.134 A 
ATOM     74  F   UNL A   1      38.298  33.635  29.069  1.00  0.00    -0.206 F 
ATOM     75  C   UNL A   1      36.159  33.467  28.112  1.00  0.00     0.040 A 
ATOM     76  C   UNL A   1      34.865  31.459  28.407  1.00  0.00     0.040 A 
ATOM     77  F   UNL A   1      35.734  29.680  29.668  1.00  0.00    -0.206 F 
ATOM     78  C   UNL A   1      34.991  32.742  27.881  1.00  0.00     0.006 A 
ENDBRANCH  50  71
BRANCH  62  79
ATOM     79  C   UNL A   1      39.260  32.584  35.937  1.00  0.00     0.057 A 
ATOM     80  C   UNL A   1      38.359  32.092  36.889  1.00  0.00     0.134 A 
ATOM     81  C   UNL A   1      39.706  33.903  36.088  1.00  0.00     0.134 A 
ATOM     82  F   UNL A   1      37.884  30.841  36.795  1.00  0.00    -0.206 F 
ATOM     83  C   UNL A   1      37.906  32.889  37.944  1.00  0.00     0.040 A 
ATOM     84  C   UNL A   1      39.277  34.701  37.149  1.00  0.00     0.040 A 
ATOM     85  F   UNL A   1      40.576  34.432  35.215  1.00  0.00    -0.206 F 
ATOM     86  C   UNL A   1      38.371  34.195  38.079  1.00  0.00     0.006 A 
ENDBRANCH  62  79
ENDBRANCH  36  37
ENDBRANCH  29  31
ENDBRANCH  28  29
ENDBRANCH  27  28
ENDBRANCH  26  27
ENDBRANCH  25  26
ENDBRANCH  24  25
ENDBRANCH   1  24
TORSDOF 19
ENDMDL
MODEL 2
REMARK VINA RESULT:     -10.7      4.797     11.226
REMARK SMILES Cc1cc(C)cc(C(=O)N2CC[C@H](C(=O)OCCOCCOCCOC(=O)c3ccc(-c4c5nc(c(-c6c(F)cccc6F)c6ccc([nH]6)c(-c6c(F)cccc6F)c6nc(c(-c7c(F)cccc7F)c7ccc4[nH]7)C=C6)C=C5)cc3)[C@@H]2C)c1
REMARK SMILES IDX 20 1 19 2 18 3 17 4 16 5 14 6 15 7 13 8 10 9 11 10 82 11
REMARK SMILES IDX 12 12 83 13 8 14 9 15 7 16 1 17 2 18 3 19 84 20 4 21 5 22
REMARK SMILES IDX 6 23 21 24 22 25 23 26 24 27 25 28 26 29 27 30 28 31 29 32
REMARK SMILES IDX 81 33 30 34 80 35 31 36 32 37 33 38 74 39 34 40 79 41 73 42
REMARK SMILES IDX 75 43 35 44 78 45 72 46 71 47 36 49 62 50 45 51 61 52 46 53
REMARK SMILES IDX 49 54 60 55 76 56 47 57 48 58 59 60 77 61 50 62 37 63 38 64
REMARK SMILES IDX 43 65 39 66 40 67 42 68 44 69 41 70 63 71 64 72 69 73 65 74
REMARK SMILES IDX 66 75 68 76 70 77 67 78 51 79 52 80 57 81 53 82 54 83 56 84
REMARK SMILES IDX 58 85 55 86
REMARK H PARENT 75 48 49 59
REMARK Flexibility Score: inf
ROOT
ATOM      1  C   UNL A   1      32.933  35.593  30.114  1.00  0.00     0.188 C 
ENDROOT
BRANCH   1   2
ATOM      2  O   UNL A   1      33.299  36.682  30.957  1.00  0.00    -0.376 OA
BRANCH   2   3
ATOM      3  C   UNL A   1      32.992  36.603  32.339  1.00  0.00     0.202 C 
BRANCH   3   4
ATOM      4  C   UNL A   1      34.150  36.259  33.278  1.00  0.00     0.261 C 
BRANCH   4   5
ATOM      5  O   UNL A   1      34.429  34.856  33.452  1.00  0.00    -0.463 OA
BRANCH   5   6
ATOM      6  C   UNL A   1      35.739  34.517  33.280  1.00  0.00     0.311 C 
ATOM      7  O   UNL A   1      36.601  35.292  32.887  1.00  0.00    -0.252 OA
BRANCH   6   8
ATOM      8  C   UNL A   1      35.953  33.020  33.467  1.00  0.00     0.123 C 
ATOM      9  N   UNL A   1      38.242  32.353  33.705  1.00  0.00    -0.335 N 
ATOM     10  C   UNL A   1      38.004  32.673  32.308  1.00  0.00     0.121 C 
ATOM     11  C   UNL A   1      37.007  32.533  34.488  1.00  0.00     0.096 C 
ATOM     12  C   UNL A   1      36.507  32.452  32.151  1.00  0.00     0.039 C 
ATOM     13  C   UNL A   1      37.188  33.404  35.715  1.00  0.00     0.032 C 
BRANCH   9  14
ATOM     14  C   UNL A   1      39.512  31.903  34.048  1.00  0.00     0.254 C 
ATOM     15  O   UNL A   1      40.254  32.603  34.740  1.00  0.00    -0.269 OA
BRANCH  14  16
ATOM     16  C   UNL A   1      40.063  30.607  33.562  1.00  0.00     0.040 A 
ATOM     17  C   UNL A   1      43.269  28.551  33.632  1.00  0.00     0.044 C 
ATOM     18  C   UNL A   1      41.842  28.948  33.395  1.00  0.00    -0.050 A 
ATOM     19  C   UNL A   1      40.932  28.029  32.863  1.00  0.00     0.006 A 
ATOM     20  C   UNL A   1      41.385  30.214  33.788  1.00  0.00     0.017 A 
ATOM     21  C   UNL A   1      39.586  28.373  32.691  1.00  0.00    -0.050 A 
ATOM     22  C   UNL A   1      38.598  27.333  32.248  1.00  0.00     0.044 C 
ATOM     23  C   UNL A   1      39.164  29.667  33.027  1.00  0.00     0.017 A 
ENDBRANCH  14  16
ENDBRANCH   9  14
ENDBRANCH   6   8
ENDBRANCH   5   6
ENDBRANCH   4   5
ENDBRANCH   3   4
ENDBRANCH   2   3
ENDBRANCH   1   2
BRANCH   1  24
ATOM     24  C   UNL A   1      33.700  35.390  28.796  1.00  0.00     0.188 C 
BRANCH  24  25
ATOM     25  O   UNL A   1      34.845  34.547  28.840  1.00  0.00    -0.376 OA
BRANCH  25  26
ATOM     26  C   UNL A   1      34.630  33.174  29.150  1.00  0.00     0.202 C 
BRANCH  26  27
ATOM     27  C   UNL A   1      34.354  32.271  27.943  1.00  0.00     0.261 C 
BRANCH  27  28
ATOM     28  O   UNL A   1      33.937  30.950  28.358  1.00  0.00    -0.460 OA
BRANCH  28  29
ATOM     29  C   UNL A   1      34.603  29.916  27.790  1.00  0.00     0.338 C 
ATOM     30  O   UNL A   1      34.162  29.121  26.978  1.00  0.00    -0.246 OA
BRANCH  29  31
ATOM     31  C   UNL A   1      36.027  29.926  28.182  1.00  0.00     0.060 A 
ATOM     32  C   UNL A   1      36.974  30.135  27.173  1.00  0.00     0.016 A 
ATOM     33  C   UNL A   1      36.441  29.601  29.477  1.00  0.00     0.016 A 
ATOM     34  C   UNL A   1      38.331  29.954  27.435  1.00  0.00     0.010 A 
ATOM     35  C   UNL A   1      37.805  29.409  29.736  1.00  0.00     0.010 A 
ATOM     36  C   UNL A   1      38.753  29.538  28.704  1.00  0.00    -0.014 A 
BRANCH  36  37
ATOM     37  C   UNL A   1      40.154  29.074  28.884  1.00  0.00     0.031 A 
ATOM     38  C   UNL A   1      41.142  29.975  29.576  1.00  0.00     0.074 A 
ATOM     39  C   UNL A   1      40.528  27.833  28.528  1.00  0.00     0.049 A 
ATOM     40  N   UNL A   1      42.411  29.782  29.833  1.00  0.00    -0.248 NA
ATOM     41  C   UNL A   1      40.626  31.269  30.051  1.00  0.00     0.031 C 
ATOM     42  C   UNL A   1      39.653  26.823  27.941  1.00  0.00     0.029 A 
ATOM     43  N   UNL A   1      41.745  27.204  28.636  1.00  0.00    -0.354 N 
ATOM     44  C   UNL A   1      42.847  30.928  30.484  1.00  0.00     0.074 A 
ATOM     45  C   UNL A   1      41.711  31.823  30.566  1.00  0.00     0.031 C 
ATOM     46  C   UNL A   1      40.354  25.691  27.761  1.00  0.00     0.029 A 
ATOM     47  C   UNL A   1      41.736  25.908  28.185  1.00  0.00     0.049 A 
ATOM     48  H   UNL A   1      42.547  27.643  29.002  1.00  0.00     0.167 HD
ATOM     49  C   UNL A   1      44.076  31.211  30.978  1.00  0.00     0.037 A 
ATOM     50  C   UNL A   1      42.731  25.003  28.113  1.00  0.00     0.037 A 
ATOM     51  C   UNL A   1      45.207  30.325  30.914  1.00  0.00     0.049 A 
ATOM     52  C   UNL A   1      44.112  25.374  28.584  1.00  0.00     0.074 A 
ATOM     53  C   UNL A   1      46.499  30.535  31.366  1.00  0.00     0.029 A 
ATOM     54  N   UNL A   1      45.179  29.051  30.366  1.00  0.00    -0.354 N 
ATOM     55  N   UNL A   1      44.525  26.477  29.156  1.00  0.00    -0.248 NA
ATOM     56  C   UNL A   1      45.170  24.370  28.384  1.00  0.00     0.031 C 
ATOM     57  C   UNL A   1      47.261  29.402  31.059  1.00  0.00     0.029 A 
ATOM     58  C   UNL A   1      46.435  28.472  30.449  1.00  0.00     0.049 A 
ATOM     59  H   UNL A   1      44.384  28.621  29.975  1.00  0.00     0.167 HD
ATOM     60  C   UNL A   1      45.880  26.296  29.403  1.00  0.00     0.074 A 
ATOM     61  C   UNL A   1      46.219  24.971  28.929  1.00  0.00     0.031 C 
ATOM     62  C   UNL A   1      46.763  27.153  29.973  1.00  0.00     0.037 A 
BRANCH  49  63
ATOM     63  C   UNL A   1      44.264  32.566  31.596  1.00  0.00     0.057 A 
ATOM     64  C   UNL A   1      44.469  33.714  30.820  1.00  0.00     0.134 A 
ATOM     65  C   UNL A   1      44.245  32.719  32.987  1.00  0.00     0.134 A 
ATOM     66  F   UNL A   1      44.515  33.631  29.482  1.00  0.00    -0.206 F 
ATOM     67  C   UNL A   1      44.678  34.962  31.409  1.00  0.00     0.040 A 
ATOM     68  C   UNL A   1      44.430  33.965  33.587  1.00  0.00     0.040 A 
ATOM     69  F   UNL A   1      44.049  31.659  33.787  1.00  0.00    -0.206 F 
ATOM     70  C   UNL A   1      44.656  35.090  32.797  1.00  0.00     0.006 A 
ENDBRANCH  49  63
BRANCH  50  71
ATOM     71  C   UNL A   1      42.462  23.653  27.561  1.00  0.00     0.057 A 
ATOM     72  C   UNL A   1      42.242  22.558  28.405  1.00  0.00     0.134 A 
ATOM     73  C   UNL A   1      42.429  23.422  26.181  1.00  0.00     0.134 A 
ATOM     74  F   UNL A   1      42.294  22.709  29.736  1.00  0.00    -0.206 F 
ATOM     75  C   UNL A   1      42.001  21.281  27.895  1.00  0.00     0.040 A 
ATOM     76  C   UNL A   1      42.167  22.155  25.657  1.00  0.00     0.040 A 
ATOM     77  F   UNL A   1      42.643  24.428  25.321  1.00  0.00    -0.206 F 
ATOM     78  C   UNL A   1      41.956  21.078  26.516  1.00  0.00     0.006 A 
ENDBRANCH  50  71
BRANCH  62  79
ATOM     79  C   UNL A   1      48.177  26.679  30.134  1.00  0.00     0.057 A 
ATOM     80  C   UNL A   1      49.156  26.948  29.171  1.00  0.00     0.134 A 
ATOM     81  C   UNL A   1      48.571  25.980  31.282  1.00  0.00     0.134 A 
ATOM     82  F   UNL A   1      48.840  27.603  28.043  1.00  0.00    -0.206 F 
ATOM     83  C   UNL A   1      50.477  26.523  29.336  1.00  0.00     0.040 A 
ATOM     84  C   UNL A   1      49.892  25.569  31.467  1.00  0.00     0.040 A 
ATOM     85  F   UNL A   1      47.683  25.697  32.246  1.00  0.00    -0.206 F 
ATOM     86  C   UNL A   1      50.849  25.838  30.491  1.00  0.00     0.006 A 
ENDBRANCH  62  79
ENDBRANCH  36  37
ENDBRANCH  29  31
ENDBRANCH  28  29
ENDBRANCH  27  28
ENDBRANCH  26  27
ENDBRANCH  25  26
ENDBRANCH  24  25
ENDBRANCH   1  24
TORSDOF 19
ENDMDL
MODEL 3
REMARK VINA RESULT:     -10.6      4.741      9.870
REMARK SMILES Cc1cc(C)cc(C(=O)N2CC[C@H](C(=O)OCCOCCOCCOC(=O)c3ccc(-c4c5nc(c(-c6c(F)cccc6F)c6ccc([nH]6)c(-c6c(F)cccc6F)c6nc(c(-c7c(F)cccc7F)c7ccc4[nH]7)C=C6)C=C5)cc3)[C@@H]2C)c1
REMARK SMILES IDX 20 1 19 2 18 3 17 4 16 5 14 6 15 7 13 8 10 9 11 10 82 11
REMARK SMILES IDX 12 12 83 13 8 14 9 15 7 16 1 17 2 18 3 19 84 20 4 21 5 22
REMARK SMILES IDX 6 23 21 24 22 25 23 26 24 27 25 28 26 29 27 30 28 31 29 32
REMARK SMILES IDX 81 33 30 34 80 35 31 36 32 37 33 38 74 39 34 40 79 41 73 42
REMARK SMILES IDX 75 43 35 44 78 45 72 46 71 47 36 49 62 50 45 51 61 52 46 53
REMARK SMILES IDX 49 54 60 55 76 56 47 57 48 58 59 60 77 61 50 62 37 63 38 64
REMARK SMILES IDX 43 65 39 66 40 67 42 68 44 69 41 70 63 71 64 72 69 73 65 74
REMARK SMILES IDX 66 75 68 76 70 77 67 78 51 79 52 80 57 81 53 82 54 83 56 84
REMARK SMILES IDX 58 85 55 86
REMARK H PARENT 75 48 49 59
REMARK Flexibility Score: inf
ROOT
ATOM      1  C   UNL A   1      33.730  31.095  27.580  1.00  0.00     0.188 C 
ENDROOT
BRANCH   1   2
ATOM      2  O   UNL A   1      32.496  30.421  27.351  1.00  0.00    -0.376 OA
BRANCH   2   3
ATOM      3  C   UNL A   1      31.780  30.701  26.160  1.00  0.00     0.202 C 
BRANCH   3   4
ATOM      4  C   UNL A   1      31.970  29.721  25.001  1.00  0.00     0.261 C 
BRANCH   4   5
ATOM      5  O   UNL A   1      30.794  29.425  24.222  1.00  0.00    -0.463 OA
BRANCH   5   6
ATOM      6  C   UNL A   1      30.840  28.232  23.564  1.00  0.00     0.311 C 
ATOM      7  O   UNL A   1      30.231  27.996  22.529  1.00  0.00    -0.252 OA
BRANCH   6   8
ATOM      8  C   UNL A   1      31.600  27.184  24.369  1.00  0.00     0.123 C 
ATOM      9  N   UNL A   1      32.439  25.343  23.087  1.00  0.00    -0.335 N 
ATOM     10  C   UNL A   1      31.004  25.176  23.238  1.00  0.00     0.121 C 
ATOM     11  C   UNL A   1      32.886  26.567  23.776  1.00  0.00     0.096 C 
ATOM     12  C   UNL A   1      30.696  25.950  24.511  1.00  0.00     0.039 C 
ATOM     13  C   UNL A   1      33.716  27.485  22.902  1.00  0.00     0.032 C 
BRANCH   9  14
ATOM     14  C   UNL A   1      33.127  24.349  22.400  1.00  0.00     0.254 C 
ATOM     15  O   UNL A   1      33.188  24.373  21.168  1.00  0.00    -0.269 OA
BRANCH  14  16
ATOM     16  C   UNL A   1      33.765  23.191  23.087  1.00  0.00     0.040 A 
ATOM     17  C   UNL A   1      37.069  22.155  24.673  1.00  0.00     0.044 C 
ATOM     18  C   UNL A   1      35.634  22.130  24.237  1.00  0.00    -0.050 A 
ATOM     19  C   UNL A   1      34.795  21.081  24.626  1.00  0.00     0.006 A 
ATOM     20  C   UNL A   1      35.095  23.203  23.513  1.00  0.00     0.017 A 
ATOM     21  C   UNL A   1      33.441  21.078  24.272  1.00  0.00    -0.050 A 
ATOM     22  C   UNL A   1      32.528  20.016  24.813  1.00  0.00     0.044 C 
ATOM     23  C   UNL A   1      32.939  22.128  23.490  1.00  0.00     0.017 A 
ENDBRANCH  14  16
ENDBRANCH   9  14
ENDBRANCH   6   8
ENDBRANCH   5   6
ENDBRANCH   4   5
ENDBRANCH   3   4
ENDBRANCH   2   3
ENDBRANCH   1   2
BRANCH   1  24
ATOM     24  C   UNL A   1      33.695  32.579  27.984  1.00  0.00     0.188 C 
BRANCH  24  25
ATOM     25  O   UNL A   1      34.946  33.210  28.231  1.00  0.00    -0.376 OA
BRANCH  25  26
ATOM     26  C   UNL A   1      35.007  34.133  29.314  1.00  0.00     0.202 C 
BRANCH  26  27
ATOM     27  C   UNL A   1      34.330  33.664  30.606  1.00  0.00     0.261 C 
BRANCH  27  28
ATOM     28  O   UNL A   1      34.600  32.268  30.866  1.00  0.00    -0.460 OA
BRANCH  28  29
ATOM     29  C   UNL A   1      35.604  32.015  31.741  1.00  0.00     0.338 C 
ATOM     30  O   UNL A   1      35.668  32.374  32.904  1.00  0.00    -0.246 OA
BRANCH  29  31
ATOM     31  C   UNL A   1      36.608  31.110  31.145  1.00  0.00     0.060 A 
ATOM     32  C   UNL A   1      37.610  30.613  31.987  1.00  0.00     0.016 A 
ATOM     33  C   UNL A   1      36.657  30.859  29.771  1.00  0.00     0.016 A 
ATOM     34  C   UNL A   1      38.698  29.924  31.453  1.00  0.00     0.010 A 
ATOM     35  C   UNL A   1      37.757  30.176  29.235  1.00  0.00     0.010 A 
ATOM     36  C   UNL A   1      38.806  29.746  30.068  1.00  0.00    -0.014 A 
BRANCH  36  37
ATOM     37  C   UNL A   1      40.096  29.274  29.499  1.00  0.00     0.031 A 
ATOM     38  C   UNL A   1      41.270  30.217  29.460  1.00  0.00     0.074 A 
ATOM     39  C   UNL A   1      40.260  27.998  29.108  1.00  0.00     0.049 A 
ATOM     40  N   UNL A   1      42.482  30.024  29.002  1.00  0.00    -0.248 NA
ATOM     41  C   UNL A   1      41.050  31.559  30.022  1.00  0.00     0.031 C 
ATOM     42  C   UNL A   1      39.242  26.955  29.182  1.00  0.00     0.029 A 
ATOM     43  N   UNL A   1      41.362  27.360  28.593  1.00  0.00    -0.354 N 
ATOM     44  C   UNL A   1      43.161  31.217  29.208  1.00  0.00     0.074 A 
ATOM     45  C   UNL A   1      42.221  32.138  29.813  1.00  0.00     0.031 C 
ATOM     46  C   UNL A   1      39.772  25.798  28.751  1.00  0.00     0.029 A 
ATOM     47  C   UNL A   1      41.155  26.027  28.335  1.00  0.00     0.049 A 
ATOM     48  H   UNL A   1      42.219  27.815  28.424  1.00  0.00     0.167 HD
ATOM     49  C   UNL A   1      44.451  31.521  28.927  1.00  0.00     0.037 A 
ATOM     50  C   UNL A   1      41.982  25.101  27.815  1.00  0.00     0.037 A 
ATOM     51  C   UNL A   1      45.396  30.611  28.338  1.00  0.00     0.049 A 
ATOM     52  C   UNL A   1      43.384  25.487  27.426  1.00  0.00     0.074 A 
ATOM     53  C   UNL A   1      46.718  30.838  27.996  1.00  0.00     0.029 A 
ATOM     54  N   UNL A   1      45.119  29.293  28.009  1.00  0.00    -0.354 N 
ATOM     55  N   UNL A   1      44.003  26.630  27.582  1.00  0.00    -0.248 NA
ATOM     56  C   UNL A   1      44.198  24.449  26.773  1.00  0.00     0.031 C 
ATOM     57  C   UNL A   1      47.230  29.667  27.425  1.00  0.00     0.029 A 
ATOM     58  C   UNL A   1      46.239  28.700  27.447  1.00  0.00     0.049 A 
ATOM     59  H   UNL A   1      44.254  28.844  28.152  1.00  0.00     0.167 HD
ATOM     60  C   UNL A   1      45.281  26.447  27.068  1.00  0.00     0.074 A 
ATOM     61  C   UNL A   1      45.354  25.077  26.605  1.00  0.00     0.031 C 
ATOM     62  C   UNL A   1      46.301  27.336  26.988  1.00  0.00     0.037 A 
BRANCH  49  63
ATOM     63  C   UNL A   1      44.897  32.924  29.221  1.00  0.00     0.057 A 
ATOM     64  C   UNL A   1      45.487  33.275  30.441  1.00  0.00     0.134 A 
ATOM     65  C   UNL A   1      44.725  33.936  28.270  1.00  0.00     0.134 A 
ATOM     66  F   UNL A   1      45.664  32.354  31.401  1.00  0.00    -0.206 F 
ATOM     67  C   UNL A   1      45.864  34.591  30.716  1.00  0.00     0.040 A 
ATOM     68  C   UNL A   1      45.118  35.251  28.523  1.00  0.00     0.040 A 
ATOM     69  F   UNL A   1      44.168  33.666  27.078  1.00  0.00    -0.206 F 
ATOM     70  C   UNL A   1      45.682  35.582  29.754  1.00  0.00     0.006 A 
ENDBRANCH  49  63
BRANCH  50  71
ATOM     71  C   UNL A   1      41.503  23.710  27.620  1.00  0.00     0.057 A 
ATOM     72  C   UNL A   1      41.938  22.672  28.452  1.00  0.00     0.134 A 
ATOM     73  C   UNL A   1      40.610  23.384  26.593  1.00  0.00     0.134 A 
ATOM     74  F   UNL A   1      42.820  22.916  29.433  1.00  0.00    -0.206 F 
ATOM     75  C   UNL A   1      41.504  21.359  28.268  1.00  0.00     0.040 A 
ATOM     76  C   UNL A   1      40.150  22.078  26.411  1.00  0.00     0.040 A 
ATOM     77  F   UNL A   1      40.166  24.331  25.755  1.00  0.00    -0.206 F 
ATOM     78  C   UNL A   1      40.600  21.060  27.249  1.00  0.00     0.006 A 
ENDBRANCH  50  71
BRANCH  62  79
ATOM     79  C   UNL A   1      47.591  26.852  26.397  1.00  0.00     0.057 A 
ATOM     80  C   UNL A   1      47.864  26.974  25.029  1.00  0.00     0.134 A 
ATOM     81  C   UNL A   1      48.587  26.294  27.210  1.00  0.00     0.134 A 
ATOM     82  F   UNL A   1      46.948  27.488  24.195  1.00  0.00    -0.206 F 
ATOM     83  C   UNL A   1      49.077  26.542  24.487  1.00  0.00     0.040 A 
ATOM     84  C   UNL A   1      49.810  25.878  26.682  1.00  0.00     0.040 A 
ATOM     85  F   UNL A   1      48.391  26.157  28.529  1.00  0.00    -0.206 F 
ATOM     86  C   UNL A   1      50.057  25.998  25.316  1.00  0.00     0.006 A 
ENDBRANCH  62  79
ENDBRANCH  36  37
ENDBRANCH  29  31
ENDBRANCH  28  29
ENDBRANCH  27  28
ENDBRANCH  26  27
ENDBRANCH  25  26
ENDBRANCH  24  25
ENDBRANCH   1  24
TORSDOF 19
ENDMDL
