MODEL 1
REMARK VINA RESULT:      -8.6      0.000      0.000
REMARK SMILES CC(C)C[C@H](NC(=O)[C@@H](NC(=O)[C@H](C)NC(=O)CNC(=O)OCc1ccccc1)C(C)C)C(=O)OCCOCCOCCOC(=O)c1ccc(-c2c3nc(c(-c4c(F)cccc4F)c4ccc([nH]4)c(-c4c(F)cccc4F)c4nc(c(-c5c(F)cccc5F)c5ccc2[nH]5)C=C4)C=C3)cc1
REMARK SMILES IDX 36 1 35 2 33 3 34 4 5 5 4 6 2 7 1 8 3 9 6 10 7 11 8 13 9 14
REMARK SMILES IDX 10 15 11 16 12 18 13 19 14 20 15 21 16 22 17 24 18 25 19 26
REMARK SMILES IDX 20 27 21 29 22 30 23 31 24 32 25 33 29 34 26 35 28 36 27 37
REMARK SMILES IDX 30 38 31 39 32 40 37 41 38 42 39 43 40 44 41 45 42 46 43 47
REMARK SMILES IDX 44 48 45 49 46 50 47 51 48 52 100 53 49 54 99 55 50 56 51 57
REMARK SMILES IDX 52 58 93 59 53 60 98 61 92 62 94 63 54 64 97 65 91 66 90 67
REMARK SMILES IDX 55 69 81 70 64 71 80 72 65 73 68 74 79 75 95 76 66 77 67 78
REMARK SMILES IDX 78 80 96 81 69 82 56 83 57 84 62 85 58 86 59 87 61 88 63 89
REMARK SMILES IDX 60 90 82 91 83 92 88 93 84 94 85 95 87 96 89 97 86 98 70 99
REMARK SMILES IDX 71 100 76 101 72 102 73 103 75 104 77 105 74 106
REMARK H PARENT 6 12 10 17 15 23 19 28 94 68 68 79
REMARK Flexibility Score: inf
ROOT
ATOM      1  C   UNL A   1      44.391  23.349  27.995  1.00  0.00     0.261 C 
ENDROOT
BRANCH   1   2
ATOM      2  O   UNL A   1      43.123  23.280  27.368  1.00  0.00    -0.462 OA
BRANCH   2   3
ATOM      3  C   UNL A   1      42.162  22.990  28.277  1.00  0.00     0.328 C 
ATOM      4  O   UNL A   1      42.421  22.960  29.478  1.00  0.00    -0.250 OA
BRANCH   3   5
ATOM      5  C   UNL A   1      40.807  22.535  27.661  1.00  0.00     0.192 C 
BRANCH   5   6
ATOM      6  C   UNL A   1      41.342  22.053  26.285  1.00  0.00     0.040 C 
BRANCH   6   7
ATOM      7  C   UNL A   1      41.501  20.537  25.984  1.00  0.00    -0.015 C 
ATOM      8  C   UNL A   1      42.586  19.732  26.697  1.00  0.00     0.007 C 
ATOM      9  C   UNL A   1      40.176  19.781  26.171  1.00  0.00     0.007 C 
ENDBRANCH   6   7
ENDBRANCH   5   6
BRANCH   5  10
ATOM     10  N   UNL A   1      39.470  23.326  27.521  1.00  0.00    -0.341 N 
ATOM     11  C   UNL A   1      38.447  23.503  26.577  1.00  0.00     0.243 C 
ATOM     12  H   UNL A   1      39.292  23.856  28.331  1.00  0.00     0.164 HD
ATOM     13  O   UNL A   1      38.267  24.723  26.358  1.00  0.00    -0.273 OA
BRANCH  11  14
ATOM     14  C   UNL A   1      37.216  22.398  25.898  1.00  0.00     0.174 C 
BRANCH  14  15
ATOM     15  N   UNL A   1      35.583  22.000  26.237  1.00  0.00    -0.342 N 
ATOM     16  C   UNL A   1      34.237  22.235  26.440  1.00  0.00     0.242 C 
ATOM     17  H   UNL A   1      35.636  21.024  26.360  1.00  0.00     0.164 HD
ATOM     18  O   UNL A   1      33.645  21.133  26.539  1.00  0.00    -0.273 OA
BRANCH  16  19
ATOM     19  C   UNL A   1      33.226  23.562  26.842  1.00  0.00     0.168 C 
ATOM     20  C   UNL A   1      31.924  23.096  27.512  1.00  0.00     0.041 C 
BRANCH  19  21
ATOM     21  N   UNL A   1      32.891  24.869  26.216  1.00  0.00    -0.343 N 
ATOM     22  C   UNL A   1      33.717  25.624  25.399  1.00  0.00     0.240 C 
ATOM     23  H   UNL A   1      31.996  25.234  26.401  1.00  0.00     0.164 HD
ATOM     24  O   UNL A   1      34.782  25.203  24.961  1.00  0.00    -0.273 OA
BRANCH  22  25
ATOM     25  C   UNL A   1      33.211  27.061  25.097  1.00  0.00     0.219 C 
BRANCH  25  26
ATOM     26  N   UNL A   1      33.968  27.535  23.977  1.00  0.00    -0.312 N 
ATOM     27  C   UNL A   1      33.505  27.368  22.720  1.00  0.00     0.407 C 
ATOM     28  H   UNL A   1      34.831  27.985  24.126  1.00  0.00     0.167 HD
ATOM     29  O   UNL A   1      34.301  27.285  21.773  1.00  0.00    -0.225 OA
BRANCH  27  30
ATOM     30  O   UNL A   1      32.158  27.249  22.660  1.00  0.00    -0.445 OA
BRANCH  30  31
ATOM     31  C   UNL A   1      31.607  26.178  21.868  1.00  0.00     0.270 C 
BRANCH  31  32
ATOM     32  C   UNL A   1      31.873  24.864  22.553  1.00  0.00    -0.011 A 
ATOM     33  C   UNL A   1      32.936  24.073  22.097  1.00  0.00     0.007 A 
ATOM     34  C   UNL A   1      30.926  24.311  23.423  1.00  0.00     0.007 A 
ATOM     35  C   UNL A   1      32.950  22.708  22.351  1.00  0.00     0.000 A 
ATOM     36  C   UNL A   1      30.977  22.950  23.724  1.00  0.00     0.000 A 
ATOM     37  C   UNL A   1      31.960  22.143  23.149  1.00  0.00     0.000 A 
ENDBRANCH  31  32
ENDBRANCH  30  31
ENDBRANCH  27  30
ENDBRANCH  25  26
ENDBRANCH  22  25
ENDBRANCH  19  21
ENDBRANCH  16  19
ENDBRANCH  14  15
BRANCH  14  38
ATOM     38  C   UNL A   1      37.578  21.932  24.454  1.00  0.00     0.015 C 
ATOM     39  C   UNL A   1      37.362  20.420  24.262  1.00  0.00     0.010 C 
ATOM     40  C   UNL A   1      36.701  22.652  23.412  1.00  0.00     0.010 C 
ENDBRANCH  14  38
ENDBRANCH  11  14
ENDBRANCH   5  10
ENDBRANCH   3   5
ENDBRANCH   2   3
ENDBRANCH   1   2
BRANCH   1  41
ATOM     41  C   UNL A   1      45.050  24.671  27.551  1.00  0.00     0.202 C 
BRANCH  41  42
ATOM     42  O   UNL A   1      44.984  25.063  26.168  1.00  0.00    -0.376 OA
BRANCH  42  43
ATOM     43  C   UNL A   1      44.700  26.349  25.612  1.00  0.00     0.188 C 
BRANCH  43  44
ATOM     44  C   UNL A   1      43.191  26.615  25.189  1.00  0.00     0.188 C 
BRANCH  44  45
ATOM     45  O   UNL A   1      42.292  26.762  26.274  1.00  0.00    -0.376 OA
BRANCH  45  46
ATOM     46  C   UNL A   1      41.158  27.629  26.210  1.00  0.00     0.202 C 
BRANCH  46  47
ATOM     47  C   UNL A   1      40.521  27.804  27.595  1.00  0.00     0.261 C 
BRANCH  47  48
ATOM     48  O   UNL A   1      40.264  29.181  27.857  1.00  0.00    -0.460 OA
BRANCH  48  49
ATOM     49  C   UNL A   1      39.101  29.401  28.498  1.00  0.00     0.338 C 
ATOM     50  O   UNL A   1      38.046  28.781  28.395  1.00  0.00    -0.246 OA
BRANCH  49  51
ATOM     51  C   UNL A   1      39.439  30.289  29.600  1.00  0.00     0.060 A 
ATOM     52  C   UNL A   1      38.606  31.392  29.838  1.00  0.00     0.016 A 
ATOM     53  C   UNL A   1      40.515  29.980  30.432  1.00  0.00     0.016 A 
ATOM     54  C   UNL A   1      38.884  32.233  30.902  1.00  0.00     0.010 A 
ATOM     55  C   UNL A   1      40.822  30.845  31.467  1.00  0.00     0.010 A 
ATOM     56  C   UNL A   1      40.040  31.997  31.657  1.00  0.00    -0.014 A 
BRANCH  56  57
ATOM     57  C   UNL A   1      40.657  33.127  32.367  1.00  0.00     0.031 A 
ATOM     58  C   UNL A   1      41.596  33.980  31.563  1.00  0.00     0.074 A 
ATOM     59  C   UNL A   1      40.419  33.343  33.667  1.00  0.00     0.049 A 
ATOM     60  N   UNL A   1      42.373  34.952  31.951  1.00  0.00    -0.248 NA
ATOM     61  C   UNL A   1      41.676  33.688  30.117  1.00  0.00     0.031 C 
ATOM     62  C   UNL A   1      39.489  32.581  34.499  1.00  0.00     0.029 A 
ATOM     63  N   UNL A   1      40.970  34.259  34.517  1.00  0.00    -0.354 N 
ATOM     64  C   UNL A   1      43.029  35.381  30.804  1.00  0.00     0.074 A 
ATOM     65  C   UNL A   1      42.580  34.560  29.708  1.00  0.00     0.031 C 
ATOM     66  C   UNL A   1      39.556  33.050  35.759  1.00  0.00     0.029 A 
ATOM     67  C   UNL A   1      40.561  34.109  35.818  1.00  0.00     0.049 A 
ATOM     68  H   UNL A   1      41.599  34.958  34.226  1.00  0.00     0.167 HD
ATOM     69  C   UNL A   1      43.937  36.373  30.683  1.00  0.00     0.037 A 
ATOM     70  C   UNL A   1      40.992  34.742  36.924  1.00  0.00     0.037 A 
ATOM     71  C   UNL A   1      44.402  37.146  31.798  1.00  0.00     0.049 A 
ATOM     72  C   UNL A   1      42.066  35.789  36.775  1.00  0.00     0.074 A 
ATOM     73  C   UNL A   1      45.332  38.164  31.815  1.00  0.00     0.029 A 
ATOM     74  N   UNL A   1      43.970  36.963  33.103  1.00  0.00    -0.354 N 
ATOM     75  N   UNL A   1      42.675  36.204  35.689  1.00  0.00    -0.248 NA
ATOM     76  C   UNL A   1      42.517  36.452  38.006  1.00  0.00     0.031 C 
ATOM     77  C   UNL A   1      45.497  38.571  33.143  1.00  0.00     0.029 A 
ATOM     78  C   UNL A   1      44.628  37.841  33.942  1.00  0.00     0.049 A 
ATOM     79  H   UNL A   1      43.295  36.306  33.391  1.00  0.00     0.167 HD
ATOM     80  C   UNL A   1      43.557  37.197  36.099  1.00  0.00     0.074 A 
ATOM     81  C   UNL A   1      43.395  37.325  37.534  1.00  0.00     0.031 C 
ATOM     82  C   UNL A   1      44.422  37.940  35.365  1.00  0.00     0.037 A 
BRANCH  69  83
ATOM     83  C   UNL A   1      44.501  36.623  29.318  1.00  0.00     0.057 A 
ATOM     84  C   UNL A   1      43.913  37.534  28.430  1.00  0.00     0.134 A 
ATOM     85  C   UNL A   1      45.636  35.932  28.879  1.00  0.00     0.134 A 
ATOM     86  F   UNL A   1      42.802  38.201  28.778  1.00  0.00    -0.206 F 
ATOM     87  C   UNL A   1      44.425  37.738  27.148  1.00  0.00     0.040 A 
ATOM     88  C   UNL A   1      46.172  36.145  27.608  1.00  0.00     0.040 A 
ATOM     89  F   UNL A   1      46.237  35.034  29.673  1.00  0.00    -0.206 F 
ATOM     90  C   UNL A   1      45.564  37.047  26.737  1.00  0.00     0.006 A 
ENDBRANCH  69  83
BRANCH  70  91
ATOM     91  C   UNL A   1      40.435  34.392  38.253  1.00  0.00     0.057 A 
ATOM     92  C   UNL A   1      39.382  35.124  38.814  1.00  0.00     0.134 A 
ATOM     93  C   UNL A   1      40.948  33.325  39.003  1.00  0.00     0.134 A 
ATOM     94  F   UNL A   1      38.859  36.166  38.152  1.00  0.00    -0.206 F 
ATOM     95  C   UNL A   1      38.873  34.823  40.079  1.00  0.00     0.040 A 
ATOM     96  C   UNL A   1      40.433  32.998  40.258  1.00  0.00     0.040 A 
ATOM     97  F   UNL A   1      41.953  32.580  38.520  1.00  0.00    -0.206 F 
ATOM     98  C   UNL A   1      39.397  33.753  40.803  1.00  0.00     0.006 A 
ENDBRANCH  70  91
BRANCH  82  99
ATOM     99  C   UNL A   1      45.217  38.980  36.094  1.00  0.00     0.057 A 
ATOM    100  C   UNL A   1      44.826  40.323  36.124  1.00  0.00     0.134 A 
ATOM    101  C   UNL A   1      46.353  38.614  36.826  1.00  0.00     0.134 A 
ATOM    102  F   UNL A   1      43.751  40.734  35.435  1.00  0.00    -0.206 F 
ATOM    103  C   UNL A   1      45.553  41.273  36.841  1.00  0.00     0.040 A 
ATOM    104  C   UNL A   1      47.072  39.549  37.569  1.00  0.00     0.040 A 
ATOM    105  F   UNL A   1      46.768  37.337  36.848  1.00  0.00    -0.206 F 
ATOM    106  C   UNL A   1      46.675  40.884  37.573  1.00  0.00     0.006 A 
ENDBRANCH  82  99
ENDBRANCH  56  57
ENDBRANCH  49  51
ENDBRANCH  48  49
ENDBRANCH  47  48
ENDBRANCH  46  47
ENDBRANCH  45  46
ENDBRANCH  44  45
ENDBRANCH  43  44
ENDBRANCH  42  43
ENDBRANCH  41  42
ENDBRANCH   1  41
TORSDOF 30
ENDMDL
MODEL 2
REMARK VINA RESULT:      -8.2      3.838      6.283
REMARK SMILES CC(C)C[C@H](NC(=O)[C@@H](NC(=O)[C@H](C)NC(=O)CNC(=O)OCc1ccccc1)C(C)C)C(=O)OCCOCCOCCOC(=O)c1ccc(-c2c3nc(c(-c4c(F)cccc4F)c4ccc([nH]4)c(-c4c(F)cccc4F)c4nc(c(-c5c(F)cccc5F)c5ccc2[nH]5)C=C4)C=C3)cc1
REMARK SMILES IDX 36 1 35 2 33 3 34 4 5 5 4 6 2 7 1 8 3 9 6 10 7 11 8 13 9 14
REMARK SMILES IDX 10 15 11 16 12 18 13 19 14 20 15 21 16 22 17 24 18 25 19 26
REMARK SMILES IDX 20 27 21 29 22 30 23 31 24 32 25 33 29 34 26 35 28 36 27 37
REMARK SMILES IDX 30 38 31 39 32 40 37 41 38 42 39 43 40 44 41 45 42 46 43 47
REMARK SMILES IDX 44 48 45 49 46 50 47 51 48 52 100 53 49 54 99 55 50 56 51 57
REMARK SMILES IDX 52 58 93 59 53 60 98 61 92 62 94 63 54 64 97 65 91 66 90 67
REMARK SMILES IDX 55 69 81 70 64 71 80 72 65 73 68 74 79 75 95 76 66 77 67 78
REMARK SMILES IDX 78 80 96 81 69 82 56 83 57 84 62 85 58 86 59 87 61 88 63 89
REMARK SMILES IDX 60 90 82 91 83 92 88 93 84 94 85 95 87 96 89 97 86 98 70 99
REMARK SMILES IDX 71 100 76 101 72 102 73 103 75 104 77 105 74 106
REMARK H PARENT 6 12 10 17 15 23 19 28 94 68 68 79
REMARK Flexibility Score: inf
ROOT
ATOM      1  C   UNL A   1      44.780  23.365  28.106  1.00  0.00     0.261 C 
ENDROOT
BRANCH   1   2
ATOM      2  O   UNL A   1      43.587  23.018  27.426  1.00  0.00    -0.462 OA
BRANCH   2   3
ATOM      3  C   UNL A   1      42.576  22.835  28.310  1.00  0.00     0.328 C 
ATOM      4  O   UNL A   1      42.802  22.754  29.515  1.00  0.00    -0.250 OA
BRANCH   3   5
ATOM      5  C   UNL A   1      41.190  22.563  27.657  1.00  0.00     0.192 C 
BRANCH   5   6
ATOM      6  C   UNL A   1      41.691  22.102  26.261  1.00  0.00     0.040 C 
BRANCH   6   7
ATOM      7  C   UNL A   1      41.709  20.595  25.883  1.00  0.00    -0.015 C 
ATOM      8  C   UNL A   1      43.014  19.806  25.974  1.00  0.00     0.007 C 
ATOM      9  C   UNL A   1      40.644  19.805  26.660  1.00  0.00     0.007 C 
ENDBRANCH   6   7
ENDBRANCH   5   6
BRANCH   5  10
ATOM     10  N   UNL A   1      39.947  23.498  27.549  1.00  0.00    -0.341 N 
ATOM     11  C   UNL A   1      38.872  23.723  26.675  1.00  0.00     0.243 C 
ATOM     12  H   UNL A   1      39.905  24.111  28.318  1.00  0.00     0.164 HD
ATOM     13  O   UNL A   1      38.817  24.933  26.360  1.00  0.00    -0.273 OA
BRANCH  11  14
ATOM     14  C   UNL A   1      37.466  22.727  26.199  1.00  0.00     0.174 C 
BRANCH  14  15
ATOM     15  N   UNL A   1      35.809  22.633  26.628  1.00  0.00    -0.342 N 
ATOM     16  C   UNL A   1      34.458  22.906  26.534  1.00  0.00     0.242 C 
ATOM     17  H   UNL A   1      35.836  22.024  27.401  1.00  0.00     0.164 HD
ATOM     18  O   UNL A   1      33.840  22.171  27.343  1.00  0.00    -0.273 OA
BRANCH  16  19
ATOM     19  C   UNL A   1      33.449  24.106  25.835  1.00  0.00     0.168 C 
ATOM     20  C   UNL A   1      31.972  23.881  26.196  1.00  0.00     0.041 C 
BRANCH  19  21
ATOM     21  N   UNL A   1      33.423  24.854  24.551  1.00  0.00    -0.343 N 
ATOM     22  C   UNL A   1      32.977  24.375  23.330  1.00  0.00     0.240 C 
ATOM     23  H   UNL A   1      33.755  25.780  24.569  1.00  0.00     0.164 HD
ATOM     24  O   UNL A   1      32.388  23.306  23.211  1.00  0.00    -0.273 OA
BRANCH  22  25
ATOM     25  C   UNL A   1      33.301  25.278  22.108  1.00  0.00     0.219 C 
BRANCH  25  26
ATOM     26  N   UNL A   1      32.057  25.832  21.666  1.00  0.00    -0.312 N 
ATOM     27  C   UNL A   1      31.628  27.018  22.147  1.00  0.00     0.407 C 
ATOM     28  H   UNL A   1      31.512  25.345  21.006  1.00  0.00     0.167 HD
ATOM     29  O   UNL A   1      30.414  27.261  22.199  1.00  0.00    -0.225 OA
BRANCH  27  30
ATOM     30  O   UNL A   1      32.634  27.808  22.588  1.00  0.00    -0.445 OA
BRANCH  30  31
ATOM     31  C   UNL A   1      32.294  28.936  23.421  1.00  0.00     0.270 C 
BRANCH  31  32
ATOM     32  C   UNL A   1      32.480  28.561  24.867  1.00  0.00    -0.011 A 
ATOM     33  C   UNL A   1      31.574  27.664  25.448  1.00  0.00     0.007 A 
ATOM     34  C   UNL A   1      33.347  29.293  25.686  1.00  0.00     0.007 A 
ATOM     35  C   UNL A   1      31.405  27.638  26.827  1.00  0.00     0.000 A 
ATOM     36  C   UNL A   1      33.214  29.220  27.072  1.00  0.00     0.000 A 
ATOM     37  C   UNL A   1      32.212  28.430  27.637  1.00  0.00     0.000 A 
ENDBRANCH  31  32
ENDBRANCH  30  31
ENDBRANCH  27  30
ENDBRANCH  25  26
ENDBRANCH  22  25
ENDBRANCH  19  21
ENDBRANCH  16  19
ENDBRANCH  14  15
BRANCH  14  38
ATOM     38  C   UNL A   1      37.693  22.002  24.837  1.00  0.00     0.015 C 
ATOM     39  C   UNL A   1      37.442  20.487  24.937  1.00  0.00     0.010 C 
ATOM     40  C   UNL A   1      36.738  22.551  23.759  1.00  0.00     0.010 C 
ENDBRANCH  14  38
ENDBRANCH  11  14
ENDBRANCH   5  10
ENDBRANCH   3   5
ENDBRANCH   2   3
ENDBRANCH   1   2
BRANCH   1  41
ATOM     41  C   UNL A   1      45.208  24.757  27.598  1.00  0.00     0.202 C 
BRANCH  41  42
ATOM     42  O   UNL A   1      45.203  25.025  26.184  1.00  0.00    -0.376 OA
BRANCH  42  43
ATOM     43  C   UNL A   1      44.983  26.264  25.506  1.00  0.00     0.188 C 
BRANCH  43  44
ATOM     44  C   UNL A   1      43.468  26.660  25.235  1.00  0.00     0.188 C 
BRANCH  44  45
ATOM     45  O   UNL A   1      42.604  26.479  26.343  1.00  0.00    -0.376 OA
BRANCH  45  46
ATOM     46  C   UNL A   1      41.375  27.194  26.474  1.00  0.00     0.202 C 
BRANCH  46  47
ATOM     47  C   UNL A   1      40.940  27.276  27.944  1.00  0.00     0.261 C 
BRANCH  47  48
ATOM     48  O   UNL A   1      40.603  28.616  28.293  1.00  0.00    -0.460 OA
BRANCH  48  49
ATOM     49  C   UNL A   1      39.490  28.714  29.041  1.00  0.00     0.338 C 
ATOM     50  O   UNL A   1      38.396  28.187  28.855  1.00  0.00    -0.246 OA
BRANCH  49  51
ATOM     51  C   UNL A   1      39.935  29.279  30.307  1.00  0.00     0.060 A 
ATOM     52  C   UNL A   1      40.871  30.322  30.273  1.00  0.00     0.016 A 
ATOM     53  C   UNL A   1      39.363  28.835  31.500  1.00  0.00     0.016 A 
ATOM     54  C   UNL A   1      41.283  30.900  31.462  1.00  0.00     0.010 A 
ATOM     55  C   UNL A   1      39.809  29.379  32.691  1.00  0.00     0.010 A 
ATOM     56  C   UNL A   1      40.809  30.366  32.666  1.00  0.00    -0.014 A 
BRANCH  56  57
ATOM     57  C   UNL A   1      41.621  30.540  33.879  1.00  0.00     0.031 A 
ATOM     58  C   UNL A   1      42.674  29.498  34.125  1.00  0.00     0.074 A 
ATOM     59  C   UNL A   1      41.392  31.550  34.728  1.00  0.00     0.049 A 
ATOM     60  N   UNL A   1      43.443  29.323  35.164  1.00  0.00    -0.248 NA
ATOM     61  C   UNL A   1      42.883  28.507  33.050  1.00  0.00     0.031 C 
ATOM     62  C   UNL A   1      40.415  32.620  34.533  1.00  0.00     0.029 A 
ATOM     63  N   UNL A   1      41.958  31.818  35.942  1.00  0.00    -0.354 N 
ATOM     64  C   UNL A   1      44.218  28.210  34.867  1.00  0.00     0.074 A 
ATOM     65  C   UNL A   1      43.823  27.734  33.565  1.00  0.00     0.031 C 
ATOM     66  C   UNL A   1      40.432  33.421  35.614  1.00  0.00     0.029 A 
ATOM     67  C   UNL A   1      41.388  32.889  36.583  1.00  0.00     0.049 A 
ATOM     68  H   UNL A   1      42.701  31.294  36.321  1.00  0.00     0.167 HD
ATOM     69  C   UNL A   1      45.173  27.631  35.625  1.00  0.00     0.037 A 
ATOM     70  C   UNL A   1      41.603  33.347  37.830  1.00  0.00     0.037 A 
ATOM     71  C   UNL A   1      45.516  28.096  36.937  1.00  0.00     0.049 A 
ATOM     72  C   UNL A   1      42.615  32.634  38.689  1.00  0.00     0.074 A 
ATOM     73  C   UNL A   1      46.450  27.589  37.817  1.00  0.00     0.029 A 
ATOM     74  N   UNL A   1      44.914  29.181  37.559  1.00  0.00    -0.354 N 
ATOM     75  N   UNL A   1      43.359  31.591  38.401  1.00  0.00    -0.248 NA
ATOM     76  C   UNL A   1      42.817  33.159  40.045  1.00  0.00     0.031 C 
ATOM     77  C   UNL A   1      46.383  28.342  38.994  1.00  0.00     0.029 A 
ATOM     78  C   UNL A   1      45.445  29.351  38.822  1.00  0.00     0.049 A 
ATOM     79  H   UNL A   1      44.214  29.746  37.159  1.00  0.00     0.167 HD
ATOM     80  C   UNL A   1      44.136  31.352  39.528  1.00  0.00     0.074 A 
ATOM     81  C   UNL A   1      43.778  32.368  40.499  1.00  0.00     0.031 C 
ATOM     82  C   UNL A   1      45.065  30.388  39.748  1.00  0.00     0.037 A 
BRANCH  69  83
ATOM     83  C   UNL A   1      45.856  26.422  35.064  1.00  0.00     0.057 A 
ATOM     84  C   UNL A   1      45.399  25.124  35.332  1.00  0.00     0.134 A 
ATOM     85  C   UNL A   1      46.993  26.555  34.260  1.00  0.00     0.134 A 
ATOM     86  F   UNL A   1      44.336  24.928  36.125  1.00  0.00    -0.206 F 
ATOM     87  C   UNL A   1      46.061  24.000  34.833  1.00  0.00     0.040 A 
ATOM     88  C   UNL A   1      47.649  25.440  33.735  1.00  0.00     0.040 A 
ATOM     89  F   UNL A   1      47.492  27.768  33.979  1.00  0.00    -0.206 F 
ATOM     90  C   UNL A   1      47.185  24.158  34.024  1.00  0.00     0.006 A 
ENDBRANCH  69  83
BRANCH  70  91
ATOM     91  C   UNL A   1      40.838  34.510  38.343  1.00  0.00     0.057 A 
ATOM     92  C   UNL A   1      39.623  34.340  39.015  1.00  0.00     0.134 A 
ATOM     93  C   UNL A   1      41.295  35.823  38.162  1.00  0.00     0.134 A 
ATOM     94  F   UNL A   1      39.125  33.109  39.204  1.00  0.00    -0.206 F 
ATOM     95  C   UNL A   1      38.879  35.429  39.471  1.00  0.00     0.040 A 
ATOM     96  C   UNL A   1      40.574  36.920  38.635  1.00  0.00     0.040 A 
ATOM     97  F   UNL A   1      42.455  36.055  37.532  1.00  0.00    -0.206 F 
ATOM     98  C   UNL A   1      39.358  36.725  39.285  1.00  0.00     0.006 A 
ENDBRANCH  70  91
BRANCH  82  99
ATOM     99  C   UNL A   1      45.782  30.419  41.063  1.00  0.00     0.057 A 
ATOM    100  C   UNL A   1      45.332  29.687  42.168  1.00  0.00     0.134 A 
ATOM    101  C   UNL A   1      46.972  31.143  41.200  1.00  0.00     0.134 A 
ATOM    102  F   UNL A   1      44.194  28.982  42.099  1.00  0.00    -0.206 F 
ATOM    103  C   UNL A   1      46.033  29.694  43.374  1.00  0.00     0.040 A 
ATOM    104  C   UNL A   1      47.696  31.134  42.391  1.00  0.00     0.040 A 
ATOM    105  F   UNL A   1      47.462  31.851  40.170  1.00  0.00    -0.206 F 
ATOM    106  C   UNL A   1      47.223  30.413  43.484  1.00  0.00     0.006 A 
ENDBRANCH  82  99
ENDBRANCH  56  57
ENDBRANCH  49  51
ENDBRANCH  48  49
ENDBRANCH  47  48
ENDBRANCH  46  47
ENDBRANCH  45  46
ENDBRANCH  44  45
ENDBRANCH  43  44
ENDBRANCH  42  43
ENDBRANCH  41  42
ENDBRANCH   1  41
TORSDOF 30
ENDMDL
MODEL 3
REMARK VINA RESULT:      -7.7      4.567      6.882
REMARK SMILES CC(C)C[C@H](NC(=O)[C@@H](NC(=O)[C@H](C)NC(=O)CNC(=O)OCc1ccccc1)C(C)C)C(=O)OCCOCCOCCOC(=O)c1ccc(-c2c3nc(c(-c4c(F)cccc4F)c4ccc([nH]4)c(-c4c(F)cccc4F)c4nc(c(-c5c(F)cccc5F)c5ccc2[nH]5)C=C4)C=C3)cc1
REMARK SMILES IDX 36 1 35 2 33 3 34 4 5 5 4 6 2 7 1 8 3 9 6 10 7 11 8 13 9 14
REMARK SMILES IDX 10 15 11 16 12 18 13 19 14 20 15 21 16 22 17 24 18 25 19 26
REMARK SMILES IDX 20 27 21 29 22 30 23 31 24 32 25 33 29 34 26 35 28 36 27 37
REMARK SMILES IDX 30 38 31 39 32 40 37 41 38 42 39 43 40 44 41 45 42 46 43 47
REMARK SMILES IDX 44 48 45 49 46 50 47 51 48 52 100 53 49 54 99 55 50 56 51 57
REMARK SMILES IDX 52 58 93 59 53 60 98 61 92 62 94 63 54 64 97 65 91 66 90 67
REMARK SMILES IDX 55 69 81 70 64 71 80 72 65 73 68 74 79 75 95 76 66 77 67 78
REMARK SMILES IDX 78 80 96 81 69 82 56 83 57 84 62 85 58 86 59 87 61 88 63 89
REMARK SMILES IDX 60 90 82 91 83 92 88 93 84 94 85 95 87 96 89 97 86 98 70 99
REMARK SMILES IDX 71 100 76 101 72 102 73 103 75 104 77 105 74 106
REMARK H PARENT 6 12 10 17 15 23 19 28 94 68 68 79
REMARK Flexibility Score: inf
ROOT
ATOM      1  C   UNL A   1      44.673  23.059  28.325  1.00  0.00     0.261 C 
ENDROOT
BRANCH   1   2
ATOM      2  O   UNL A   1      43.500  22.756  27.590  1.00  0.00    -0.462 OA
BRANCH   2   3
ATOM      3  C   UNL A   1      42.473  23.540  27.996  1.00  0.00     0.328 C 
ATOM      4  O   UNL A   1      42.425  23.968  29.148  1.00  0.00    -0.250 OA
BRANCH   3   5
ATOM      5  C   UNL A   1      41.321  23.681  26.960  1.00  0.00     0.192 C 
BRANCH   5   6
ATOM      6  C   UNL A   1      40.292  24.404  27.872  1.00  0.00     0.040 C 
BRANCH   6   7
ATOM      7  C   UNL A   1      40.359  25.943  28.077  1.00  0.00    -0.015 C 
ATOM      8  C   UNL A   1      40.394  26.869  26.863  1.00  0.00     0.007 C 
ATOM      9  C   UNL A   1      39.232  26.440  28.997  1.00  0.00     0.007 C 
ENDBRANCH   6   7
ENDBRANCH   5   6
BRANCH   5  10
ATOM     10  N   UNL A   1      40.646  22.588  26.076  1.00  0.00    -0.341 N 
ATOM     11  C   UNL A   1      39.390  21.980  25.930  1.00  0.00     0.243 C 
ATOM     12  H   UNL A   1      41.290  22.215  25.432  1.00  0.00     0.164 HD
ATOM     13  O   UNL A   1      39.503  20.734  25.987  1.00  0.00    -0.273 OA
BRANCH  11  14
ATOM     14  C   UNL A   1      37.797  22.596  25.403  1.00  0.00     0.174 C 
BRANCH  14  15
ATOM     15  N   UNL A   1      36.958  22.756  23.916  1.00  0.00    -0.342 N 
ATOM     16  C   UNL A   1      35.975  23.210  23.058  1.00  0.00     0.242 C 
ATOM     17  H   UNL A   1      37.496  22.186  23.320  1.00  0.00     0.164 HD
ATOM     18  O   UNL A   1      36.257  22.844  21.891  1.00  0.00    -0.273 OA
BRANCH  16  19
ATOM     19  C   UNL A   1      34.400  23.883  23.172  1.00  0.00     0.168 C 
ATOM     20  C   UNL A   1      33.362  23.017  22.439  1.00  0.00     0.041 C 
BRANCH  19  21
ATOM     21  N   UNL A   1      33.830  25.256  23.167  1.00  0.00    -0.343 N 
ATOM     22  C   UNL A   1      33.419  25.971  22.054  1.00  0.00     0.240 C 
ATOM     23  H   UNL A   1      33.735  25.701  24.040  1.00  0.00     0.164 HD
ATOM     24  O   UNL A   1      33.328  25.469  20.938  1.00  0.00    -0.273 OA
BRANCH  22  25
ATOM     25  C   UNL A   1      33.105  27.470  22.310  1.00  0.00     0.219 C 
BRANCH  25  26
ATOM     26  N   UNL A   1      31.685  27.616  22.208  1.00  0.00    -0.312 N 
ATOM     27  C   UNL A   1      30.907  27.520  23.307  1.00  0.00     0.407 C 
ATOM     28  H   UNL A   1      31.273  27.788  21.330  1.00  0.00     0.167 HD
ATOM     29  O   UNL A   1      29.733  27.136  23.203  1.00  0.00    -0.225 OA
BRANCH  27  30
ATOM     30  O   UNL A   1      31.564  27.817  24.452  1.00  0.00    -0.445 OA
BRANCH  30  31
ATOM     31  C   UNL A   1      31.021  27.327  25.694  1.00  0.00     0.270 C 
BRANCH  31  32
ATOM     32  C   UNL A   1      31.326  25.858  25.825  1.00  0.00    -0.011 A 
ATOM     33  C   UNL A   1      30.257  24.958  25.927  1.00  0.00     0.007 A 
ATOM     34  C   UNL A   1      32.623  25.425  26.124  1.00  0.00     0.007 A 
ATOM     35  C   UNL A   1      30.450  23.706  26.497  1.00  0.00     0.000 A 
ATOM     36  C   UNL A   1      32.822  24.146  26.641  1.00  0.00     0.000 A 
ATOM     37  C   UNL A   1      31.730  23.307  26.871  1.00  0.00     0.000 A 
ENDBRANCH  31  32
ENDBRANCH  30  31
ENDBRANCH  27  30
ENDBRANCH  25  26
ENDBRANCH  22  25
ENDBRANCH  19  21
ENDBRANCH  16  19
ENDBRANCH  14  15
BRANCH  14  38
ATOM     38  C   UNL A   1      36.785  22.699  26.586  1.00  0.00     0.015 C 
ATOM     39  C   UNL A   1      36.156  24.100  26.691  1.00  0.00     0.010 C 
ATOM     40  C   UNL A   1      35.631  21.694  26.407  1.00  0.00     0.010 C 
ENDBRANCH  14  38
ENDBRANCH  11  14
ENDBRANCH   5  10
ENDBRANCH   3   5
ENDBRANCH   2   3
ENDBRANCH   1   2
BRANCH   1  41
ATOM     41  C   UNL A   1      45.495  24.057  27.485  1.00  0.00     0.202 C 
BRANCH  41  42
ATOM     42  O   UNL A   1      45.165  24.251  26.097  1.00  0.00    -0.376 OA
BRANCH  42  43
ATOM     43  C   UNL A   1      45.585  25.292  25.212  1.00  0.00     0.188 C 
BRANCH  43  44
ATOM     44  C   UNL A   1      44.693  26.608  25.200  1.00  0.00     0.188 C 
BRANCH  44  45
ATOM     45  O   UNL A   1      45.428  27.819  25.219  1.00  0.00    -0.376 OA
BRANCH  45  46
ATOM     46  C   UNL A   1      46.107  28.279  26.388  1.00  0.00     0.202 C 
BRANCH  46  47
ATOM     47  C   UNL A   1      45.990  29.803  26.528  1.00  0.00     0.261 C 
BRANCH  47  48
ATOM     48  O   UNL A   1      44.697  30.245  26.121  1.00  0.00    -0.460 OA
BRANCH  48  49
ATOM     49  C   UNL A   1      43.889  30.567  27.147  1.00  0.00     0.338 C 
ATOM     50  O   UNL A   1      43.249  29.815  27.878  1.00  0.00    -0.246 OA
BRANCH  49  51
ATOM     51  C   UNL A   1      44.200  31.955  27.452  1.00  0.00     0.060 A 
ATOM     52  C   UNL A   1      44.096  32.899  26.420  1.00  0.00     0.016 A 
ATOM     53  C   UNL A   1      44.504  32.323  28.764  1.00  0.00     0.016 A 
ATOM     54  C   UNL A   1      44.351  34.232  26.693  1.00  0.00     0.010 A 
ATOM     55  C   UNL A   1      44.806  33.647  29.027  1.00  0.00     0.010 A 
ATOM     56  C   UNL A   1      44.785  34.581  27.977  1.00  0.00    -0.014 A 
BRANCH  56  57
ATOM     57  C   UNL A   1      45.587  35.802  28.140  1.00  0.00     0.031 A 
ATOM     58  C   UNL A   1      46.987  35.752  27.597  1.00  0.00     0.074 A 
ATOM     59  C   UNL A   1      45.097  36.874  28.776  1.00  0.00     0.049 A 
ATOM     60  N   UNL A   1      47.953  36.620  27.709  1.00  0.00    -0.248 NA
ATOM     61  C   UNL A   1      47.350  34.545  26.827  1.00  0.00     0.031 C 
ATOM     62  C   UNL A   1      43.736  37.009  29.291  1.00  0.00     0.029 A 
ATOM     63  N   UNL A   1      45.712  38.046  29.116  1.00  0.00    -0.354 N 
ATOM     64  C   UNL A   1      49.029  36.065  27.029  1.00  0.00     0.074 A 
ATOM     65  C   UNL A   1      48.614  34.781  26.521  1.00  0.00     0.031 C 
ATOM     66  C   UNL A   1      43.626  38.198  29.912  1.00  0.00     0.029 A 
ATOM     67  C   UNL A   1      44.920  38.876  29.868  1.00  0.00     0.049 A 
ATOM     68  H   UNL A   1      46.632  38.273  28.848  1.00  0.00     0.167 HD
ATOM     69  C   UNL A   1      50.262  36.584  26.854  1.00  0.00     0.037 A 
ATOM     70  C   UNL A   1      45.238  40.033  30.478  1.00  0.00     0.037 A 
ATOM     71  C   UNL A   1      50.666  37.843  27.408  1.00  0.00     0.049 A 
ATOM     72  C   UNL A   1      46.646  40.552  30.336  1.00  0.00     0.074 A 
ATOM     73  C   UNL A   1      51.891  38.473  27.322  1.00  0.00     0.029 A 
ATOM     74  N   UNL A   1      49.840  38.656  28.171  1.00  0.00    -0.354 N 
ATOM     75  N   UNL A   1      47.659  40.034  29.680  1.00  0.00    -0.248 NA
ATOM     76  C   UNL A   1      46.957  41.813  31.021  1.00  0.00     0.031 C 
ATOM     77  C   UNL A   1      51.819  39.651  28.072  1.00  0.00     0.029 A 
ATOM     78  C   UNL A   1      50.533  39.778  28.578  1.00  0.00     0.049 A 
ATOM     79  H   UNL A   1      48.899  38.462  28.390  1.00  0.00     0.167 HD
ATOM     80  C   UNL A   1      48.717  40.919  29.848  1.00  0.00     0.074 A 
ATOM     81  C   UNL A   1      48.216  42.010  30.661  1.00  0.00     0.031 C 
ATOM     82  C   UNL A   1      49.987  40.846  29.376  1.00  0.00     0.037 A 
BRANCH  69  83
ATOM     83  C   UNL A   1      51.248  35.763  26.080  1.00  0.00     0.057 A 
ATOM     84  C   UNL A   1      51.351  35.851  24.685  1.00  0.00     0.134 A 
ATOM     85  C   UNL A   1      52.094  34.860  26.735  1.00  0.00     0.134 A 
ATOM     86  F   UNL A   1      50.543  36.671  23.995  1.00  0.00    -0.206 F 
ATOM     87  C   UNL A   1      52.249  35.058  23.968  1.00  0.00     0.040 A 
ATOM     88  C   UNL A   1      53.013  34.080  26.032  1.00  0.00     0.040 A 
ATOM     89  F   UNL A   1      52.034  34.715  28.067  1.00  0.00    -0.206 F 
ATOM     90  C   UNL A   1      53.089  34.175  24.643  1.00  0.00     0.006 A 
ENDBRANCH  69  83
BRANCH  70  91
ATOM     91  C   UNL A   1      44.226  40.757  31.286  1.00  0.00     0.057 A 
ATOM     92  C   UNL A   1      43.428  41.758  30.722  1.00  0.00     0.134 A 
ATOM     93  C   UNL A   1      44.041  40.476  32.646  1.00  0.00     0.134 A 
ATOM     94  F   UNL A   1      43.571  42.084  29.428  1.00  0.00    -0.206 F 
ATOM     95  C   UNL A   1      42.497  42.468  31.482  1.00  0.00     0.040 A 
ATOM     96  C   UNL A   1      43.096  41.161  33.413  1.00  0.00     0.040 A 
ATOM     97  F   UNL A   1      44.769  39.524  33.247  1.00  0.00    -0.206 F 
ATOM     98  C   UNL A   1      42.327  42.166  32.832  1.00  0.00     0.006 A 
ENDBRANCH  70  91
BRANCH  82  99
ATOM     99  C   UNL A   1      50.898  41.994  29.689  1.00  0.00     0.057 A 
ATOM    100  C   UNL A   1      51.780  41.963  30.774  1.00  0.00     0.134 A 
ATOM    101  C   UNL A   1      50.930  43.116  28.852  1.00  0.00     0.134 A 
ATOM    102  F   UNL A   1      51.788  40.918  31.615  1.00  0.00    -0.206 F 
ATOM    103  C   UNL A   1      52.652  43.022  31.029  1.00  0.00     0.040 A 
ATOM    104  C   UNL A   1      51.816  44.168  29.080  1.00  0.00     0.040 A 
ATOM    105  F   UNL A   1      50.118  43.196  27.787  1.00  0.00    -0.206 F 
ATOM    106  C   UNL A   1      52.675  44.125  30.175  1.00  0.00     0.006 A 
ENDBRANCH  82  99
ENDBRANCH  56  57
ENDBRANCH  49  51
ENDBRANCH  48  49
ENDBRANCH  47  48
ENDBRANCH  46  47
ENDBRANCH  45  46
ENDBRANCH  44  45
ENDBRANCH  43  44
ENDBRANCH  42  43
ENDBRANCH  41  42
ENDBRANCH   1  41
TORSDOF 30
ENDMDL
