MODEL 1
REMARK VINA RESULT:      -9.9      0.000      0.000
REMARK SMILES CCC[C@@](C)(Nc1cc(C)cc(C)c1)C(=O)OCCOCCOCCOC(=O)c1ccc(-c2c3nc(c(-c4c(F)cccc4F)c4ccc([nH]4)c(-c4c(F)cccc4F)c4nc(c(-c5c(F)cccc5F)c5ccc2[nH]5)C=C4)C=C3)cc1
REMARK SMILES IDX 21 1 20 2 19 3 18 4 17 5 15 6 16 7 4 8 5 9 3 10 2 11 1 12
REMARK SMILES IDX 6 13 7 15 8 16 14 17 9 18 12 19 10 20 11 21 13 22 22 23
REMARK SMILES IDX 23 24 24 25 25 26 26 27 27 28 28 29 29 30 30 31 82 32 31 33
REMARK SMILES IDX 81 34 32 35 33 36 34 37 75 38 35 39 80 40 74 41 76 42 36 43
REMARK SMILES IDX 79 44 73 45 72 46 37 48 63 49 46 50 62 51 47 52 50 53 61 54
REMARK SMILES IDX 77 55 48 56 49 57 60 59 78 60 51 61 38 62 39 63 44 64 40 65
REMARK SMILES IDX 41 66 43 67 45 68 42 69 64 70 65 71 70 72 66 73 67 74 69 75
REMARK SMILES IDX 71 76 68 77 52 78 53 79 58 80 54 81 55 82 57 83 59 84 56 85
REMARK H PARENT 6 14 76 47 50 58
REMARK Flexibility Score: inf
ROOT
ATOM      1  C   UNL A   1      39.362  21.764  26.500  1.00  0.00     0.188 C 
ENDROOT
BRANCH   1   2
ATOM      2  O   UNL A   1      38.621  22.528  25.559  1.00  0.00    -0.376 OA
BRANCH   2   3
ATOM      3  C   UNL A   1      37.228  22.211  25.451  1.00  0.00     0.202 C 
BRANCH   3   4
ATOM      4  C   UNL A   1      36.278  23.236  26.072  1.00  0.00     0.261 C 
BRANCH   4   5
ATOM      5  O   UNL A   1      34.943  23.009  25.577  1.00  0.00    -0.462 OA
BRANCH   5   6
ATOM      6  C   UNL A   1      34.009  22.630  26.478  1.00  0.00     0.331 C 
ATOM      7  O   UNL A   1      34.262  22.508  27.676  1.00  0.00    -0.249 OA
BRANCH   6   8
ATOM      8  C   UNL A   1      32.583  22.437  25.904  1.00  0.00     0.133 C 
ATOM      9  C   UNL A   1      31.626  23.087  26.921  1.00  0.00     0.047 C 
BRANCH   8  10
ATOM     10  C   UNL A   1      32.473  23.133  24.503  1.00  0.00     0.040 C 
BRANCH  10  11
ATOM     11  C   UNL A   1      31.785  24.498  24.360  1.00  0.00    -0.000 C 
ATOM     12  C   UNL A   1      32.418  25.423  23.329  1.00  0.00     0.004 C 
ENDBRANCH  10  11
ENDBRANCH   8  10
BRANCH   8  13
ATOM     13  N   UNL A   1      32.034  21.067  25.660  1.00  0.00    -0.370 N 
ATOM     14  H   UNL A   1      31.210  20.905  26.174  1.00  0.00     0.161 HD
BRANCH  13  15
ATOM     15  C   UNL A   1      32.388  19.978  24.901  1.00  0.00     0.035 A 
ATOM     16  C   UNL A   1      32.287  19.902  23.516  1.00  0.00     0.029 A 
ATOM     17  C   UNL A   1      32.819  18.817  25.577  1.00  0.00     0.029 A 
ATOM     18  C   UNL A   1      32.489  18.693  22.827  1.00  0.00    -0.049 A 
ATOM     19  C   UNL A   1      33.089  17.613  24.909  1.00  0.00    -0.049 A 
ATOM     20  C   UNL A   1      32.172  18.581  21.366  1.00  0.00     0.044 C 
ATOM     21  C   UNL A   1      32.907  17.558  23.528  1.00  0.00     0.007 A 
ATOM     22  C   UNL A   1      33.527  16.385  25.650  1.00  0.00     0.044 C 
ENDBRANCH  13  15
ENDBRANCH   8  13
ENDBRANCH   6   8
ENDBRANCH   5   6
ENDBRANCH   4   5
ENDBRANCH   3   4
ENDBRANCH   2   3
ENDBRANCH   1   2
BRANCH   1  23
ATOM     23  C   UNL A   1      40.606  21.028  25.995  1.00  0.00     0.188 C 
BRANCH  23  24
ATOM     24  O   UNL A   1      41.588  20.654  26.947  1.00  0.00    -0.376 OA
BRANCH  24  25
ATOM     25  C   UNL A   1      42.811  20.170  26.395  1.00  0.00     0.202 C 
BRANCH  25  26
ATOM     26  C   UNL A   1      43.534  21.220  25.543  1.00  0.00     0.261 C 
BRANCH  26  27
ATOM     27  O   UNL A   1      43.784  22.401  26.324  1.00  0.00    -0.460 OA
BRANCH  27  28
ATOM     28  C   UNL A   1      43.824  23.564  25.632  1.00  0.00     0.338 C 
ATOM     29  O   UNL A   1      44.216  23.745  24.492  1.00  0.00    -0.246 OA
BRANCH  28  30
ATOM     30  C   UNL A   1      43.136  24.608  26.415  1.00  0.00     0.060 A 
ATOM     31  C   UNL A   1      43.602  25.927  26.306  1.00  0.00     0.016 A 
ATOM     32  C   UNL A   1      42.045  24.302  27.230  1.00  0.00     0.016 A 
ATOM     33  C   UNL A   1      43.025  26.935  27.077  1.00  0.00     0.010 A 
ATOM     34  C   UNL A   1      41.472  25.309  28.004  1.00  0.00     0.010 A 
ATOM     35  C   UNL A   1      41.996  26.614  27.969  1.00  0.00    -0.014 A 
BRANCH  35  36
ATOM     36  C   UNL A   1      41.616  27.561  29.039  1.00  0.00     0.031 A 
ATOM     37  C   UNL A   1      42.367  27.480  30.339  1.00  0.00     0.074 A 
ATOM     38  C   UNL A   1      40.615  28.441  28.872  1.00  0.00     0.049 A 
ATOM     39  N   UNL A   1      42.141  28.090  31.473  1.00  0.00    -0.248 NA
ATOM     40  C   UNL A   1      43.526  26.569  30.367  1.00  0.00     0.031 C 
ATOM     41  C   UNL A   1      39.846  28.625  27.643  1.00  0.00     0.029 A 
ATOM     42  N   UNL A   1      40.060  29.327  29.758  1.00  0.00    -0.354 N 
ATOM     43  C   UNL A   1      43.110  27.618  32.352  1.00  0.00     0.074 A 
ATOM     44  C   UNL A   1      43.910  26.655  31.630  1.00  0.00     0.031 C 
ATOM     45  C   UNL A   1      38.894  29.550  27.863  1.00  0.00     0.029 A 
ATOM     46  C   UNL A   1      38.968  29.990  29.255  1.00  0.00     0.049 A 
ATOM     47  H   UNL A   1      40.410  29.474  30.667  1.00  0.00     0.167 HD
ATOM     48  C   UNL A   1      43.312  27.962  33.644  1.00  0.00     0.037 A 
ATOM     49  C   UNL A   1      38.109  30.827  29.868  1.00  0.00     0.037 A 
ATOM     50  C   UNL A   1      42.508  28.927  34.346  1.00  0.00     0.049 A 
ATOM     51  C   UNL A   1      38.326  31.160  31.321  1.00  0.00     0.074 A 
ATOM     52  C   UNL A   1      42.640  29.375  35.648  1.00  0.00     0.029 A 
ATOM     53  N   UNL A   1      41.416  29.585  33.801  1.00  0.00    -0.354 N 
ATOM     54  N   UNL A   1      39.258  30.733  32.141  1.00  0.00    -0.248 NA
ATOM     55  C   UNL A   1      37.374  32.096  31.935  1.00  0.00     0.031 C 
ATOM     56  C   UNL A   1      41.592  30.264  35.907  1.00  0.00     0.029 A 
ATOM     57  C   UNL A   1      40.848  30.420  34.748  1.00  0.00     0.049 A 
ATOM     58  H   UNL A   1      41.094  29.476  32.878  1.00  0.00     0.167 HD
ATOM     59  C   UNL A   1      39.027  31.372  33.353  1.00  0.00     0.074 A 
ATOM     60  C   UNL A   1      37.873  32.226  33.157  1.00  0.00     0.031 C 
ATOM     61  C   UNL A   1      39.704  31.267  34.523  1.00  0.00     0.037 A 
BRANCH  48  62
ATOM     62  C   UNL A   1      44.419  27.269  34.384  1.00  0.00     0.057 A 
ATOM     63  C   UNL A   1      45.710  27.806  34.472  1.00  0.00     0.134 A 
ATOM     64  C   UNL A   1      44.181  26.055  35.042  1.00  0.00     0.134 A 
ATOM     65  F   UNL A   1      46.012  28.956  33.850  1.00  0.00    -0.206 F 
ATOM     66  C   UNL A   1      46.729  27.151  35.167  1.00  0.00     0.040 A 
ATOM     67  C   UNL A   1      45.183  25.406  35.764  1.00  0.00     0.040 A 
ATOM     68  F   UNL A   1      42.969  25.483  34.998  1.00  0.00    -0.206 F 
ATOM     69  C   UNL A   1      46.464  25.951  35.822  1.00  0.00     0.006 A 
ENDBRANCH  48  62
BRANCH  49  70
ATOM     70  C   UNL A   1      36.957  31.396  29.120  1.00  0.00     0.057 A 
ATOM     71  C   UNL A   1      36.966  32.721  28.670  1.00  0.00     0.134 A 
ATOM     72  C   UNL A   1      35.811  30.635  28.858  1.00  0.00     0.134 A 
ATOM     73  F   UNL A   1      38.025  33.508  28.909  1.00  0.00    -0.206 F 
ATOM     74  C   UNL A   1      35.870  33.275  28.004  1.00  0.00     0.040 A 
ATOM     75  C   UNL A   1      34.720  31.168  28.169  1.00  0.00     0.040 A 
ATOM     76  F   UNL A   1      35.738  29.358  29.259  1.00  0.00    -0.206 F 
ATOM     77  C   UNL A   1      34.745  32.496  27.748  1.00  0.00     0.006 A 
ENDBRANCH  49  70
BRANCH  61  78
ATOM     78  C   UNL A   1      39.248  32.135  35.661  1.00  0.00     0.057 A 
ATOM     79  C   UNL A   1      39.669  33.463  35.800  1.00  0.00     0.134 A 
ATOM     80  C   UNL A   1      38.346  31.641  36.612  1.00  0.00     0.134 A 
ATOM     81  F   UNL A   1      40.540  33.996  34.929  1.00  0.00    -0.206 F 
ATOM     82  C   UNL A   1      39.235  34.258  36.862  1.00  0.00     0.040 A 
ATOM     83  C   UNL A   1      37.878  32.435  37.658  1.00  0.00     0.040 A 
ATOM     84  F   UNL A   1      37.891  30.380  36.529  1.00  0.00    -0.206 F 
ATOM     85  C   UNL A   1      38.330  33.746  37.791  1.00  0.00     0.006 A 
ENDBRANCH  61  78
ENDBRANCH  35  36
ENDBRANCH  28  30
ENDBRANCH  27  28
ENDBRANCH  26  27
ENDBRANCH  25  26
ENDBRANCH  24  25
ENDBRANCH  23  24
ENDBRANCH   1  23
TORSDOF 21
ENDMDL
MODEL 2
REMARK VINA RESULT:      -9.9      2.178      7.238
REMARK SMILES CCC[C@@](C)(Nc1cc(C)cc(C)c1)C(=O)OCCOCCOCCOC(=O)c1ccc(-c2c3nc(c(-c4c(F)cccc4F)c4ccc([nH]4)c(-c4c(F)cccc4F)c4nc(c(-c5c(F)cccc5F)c5ccc2[nH]5)C=C4)C=C3)cc1
REMARK SMILES IDX 21 1 20 2 19 3 18 4 17 5 15 6 16 7 4 8 5 9 3 10 2 11 1 12
REMARK SMILES IDX 6 13 7 15 8 16 14 17 9 18 12 19 10 20 11 21 13 22 22 23
REMARK SMILES IDX 23 24 24 25 25 26 26 27 27 28 28 29 29 30 30 31 82 32 31 33
REMARK SMILES IDX 81 34 32 35 33 36 34 37 75 38 35 39 80 40 74 41 76 42 36 43
REMARK SMILES IDX 79 44 73 45 72 46 37 48 63 49 46 50 62 51 47 52 50 53 61 54
REMARK SMILES IDX 77 55 48 56 49 57 60 59 78 60 51 61 38 62 39 63 44 64 40 65
REMARK SMILES IDX 41 66 43 67 45 68 42 69 64 70 65 71 70 72 66 73 67 74 69 75
REMARK SMILES IDX 71 76 68 77 52 78 53 79 58 80 54 81 55 82 57 83 59 84 56 85
REMARK H PARENT 6 14 76 47 50 58
REMARK Flexibility Score: inf
ROOT
ATOM      1  C   UNL A   1      40.255  20.369  26.386  1.00  0.00     0.188 C 
ENDROOT
BRANCH   1   2
ATOM      2  O   UNL A   1      39.919  21.499  27.177  1.00  0.00    -0.376 OA
BRANCH   2   3
ATOM      3  C   UNL A   1      39.251  22.567  26.495  1.00  0.00     0.202 C 
BRANCH   3   4
ATOM      4  C   UNL A   1      38.152  22.132  25.524  1.00  0.00     0.261 C 
BRANCH   4   5
ATOM      5  O   UNL A   1      37.091  23.108  25.538  1.00  0.00    -0.462 OA
BRANCH   5   6
ATOM      6  C   UNL A   1      36.333  23.209  24.424  1.00  0.00     0.331 C 
ATOM      7  O   UNL A   1      36.756  22.899  23.310  1.00  0.00    -0.249 OA
BRANCH   6   8
ATOM      8  C   UNL A   1      34.872  23.668  24.661  1.00  0.00     0.133 C 
ATOM      9  C   UNL A   1      33.990  22.727  23.819  1.00  0.00     0.047 C 
BRANCH   8  10
ATOM     10  C   UNL A   1      34.520  23.555  26.185  1.00  0.00     0.040 C 
BRANCH  10  11
ATOM     11  C   UNL A   1      33.367  22.658  26.658  1.00  0.00    -0.000 C 
ATOM     12  C   UNL A   1      32.046  23.384  26.875  1.00  0.00     0.004 C 
ENDBRANCH  10  11
ENDBRANCH   8  10
BRANCH   8  13
ATOM     13  N   UNL A   1      34.436  25.052  24.300  1.00  0.00    -0.370 N 
ATOM     14  H   UNL A   1      35.008  25.447  23.604  1.00  0.00     0.161 HD
BRANCH  13  15
ATOM     15  C   UNL A   1      33.438  25.911  24.694  1.00  0.00     0.035 A 
ATOM     16  C   UNL A   1      33.501  26.759  25.794  1.00  0.00     0.029 A 
ATOM     17  C   UNL A   1      32.225  25.884  23.974  1.00  0.00     0.029 A 
ATOM     18  C   UNL A   1      32.373  27.469  26.245  1.00  0.00    -0.049 A 
ATOM     19  C   UNL A   1      31.101  26.630  24.363  1.00  0.00    -0.049 A 
ATOM     20  C   UNL A   1      32.404  28.209  27.548  1.00  0.00     0.044 C 
ATOM     21  C   UNL A   1      31.183  27.413  25.514  1.00  0.00     0.007 A 
ATOM     22  C   UNL A   1      29.815  26.570  23.594  1.00  0.00     0.044 C 
ENDBRANCH  13  15
ENDBRANCH   8  13
ENDBRANCH   6   8
ENDBRANCH   5   6
ENDBRANCH   4   5
ENDBRANCH   3   4
ENDBRANCH   2   3
ENDBRANCH   1   2
BRANCH   1  23
ATOM     23  C   UNL A   1      41.731  19.972  26.305  1.00  0.00     0.188 C 
BRANCH  23  24
ATOM     24  O   UNL A   1      42.585  20.755  25.487  1.00  0.00    -0.376 OA
BRANCH  24  25
ATOM     25  C   UNL A   1      43.115  21.923  26.110  1.00  0.00     0.202 C 
BRANCH  25  26
ATOM     26  C   UNL A   1      42.749  23.212  25.365  1.00  0.00     0.261 C 
BRANCH  26  27
ATOM     27  O   UNL A   1      42.392  24.240  26.304  1.00  0.00    -0.460 OA
BRANCH  27  28
ATOM     28  C   UNL A   1      42.275  25.488  25.791  1.00  0.00     0.338 C 
ATOM     29  O   UNL A   1      42.466  25.847  24.642  1.00  0.00    -0.246 OA
BRANCH  28  30
ATOM     30  C   UNL A   1      41.691  26.373  26.817  1.00  0.00     0.060 A 
ATOM     31  C   UNL A   1      42.101  27.714  26.841  1.00  0.00     0.016 A 
ATOM     32  C   UNL A   1      40.749  25.899  27.731  1.00  0.00     0.016 A 
ATOM     33  C   UNL A   1      41.626  28.570  27.833  1.00  0.00     0.010 A 
ATOM     34  C   UNL A   1      40.277  26.754  28.726  1.00  0.00     0.010 A 
ATOM     35  C   UNL A   1      40.756  28.073  28.810  1.00  0.00    -0.014 A 
BRANCH  35  36
ATOM     36  C   UNL A   1      40.523  28.834  30.056  1.00  0.00     0.031 A 
ATOM     37  C   UNL A   1      39.416  29.852  30.053  1.00  0.00     0.074 A 
ATOM     38  C   UNL A   1      41.291  28.651  31.142  1.00  0.00     0.049 A 
ATOM     39  N   UNL A   1      39.098  30.742  30.955  1.00  0.00    -0.248 NA
ATOM     40  C   UNL A   1      38.558  29.879  28.854  1.00  0.00     0.031 C 
ATOM     41  C   UNL A   1      42.367  27.669  31.264  1.00  0.00     0.029 A 
ATOM     42  N   UNL A   1      41.294  29.310  32.345  1.00  0.00    -0.354 N 
ATOM     43  C   UNL A   1      38.025  31.449  30.424  1.00  0.00     0.074 A 
ATOM     44  C   UNL A   1      37.761  30.903  29.112  1.00  0.00     0.031 C 
ATOM     45  C   UNL A   1      42.948  27.810  32.468  1.00  0.00     0.029 A 
ATOM     46  C   UNL A   1      42.309  28.915  33.181  1.00  0.00     0.049 A 
ATOM     47  H   UNL A   1      40.633  30.000  32.584  1.00  0.00     0.167 HD
ATOM     48  C   UNL A   1      37.324  32.461  30.984  1.00  0.00     0.037 A 
ATOM     49  C   UNL A   1      42.692  29.418  34.369  1.00  0.00     0.037 A 
ATOM     50  C   UNL A   1      37.598  32.991  32.293  1.00  0.00     0.049 A 
ATOM     51  C   UNL A   1      41.926  30.577  34.953  1.00  0.00     0.074 A 
ATOM     52  C   UNL A   1      36.935  33.995  32.973  1.00  0.00     0.029 A 
ATOM     53  N   UNL A   1      38.628  32.558  33.115  1.00  0.00    -0.354 N 
ATOM     54  N   UNL A   1      40.896  31.224  34.459  1.00  0.00    -0.248 NA
ATOM     55  C   UNL A   1      42.372  31.073  36.262  1.00  0.00     0.031 C 
ATOM     56  C   UNL A   1      37.598  34.208  34.185  1.00  0.00     0.029 A 
ATOM     57  C   UNL A   1      38.634  33.293  34.289  1.00  0.00     0.049 A 
ATOM     58  H   UNL A   1      39.260  31.836  32.897  1.00  0.00     0.167 HD
ATOM     59  C   UNL A   1      40.550  32.178  35.409  1.00  0.00     0.074 A 
ATOM     60  C   UNL A   1      41.473  32.015  36.514  1.00  0.00     0.031 C 
ATOM     61  C   UNL A   1      39.560  33.103  35.377  1.00  0.00     0.037 A 
BRANCH  48  62
ATOM     62  C   UNL A   1      36.223  33.078  30.171  1.00  0.00     0.057 A 
ATOM     63  C   UNL A   1      34.870  32.826  30.433  1.00  0.00     0.134 A 
ATOM     64  C   UNL A   1      36.522  33.961  29.125  1.00  0.00     0.134 A 
ATOM     65  F   UNL A   1      34.513  31.976  31.408  1.00  0.00    -0.206 F 
ATOM     66  C   UNL A   1      33.856  33.410  29.671  1.00  0.00     0.040 A 
ATOM     67  C   UNL A   1      35.517  34.574  28.375  1.00  0.00     0.040 A 
ATOM     68  F   UNL A   1      37.796  34.246  28.818  1.00  0.00    -0.206 F 
ATOM     69  C   UNL A   1      34.179  34.293  28.643  1.00  0.00     0.006 A 
ENDBRANCH  48  62
BRANCH  49  70
ATOM     70  C   UNL A   1      43.866  28.846  35.080  1.00  0.00     0.057 A 
ATOM     71  C   UNL A   1      43.712  27.853  36.054  1.00  0.00     0.134 A 
ATOM     72  C   UNL A   1      45.166  29.295  34.818  1.00  0.00     0.134 A 
ATOM     73  F   UNL A   1      42.491  27.397  36.367  1.00  0.00    -0.206 F 
ATOM     74  C   UNL A   1      44.806  27.342  36.757  1.00  0.00     0.040 A 
ATOM     75  C   UNL A   1      46.271  28.772  35.493  1.00  0.00     0.040 A 
ATOM     76  F   UNL A   1      45.384  30.242  33.895  1.00  0.00    -0.206 F 
ATOM     77  C   UNL A   1      46.091  27.798  36.473  1.00  0.00     0.006 A 
ENDBRANCH  49  70
BRANCH  61  78
ATOM     78  C   UNL A   1      39.391  33.972  36.591  1.00  0.00     0.057 A 
ATOM     79  C   UNL A   1      38.696  33.538  37.726  1.00  0.00     0.134 A 
ATOM     80  C   UNL A   1      39.964  35.250  36.633  1.00  0.00     0.134 A 
ATOM     81  F   UNL A   1      38.115  32.329  37.749  1.00  0.00    -0.206 F 
ATOM     82  C   UNL A   1      38.550  34.356  38.848  1.00  0.00     0.040 A 
ATOM     83  C   UNL A   1      39.855  36.063  37.760  1.00  0.00     0.040 A 
ATOM     84  F   UNL A   1      40.656  35.721  35.584  1.00  0.00    -0.206 F 
ATOM     85  C   UNL A   1      39.137  35.621  38.869  1.00  0.00     0.006 A 
ENDBRANCH  61  78
ENDBRANCH  35  36
ENDBRANCH  28  30
ENDBRANCH  27  28
ENDBRANCH  26  27
ENDBRANCH  25  26
ENDBRANCH  24  25
ENDBRANCH  23  24
ENDBRANCH   1  23
TORSDOF 21
ENDMDL
MODEL 3
REMARK VINA RESULT:      -9.8      1.474      3.370
REMARK SMILES CCC[C@@](C)(Nc1cc(C)cc(C)c1)C(=O)OCCOCCOCCOC(=O)c1ccc(-c2c3nc(c(-c4c(F)cccc4F)c4ccc([nH]4)c(-c4c(F)cccc4F)c4nc(c(-c5c(F)cccc5F)c5ccc2[nH]5)C=C4)C=C3)cc1
REMARK SMILES IDX 21 1 20 2 19 3 18 4 17 5 15 6 16 7 4 8 5 9 3 10 2 11 1 12
REMARK SMILES IDX 6 13 7 15 8 16 14 17 9 18 12 19 10 20 11 21 13 22 22 23
REMARK SMILES IDX 23 24 24 25 25 26 26 27 27 28 28 29 29 30 30 31 82 32 31 33
REMARK SMILES IDX 81 34 32 35 33 36 34 37 75 38 35 39 80 40 74 41 76 42 36 43
REMARK SMILES IDX 79 44 73 45 72 46 37 48 63 49 46 50 62 51 47 52 50 53 61 54
REMARK SMILES IDX 77 55 48 56 49 57 60 59 78 60 51 61 38 62 39 63 44 64 40 65
REMARK SMILES IDX 41 66 43 67 45 68 42 69 64 70 65 71 70 72 66 73 67 74 69 75
REMARK SMILES IDX 71 76 68 77 52 78 53 79 58 80 54 81 55 82 57 83 59 84 56 85
REMARK H PARENT 6 14 76 47 50 58
REMARK Flexibility Score: inf
ROOT
ATOM      1  C   UNL A   1      40.281  21.267  26.573  1.00  0.00     0.188 C 
ENDROOT
BRANCH   1   2
ATOM      2  O   UNL A   1      39.075  20.945  25.895  1.00  0.00    -0.376 OA
BRANCH   2   3
ATOM      3  C   UNL A   1      38.023  21.913  25.990  1.00  0.00     0.202 C 
BRANCH   3   4
ATOM      4  C   UNL A   1      37.376  22.301  24.660  1.00  0.00     0.261 C 
BRANCH   4   5
ATOM      5  O   UNL A   1      35.947  22.133  24.759  1.00  0.00    -0.462 OA
BRANCH   5   6
ATOM      6  C   UNL A   1      35.218  23.231  25.058  1.00  0.00     0.331 C 
ATOM      7  O   UNL A   1      35.734  24.275  25.455  1.00  0.00    -0.249 OA
BRANCH   6   8
ATOM      8  C   UNL A   1      33.697  23.103  24.790  1.00  0.00     0.133 C 
ATOM      9  C   UNL A   1      33.512  21.781  24.022  1.00  0.00     0.047 C 
BRANCH   8  10
ATOM     10  C   UNL A   1      32.917  23.079  26.150  1.00  0.00     0.040 C 
BRANCH  10  11
ATOM     11  C   UNL A   1      31.463  22.588  26.210  1.00  0.00    -0.000 C 
ATOM     12  C   UNL A   1      30.439  23.673  26.513  1.00  0.00     0.004 C 
ENDBRANCH  10  11
ENDBRANCH   8  10
BRANCH   8  13
ATOM     13  N   UNL A   1      32.971  24.135  23.987  1.00  0.00    -0.370 N 
ATOM     14  H   UNL A   1      32.718  23.798  23.098  1.00  0.00     0.161 HD
BRANCH  13  15
ATOM     15  C   UNL A   1      32.568  25.435  24.176  1.00  0.00     0.035 A 
ATOM     16  C   UNL A   1      33.282  26.400  24.878  1.00  0.00     0.029 A 
ATOM     17  C   UNL A   1      31.299  25.808  23.685  1.00  0.00     0.029 A 
ATOM     18  C   UNL A   1      32.722  27.652  25.190  1.00  0.00    -0.049 A 
ATOM     19  C   UNL A   1      30.739  27.072  23.927  1.00  0.00    -0.049 A 
ATOM     20  C   UNL A   1      33.422  28.593  26.123  1.00  0.00     0.044 C 
ATOM     21  C   UNL A   1      31.458  27.986  24.697  1.00  0.00     0.007 A 
ATOM     22  C   UNL A   1      29.379  27.440  23.413  1.00  0.00     0.044 C 
ENDBRANCH  13  15
ENDBRANCH   8  13
ENDBRANCH   6   8
ENDBRANCH   5   6
ENDBRANCH   4   5
ENDBRANCH   3   4
ENDBRANCH   2   3
ENDBRANCH   1   2
BRANCH   1  23
ATOM     23  C   UNL A   1      41.349  20.175  26.679  1.00  0.00     0.188 C 
BRANCH  23  24
ATOM     24  O   UNL A   1      42.343  20.120  25.669  1.00  0.00    -0.376 OA
BRANCH  24  25
ATOM     25  C   UNL A   1      43.458  20.987  25.871  1.00  0.00     0.202 C 
BRANCH  25  26
ATOM     26  C   UNL A   1      43.777  21.841  24.638  1.00  0.00     0.261 C 
BRANCH  26  27
ATOM     27  O   UNL A   1      43.119  23.115  24.738  1.00  0.00    -0.460 OA
BRANCH  27  28
ATOM     28  C   UNL A   1      43.918  24.164  25.046  1.00  0.00     0.338 C 
ATOM     29  O   UNL A   1      45.022  24.423  24.597  1.00  0.00    -0.246 OA
BRANCH  28  30
ATOM     30  C   UNL A   1      43.171  25.095  25.913  1.00  0.00     0.060 A 
ATOM     31  C   UNL A   1      43.423  26.469  25.776  1.00  0.00     0.016 A 
ATOM     32  C   UNL A   1      42.231  24.631  26.834  1.00  0.00     0.016 A 
ATOM     33  C   UNL A   1      42.790  27.380  26.619  1.00  0.00     0.010 A 
ATOM     34  C   UNL A   1      41.602  25.542  27.680  1.00  0.00     0.010 A 
ATOM     35  C   UNL A   1      41.921  26.910  27.610  1.00  0.00    -0.014 A 
BRANCH  35  36
ATOM     36  C   UNL A   1      41.522  27.790  28.728  1.00  0.00     0.031 A 
ATOM     37  C   UNL A   1      42.287  27.669  30.017  1.00  0.00     0.074 A 
ATOM     38  C   UNL A   1      40.493  28.646  28.613  1.00  0.00     0.049 A 
ATOM     39  N   UNL A   1      42.053  28.215  31.181  1.00  0.00    -0.248 NA
ATOM     40  C   UNL A   1      43.474  26.795  29.990  1.00  0.00     0.031 C 
ATOM     41  C   UNL A   1      39.706  28.867  27.402  1.00  0.00     0.029 A 
ATOM     42  N   UNL A   1      39.919  29.470  29.547  1.00  0.00    -0.354 N 
ATOM     43  C   UNL A   1      43.044  27.731  32.028  1.00  0.00     0.074 A 
ATOM     44  C   UNL A   1      43.867  26.830  31.253  1.00  0.00     0.031 C 
ATOM     45  C   UNL A   1      38.729  29.749  27.675  1.00  0.00     0.029 A 
ATOM     46  C   UNL A   1      38.802  30.121  29.086  1.00  0.00     0.049 A 
ATOM     47  H   UNL A   1      40.273  29.582  30.459  1.00  0.00     0.167 HD
ATOM     48  C   UNL A   1      43.248  28.016  33.335  1.00  0.00     0.037 A 
ATOM     49  C   UNL A   1      37.924  30.900  29.747  1.00  0.00     0.037 A 
ATOM     50  C   UNL A   1      42.421  28.919  34.090  1.00  0.00     0.049 A 
ATOM     51  C   UNL A   1      38.144  31.167  31.213  1.00  0.00     0.074 A 
ATOM     52  C   UNL A   1      42.551  29.306  35.411  1.00  0.00     0.029 A 
ATOM     53  N   UNL A   1      41.304  29.569  33.587  1.00  0.00    -0.354 N 
ATOM     54  N   UNL A   1      39.097  30.729  32.003  1.00  0.00    -0.248 NA
ATOM     55  C   UNL A   1      37.169  32.041  31.881  1.00  0.00     0.031 C 
ATOM     56  C   UNL A   1      41.479  30.148  35.723  1.00  0.00     0.029 A 
ATOM     57  C   UNL A   1      40.720  30.338  34.579  1.00  0.00     0.049 A 
ATOM     58  H   UNL A   1      40.977  29.496  32.662  1.00  0.00     0.167 HD
ATOM     59  C   UNL A   1      38.857  31.300  33.247  1.00  0.00     0.074 A 
ATOM     60  C   UNL A   1      37.676  32.126  33.103  1.00  0.00     0.031 C 
ATOM     61  C   UNL A   1      39.548  31.159  34.405  1.00  0.00     0.037 A 
BRANCH  48  62
ATOM     62  C   UNL A   1      44.383  27.322  34.030  1.00  0.00     0.057 A 
ATOM     63  C   UNL A   1      44.235  26.062  34.626  1.00  0.00     0.134 A 
ATOM     64  C   UNL A   1      45.652  27.912  34.082  1.00  0.00     0.134 A 
ATOM     65  F   UNL A   1      43.041  25.448  34.630  1.00  0.00    -0.206 F 
ATOM     66  C   UNL A   1      45.300  25.426  35.267  1.00  0.00     0.040 A 
ATOM     67  C   UNL A   1      46.732  27.274  34.694  1.00  0.00     0.040 A 
ATOM     68  F   UNL A   1      45.865  29.118  33.533  1.00  0.00    -0.206 F 
ATOM     69  C   UNL A   1      46.555  26.030  35.295  1.00  0.00     0.006 A 
ENDBRANCH  48  62
BRANCH  49  70
ATOM     70  C   UNL A   1      36.748  31.469  29.037  1.00  0.00     0.057 A 
ATOM     71  C   UNL A   1      35.625  30.686  28.749  1.00  0.00     0.134 A 
ATOM     72  C   UNL A   1      36.729  32.803  28.611  1.00  0.00     0.134 A 
ATOM     73  F   UNL A   1      35.591  29.395  29.111  1.00  0.00    -0.206 F 
ATOM     74  C   UNL A   1      34.534  31.202  28.045  1.00  0.00     0.040 A 
ATOM     75  C   UNL A   1      35.633  33.339  27.932  1.00  0.00     0.040 A 
ATOM     76  F   UNL A   1      37.771  33.609  28.858  1.00  0.00    -0.206 F 
ATOM     77  C   UNL A   1      34.535  32.534  27.639  1.00  0.00     0.006 A 
ENDBRANCH  49  70
BRANCH  61  78
ATOM     78  C   UNL A   1      39.077  31.954  35.589  1.00  0.00     0.057 A 
ATOM     79  C   UNL A   1      39.416  33.302  35.764  1.00  0.00     0.134 A 
ATOM     80  C   UNL A   1      38.240  31.369  36.548  1.00  0.00     0.134 A 
ATOM     81  F   UNL A   1      40.221  33.920  34.887  1.00  0.00    -0.206 F 
ATOM     82  C   UNL A   1      38.968  34.029  36.868  1.00  0.00     0.040 A 
ATOM     83  C   UNL A   1      37.758  32.095  37.637  1.00  0.00     0.040 A 
ATOM     84  F   UNL A   1      37.864  30.086  36.433  1.00  0.00    -0.206 F 
ATOM     85  C   UNL A   1      38.130  33.426  37.805  1.00  0.00     0.006 A 
ENDBRANCH  61  78
ENDBRANCH  35  36
ENDBRANCH  28  30
ENDBRANCH  27  28
ENDBRANCH  26  27
ENDBRANCH  25  26
ENDBRANCH  24  25
ENDBRANCH  23  24
ENDBRANCH   1  23
TORSDOF 21
ENDMDL
