MODEL 1
REMARK VINA RESULT:     -10.1      0.000      0.000
REMARK SMILES CCN1C(=O)N/C(=C/c2cc(Cl)c(OCc3cccc(C(=O)OCCOCCOCCOC(=O)c4ccc(-c5c6nc(c(-c7c(F)cccc7F)c7ccc([nH]7)c(-c7c(F)cccc7F)c7nc(c(-c8c(F)cccc8F)c8ccc5[nH]8)C=C7)C=C6)cc4)c3)c(OC)c2)C1=O
REMARK SMILES IDX 26 1 25 2 24 3 23 4 21 5 22 6 20 7 16 8 17 9 89 10 18 11
REMARK SMILES IDX 19 12 15 13 14 14 13 15 9 16 10 17 93 18 11 19 90 20 12 21
REMARK SMILES IDX 8 22 3 23 4 24 94 25 5 26 6 27 7 28 95 29 2 31 1 32 91 33
REMARK SMILES IDX 92 34 27 35 28 36 29 37 30 38 31 39 32 40 33 41 34 42 35 43
REMARK SMILES IDX 36 44 88 45 37 46 87 47 38 48 39 49 40 50 81 51 41 52 86 53
REMARK SMILES IDX 80 54 82 55 42 56 85 57 79 58 78 59 43 61 69 62 52 63 68 64
REMARK SMILES IDX 53 65 56 66 67 67 83 68 54 69 55 70 66 72 84 73 57 74 44 75
REMARK SMILES IDX 45 76 50 77 46 78 47 79 49 80 51 81 48 82 70 83 71 84 76 85
REMARK SMILES IDX 72 86 73 87 75 88 77 89 74 90 58 91 59 92 64 93 60 94 61 95
REMARK SMILES IDX 63 96 65 97 62 98
REMARK H PARENT 6 30 82 60 56 71
REMARK Flexibility Score: inf
ROOT
ATOM      1  O   UNL A   1      34.732  32.676  29.020  1.00  0.00    -0.376 OA
ENDROOT
BRANCH   1   2
ATOM      2  C   UNL A   1      34.704  31.353  28.506  1.00  0.00     0.202 C 
BRANCH   2   3
ATOM      3  C   UNL A   1      33.977  30.963  27.207  1.00  0.00     0.261 C 
BRANCH   3   4
ATOM      4  O   UNL A   1      33.086  29.844  27.291  1.00  0.00    -0.460 OA
BRANCH   4   5
ATOM      5  C   UNL A   1      33.377  28.800  26.472  1.00  0.00     0.338 C 
ATOM      6  O   UNL A   1      34.336  28.052  26.559  1.00  0.00    -0.246 OA
BRANCH   5   7
ATOM      7  C   UNL A   1      32.238  28.547  25.557  1.00  0.00     0.060 A 
ATOM      8  C   UNL A   1      30.445  27.139  24.705  1.00  0.00    -0.010 A 
ATOM      9  C   UNL A   1      30.093  28.159  23.809  1.00  0.00     0.007 A 
ATOM     10  C   UNL A   1      31.568  27.321  25.534  1.00  0.00     0.023 A 
ATOM     11  C   UNL A   1      30.803  29.362  23.788  1.00  0.00     0.001 A 
ATOM     12  C   UNL A   1      31.855  29.568  24.681  1.00  0.00     0.016 A 
BRANCH   8  13
ATOM     13  C   UNL A   1      29.632  25.863  24.801  1.00  0.00     0.265 C 
BRANCH  13  14
ATOM     14  O   UNL A   1      30.009  24.775  23.945  1.00  0.00    -0.483 OA
BRANCH  14  15
ATOM     15  C   UNL A   1      31.039  23.926  24.263  1.00  0.00     0.180 A 
ATOM     16  C   UNL A   1      33.205  22.134  24.543  1.00  0.00    -0.018 A 
ATOM     17  C   UNL A   1      32.215  22.211  25.522  1.00  0.00     0.033 A 
ATOM     18  C   UNL A   1      33.175  23.026  23.473  1.00  0.00     0.058 A 
ATOM     19  C   UNL A   1      31.160  23.126  25.407  1.00  0.00     0.087 A 
ATOM     20  C   UNL A   1      32.106  23.923  23.332  1.00  0.00     0.162 A 
ATOM     21  Cl  UNL A   1      30.174  23.281  26.818  1.00  0.00    -0.080 Cl
BRANCH  16  22
ATOM     22  C   UNL A   1      34.249  21.111  24.623  1.00  0.00     0.040 C 
ATOM     23  N   UNL A   1      37.453  22.461  25.508  1.00  0.00    -0.259 N 
ATOM     24  C   UNL A   1      37.723  21.120  25.327  1.00  0.00     0.328 C 
ATOM     25  C   UNL A   1      36.130  22.728  25.264  1.00  0.00     0.278 C 
ATOM     26  O   UNL A   1      38.802  20.556  25.401  1.00  0.00    -0.248 OA
ATOM     27  N   UNL A   1      36.533  20.487  25.002  1.00  0.00    -0.303 N 
ATOM     28  C   UNL A   1      35.518  21.395  24.937  1.00  0.00     0.109 C 
ATOM     29  O   UNL A   1      35.563  23.808  25.282  1.00  0.00    -0.267 OA
ATOM     30  H   UNL A   1      36.435  19.520  24.840  1.00  0.00     0.172 HD
BRANCH  23  31
ATOM     31  C   UNL A   1      38.464  23.469  25.755  1.00  0.00     0.127 C 
ATOM     32  C   UNL A   1      39.164  23.318  27.098  1.00  0.00     0.028 C 
ENDBRANCH  23  31
ENDBRANCH  16  22
BRANCH  20  33
ATOM     33  O   UNL A   1      32.012  24.815  22.286  1.00  0.00    -0.493 OA
ATOM     34  C   UNL A   1      33.021  25.818  22.209  1.00  0.00     0.278 C 
ENDBRANCH  20  33
ENDBRANCH  14  15
ENDBRANCH  13  14
ENDBRANCH   8  13
ENDBRANCH   5   7
ENDBRANCH   4   5
ENDBRANCH   3   4
ENDBRANCH   2   3
ENDBRANCH   1   2
BRANCH   1  35
ATOM     35  C   UNL A   1      34.412  32.923  30.376  1.00  0.00     0.188 C 
BRANCH  35  36
ATOM     36  C   UNL A   1      34.631  34.326  30.979  1.00  0.00     0.188 C 
BRANCH  36  37
ATOM     37  O   UNL A   1      35.578  34.461  32.008  1.00  0.00    -0.376 OA
BRANCH  37  38
ATOM     38  C   UNL A   1      35.564  33.578  33.116  1.00  0.00     0.202 C 
BRANCH  38  39
ATOM     39  C   UNL A   1      36.504  32.373  33.338  1.00  0.00     0.261 C 
BRANCH  39  40
ATOM     40  O   UNL A   1      37.286  31.902  32.238  1.00  0.00    -0.460 OA
BRANCH  40  41
ATOM     41  C   UNL A   1      36.987  30.656  31.794  1.00  0.00     0.338 C 
ATOM     42  O   UNL A   1      35.905  30.096  31.824  1.00  0.00    -0.246 OA
BRANCH  41  43
ATOM     43  C   UNL A   1      38.160  30.111  31.086  1.00  0.00     0.060 A 
ATOM     44  C   UNL A   1      39.196  29.533  31.834  1.00  0.00     0.016 A 
ATOM     45  C   UNL A   1      38.254  30.205  29.698  1.00  0.00     0.016 A 
ATOM     46  C   UNL A   1      40.340  29.059  31.193  1.00  0.00     0.010 A 
ATOM     47  C   UNL A   1      39.412  29.751  29.060  1.00  0.00     0.010 A 
ATOM     48  C   UNL A   1      40.471  29.201  29.805  1.00  0.00    -0.014 A 
BRANCH  48  49
ATOM     49  C   UNL A   1      41.776  28.934  29.151  1.00  0.00     0.031 A 
ATOM     50  C   UNL A   1      42.054  27.548  28.638  1.00  0.00     0.074 A 
ATOM     51  C   UNL A   1      42.698  29.902  29.012  1.00  0.00     0.049 A 
ATOM     52  N   UNL A   1      43.145  27.061  28.106  1.00  0.00    -0.248 NA
ATOM     53  C   UNL A   1      40.951  26.580  28.747  1.00  0.00     0.031 C 
ATOM     54  C   UNL A   1      42.535  31.292  29.427  1.00  0.00     0.029 A 
ATOM     55  N   UNL A   1      43.968  29.849  28.491  1.00  0.00    -0.354 N 
ATOM     56  C   UNL A   1      42.865  25.729  27.826  1.00  0.00     0.074 A 
ATOM     57  C   UNL A   1      41.513  25.477  28.278  1.00  0.00     0.031 C 
ATOM     58  C   UNL A   1      43.670  31.961  29.159  1.00  0.00     0.029 A 
ATOM     59  C   UNL A   1      44.651  31.037  28.591  1.00  0.00     0.049 A 
ATOM     60  H   UNL A   1      44.351  29.038  28.085  1.00  0.00     0.167 HD
ATOM     61  C   UNL A   1      43.660  24.801  27.242  1.00  0.00     0.037 A 
ATOM     62  C   UNL A   1      45.929  31.333  28.283  1.00  0.00     0.037 A 
ATOM     63  C   UNL A   1      45.007  25.052  26.801  1.00  0.00     0.049 A 
ATOM     64  C   UNL A   1      46.823  30.262  27.712  1.00  0.00     0.074 A 
ATOM     65  C   UNL A   1      45.886  24.183  26.180  1.00  0.00     0.029 A 
ATOM     66  N   UNL A   1      45.674  26.259  26.947  1.00  0.00    -0.354 N 
ATOM     67  N   UNL A   1      46.543  29.012  27.426  1.00  0.00    -0.248 NA
ATOM     68  C   UNL A   1      48.213  30.644  27.421  1.00  0.00     0.031 C 
ATOM     69  C   UNL A   1      47.107  24.845  26.007  1.00  0.00     0.029 A 
ATOM     70  C   UNL A   1      46.966  26.147  26.457  1.00  0.00     0.049 A 
ATOM     71  H   UNL A   1      45.288  27.075  27.341  1.00  0.00     0.167 HD
ATOM     72  C   UNL A   1      47.708  28.472  26.892  1.00  0.00     0.074 A 
ATOM     73  C   UNL A   1      48.694  29.532  26.882  1.00  0.00     0.031 C 
ATOM     74  C   UNL A   1      47.938  27.212  26.446  1.00  0.00     0.037 A 
BRANCH  61  75
ATOM     75  C   UNL A   1      43.100  23.417  27.080  1.00  0.00     0.057 A 
ATOM     76  C   UNL A   1      42.961  22.538  28.163  1.00  0.00     0.134 A 
ATOM     77  C   UNL A   1      42.675  22.964  25.824  1.00  0.00     0.134 A 
ATOM     78  F   UNL A   1      43.361  22.902  29.391  1.00  0.00    -0.206 F 
ATOM     79  C   UNL A   1      42.449  21.249  27.997  1.00  0.00     0.040 A 
ATOM     80  C   UNL A   1      42.131  21.690  25.653  1.00  0.00     0.040 A 
ATOM     81  F   UNL A   1      42.773  23.754  24.745  1.00  0.00    -0.206 F 
ATOM     82  C   UNL A   1      42.026  20.825  26.740  1.00  0.00     0.006 A 
ENDBRANCH  61  75
BRANCH  62  83
ATOM     83  C   UNL A   1      46.453  32.702  28.521  1.00  0.00     0.057 A 
ATOM     84  C   UNL A   1      46.984  33.072  29.762  1.00  0.00     0.134 A 
ATOM     85  C   UNL A   1      46.414  33.684  27.521  1.00  0.00     0.134 A 
ATOM     86  F   UNL A   1      47.024  32.186  30.769  1.00  0.00    -0.206 F 
ATOM     87  C   UNL A   1      47.439  34.368  30.008  1.00  0.00     0.040 A 
ATOM     88  C   UNL A   1      46.893  34.975  27.743  1.00  0.00     0.040 A 
ATOM     89  F   UNL A   1      45.916  33.396  26.310  1.00  0.00    -0.206 F 
ATOM     90  C   UNL A   1      47.400  35.323  28.994  1.00  0.00     0.006 A 
ENDBRANCH  62  83
BRANCH  74  91
ATOM     91  C   UNL A   1      49.294  26.918  25.867  1.00  0.00     0.057 A 
ATOM     92  C   UNL A   1      50.329  26.364  26.632  1.00  0.00     0.134 A 
ATOM     93  C   UNL A   1      49.553  27.152  24.510  1.00  0.00     0.134 A 
ATOM     94  F   UNL A   1      50.154  26.123  27.940  1.00  0.00    -0.206 F 
ATOM     95  C   UNL A   1      51.578  26.081  26.076  1.00  0.00     0.040 A 
ATOM     96  C   UNL A   1      50.787  26.844  23.935  1.00  0.00     0.040 A 
ATOM     97  F   UNL A   1      48.604  27.669  23.714  1.00  0.00    -0.206 F 
ATOM     98  C   UNL A   1      51.807  26.313  24.721  1.00  0.00     0.006 A 
ENDBRANCH  74  91
ENDBRANCH  48  49
ENDBRANCH  41  43
ENDBRANCH  40  41
ENDBRANCH  39  40
ENDBRANCH  38  39
ENDBRANCH  37  38
ENDBRANCH  36  37
ENDBRANCH  35  36
ENDBRANCH   1  35
TORSDOF 23
ENDMDL
MODEL 2
REMARK VINA RESULT:     -10.0      1.247      2.018
REMARK SMILES CCN1C(=O)N/C(=C/c2cc(Cl)c(OCc3cccc(C(=O)OCCOCCOCCOC(=O)c4ccc(-c5c6nc(c(-c7c(F)cccc7F)c7ccc([nH]7)c(-c7c(F)cccc7F)c7nc(c(-c8c(F)cccc8F)c8ccc5[nH]8)C=C7)C=C6)cc4)c3)c(OC)c2)C1=O
REMARK SMILES IDX 26 1 25 2 24 3 23 4 21 5 22 6 20 7 16 8 17 9 89 10 18 11
REMARK SMILES IDX 19 12 15 13 14 14 13 15 9 16 10 17 93 18 11 19 90 20 12 21
REMARK SMILES IDX 8 22 3 23 4 24 94 25 5 26 6 27 7 28 95 29 2 31 1 32 91 33
REMARK SMILES IDX 92 34 27 35 28 36 29 37 30 38 31 39 32 40 33 41 34 42 35 43
REMARK SMILES IDX 36 44 88 45 37 46 87 47 38 48 39 49 40 50 81 51 41 52 86 53
REMARK SMILES IDX 80 54 82 55 42 56 85 57 79 58 78 59 43 61 69 62 52 63 68 64
REMARK SMILES IDX 53 65 56 66 67 67 83 68 54 69 55 70 66 72 84 73 57 74 44 75
REMARK SMILES IDX 45 76 50 77 46 78 47 79 49 80 51 81 48 82 70 83 71 84 76 85
REMARK SMILES IDX 72 86 73 87 75 88 77 89 74 90 58 91 59 92 64 93 60 94 61 95
REMARK SMILES IDX 63 96 65 97 62 98
REMARK H PARENT 6 30 82 60 56 71
REMARK Flexibility Score: inf
ROOT
ATOM      1  O   UNL A   1      34.459  32.860  28.984  1.00  0.00    -0.376 OA
ENDROOT
BRANCH   1   2
ATOM      2  C   UNL A   1      34.376  31.528  28.500  1.00  0.00     0.202 C 
BRANCH   2   3
ATOM      3  C   UNL A   1      33.654  31.143  27.197  1.00  0.00     0.261 C 
BRANCH   3   4
ATOM      4  O   UNL A   1      32.558  30.228  27.326  1.00  0.00    -0.460 OA
BRANCH   4   5
ATOM      5  C   UNL A   1      32.814  28.950  26.944  1.00  0.00     0.338 C 
ATOM      6  O   UNL A   1      33.467  28.124  27.558  1.00  0.00    -0.246 OA
BRANCH   5   7
ATOM      7  C   UNL A   1      31.999  28.610  25.752  1.00  0.00     0.060 A 
ATOM      8  C   UNL A   1      30.489  27.138  24.538  1.00  0.00    -0.010 A 
ATOM      9  C   UNL A   1      30.477  28.055  23.476  1.00  0.00     0.007 A 
ATOM     10  C   UNL A   1      31.312  27.398  25.649  1.00  0.00     0.023 A 
ATOM     11  C   UNL A   1      31.215  29.239  23.552  1.00  0.00     0.001 A 
ATOM     12  C   UNL A   1      31.951  29.530  24.700  1.00  0.00     0.016 A 
BRANCH   8  13
ATOM     13  C   UNL A   1      29.627  25.892  24.508  1.00  0.00     0.265 C 
BRANCH  13  14
ATOM     14  O   UNL A   1      30.125  24.762  23.777  1.00  0.00    -0.483 OA
BRANCH  14  15
ATOM     15  C   UNL A   1      31.205  24.036  24.213  1.00  0.00     0.180 A 
ATOM     16  C   UNL A   1      33.500  22.476  24.743  1.00  0.00    -0.018 A 
ATOM     17  C   UNL A   1      32.450  22.531  25.660  1.00  0.00     0.033 A 
ATOM     18  C   UNL A   1      33.455  23.283  23.608  1.00  0.00     0.058 A 
ATOM     19  C   UNL A   1      31.327  23.334  25.420  1.00  0.00     0.087 A 
ATOM     20  C   UNL A   1      32.321  24.065  23.342  1.00  0.00     0.162 A 
ATOM     21  Cl  UNL A   1      30.249  23.498  26.761  1.00  0.00    -0.080 Cl
BRANCH  16  22
ATOM     22  C   UNL A   1      34.623  21.561  24.956  1.00  0.00     0.040 C 
ATOM     23  N   UNL A   1      33.754  18.132  24.356  1.00  0.00    -0.259 N 
ATOM     24  C   UNL A   1      35.071  18.050  24.759  1.00  0.00     0.328 C 
ATOM     25  C   UNL A   1      33.320  19.434  24.370  1.00  0.00     0.278 C 
ATOM     26  O   UNL A   1      35.744  17.046  24.918  1.00  0.00    -0.248 OA
ATOM     27  N   UNL A   1      35.523  19.339  24.996  1.00  0.00    -0.303 N 
ATOM     28  C   UNL A   1      34.519  20.237  24.788  1.00  0.00     0.109 C 
ATOM     29  O   UNL A   1      32.205  19.860  24.121  1.00  0.00    -0.267 OA
ATOM     30  H   UNL A   1      36.439  19.572  25.276  1.00  0.00     0.172 HD
BRANCH  23  31
ATOM     31  C   UNL A   1      32.902  16.984  24.117  1.00  0.00     0.127 C 
ATOM     32  C   UNL A   1      32.527  16.226  25.383  1.00  0.00     0.028 C 
ENDBRANCH  23  31
ENDBRANCH  16  22
BRANCH  20  33
ATOM     33  O   UNL A   1      32.212  24.868  22.228  1.00  0.00    -0.493 OA
ATOM     34  C   UNL A   1      33.195  25.888  22.077  1.00  0.00     0.278 C 
ENDBRANCH  20  33
ENDBRANCH  14  15
ENDBRANCH  13  14
ENDBRANCH   8  13
ENDBRANCH   5   7
ENDBRANCH   4   5
ENDBRANCH   3   4
ENDBRANCH   2   3
ENDBRANCH   1   2
BRANCH   1  35
ATOM     35  C   UNL A   1      34.203  33.143  30.346  1.00  0.00     0.188 C 
BRANCH  35  36
ATOM     36  C   UNL A   1      34.631  34.497  30.948  1.00  0.00     0.188 C 
BRANCH  36  37
ATOM     37  O   UNL A   1      35.768  34.522  31.774  1.00  0.00    -0.376 OA
BRANCH  37  38
ATOM     38  C   UNL A   1      35.844  33.684  32.915  1.00  0.00     0.202 C 
BRANCH  38  39
ATOM     39  C   UNL A   1      36.580  32.331  33.007  1.00  0.00     0.261 C 
BRANCH  39  40
ATOM     40  O   UNL A   1      37.295  31.858  31.862  1.00  0.00    -0.460 OA
BRANCH  40  41
ATOM     41  C   UNL A   1      36.985  30.604  31.451  1.00  0.00     0.338 C 
ATOM     42  O   UNL A   1      35.893  30.067  31.464  1.00  0.00    -0.246 OA
BRANCH  41  43
ATOM     43  C   UNL A   1      38.171  30.012  30.802  1.00  0.00     0.060 A 
ATOM     44  C   UNL A   1      39.116  29.345  31.595  1.00  0.00     0.016 A 
ATOM     45  C   UNL A   1      38.365  30.148  29.428  1.00  0.00     0.016 A 
ATOM     46  C   UNL A   1      40.272  28.824  31.013  1.00  0.00     0.010 A 
ATOM     47  C   UNL A   1      39.535  29.646  28.852  1.00  0.00     0.010 A 
ATOM     48  C   UNL A   1      40.506  29.006  29.644  1.00  0.00    -0.014 A 
BRANCH  48  49
ATOM     49  C   UNL A   1      41.834  28.681  29.068  1.00  0.00     0.031 A 
ATOM     50  C   UNL A   1      42.081  27.284  28.570  1.00  0.00     0.074 A 
ATOM     51  C   UNL A   1      42.804  29.607  28.987  1.00  0.00     0.049 A 
ATOM     52  N   UNL A   1      43.180  26.749  28.102  1.00  0.00    -0.248 NA
ATOM     53  C   UNL A   1      40.932  26.366  28.611  1.00  0.00     0.031 C 
ATOM     54  C   UNL A   1      42.679  31.004  29.395  1.00  0.00     0.029 A 
ATOM     55  N   UNL A   1      44.100  29.499  28.543  1.00  0.00    -0.354 N 
ATOM     56  C   UNL A   1      42.858  25.431  27.804  1.00  0.00     0.074 A 
ATOM     57  C   UNL A   1      41.472  25.239  28.173  1.00  0.00     0.031 C 
ATOM     58  C   UNL A   1      43.856  31.622  29.196  1.00  0.00     0.029 A 
ATOM     59  C   UNL A   1      44.827  30.656  28.685  1.00  0.00     0.049 A 
ATOM     60  H   UNL A   1      44.471  28.671  28.158  1.00  0.00     0.167 HD
ATOM     61  C   UNL A   1      43.645  24.469  27.265  1.00  0.00     0.037 A 
ATOM     62  C   UNL A   1      46.133  30.895  28.455  1.00  0.00     0.037 A 
ATOM     63  C   UNL A   1      45.026  24.660  26.906  1.00  0.00     0.049 A 
ATOM     64  C   UNL A   1      47.011  29.785  27.936  1.00  0.00     0.074 A 
ATOM     65  C   UNL A   1      45.901  23.753  26.337  1.00  0.00     0.029 A 
ATOM     66  N   UNL A   1      45.735  25.836  27.095  1.00  0.00    -0.354 N 
ATOM     67  N   UNL A   1      46.695  28.549  27.631  1.00  0.00    -0.248 NA
ATOM     68  C   UNL A   1      48.432  30.105  27.729  1.00  0.00     0.031 C 
ATOM     69  C   UNL A   1      47.158  24.360  26.239  1.00  0.00     0.029 A 
ATOM     70  C   UNL A   1      47.048  25.668  26.682  1.00  0.00     0.049 A 
ATOM     71  H   UNL A   1      45.362  26.668  27.466  1.00  0.00     0.167 HD
ATOM     72  C   UNL A   1      47.865  27.957  27.166  1.00  0.00     0.074 A 
ATOM     73  C   UNL A   1      48.895  28.973  27.218  1.00  0.00     0.031 C 
ATOM     74  C   UNL A   1      48.065  26.688  26.732  1.00  0.00     0.037 A 
BRANCH  61  75
ATOM     75  C   UNL A   1      43.036  23.110  27.067  1.00  0.00     0.057 A 
ATOM     76  C   UNL A   1      42.690  22.627  25.797  1.00  0.00     0.134 A 
ATOM     77  C   UNL A   1      42.812  22.264  28.161  1.00  0.00     0.134 A 
ATOM     78  F   UNL A   1      42.865  23.390  24.708  1.00  0.00    -0.206 F 
ATOM     79  C   UNL A   1      42.115  21.365  25.628  1.00  0.00     0.040 A 
ATOM     80  C   UNL A   1      42.268  20.989  28.000  1.00  0.00     0.040 A 
ATOM     81  F   UNL A   1      43.125  22.660  29.404  1.00  0.00    -0.206 F 
ATOM     82  C   UNL A   1      41.909  20.541  26.732  1.00  0.00     0.006 A 
ENDBRANCH  61  75
BRANCH  62  83
ATOM     83  C   UNL A   1      46.702  32.239  28.727  1.00  0.00     0.057 A 
ATOM     84  C   UNL A   1      47.159  32.591  30.003  1.00  0.00     0.134 A 
ATOM     85  C   UNL A   1      46.781  33.216  27.725  1.00  0.00     0.134 A 
ATOM     86  F   UNL A   1      47.085  31.710  31.011  1.00  0.00    -0.206 F 
ATOM     87  C   UNL A   1      47.655  33.867  30.277  1.00  0.00     0.040 A 
ATOM     88  C   UNL A   1      47.302  34.485  27.978  1.00  0.00     0.040 A 
ATOM     89  F   UNL A   1      46.358  32.944  26.481  1.00  0.00    -0.206 F 
ATOM     90  C   UNL A   1      47.733  34.816  29.261  1.00  0.00     0.006 A 
ENDBRANCH  62  83
BRANCH  74  91
ATOM     91  C   UNL A   1      49.439  26.334  26.234  1.00  0.00     0.057 A 
ATOM     92  C   UNL A   1      50.353  25.613  27.013  1.00  0.00     0.134 A 
ATOM     93  C   UNL A   1      49.837  26.684  24.936  1.00  0.00     0.134 A 
ATOM     94  F   UNL A   1      50.043  25.255  28.268  1.00  0.00    -0.206 F 
ATOM     95  C   UNL A   1      51.620  25.278  26.531  1.00  0.00     0.040 A 
ATOM     96  C   UNL A   1      51.087  26.326  24.431  1.00  0.00     0.040 A 
ATOM     97  F   UNL A   1      49.007  27.364  24.130  1.00  0.00    -0.206 F 
ATOM     98  C   UNL A   1      51.987  25.627  25.233  1.00  0.00     0.006 A 
ENDBRANCH  74  91
ENDBRANCH  48  49
ENDBRANCH  41  43
ENDBRANCH  40  41
ENDBRANCH  39  40
ENDBRANCH  38  39
ENDBRANCH  37  38
ENDBRANCH  36  37
ENDBRANCH  35  36
ENDBRANCH   1  35
TORSDOF 23
ENDMDL
MODEL 3
REMARK VINA RESULT:      -9.9      2.314      8.301
REMARK SMILES CCN1C(=O)N/C(=C/c2cc(Cl)c(OCc3cccc(C(=O)OCCOCCOCCOC(=O)c4ccc(-c5c6nc(c(-c7c(F)cccc7F)c7ccc([nH]7)c(-c7c(F)cccc7F)c7nc(c(-c8c(F)cccc8F)c8ccc5[nH]8)C=C7)C=C6)cc4)c3)c(OC)c2)C1=O
REMARK SMILES IDX 26 1 25 2 24 3 23 4 21 5 22 6 20 7 16 8 17 9 89 10 18 11
REMARK SMILES IDX 19 12 15 13 14 14 13 15 9 16 10 17 93 18 11 19 90 20 12 21
REMARK SMILES IDX 8 22 3 23 4 24 94 25 5 26 6 27 7 28 95 29 2 31 1 32 91 33
REMARK SMILES IDX 92 34 27 35 28 36 29 37 30 38 31 39 32 40 33 41 34 42 35 43
REMARK SMILES IDX 36 44 88 45 37 46 87 47 38 48 39 49 40 50 81 51 41 52 86 53
REMARK SMILES IDX 80 54 82 55 42 56 85 57 79 58 78 59 43 61 69 62 52 63 68 64
REMARK SMILES IDX 53 65 56 66 67 67 83 68 54 69 55 70 66 72 84 73 57 74 44 75
REMARK SMILES IDX 45 76 50 77 46 78 47 79 49 80 51 81 48 82 70 83 71 84 76 85
REMARK SMILES IDX 72 86 73 87 75 88 77 89 74 90 58 91 59 92 64 93 60 94 61 95
REMARK SMILES IDX 63 96 65 97 62 98
REMARK H PARENT 6 30 82 60 56 71
REMARK Flexibility Score: inf
ROOT
ATOM      1  O   UNL A   1      35.856  20.982  24.650  1.00  0.00    -0.376 OA
ENDROOT
BRANCH   1   2
ATOM      2  C   UNL A   1      34.616  20.698  25.281  1.00  0.00     0.202 C 
BRANCH   2   3
ATOM      3  C   UNL A   1      33.556  21.770  25.589  1.00  0.00     0.261 C 
BRANCH   3   4
ATOM      4  O   UNL A   1      32.266  21.574  24.997  1.00  0.00    -0.460 OA
BRANCH   4   5
ATOM      5  C   UNL A   1      32.233  21.600  23.640  1.00  0.00     0.338 C 
ATOM      6  O   UNL A   1      32.169  20.637  22.895  1.00  0.00    -0.246 OA
BRANCH   5   7
ATOM      7  C   UNL A   1      32.068  22.996  23.168  1.00  0.00     0.060 A 
ATOM      8  C   UNL A   1      30.839  25.095  23.072  1.00  0.00    -0.010 A 
ATOM      9  C   UNL A   1      31.842  25.625  22.247  1.00  0.00     0.007 A 
ATOM     10  C   UNL A   1      30.931  23.749  23.474  1.00  0.00     0.023 A 
ATOM     11  C   UNL A   1      32.949  24.851  21.889  1.00  0.00     0.001 A 
ATOM     12  C   UNL A   1      33.077  23.549  22.373  1.00  0.00     0.016 A 
BRANCH   8  13
ATOM     13  C   UNL A   1      29.677  25.947  23.541  1.00  0.00     0.265 C 
BRANCH  13  14
ATOM     14  O   UNL A   1      29.889  26.777  24.693  1.00  0.00    -0.483 OA
BRANCH  14  15
ATOM     15  C   UNL A   1      31.119  27.313  24.982  1.00  0.00     0.180 A 
ATOM     16  C   UNL A   1      33.571  28.338  25.940  1.00  0.00    -0.018 A 
ATOM     17  C   UNL A   1      32.990  28.853  24.781  1.00  0.00     0.033 A 
ATOM     18  C   UNL A   1      32.985  27.239  26.565  1.00  0.00     0.058 A 
ATOM     19  C   UNL A   1      31.794  28.321  24.280  1.00  0.00     0.087 A 
ATOM     20  C   UNL A   1      31.771  26.721  26.090  1.00  0.00     0.162 A 
ATOM     21  Cl  UNL A   1      31.350  28.883  22.707  1.00  0.00    -0.080 Cl
BRANCH  16  22
ATOM     22  C   UNL A   1      34.767  28.962  26.509  1.00  0.00     0.040 C 
ATOM     23  N   UNL A   1      34.085  32.137  28.033  1.00  0.00    -0.259 N 
ATOM     24  C   UNL A   1      35.450  32.008  28.188  1.00  0.00     0.328 C 
ATOM     25  C   UNL A   1      33.566  31.056  27.366  1.00  0.00     0.278 C 
ATOM     26  O   UNL A   1      36.228  32.810  28.678  1.00  0.00    -0.248 OA
ATOM     27  N   UNL A   1      35.825  30.787  27.650  1.00  0.00    -0.303 N 
ATOM     28  C   UNL A   1      34.740  30.150  27.125  1.00  0.00     0.109 C 
ATOM     29  O   UNL A   1      32.413  30.867  27.018  1.00  0.00    -0.267 OA
ATOM     30  H   UNL A   1      36.743  30.430  27.646  1.00  0.00     0.172 HD
BRANCH  23  31
ATOM     31  C   UNL A   1      33.336  33.329  28.376  1.00  0.00     0.127 C 
ATOM     32  C   UNL A   1      33.877  34.599  27.736  1.00  0.00     0.028 C 
ENDBRANCH  23  31
ENDBRANCH  16  22
BRANCH  20  33
ATOM     33  O   UNL A   1      31.136  25.649  26.678  1.00  0.00    -0.493 OA
ATOM     34  C   UNL A   1      31.893  24.448  26.804  1.00  0.00     0.278 C 
ENDBRANCH  20  33
ENDBRANCH  14  15
ENDBRANCH  13  14
ENDBRANCH   8  13
ENDBRANCH   5   7
ENDBRANCH   4   5
ENDBRANCH   3   4
ENDBRANCH   2   3
ENDBRANCH   1   2
BRANCH   1  35
ATOM     35  C   UNL A   1      36.202  22.314  24.320  1.00  0.00     0.188 C 
BRANCH  35  36
ATOM     36  C   UNL A   1      37.390  23.001  25.022  1.00  0.00     0.188 C 
BRANCH  36  37
ATOM     37  O   UNL A   1      37.990  22.336  26.106  1.00  0.00    -0.376 OA
BRANCH  37  38
ATOM     38  C   UNL A   1      39.255  21.716  25.954  1.00  0.00     0.202 C 
BRANCH  38  39
ATOM     39  C   UNL A   1      39.518  20.202  25.798  1.00  0.00     0.261 C 
BRANCH  39  40
ATOM     40  O   UNL A   1      40.762  19.776  25.238  1.00  0.00    -0.460 OA
BRANCH  40  41
ATOM     41  C   UNL A   1      41.755  19.528  26.128  1.00  0.00     0.338 C 
ATOM     42  O   UNL A   1      42.127  18.445  26.543  1.00  0.00    -0.246 OA
BRANCH  41  43
ATOM     43  C   UNL A   1      42.464  20.790  26.411  1.00  0.00     0.060 A 
ATOM     44  C   UNL A   1      42.610  21.203  27.743  1.00  0.00     0.016 A 
ATOM     45  C   UNL A   1      42.945  21.578  25.366  1.00  0.00     0.016 A 
ATOM     46  C   UNL A   1      43.228  22.418  28.034  1.00  0.00     0.010 A 
ATOM     47  C   UNL A   1      43.543  22.807  25.659  1.00  0.00     0.010 A 
ATOM     48  C   UNL A   1      43.664  23.246  26.991  1.00  0.00    -0.014 A 
BRANCH  48  49
ATOM     49  C   UNL A   1      44.089  24.638  27.276  1.00  0.00     0.031 A 
ATOM     50  C   UNL A   1      43.079  25.599  27.839  1.00  0.00     0.074 A 
ATOM     51  C   UNL A   1      45.349  25.045  27.042  1.00  0.00     0.049 A 
ATOM     52  N   UNL A   1      43.197  26.878  28.092  1.00  0.00    -0.248 NA
ATOM     53  C   UNL A   1      41.754  25.041  28.152  1.00  0.00     0.031 C 
ATOM     54  C   UNL A   1      46.431  24.203  26.539  1.00  0.00     0.029 A 
ATOM     55  N   UNL A   1      45.923  26.285  27.186  1.00  0.00    -0.354 N 
ATOM     56  C   UNL A   1      41.961  27.279  28.584  1.00  0.00     0.074 A 
ATOM     57  C   UNL A   1      41.100  26.116  28.562  1.00  0.00     0.031 C 
ATOM     58  C   UNL A   1      47.537  24.954  26.401  1.00  0.00     0.029 A 
ATOM     59  C   UNL A   1      47.230  26.336  26.768  1.00  0.00     0.049 A 
ATOM     60  H   UNL A   1      45.442  27.062  27.554  1.00  0.00     0.167 HD
ATOM     61  C   UNL A   1      41.580  28.503  29.019  1.00  0.00     0.037 A 
ATOM     62  C   UNL A   1      48.071  27.385  26.668  1.00  0.00     0.037 A 
ATOM     63  C   UNL A   1      42.437  29.660  29.032  1.00  0.00     0.049 A 
ATOM     64  C   UNL A   1      47.598  28.756  27.078  1.00  0.00     0.074 A 
ATOM     65  C   UNL A   1      42.150  30.940  29.472  1.00  0.00     0.029 A 
ATOM     66  N   UNL A   1      43.745  29.679  28.572  1.00  0.00    -0.354 N 
ATOM     67  N   UNL A   1      46.437  29.123  27.567  1.00  0.00    -0.248 NA
ATOM     68  C   UNL A   1      48.556  29.862  26.922  1.00  0.00     0.031 C 
ATOM     69  C   UNL A   1      43.263  31.749  29.219  1.00  0.00     0.029 A 
ATOM     70  C   UNL A   1      44.268  30.958  28.687  1.00  0.00     0.049 A 
ATOM     71  H   UNL A   1      44.231  28.900  28.216  1.00  0.00     0.167 HD
ATOM     72  C   UNL A   1      46.537  30.490  27.808  1.00  0.00     0.074 A 
ATOM     73  C   UNL A   1      47.876  30.884  27.422  1.00  0.00     0.031 C 
ATOM     74  C   UNL A   1      45.605  31.339  28.306  1.00  0.00     0.037 A 
BRANCH  61  75
ATOM     75  C   UNL A   1      40.160  28.660  29.483  1.00  0.00     0.057 A 
ATOM     76  C   UNL A   1      39.115  28.953  28.597  1.00  0.00     0.134 A 
ATOM     77  C   UNL A   1      39.831  28.493  30.835  1.00  0.00     0.134 A 
ATOM     78  F   UNL A   1      39.361  29.139  27.291  1.00  0.00    -0.206 F 
ATOM     79  C   UNL A   1      37.800  29.106  29.043  1.00  0.00     0.040 A 
ATOM     80  C   UNL A   1      38.516  28.611  31.287  1.00  0.00     0.040 A 
ATOM     81  F   UNL A   1      40.780  28.205  31.737  1.00  0.00    -0.206 F 
ATOM     82  C   UNL A   1      37.498  28.928  30.391  1.00  0.00     0.006 A 
ENDBRANCH  61  75
BRANCH  62  83
ATOM     83  C   UNL A   1      49.446  27.189  26.143  1.00  0.00     0.057 A 
ATOM     84  C   UNL A   1      49.714  27.242  24.771  1.00  0.00     0.134 A 
ATOM     85  C   UNL A   1      50.523  26.918  26.998  1.00  0.00     0.134 A 
ATOM     86  F   UNL A   1      48.721  27.469  23.898  1.00  0.00    -0.206 F 
ATOM     87  C   UNL A   1      50.996  27.016  24.265  1.00  0.00     0.040 A 
ATOM     88  C   UNL A   1      51.815  26.720  26.509  1.00  0.00     0.040 A 
ATOM     89  F   UNL A   1      50.333  26.851  28.324  1.00  0.00    -0.206 F 
ATOM     90  C   UNL A   1      52.052  26.760  25.137  1.00  0.00     0.006 A 
ENDBRANCH  62  83
BRANCH  74  91
ATOM     91  C   UNL A   1      46.010  32.773  28.508  1.00  0.00     0.057 A 
ATOM     92  C   UNL A   1      46.504  33.245  29.731  1.00  0.00     0.134 A 
ATOM     93  C   UNL A   1      45.946  33.685  27.446  1.00  0.00     0.134 A 
ATOM     94  F   UNL A   1      46.584  32.428  30.793  1.00  0.00    -0.206 F 
ATOM     95  C   UNL A   1      46.891  34.576  29.898  1.00  0.00     0.040 A 
ATOM     96  C   UNL A   1      46.361  35.010  27.591  1.00  0.00     0.040 A 
ATOM     97  F   UNL A   1      45.495  33.300  26.242  1.00  0.00    -0.206 F 
ATOM     98  C   UNL A   1      46.828  35.461  28.824  1.00  0.00     0.006 A 
ENDBRANCH  74  91
ENDBRANCH  48  49
ENDBRANCH  41  43
ENDBRANCH  40  41
ENDBRANCH  39  40
ENDBRANCH  38  39
ENDBRANCH  37  38
ENDBRANCH  36  37
ENDBRANCH  35  36
ENDBRANCH   1  35
TORSDOF 23
ENDMDL
