MODEL 1
REMARK VINA RESULT:     -10.9      0.000      0.000
REMARK SMILES COc1ccc(C[N@@H+]2CCO[C@H](Cc3ccc(F)cc3)C2)cc1C(=O)OCCOCCOCCOC(=O)c1ccc(-c2c3nc(c(-c4c(F)cccc4F)c4ccc([nH]4)c(-c4c(F)cccc4F)c4nc(c(-c5c(F)cccc5F)c5ccc2[nH]5)C=C4)C=C3)cc1
REMARK SMILES IDX 30 1 29 2 28 3 27 4 26 5 24 6 25 7 23 8 3 9 4 10 5 11 22 12
REMARK SMILES IDX 6 13 2 14 1 15 7 16 8 17 9 18 21 19 10 21 12 22 11 23 13 24
REMARK SMILES IDX 14 25 15 26 20 27 16 28 19 29 17 30 18 31 31 32 32 33 33 34
REMARK SMILES IDX 34 35 35 36 36 37 37 38 38 39 39 40 91 41 40 42 90 43 41 44
REMARK SMILES IDX 42 45 43 46 84 47 44 48 89 49 83 50 85 51 45 52 88 53 82 54
REMARK SMILES IDX 81 55 46 57 72 58 55 59 71 60 56 61 59 62 70 63 86 64 57 65
REMARK SMILES IDX 58 66 69 68 87 69 60 70 47 71 48 72 53 73 49 74 50 75 52 76
REMARK SMILES IDX 54 77 51 78 73 79 74 80 79 81 75 82 76 83 78 84 80 85 77 86
REMARK SMILES IDX 61 87 62 88 67 89 63 90 64 91 66 92 68 93 65 94
REMARK H PARENT 8 20 85 56 59 67
REMARK Flexibility Score: inf
ROOT
ATOM      1  C   UNL A   1      40.291  22.490  26.771  1.00  0.00     0.188 C 
ENDROOT
BRANCH   1   2
ATOM      2  O   UNL A   1      38.952  22.430  26.292  1.00  0.00    -0.376 OA
BRANCH   2   3
ATOM      3  C   UNL A   1      38.573  21.403  25.393  1.00  0.00     0.202 C 
BRANCH   3   4
ATOM      4  C   UNL A   1      37.100  20.992  25.388  1.00  0.00     0.261 C 
BRANCH   4   5
ATOM      5  O   UNL A   1      36.179  22.009  25.818  1.00  0.00    -0.460 OA
BRANCH   5   6
ATOM      6  C   UNL A   1      34.918  21.598  26.089  1.00  0.00     0.342 C 
ATOM      7  O   UNL A   1      34.435  21.408  27.193  1.00  0.00    -0.246 OA
BRANCH   6   8
ATOM      8  C   UNL A   1      34.116  21.485  24.851  1.00  0.00     0.102 A 
ATOM      9  C   UNL A   1      33.347  20.358  24.540  1.00  0.00     0.133 A 
ATOM     10  C   UNL A   1      32.413  20.448  23.500  1.00  0.00     0.048 A 
ATOM     11  C   UNL A   1      32.273  21.621  22.746  1.00  0.00     0.013 A 
ATOM     12  C   UNL A   1      33.985  22.662  24.072  1.00  0.00     0.029 A 
ATOM     13  C   UNL A   1      33.084  22.737  22.988  1.00  0.00     0.007 A 
BRANCH   9  14
ATOM     14  O   UNL A   1      33.274  19.196  25.258  1.00  0.00    -0.496 OA
ATOM     15  C   UNL A   1      33.672  18.013  24.569  1.00  0.00     0.278 C 
ENDBRANCH   9  14
BRANCH  13  16
ATOM     16  C   UNL A   1      32.952  24.000  22.151  1.00  0.00     0.299 C 
BRANCH  16  17
ATOM     17  N   UNL A   1      31.704  24.759  22.199  1.00  0.00    -0.327 N 
ATOM     18  C   UNL A   1      31.637  26.110  21.655  1.00  0.00     0.291 C 
ATOM     19  C   UNL A   1      30.743  24.545  23.280  1.00  0.00     0.295 C 
ATOM     20  H   UNL A   1      31.360  24.167  21.441  1.00  0.00     0.348 HD
ATOM     21  C   UNL A   1      31.547  27.216  22.723  1.00  0.00     0.222 C 
ATOM     22  C   UNL A   1      30.707  25.673  24.352  1.00  0.00     0.177 C 
ATOM     23  O   UNL A   1      30.549  26.953  23.718  1.00  0.00    -0.366 OA
BRANCH  22  24
ATOM     24  C   UNL A   1      31.957  25.583  25.226  1.00  0.00     0.073 C 
BRANCH  24  25
ATOM     25  C   UNL A   1      32.432  26.740  26.063  1.00  0.00    -0.045 A 
ATOM     26  C   UNL A   1      31.488  27.380  26.889  1.00  0.00     0.007 A 
ATOM     27  C   UNL A   1      33.689  27.321  25.896  1.00  0.00     0.007 A 
ATOM     28  C   UNL A   1      31.750  28.624  27.449  1.00  0.00     0.039 A 
ATOM     29  C   UNL A   1      33.956  28.567  26.471  1.00  0.00     0.039 A 
ATOM     30  C   UNL A   1      32.975  29.222  27.209  1.00  0.00     0.123 A 
ATOM     31  F   UNL A   1      33.200  30.460  27.664  1.00  0.00    -0.207 F 
ENDBRANCH  24  25
ENDBRANCH  22  24
ENDBRANCH  16  17
ENDBRANCH  13  16
ENDBRANCH   6   8
ENDBRANCH   5   6
ENDBRANCH   4   5
ENDBRANCH   3   4
ENDBRANCH   2   3
ENDBRANCH   1   2
BRANCH   1  32
ATOM     32  C   UNL A   1      41.392  21.562  26.218  1.00  0.00     0.188 C 
BRANCH  32  33
ATOM     33  O   UNL A   1      42.122  20.883  27.226  1.00  0.00    -0.376 OA
BRANCH  33  34
ATOM     34  C   UNL A   1      42.226  19.477  27.081  1.00  0.00     0.202 C 
BRANCH  34  35
ATOM     35  C   UNL A   1      42.628  19.032  25.672  1.00  0.00     0.261 C 
BRANCH  35  36
ATOM     36  O   UNL A   1      44.045  18.892  25.466  1.00  0.00    -0.460 OA
BRANCH  36  37
ATOM     37  C   UNL A   1      44.569  19.477  24.371  1.00  0.00     0.338 C 
ATOM     38  O   UNL A   1      44.682  18.989  23.251  1.00  0.00    -0.246 OA
BRANCH  37  39
ATOM     39  C   UNL A   1      44.840  20.891  24.690  1.00  0.00     0.060 A 
ATOM     40  C   UNL A   1      45.381  21.205  25.942  1.00  0.00     0.016 A 
ATOM     41  C   UNL A   1      44.562  21.904  23.773  1.00  0.00     0.016 A 
ATOM     42  C   UNL A   1      45.638  22.532  26.284  1.00  0.00     0.010 A 
ATOM     43  C   UNL A   1      44.808  23.238  24.124  1.00  0.00     0.010 A 
ATOM     44  C   UNL A   1      45.332  23.562  25.388  1.00  0.00    -0.014 A 
BRANCH  44  45
ATOM     45  C   UNL A   1      45.413  24.976  25.832  1.00  0.00     0.031 A 
ATOM     46  C   UNL A   1      46.743  25.675  25.773  1.00  0.00     0.074 A 
ATOM     47  C   UNL A   1      44.324  25.647  26.250  1.00  0.00     0.049 A 
ATOM     48  N   UNL A   1      47.084  26.857  26.215  1.00  0.00    -0.248 NA
ATOM     49  C   UNL A   1      47.837  24.934  25.123  1.00  0.00     0.031 C 
ATOM     50  C   UNL A   1      42.962  25.120  26.283  1.00  0.00     0.029 A 
ATOM     51  N   UNL A   1      44.202  26.924  26.743  1.00  0.00    -0.354 N 
ATOM     52  C   UNL A   1      48.434  26.995  25.919  1.00  0.00     0.074 A 
ATOM     53  C   UNL A   1      48.853  25.771  25.272  1.00  0.00     0.031 C 
ATOM     54  C   UNL A   1      42.142  26.058  26.789  1.00  0.00     0.029 A 
ATOM     55  C   UNL A   1      42.929  27.233  27.162  1.00  0.00     0.049 A 
ATOM     56  H   UNL A   1      44.954  27.558  26.791  1.00  0.00     0.167 HD
ATOM     57  C   UNL A   1      49.250  28.048  26.162  1.00  0.00     0.037 A 
ATOM     58  C   UNL A   1      42.464  28.321  27.808  1.00  0.00     0.037 A 
ATOM     59  C   UNL A   1      48.832  29.268  26.800  1.00  0.00     0.049 A 
ATOM     60  C   UNL A   1      43.414  29.440  28.156  1.00  0.00     0.074 A 
ATOM     61  C   UNL A   1      49.589  30.389  27.094  1.00  0.00     0.029 A 
ATOM     62  N   UNL A   1      47.545  29.526  27.243  1.00  0.00    -0.354 N 
ATOM     63  N   UNL A   1      44.692  29.557  27.889  1.00  0.00    -0.248 NA
ATOM     64  C   UNL A   1      42.855  30.577  28.904  1.00  0.00     0.031 C 
ATOM     65  C   UNL A   1      48.770  31.306  27.762  1.00  0.00     0.029 A 
ATOM     66  C   UNL A   1      47.491  30.779  27.830  1.00  0.00     0.049 A 
ATOM     67  H   UNL A   1      46.783  28.910  27.155  1.00  0.00     0.167 HD
ATOM     68  C   UNL A   1      45.081  30.789  28.406  1.00  0.00     0.074 A 
ATOM     69  C   UNL A   1      43.901  31.387  28.991  1.00  0.00     0.031 C 
ATOM     70  C   UNL A   1      46.305  31.372  28.395  1.00  0.00     0.037 A 
BRANCH  57  71
ATOM     71  C   UNL A   1      50.692  27.907  25.770  1.00  0.00     0.057 A 
ATOM     72  C   UNL A   1      51.137  28.163  24.466  1.00  0.00     0.134 A 
ATOM     73  C   UNL A   1      51.652  27.536  26.720  1.00  0.00     0.134 A 
ATOM     74  F   UNL A   1      50.265  28.505  23.505  1.00  0.00    -0.206 F 
ATOM     75  C   UNL A   1      52.483  28.035  24.117  1.00  0.00     0.040 A 
ATOM     76  C   UNL A   1      53.004  27.431  26.389  1.00  0.00     0.040 A 
ATOM     77  F   UNL A   1      51.293  27.279  27.987  1.00  0.00    -0.206 F 
ATOM     78  C   UNL A   1      53.421  27.675  25.084  1.00  0.00     0.006 A 
ENDBRANCH  57  71
BRANCH  58  79
ATOM     79  C   UNL A   1      41.037  28.399  28.218  1.00  0.00     0.057 A 
ATOM     80  C   UNL A   1      40.063  28.931  27.366  1.00  0.00     0.134 A 
ATOM     81  C   UNL A   1      40.623  27.991  29.492  1.00  0.00     0.134 A 
ATOM     82  F   UNL A   1      40.400  29.369  26.144  1.00  0.00    -0.206 F 
ATOM     83  C   UNL A   1      38.733  29.074  27.771  1.00  0.00     0.040 A 
ATOM     84  C   UNL A   1      39.293  28.100  29.901  1.00  0.00     0.040 A 
ATOM     85  F   UNL A   1      41.508  27.479  30.360  1.00  0.00    -0.206 F 
ATOM     86  C   UNL A   1      38.346  28.654  29.042  1.00  0.00     0.006 A 
ENDBRANCH  58  79
BRANCH  70  87
ATOM     87  C   UNL A   1      46.424  32.747  28.989  1.00  0.00     0.057 A 
ATOM     88  C   UNL A   1      46.773  32.953  30.329  1.00  0.00     0.134 A 
ATOM     89  C   UNL A   1      46.232  33.883  28.191  1.00  0.00     0.134 A 
ATOM     90  F   UNL A   1      46.961  31.908  31.150  1.00  0.00    -0.206 F 
ATOM     91  C   UNL A   1      46.904  34.237  30.860  1.00  0.00     0.040 A 
ATOM     92  C   UNL A   1      46.388  35.171  28.703  1.00  0.00     0.040 A 
ATOM     93  F   UNL A   1      45.907  33.759  26.894  1.00  0.00    -0.206 F 
ATOM     94  C   UNL A   1      46.718  35.351  30.044  1.00  0.00     0.006 A 
ENDBRANCH  70  87
ENDBRANCH  44  45
ENDBRANCH  37  39
ENDBRANCH  36  37
ENDBRANCH  35  36
ENDBRANCH  34  35
ENDBRANCH  33  34
ENDBRANCH  32  33
ENDBRANCH   1  32
TORSDOF 22
ENDMDL
MODEL 2
REMARK VINA RESULT:     -10.3      1.669      2.282
REMARK SMILES COc1ccc(C[N@@H+]2CCO[C@H](Cc3ccc(F)cc3)C2)cc1C(=O)OCCOCCOCCOC(=O)c1ccc(-c2c3nc(c(-c4c(F)cccc4F)c4ccc([nH]4)c(-c4c(F)cccc4F)c4nc(c(-c5c(F)cccc5F)c5ccc2[nH]5)C=C4)C=C3)cc1
REMARK SMILES IDX 30 1 29 2 28 3 27 4 26 5 24 6 25 7 23 8 3 9 4 10 5 11 22 12
REMARK SMILES IDX 6 13 2 14 1 15 7 16 8 17 9 18 21 19 10 21 12 22 11 23 13 24
REMARK SMILES IDX 14 25 15 26 20 27 16 28 19 29 17 30 18 31 31 32 32 33 33 34
REMARK SMILES IDX 34 35 35 36 36 37 37 38 38 39 39 40 91 41 40 42 90 43 41 44
REMARK SMILES IDX 42 45 43 46 84 47 44 48 89 49 83 50 85 51 45 52 88 53 82 54
REMARK SMILES IDX 81 55 46 57 72 58 55 59 71 60 56 61 59 62 70 63 86 64 57 65
REMARK SMILES IDX 58 66 69 68 87 69 60 70 47 71 48 72 53 73 49 74 50 75 52 76
REMARK SMILES IDX 54 77 51 78 73 79 74 80 79 81 75 82 76 83 78 84 80 85 77 86
REMARK SMILES IDX 61 87 62 88 67 89 63 90 64 91 66 92 68 93 65 94
REMARK H PARENT 8 20 85 56 59 67
REMARK Flexibility Score: inf
ROOT
ATOM      1  C   UNL A   1      39.346  23.276  26.705  1.00  0.00     0.188 C 
ENDROOT
BRANCH   1   2
ATOM      2  O   UNL A   1      38.130  22.925  26.052  1.00  0.00    -0.376 OA
BRANCH   2   3
ATOM      3  C   UNL A   1      37.952  21.609  25.560  1.00  0.00     0.202 C 
BRANCH   3   4
ATOM      4  C   UNL A   1      36.513  21.119  25.393  1.00  0.00     0.261 C 
BRANCH   4   5
ATOM      5  O   UNL A   1      35.528  21.844  26.147  1.00  0.00    -0.460 OA
BRANCH   5   6
ATOM      6  C   UNL A   1      34.287  21.302  26.187  1.00  0.00     0.342 C 
ATOM      7  O   UNL A   1      33.669  20.971  27.185  1.00  0.00    -0.246 OA
BRANCH   6   8
ATOM      8  C   UNL A   1      33.691  21.234  24.835  1.00  0.00     0.102 A 
ATOM      9  C   UNL A   1      32.990  20.117  24.365  1.00  0.00     0.133 A 
ATOM     10  C   UNL A   1      32.230  20.244  23.196  1.00  0.00     0.048 A 
ATOM     11  C   UNL A   1      32.201  21.444  22.473  1.00  0.00     0.013 A 
ATOM     12  C   UNL A   1      33.674  22.439  24.089  1.00  0.00     0.029 A 
ATOM     13  C   UNL A   1      32.954  22.552  22.880  1.00  0.00     0.007 A 
BRANCH   9  14
ATOM     14  O   UNL A   1      32.814  18.929  25.020  1.00  0.00    -0.496 OA
ATOM     15  C   UNL A   1      33.483  17.803  24.456  1.00  0.00     0.278 C 
ENDBRANCH   9  14
BRANCH  13  16
ATOM     16  C   UNL A   1      32.945  23.846  22.080  1.00  0.00     0.299 C 
BRANCH  16  17
ATOM     17  N   UNL A   1      31.745  24.680  22.087  1.00  0.00    -0.327 N 
ATOM     18  C   UNL A   1      31.762  26.009  21.491  1.00  0.00     0.291 C 
ATOM     19  C   UNL A   1      30.766  24.566  23.168  1.00  0.00     0.295 C 
ATOM     20  H   UNL A   1      31.370  24.080  21.351  1.00  0.00     0.348 HD
ATOM     21  C   UNL A   1      31.733  27.161  22.514  1.00  0.00     0.222 C 
ATOM     22  C   UNL A   1      30.792  25.736  24.195  1.00  0.00     0.177 C 
ATOM     23  O   UNL A   1      30.716  26.997  23.510  1.00  0.00    -0.366 OA
BRANCH  22  24
ATOM     24  C   UNL A   1      32.030  25.606  25.082  1.00  0.00     0.073 C 
BRANCH  24  25
ATOM     25  C   UNL A   1      32.483  26.717  25.989  1.00  0.00    -0.045 A 
ATOM     26  C   UNL A   1      31.515  27.329  26.808  1.00  0.00     0.007 A 
ATOM     27  C   UNL A   1      33.751  27.291  25.896  1.00  0.00     0.007 A 
ATOM     28  C   UNL A   1      31.768  28.543  27.435  1.00  0.00     0.039 A 
ATOM     29  C   UNL A   1      34.008  28.506  26.538  1.00  0.00     0.039 A 
ATOM     30  C   UNL A   1      33.006  29.137  27.269  1.00  0.00     0.123 A 
ATOM     31  F   UNL A   1      33.226  30.350  27.789  1.00  0.00    -0.207 F 
ENDBRANCH  24  25
ENDBRANCH  22  24
ENDBRANCH  16  17
ENDBRANCH  13  16
ENDBRANCH   6   8
ENDBRANCH   5   6
ENDBRANCH   4   5
ENDBRANCH   3   4
ENDBRANCH   2   3
ENDBRANCH   1   2
BRANCH   1  32
ATOM     32  C   UNL A   1      40.631  22.443  26.526  1.00  0.00     0.188 C 
BRANCH  32  33
ATOM     33  O   UNL A   1      40.889  21.558  27.603  1.00  0.00    -0.376 OA
BRANCH  33  34
ATOM     34  C   UNL A   1      41.019  20.187  27.267  1.00  0.00     0.202 C 
BRANCH  34  35
ATOM     35  C   UNL A   1      41.807  19.942  25.978  1.00  0.00     0.261 C 
BRANCH  35  36
ATOM     36  O   UNL A   1      43.238  19.966  26.133  1.00  0.00    -0.460 OA
BRANCH  36  37
ATOM     37  C   UNL A   1      43.945  20.655  25.217  1.00  0.00     0.338 C 
ATOM     38  O   UNL A   1      44.291  20.271  24.104  1.00  0.00    -0.246 OA
BRANCH  37  39
ATOM     39  C   UNL A   1      44.100  22.038  25.701  1.00  0.00     0.060 A 
ATOM     40  C   UNL A   1      44.325  22.251  27.066  1.00  0.00     0.016 A 
ATOM     41  C   UNL A   1      44.023  23.123  24.826  1.00  0.00     0.016 A 
ATOM     42  C   UNL A   1      44.463  23.547  27.563  1.00  0.00     0.010 A 
ATOM     43  C   UNL A   1      44.148  24.424  25.330  1.00  0.00     0.010 A 
ATOM     44  C   UNL A   1      44.353  24.645  26.704  1.00  0.00    -0.014 A 
BRANCH  44  45
ATOM     45  C   UNL A   1      44.294  26.019  27.264  1.00  0.00     0.031 A 
ATOM     46  C   UNL A   1      45.585  26.737  27.547  1.00  0.00     0.074 A 
ATOM     47  C   UNL A   1      43.121  26.639  27.490  1.00  0.00     0.049 A 
ATOM     48  N   UNL A   1      45.787  27.883  28.143  1.00  0.00    -0.248 NA
ATOM     49  C   UNL A   1      46.813  26.067  27.091  1.00  0.00     0.031 C 
ATOM     50  C   UNL A   1      41.800  26.093  27.188  1.00  0.00     0.029 A 
ATOM     51  N   UNL A   1      42.858  27.869  28.043  1.00  0.00    -0.354 N 
ATOM     52  C   UNL A   1      47.164  28.063  28.155  1.00  0.00     0.074 A 
ATOM     53  C   UNL A   1      47.749  26.902  27.520  1.00  0.00     0.031 C 
ATOM     54  C   UNL A   1      40.863  26.975  27.578  1.00  0.00     0.029 A 
ATOM     55  C   UNL A   1      41.517  28.125  28.202  1.00  0.00     0.049 A 
ATOM     56  H   UNL A   1      43.563  28.506  28.301  1.00  0.00     0.167 HD
ATOM     57  C   UNL A   1      47.877  29.102  28.649  1.00  0.00     0.037 A 
ATOM     58  C   UNL A   1      40.892  29.150  28.816  1.00  0.00     0.037 A 
ATOM     59  C   UNL A   1      47.296  30.260  29.277  1.00  0.00     0.049 A 
ATOM     60  C   UNL A   1      41.711  30.248  29.447  1.00  0.00     0.074 A 
ATOM     61  C   UNL A   1      47.938  31.362  29.814  1.00  0.00     0.029 A 
ATOM     62  N   UNL A   1      45.937  30.463  29.452  1.00  0.00    -0.354 N 
ATOM     63  N   UNL A   1      43.012  30.403  29.471  1.00  0.00    -0.248 NA
ATOM     64  C   UNL A   1      40.971  31.312  30.144  1.00  0.00     0.031 C 
ATOM     65  C   UNL A   1      46.969  32.209  30.360  1.00  0.00     0.029 A 
ATOM     66  C   UNL A   1      45.721  31.663  30.110  1.00  0.00     0.049 A 
ATOM     67  H   UNL A   1      45.230  29.847  29.154  1.00  0.00     0.167 HD
ATOM     68  C   UNL A   1      43.245  31.593  30.153  1.00  0.00     0.074 A 
ATOM     69  C   UNL A   1      41.949  32.126  30.517  1.00  0.00     0.031 C 
ATOM     70  C   UNL A   1      44.424  32.190  30.452  1.00  0.00     0.037 A 
BRANCH  57  71
ATOM     71  C   UNL A   1      49.373  29.013  28.567  1.00  0.00     0.057 A 
ATOM     72  C   UNL A   1      50.126  28.274  29.488  1.00  0.00     0.134 A 
ATOM     73  C   UNL A   1      50.065  29.656  27.532  1.00  0.00     0.134 A 
ATOM     74  F   UNL A   1      49.526  27.650  30.512  1.00  0.00    -0.206 F 
ATOM     75  C   UNL A   1      51.518  28.195  29.395  1.00  0.00     0.040 A 
ATOM     76  C   UNL A   1      51.453  29.562  27.413  1.00  0.00     0.040 A 
ATOM     77  F   UNL A   1      49.404  30.379  26.616  1.00  0.00    -0.206 F 
ATOM     78  C   UNL A   1      52.183  28.835  28.350  1.00  0.00     0.006 A 
ENDBRANCH  57  71
BRANCH  58  79
ATOM     79  C   UNL A   1      39.408  29.175  28.915  1.00  0.00     0.057 A 
ATOM     80  C   UNL A   1      38.610  29.484  27.808  1.00  0.00     0.134 A 
ATOM     81  C   UNL A   1      38.756  28.941  30.132  1.00  0.00     0.134 A 
ATOM     82  F   UNL A   1      39.175  29.750  26.620  1.00  0.00    -0.206 F 
ATOM     83  C   UNL A   1      37.220  29.581  27.911  1.00  0.00     0.040 A 
ATOM     84  C   UNL A   1      37.367  29.005  30.244  1.00  0.00     0.040 A 
ATOM     85  F   UNL A   1      39.463  28.647  31.234  1.00  0.00    -0.206 F 
ATOM     86  C   UNL A   1      36.595  29.336  29.132  1.00  0.00     0.006 A 
ENDBRANCH  58  79
BRANCH  70  87
ATOM     87  C   UNL A   1      44.373  33.514  31.163  1.00  0.00     0.057 A 
ATOM     88  C   UNL A   1      44.434  33.612  32.558  1.00  0.00     0.134 A 
ATOM     89  C   UNL A   1      44.308  34.709  30.434  1.00  0.00     0.134 A 
ATOM     90  F   UNL A   1      44.486  32.506  33.316  1.00  0.00    -0.206 F 
ATOM     91  C   UNL A   1      44.409  34.850  33.204  1.00  0.00     0.040 A 
ATOM     92  C   UNL A   1      44.311  35.952  31.067  1.00  0.00     0.040 A 
ATOM     93  F   UNL A   1      44.258  34.688  29.093  1.00  0.00    -0.206 F 
ATOM     94  C   UNL A   1      44.355  36.025  32.456  1.00  0.00     0.006 A 
ENDBRANCH  70  87
ENDBRANCH  44  45
ENDBRANCH  37  39
ENDBRANCH  36  37
ENDBRANCH  35  36
ENDBRANCH  34  35
ENDBRANCH  33  34
ENDBRANCH  32  33
ENDBRANCH   1  32
TORSDOF 22
ENDMDL
MODEL 3
REMARK VINA RESULT:     -10.2      2.014      6.343
REMARK SMILES COc1ccc(C[N@@H+]2CCO[C@H](Cc3ccc(F)cc3)C2)cc1C(=O)OCCOCCOCCOC(=O)c1ccc(-c2c3nc(c(-c4c(F)cccc4F)c4ccc([nH]4)c(-c4c(F)cccc4F)c4nc(c(-c5c(F)cccc5F)c5ccc2[nH]5)C=C4)C=C3)cc1
REMARK SMILES IDX 30 1 29 2 28 3 27 4 26 5 24 6 25 7 23 8 3 9 4 10 5 11 22 12
REMARK SMILES IDX 6 13 2 14 1 15 7 16 8 17 9 18 21 19 10 21 12 22 11 23 13 24
REMARK SMILES IDX 14 25 15 26 20 27 16 28 19 29 17 30 18 31 31 32 32 33 33 34
REMARK SMILES IDX 34 35 35 36 36 37 37 38 38 39 39 40 91 41 40 42 90 43 41 44
REMARK SMILES IDX 42 45 43 46 84 47 44 48 89 49 83 50 85 51 45 52 88 53 82 54
REMARK SMILES IDX 81 55 46 57 72 58 55 59 71 60 56 61 59 62 70 63 86 64 57 65
REMARK SMILES IDX 58 66 69 68 87 69 60 70 47 71 48 72 53 73 49 74 50 75 52 76
REMARK SMILES IDX 54 77 51 78 73 79 74 80 79 81 75 82 76 83 78 84 80 85 77 86
REMARK SMILES IDX 61 87 62 88 67 89 63 90 64 91 66 92 68 93 65 94
REMARK H PARENT 8 20 85 56 59 67
REMARK Flexibility Score: inf
ROOT
ATOM      1  C   UNL A   1      39.072  23.689  26.862  1.00  0.00     0.188 C 
ENDROOT
BRANCH   1   2
ATOM      2  O   UNL A   1      38.219  23.249  25.812  1.00  0.00    -0.376 OA
BRANCH   2   3
ATOM      3  C   UNL A   1      38.040  21.862  25.587  1.00  0.00     0.202 C 
BRANCH   3   4
ATOM      4  C   UNL A   1      36.601  21.348  25.525  1.00  0.00     0.261 C 
BRANCH   4   5
ATOM      5  O   UNL A   1      35.658  22.070  26.334  1.00  0.00    -0.460 OA
BRANCH   5   6
ATOM      6  C   UNL A   1      34.415  21.538  26.424  1.00  0.00     0.342 C 
ATOM      7  O   UNL A   1      33.805  21.283  27.449  1.00  0.00    -0.246 OA
BRANCH   6   8
ATOM      8  C   UNL A   1      33.807  21.374  25.086  1.00  0.00     0.102 A 
ATOM      9  C   UNL A   1      33.125  20.217  24.694  1.00  0.00     0.133 A 
ATOM     10  C   UNL A   1      32.351  20.256  23.528  1.00  0.00     0.048 A 
ATOM     11  C   UNL A   1      32.288  21.408  22.733  1.00  0.00     0.013 A 
ATOM     12  C   UNL A   1      33.757  22.530  24.268  1.00  0.00     0.029 A 
ATOM     13  C   UNL A   1      33.022  22.555  23.063  1.00  0.00     0.007 A 
BRANCH   9  14
ATOM     14  O   UNL A   1      32.981  19.068  25.423  1.00  0.00    -0.496 OA
ATOM     15  C   UNL A   1      32.465  17.943  24.715  1.00  0.00     0.278 C 
ENDBRANCH   9  14
BRANCH  13  16
ATOM     16  C   UNL A   1      32.977  23.796  22.185  1.00  0.00     0.299 C 
BRANCH  16  17
ATOM     17  N   UNL A   1      31.769  24.619  22.177  1.00  0.00    -0.327 N 
ATOM     18  C   UNL A   1      31.786  25.953  21.591  1.00  0.00     0.291 C 
ATOM     19  C   UNL A   1      30.772  24.489  23.238  1.00  0.00     0.295 C 
ATOM     20  H   UNL A   1      31.414  24.022  21.429  1.00  0.00     0.348 HD
ATOM     21  C   UNL A   1      31.727  27.096  22.621  1.00  0.00     0.222 C 
ATOM     22  C   UNL A   1      30.768  25.651  24.274  1.00  0.00     0.177 C 
ATOM     23  O   UNL A   1      30.693  26.917  23.597  1.00  0.00    -0.366 OA
BRANCH  22  24
ATOM     24  C   UNL A   1      31.991  25.525  25.183  1.00  0.00     0.073 C 
BRANCH  24  25
ATOM     25  C   UNL A   1      32.464  26.662  26.047  1.00  0.00    -0.045 A 
ATOM     26  C   UNL A   1      31.521  27.279  26.891  1.00  0.00     0.007 A 
ATOM     27  C   UNL A   1      33.720  27.250  25.891  1.00  0.00     0.007 A 
ATOM     28  C   UNL A   1      31.781  28.510  27.480  1.00  0.00     0.039 A 
ATOM     29  C   UNL A   1      33.985  28.482  26.496  1.00  0.00     0.039 A 
ATOM     30  C   UNL A   1      33.004  29.116  27.252  1.00  0.00     0.123 A 
ATOM     31  F   UNL A   1      33.228  30.343  27.737  1.00  0.00    -0.207 F 
ENDBRANCH  24  25
ENDBRANCH  22  24
ENDBRANCH  16  17
ENDBRANCH  13  16
ENDBRANCH   6   8
ENDBRANCH   5   6
ENDBRANCH   4   5
ENDBRANCH   3   4
ENDBRANCH   2   3
ENDBRANCH   1   2
BRANCH   1  32
ATOM     32  C   UNL A   1      40.544  23.237  26.954  1.00  0.00     0.188 C 
BRANCH  32  33
ATOM     33  O   UNL A   1      40.776  22.257  27.952  1.00  0.00    -0.376 OA
BRANCH  33  34
ATOM     34  C   UNL A   1      41.028  20.942  27.489  1.00  0.00     0.202 C 
BRANCH  34  35
ATOM     35  C   UNL A   1      41.766  20.893  26.148  1.00  0.00     0.261 C 
BRANCH  35  36
ATOM     36  O   UNL A   1      43.200  20.957  26.247  1.00  0.00    -0.460 OA
BRANCH  36  37
ATOM     37  C   UNL A   1      43.846  21.718  25.342  1.00  0.00     0.338 C 
ATOM     38  O   UNL A   1      44.098  21.432  24.175  1.00  0.00    -0.246 OA
BRANCH  37  39
ATOM     39  C   UNL A   1      44.062  23.051  25.933  1.00  0.00     0.060 A 
ATOM     40  C   UNL A   1      44.314  23.144  27.306  1.00  0.00     0.016 A 
ATOM     41  C   UNL A   1      44.015  24.205  25.150  1.00  0.00     0.016 A 
ATOM     42  C   UNL A   1      44.511  24.389  27.903  1.00  0.00     0.010 A 
ATOM     43  C   UNL A   1      44.199  25.455  25.754  1.00  0.00     0.010 A 
ATOM     44  C   UNL A   1      44.431  25.557  27.137  1.00  0.00    -0.014 A 
BRANCH  44  45
ATOM     45  C   UNL A   1      44.434  26.882  27.807  1.00  0.00     0.031 A 
ATOM     46  C   UNL A   1      43.118  27.496  28.196  1.00  0.00     0.074 A 
ATOM     47  C   UNL A   1      45.582  27.521  28.099  1.00  0.00     0.049 A 
ATOM     48  N   UNL A   1      42.863  28.686  28.676  1.00  0.00    -0.248 NA
ATOM     49  C   UNL A   1      41.929  26.648  28.018  1.00  0.00     0.031 C 
ATOM     50  C   UNL A   1      46.928  27.007  27.852  1.00  0.00     0.029 A 
ATOM     51  N   UNL A   1      45.793  28.758  28.660  1.00  0.00    -0.354 N 
ATOM     52  C   UNL A   1      41.484  28.738  28.837  1.00  0.00     0.074 A 
ATOM     53  C   UNL A   1      40.956  27.467  28.391  1.00  0.00     0.031 C 
ATOM     54  C   UNL A   1      47.826  27.929  28.241  1.00  0.00     0.029 A 
ATOM     55  C   UNL A   1      47.119  29.117  28.717  1.00  0.00     0.049 A 
ATOM     56  H   UNL A   1      45.064  29.332  28.989  1.00  0.00     0.167 HD
ATOM     57  C   UNL A   1      40.727  29.753  29.316  1.00  0.00     0.037 A 
ATOM     58  C   UNL A   1      47.690  30.285  29.074  1.00  0.00     0.037 A 
ATOM     59  C   UNL A   1      41.252  31.015  29.766  1.00  0.00     0.049 A 
ATOM     60  C   UNL A   1      46.818  31.436  29.510  1.00  0.00     0.074 A 
ATOM     61  C   UNL A   1      40.562  32.107  30.263  1.00  0.00     0.029 A 
ATOM     62  N   UNL A   1      42.596  31.354  29.772  1.00  0.00    -0.354 N 
ATOM     63  N   UNL A   1      45.515  31.486  29.643  1.00  0.00    -0.248 NA
ATOM     64  C   UNL A   1      47.500  32.698  29.840  1.00  0.00     0.031 C 
ATOM     65  C   UNL A   1      41.485  33.126  30.522  1.00  0.00     0.029 A 
ATOM     66  C   UNL A   1      42.754  32.647  30.242  1.00  0.00     0.049 A 
ATOM     67  H   UNL A   1      43.329  30.763  29.484  1.00  0.00     0.167 HD
ATOM     68  C   UNL A   1      45.225  32.767  30.101  1.00  0.00     0.074 A 
ATOM     69  C   UNL A   1      46.489  33.459  30.234  1.00  0.00     0.031 C 
ATOM     70  C   UNL A   1      44.021  33.320  30.386  1.00  0.00     0.037 A 
BRANCH  57  71
ATOM     71  C   UNL A   1      39.240  29.552  29.340  1.00  0.00     0.057 A 
ATOM     72  C   UNL A   1      38.539  29.322  30.530  1.00  0.00     0.134 A 
ATOM     73  C   UNL A   1      38.497  29.618  28.154  1.00  0.00     0.134 A 
ATOM     74  F   UNL A   1      39.194  29.230  31.698  1.00  0.00    -0.206 F 
ATOM     75  C   UNL A   1      37.154  29.143  30.538  1.00  0.00     0.040 A 
ATOM     76  C   UNL A   1      37.109  29.468  28.153  1.00  0.00     0.040 A 
ATOM     77  F   UNL A   1      39.107  29.838  26.979  1.00  0.00    -0.206 F 
ATOM     78  C   UNL A   1      36.435  29.224  29.346  1.00  0.00     0.006 A 
ENDBRANCH  57  71
BRANCH  58  79
ATOM     79  C   UNL A   1      49.165  30.456  28.992  1.00  0.00     0.057 A 
ATOM     80  C   UNL A   1      49.781  30.925  27.827  1.00  0.00     0.134 A 
ATOM     81  C   UNL A   1      49.998  30.105  30.062  1.00  0.00     0.134 A 
ATOM     82  F   UNL A   1      49.042  31.248  26.755  1.00  0.00    -0.206 F 
ATOM     83  C   UNL A   1      51.171  31.018  27.718  1.00  0.00     0.040 A 
ATOM     84  C   UNL A   1      51.386  30.221  29.980  1.00  0.00     0.040 A 
ATOM     85  F   UNL A   1      49.472  29.641  31.207  1.00  0.00    -0.206 F 
ATOM     86  C   UNL A   1      51.977  30.670  28.800  1.00  0.00     0.006 A 
ENDBRANCH  58  79
BRANCH  70  87
ATOM     87  C   UNL A   1      44.010  34.725  30.919  1.00  0.00     0.057 A 
ATOM     88  C   UNL A   1      44.121  35.003  32.286  1.00  0.00     0.134 A 
ATOM     89  C   UNL A   1      43.933  35.816  30.042  1.00  0.00     0.134 A 
ATOM     90  F   UNL A   1      44.187  34.005  33.181  1.00  0.00    -0.206 F 
ATOM     91  C   UNL A   1      44.133  36.315  32.765  1.00  0.00     0.040 A 
ATOM     92  C   UNL A   1      43.974  37.131  30.506  1.00  0.00     0.040 A 
ATOM     93  F   UNL A   1      43.836  35.621  28.718  1.00  0.00    -0.206 F 
ATOM     94  C   UNL A   1      44.067  37.383  31.873  1.00  0.00     0.006 A 
ENDBRANCH  70  87
ENDBRANCH  44  45
ENDBRANCH  37  39
ENDBRANCH  36  37
ENDBRANCH  35  36
ENDBRANCH  34  35
ENDBRANCH  33  34
ENDBRANCH  32  33
ENDBRANCH   1  32
TORSDOF 22
ENDMDL
