MODEL 1
REMARK VINA RESULT:     -10.8      0.000      0.000
REMARK SMILES C=Cc1cc(Cl)cc2c1O[C@H](C(F)(F)F)C(C(=O)OCCOCCOCCOC(=O)c1ccc(-c3c4nc(c(-c5c(F)cccc5F)c5ccc([nH]5)c(-c5c(F)cccc5F)c5nc(c(-c6c(F)cccc6F)c6ccc3[nH]6)C=C5)C=C4)cc1)=C2
REMARK SMILES IDX 24 1 23 2 22 3 21 4 20 5 19 6 17 7 18 8 16 9 3 10 4 11 9 12
REMARK SMILES IDX 5 13 8 14 10 15 6 16 7 17 85 18 11 19 2 20 1 21 12 22 13 23
REMARK SMILES IDX 14 24 15 25 25 26 26 27 27 28 28 29 29 30 30 31 31 32 32 33
REMARK SMILES IDX 84 34 33 35 83 36 34 37 35 38 36 39 77 40 37 41 82 42 76 43
REMARK SMILES IDX 78 44 38 45 81 46 75 47 74 48 39 50 65 51 48 52 64 53 49 54
REMARK SMILES IDX 52 55 63 56 79 57 50 58 51 59 62 61 80 62 53 63 40 64 41 65
REMARK SMILES IDX 46 66 42 67 43 68 45 69 47 70 44 71 66 72 67 73 72 74 68 75
REMARK SMILES IDX 69 76 71 77 73 78 70 79 54 80 55 81 60 82 56 83 57 84 59 85
REMARK SMILES IDX 61 86 58 87
REMARK H PARENT 78 49 52 60
REMARK Flexibility Score: inf
ROOT
ATOM      1  C   UNL A   1      40.789  21.333  27.506  1.00  0.00     0.188 C 
ENDROOT
BRANCH   1   2
ATOM      2  C   UNL A   1      39.832  22.016  26.506  1.00  0.00     0.188 C 
BRANCH   2   3
ATOM      3  O   UNL A   1      38.863  21.265  25.811  1.00  0.00    -0.376 OA
BRANCH   3   4
ATOM      4  C   UNL A   1      37.883  21.892  25.001  1.00  0.00     0.202 C 
BRANCH   4   5
ATOM      5  C   UNL A   1      36.373  21.676  25.163  1.00  0.00     0.261 C 
BRANCH   5   6
ATOM      6  O   UNL A   1      35.562  22.853  25.104  1.00  0.00    -0.460 OA
BRANCH   6   7
ATOM      7  C   UNL A   1      35.331  23.326  23.856  1.00  0.00     0.338 C 
ATOM      8  O   UNL A   1      35.800  22.901  22.813  1.00  0.00    -0.246 OA
BRANCH   7   9
ATOM      9  C   UNL A   1      34.277  24.358  23.905  1.00  0.00     0.087 C 
ATOM     10  C   UNL A   1      31.172  27.138  24.336  1.00  0.00     0.018 A 
ATOM     11  C   UNL A   1      31.263  28.085  25.369  1.00  0.00     0.032 A 
ATOM     12  C   UNL A   1      32.245  26.243  24.139  1.00  0.00     0.135 A 
ATOM     13  C   UNL A   1      32.407  28.161  26.160  1.00  0.00     0.042 A 
ATOM     14  C   UNL A   1      33.374  26.301  24.967  1.00  0.00     0.019 A 
ATOM     15  O   UNL A   1      32.128  25.338  23.116  1.00  0.00    -0.475 OA
ATOM     16  Cl  UNL A   1      32.501  29.332  27.416  1.00  0.00    -0.084 Cl
ATOM     17  C   UNL A   1      33.463  27.278  25.963  1.00  0.00     0.032 A 
ATOM     18  C   UNL A   1      34.424  25.307  24.838  1.00  0.00     0.027 C 
ATOM     19  C   UNL A   1      33.129  24.301  22.938  1.00  0.00     0.316 C 
BRANCH  10  20
ATOM     20  C   UNL A   1      29.937  27.014  23.539  1.00  0.00     0.004 C 
ATOM     21  C   UNL A   1      28.821  26.387  23.935  1.00  0.00     0.009 C 
ENDBRANCH  10  20
BRANCH  19  22
ATOM     22  C   UNL A   1      32.417  22.942  22.959  1.00  0.00     0.430 C 
ATOM     23  F   UNL A   1      32.740  22.233  24.068  1.00  0.00    -0.167 F 
ATOM     24  F   UNL A   1      31.070  23.080  22.966  1.00  0.00    -0.167 F 
ATOM     25  F   UNL A   1      32.742  22.188  21.885  1.00  0.00    -0.167 F 
ENDBRANCH  19  22
ENDBRANCH   7   9
ENDBRANCH   6   7
ENDBRANCH   5   6
ENDBRANCH   4   5
ENDBRANCH   3   4
ENDBRANCH   2   3
ENDBRANCH   1   2
BRANCH   1  26
ATOM     26  O   UNL A   1      42.177  21.291  27.261  1.00  0.00    -0.376 OA
BRANCH  26  27
ATOM     27  C   UNL A   1      42.662  21.091  25.943  1.00  0.00     0.202 C 
BRANCH  27  28
ATOM     28  C   UNL A   1      43.616  22.065  25.234  1.00  0.00     0.261 C 
BRANCH  28  29
ATOM     29  O   UNL A   1      43.100  23.374  24.972  1.00  0.00    -0.460 OA
BRANCH  29  30
ATOM     30  C   UNL A   1      43.961  24.399  25.231  1.00  0.00     0.338 C 
ATOM     31  O   UNL A   1      44.957  24.700  24.616  1.00  0.00    -0.246 OA
BRANCH  30  32
ATOM     32  C   UNL A   1      43.366  25.243  26.288  1.00  0.00     0.060 A 
ATOM     33  C   UNL A   1      42.281  24.788  27.035  1.00  0.00     0.016 A 
ATOM     34  C   UNL A   1      43.912  26.514  26.521  1.00  0.00     0.016 A 
ATOM     35  C   UNL A   1      41.750  25.606  28.035  1.00  0.00     0.010 A 
ATOM     36  C   UNL A   1      43.369  27.337  27.509  1.00  0.00     0.010 A 
ATOM     37  C   UNL A   1      42.297  26.879  28.287  1.00  0.00    -0.014 A 
BRANCH  37  38
ATOM     38  C   UNL A   1      41.846  27.647  29.472  1.00  0.00     0.031 A 
ATOM     39  C   UNL A   1      42.531  27.540  30.800  1.00  0.00     0.074 A 
ATOM     40  C   UNL A   1      40.785  28.461  29.325  1.00  0.00     0.049 A 
ATOM     41  N   UNL A   1      42.312  28.227  31.893  1.00  0.00    -0.248 NA
ATOM     42  C   UNL A   1      43.592  26.531  30.920  1.00  0.00     0.031 C 
ATOM     43  C   UNL A   1      40.013  28.618  28.090  1.00  0.00     0.029 A 
ATOM     44  N   UNL A   1      40.179  29.314  30.211  1.00  0.00    -0.354 N 
ATOM     45  C   UNL A   1      43.225  27.758  32.828  1.00  0.00     0.074 A 
ATOM     46  C   UNL A   1      43.962  26.686  32.185  1.00  0.00     0.031 C 
ATOM     47  C   UNL A   1      39.053  29.534  28.289  1.00  0.00     0.029 A 
ATOM     48  C   UNL A   1      39.127  30.010  29.667  1.00  0.00     0.049 A 
ATOM     49  H   UNL A   1      40.469  29.417  31.146  1.00  0.00     0.167 HD
ATOM     50  C   UNL A   1      43.438  28.195  34.094  1.00  0.00     0.037 A 
ATOM     51  C   UNL A   1      38.317  30.933  30.216  1.00  0.00     0.037 A 
ATOM     52  C   UNL A   1      42.677  29.239  34.738  1.00  0.00     0.049 A 
ATOM     53  C   UNL A   1      38.538  31.353  31.641  1.00  0.00     0.074 A 
ATOM     54  C   UNL A   1      42.844  29.774  36.005  1.00  0.00     0.029 A 
ATOM     55  N   UNL A   1      41.589  29.892  34.174  1.00  0.00    -0.354 N 
ATOM     56  N   UNL A   1      39.466  30.970  32.483  1.00  0.00    -0.248 NA
ATOM     57  C   UNL A   1      37.600  32.342  32.188  1.00  0.00     0.031 C 
ATOM     58  C   UNL A   1      41.824  30.707  36.229  1.00  0.00     0.029 A 
ATOM     59  C   UNL A   1      41.056  30.798  35.079  1.00  0.00     0.049 A 
ATOM     60  H   UNL A   1      41.247  29.735  33.264  1.00  0.00     0.167 HD
ATOM     61  C   UNL A   1      39.241  31.691  33.649  1.00  0.00     0.074 A 
ATOM     62  C   UNL A   1      38.102  32.549  33.396  1.00  0.00     0.031 C 
ATOM     63  C   UNL A   1      39.916  31.644  34.824  1.00  0.00     0.037 A 
BRANCH  50  64
ATOM     64  C   UNL A   1      44.542  27.539  34.875  1.00  0.00     0.057 A 
ATOM     65  C   UNL A   1      44.291  26.421  35.680  1.00  0.00     0.134 A 
ATOM     66  C   UNL A   1      45.849  28.046  34.866  1.00  0.00     0.134 A 
ATOM     67  F   UNL A   1      43.061  25.891  35.748  1.00  0.00    -0.206 F 
ATOM     68  C   UNL A   1      45.299  25.829  36.445  1.00  0.00     0.040 A 
ATOM     69  C   UNL A   1      46.871  27.447  35.605  1.00  0.00     0.040 A 
ATOM     70  F   UNL A   1      46.159  29.114  34.116  1.00  0.00    -0.206 F 
ATOM     71  C   UNL A   1      46.596  26.339  36.402  1.00  0.00     0.006 A 
ENDBRANCH  50  64
BRANCH  51  72
ATOM     72  C   UNL A   1      37.230  31.540  29.410  1.00  0.00     0.057 A 
ATOM     73  C   UNL A   1      36.030  30.859  29.175  1.00  0.00     0.134 A 
ATOM     74  C   UNL A   1      37.357  32.829  28.879  1.00  0.00     0.134 A 
ATOM     75  F   UNL A   1      35.851  29.618  29.649  1.00  0.00    -0.206 F 
ATOM     76  C   UNL A   1      34.994  31.439  28.441  1.00  0.00     0.040 A 
ATOM     77  C   UNL A   1      36.319  33.431  28.169  1.00  0.00     0.040 A 
ATOM     78  F   UNL A   1      38.478  33.536  29.085  1.00  0.00    -0.206 F 
ATOM     79  C   UNL A   1      35.133  32.733  27.947  1.00  0.00     0.006 A 
ENDBRANCH  51  72
BRANCH  63  80
ATOM     80  C   UNL A   1      39.452  32.570  35.913  1.00  0.00     0.057 A 
ATOM     81  C   UNL A   1      38.443  32.178  36.804  1.00  0.00     0.134 A 
ATOM     82  C   UNL A   1      39.999  33.849  36.083  1.00  0.00     0.134 A 
ATOM     83  F   UNL A   1      37.871  30.970  36.697  1.00  0.00    -0.206 F 
ATOM     84  C   UNL A   1      37.999  33.022  37.824  1.00  0.00     0.040 A 
ATOM     85  C   UNL A   1      39.585  34.690  37.118  1.00  0.00     0.040 A 
ATOM     86  F   UNL A   1      40.980  34.281  35.277  1.00  0.00    -0.206 F 
ATOM     87  C   UNL A   1      38.577  34.279  37.989  1.00  0.00     0.006 A 
ENDBRANCH  63  80
ENDBRANCH  37  38
ENDBRANCH  30  32
ENDBRANCH  29  30
ENDBRANCH  28  29
ENDBRANCH  27  28
ENDBRANCH  26  27
ENDBRANCH   1  26
TORSDOF 19
ENDMDL
MODEL 2
REMARK VINA RESULT:     -10.6      4.669      9.759
REMARK SMILES C=Cc1cc(Cl)cc2c1O[C@H](C(F)(F)F)C(C(=O)OCCOCCOCCOC(=O)c1ccc(-c3c4nc(c(-c5c(F)cccc5F)c5ccc([nH]5)c(-c5c(F)cccc5F)c5nc(c(-c6c(F)cccc6F)c6ccc3[nH]6)C=C5)C=C4)cc1)=C2
REMARK SMILES IDX 24 1 23 2 22 3 21 4 20 5 19 6 17 7 18 8 16 9 3 10 4 11 9 12
REMARK SMILES IDX 5 13 8 14 10 15 6 16 7 17 85 18 11 19 2 20 1 21 12 22 13 23
REMARK SMILES IDX 14 24 15 25 25 26 26 27 27 28 28 29 29 30 30 31 31 32 32 33
REMARK SMILES IDX 84 34 33 35 83 36 34 37 35 38 36 39 77 40 37 41 82 42 76 43
REMARK SMILES IDX 78 44 38 45 81 46 75 47 74 48 39 50 65 51 48 52 64 53 49 54
REMARK SMILES IDX 52 55 63 56 79 57 50 58 51 59 62 61 80 62 53 63 40 64 41 65
REMARK SMILES IDX 46 66 42 67 43 68 45 69 47 70 44 71 66 72 67 73 72 74 68 75
REMARK SMILES IDX 69 76 71 77 73 78 70 79 54 80 55 81 60 82 56 83 57 84 59 85
REMARK SMILES IDX 61 86 58 87
REMARK H PARENT 78 49 52 60
REMARK Flexibility Score: inf
ROOT
ATOM      1  C   UNL A   1      35.047  32.578  28.058  1.00  0.00     0.188 C 
ENDROOT
BRANCH   1   2
ATOM      2  C   UNL A   1      33.603  32.108  27.780  1.00  0.00     0.188 C 
BRANCH   2   3
ATOM      3  O   UNL A   1      33.360  30.897  27.101  1.00  0.00    -0.376 OA
BRANCH   3   4
ATOM      4  C   UNL A   1      32.049  30.514  26.722  1.00  0.00     0.202 C 
BRANCH   4   5
ATOM      5  C   UNL A   1      31.701  29.879  25.369  1.00  0.00     0.261 C 
BRANCH   5   6
ATOM      6  O   UNL A   1      31.859  28.460  25.286  1.00  0.00    -0.460 OA
BRANCH   6   7
ATOM      7  C   UNL A   1      33.018  28.045  24.720  1.00  0.00     0.338 C 
ATOM      8  O   UNL A   1      34.022  28.714  24.535  1.00  0.00    -0.246 OA
BRANCH   7   9
ATOM      9  C   UNL A   1      32.965  26.589  24.491  1.00  0.00     0.087 C 
ATOM     10  C   UNL A   1      33.102  22.486  23.649  1.00  0.00     0.018 A 
ATOM     11  C   UNL A   1      34.116  21.717  24.240  1.00  0.00     0.032 A 
ATOM     12  C   UNL A   1      33.005  23.855  23.981  1.00  0.00     0.135 A 
ATOM     13  C   UNL A   1      34.987  22.287  25.166  1.00  0.00     0.042 A 
ATOM     14  C   UNL A   1      33.913  24.428  24.881  1.00  0.00     0.019 A 
ATOM     15  O   UNL A   1      31.998  24.574  23.393  1.00  0.00    -0.475 OA
ATOM     16  Cl  UNL A   1      36.220  21.326  25.885  1.00  0.00    -0.084 Cl
ATOM     17  C   UNL A   1      34.890  23.636  25.492  1.00  0.00     0.032 A 
ATOM     18  C   UNL A   1      33.885  25.857  25.133  1.00  0.00     0.027 C 
ATOM     19  C   UNL A   1      31.918  26.012  23.582  1.00  0.00     0.316 C 
BRANCH  10  20
ATOM     20  C   UNL A   1      32.219  21.901  22.622  1.00  0.00     0.004 C 
ATOM     21  C   UNL A   1      32.103  20.593  22.357  1.00  0.00     0.009 C 
ENDBRANCH  10  20
BRANCH  19  22
ATOM     22  C   UNL A   1      31.918  26.676  22.199  1.00  0.00     0.430 C 
ATOM     23  F   UNL A   1      33.163  27.081  21.846  1.00  0.00    -0.167 F 
ATOM     24  F   UNL A   1      31.499  25.825  21.232  1.00  0.00    -0.167 F 
ATOM     25  F   UNL A   1      31.112  27.760  22.161  1.00  0.00    -0.167 F 
ENDBRANCH  19  22
ENDBRANCH   7   9
ENDBRANCH   6   7
ENDBRANCH   5   6
ENDBRANCH   4   5
ENDBRANCH   3   4
ENDBRANCH   2   3
ENDBRANCH   1   2
BRANCH   1  26
ATOM     26  O   UNL A   1      35.296  33.693  28.885  1.00  0.00    -0.376 OA
BRANCH  26  27
ATOM     27  C   UNL A   1      34.402  34.012  29.939  1.00  0.00     0.202 C 
BRANCH  27  28
ATOM     28  C   UNL A   1      34.591  33.530  31.386  1.00  0.00     0.261 C 
BRANCH  28  29
ATOM     29  O   UNL A   1      35.124  32.211  31.546  1.00  0.00    -0.460 OA
BRANCH  29  30
ATOM     30  C   UNL A   1      36.173  32.111  32.410  1.00  0.00     0.338 C 
ATOM     31  O   UNL A   1      36.182  32.356  33.594  1.00  0.00    -0.246 OA
BRANCH  30  32
ATOM     32  C   UNL A   1      37.287  31.441  31.706  1.00  0.00     0.060 A 
ATOM     33  C   UNL A   1      37.364  31.463  30.314  1.00  0.00     0.016 A 
ATOM     34  C   UNL A   1      38.261  30.777  32.466  1.00  0.00     0.016 A 
ATOM     35  C   UNL A   1      38.435  30.830  29.681  1.00  0.00     0.010 A 
ATOM     36  C   UNL A   1      39.321  30.130  31.830  1.00  0.00     0.010 A 
ATOM     37  C   UNL A   1      39.427  30.171  30.433  1.00  0.00    -0.014 A 
BRANCH  37  38
ATOM     38  C   UNL A   1      40.648  29.674  29.756  1.00  0.00     0.031 A 
ATOM     39  C   UNL A   1      40.760  28.272  29.240  1.00  0.00     0.074 A 
ATOM     40  C   UNL A   1      41.677  30.529  29.612  1.00  0.00     0.049 A 
ATOM     41  N   UNL A   1      41.725  27.731  28.539  1.00  0.00    -0.248 NA
ATOM     42  C   UNL A   1      39.655  27.358  29.557  1.00  0.00     0.031 C 
ATOM     43  C   UNL A   1      41.698  31.907  30.108  1.00  0.00     0.029 A 
ATOM     44  N   UNL A   1      42.894  30.374  29.001  1.00  0.00    -0.354 N 
ATOM     45  C   UNL A   1      41.334  26.420  28.301  1.00  0.00     0.074 A 
ATOM     46  C   UNL A   1      40.069  26.234  28.985  1.00  0.00     0.031 C 
ATOM     47  C   UNL A   1      42.860  32.479  29.757  1.00  0.00     0.029 A 
ATOM     48  C   UNL A   1      43.671  31.506  29.033  1.00  0.00     0.049 A 
ATOM     49  H   UNL A   1      43.183  29.532  28.579  1.00  0.00     0.167 HD
ATOM     50  C   UNL A   1      41.966  25.471  27.566  1.00  0.00     0.037 A 
ATOM     51  C   UNL A   1      44.898  31.735  28.531  1.00  0.00     0.037 A 
ATOM     52  C   UNL A   1      43.242  25.653  26.917  1.00  0.00     0.049 A 
ATOM     53  C   UNL A   1      45.599  30.644  27.774  1.00  0.00     0.074 A 
ATOM     54  C   UNL A   1      43.943  24.762  26.121  1.00  0.00     0.029 A 
ATOM     55  N   UNL A   1      44.023  26.798  27.008  1.00  0.00    -0.354 N 
ATOM     56  N   UNL A   1      45.177  29.440  27.474  1.00  0.00    -0.248 NA
ATOM     57  C   UNL A   1      46.947  30.950  27.277  1.00  0.00     0.031 C 
ATOM     58  C   UNL A   1      45.170  25.343  25.779  1.00  0.00     0.029 A 
ATOM     59  C   UNL A   1      45.210  26.621  26.313  1.00  0.00     0.049 A 
ATOM     60  H   UNL A   1      43.771  27.616  27.495  1.00  0.00     0.167 HD
ATOM     61  C   UNL A   1      46.195  28.855  26.732  1.00  0.00     0.074 A 
ATOM     62  C   UNL A   1      47.245  29.846  26.609  1.00  0.00     0.031 C 
ATOM     63  C   UNL A   1      46.255  27.608  26.201  1.00  0.00     0.037 A 
BRANCH  50  64
ATOM     64  C   UNL A   1      41.284  24.139  27.425  1.00  0.00     0.057 A 
ATOM     65  C   UNL A   1      41.741  23.016  28.125  1.00  0.00     0.134 A 
ATOM     66  C   UNL A   1      40.198  23.959  26.556  1.00  0.00     0.134 A 
ATOM     67  F   UNL A   1      42.784  23.112  28.962  1.00  0.00    -0.206 F 
ATOM     68  C   UNL A   1      41.144  21.763  27.969  1.00  0.00     0.040 A 
ATOM     69  C   UNL A   1      39.576  22.717  26.412  1.00  0.00     0.040 A 
ATOM     70  F   UNL A   1      39.708  24.993  25.856  1.00  0.00    -0.206 F 
ATOM     71  C   UNL A   1      40.052  21.613  27.115  1.00  0.00     0.006 A 
ENDBRANCH  50  64
BRANCH  51  72
ATOM     72  C   UNL A   1      45.537  33.061  28.710  1.00  0.00     0.057 A 
ATOM     73  C   UNL A   1      45.311  34.106  27.807  1.00  0.00     0.134 A 
ATOM     74  C   UNL A   1      46.369  33.321  29.805  1.00  0.00     0.134 A 
ATOM     75  F   UNL A   1      44.532  33.917  26.733  1.00  0.00    -0.206 F 
ATOM     76  C   UNL A   1      45.888  35.364  27.988  1.00  0.00     0.040 A 
ATOM     77  C   UNL A   1      46.929  34.581  30.014  1.00  0.00     0.040 A 
ATOM     78  F   UNL A   1      46.610  32.362  30.712  1.00  0.00    -0.206 F 
ATOM     79  C   UNL A   1      46.690  35.607  29.101  1.00  0.00     0.006 A 
ENDBRANCH  51  72
BRANCH  63  80
ATOM     80  C   UNL A   1      47.490  27.262  25.417  1.00  0.00     0.057 A 
ATOM     81  C   UNL A   1      47.577  27.557  24.050  1.00  0.00     0.134 A 
ATOM     82  C   UNL A   1      48.595  26.635  26.011  1.00  0.00     0.134 A 
ATOM     83  F   UNL A   1      46.555  28.152  23.415  1.00  0.00    -0.206 F 
ATOM     84  C   UNL A   1      48.715  27.247  23.304  1.00  0.00     0.040 A 
ATOM     85  C   UNL A   1      49.750  26.346  25.282  1.00  0.00     0.040 A 
ATOM     86  F   UNL A   1      48.587  26.340  27.319  1.00  0.00    -0.206 F 
ATOM     87  C   UNL A   1      49.810  26.648  23.923  1.00  0.00     0.006 A 
ENDBRANCH  63  80
ENDBRANCH  37  38
ENDBRANCH  30  32
ENDBRANCH  29  30
ENDBRANCH  28  29
ENDBRANCH  27  28
ENDBRANCH  26  27
ENDBRANCH   1  26
TORSDOF 19
ENDMDL
MODEL 3
REMARK VINA RESULT:     -10.6      4.765      9.723
REMARK SMILES C=Cc1cc(Cl)cc2c1O[C@H](C(F)(F)F)C(C(=O)OCCOCCOCCOC(=O)c1ccc(-c3c4nc(c(-c5c(F)cccc5F)c5ccc([nH]5)c(-c5c(F)cccc5F)c5nc(c(-c6c(F)cccc6F)c6ccc3[nH]6)C=C5)C=C4)cc1)=C2
REMARK SMILES IDX 24 1 23 2 22 3 21 4 20 5 19 6 17 7 18 8 16 9 3 10 4 11 9 12
REMARK SMILES IDX 5 13 8 14 10 15 6 16 7 17 85 18 11 19 2 20 1 21 12 22 13 23
REMARK SMILES IDX 14 24 15 25 25 26 26 27 27 28 28 29 29 30 30 31 31 32 32 33
REMARK SMILES IDX 84 34 33 35 83 36 34 37 35 38 36 39 77 40 37 41 82 42 76 43
REMARK SMILES IDX 78 44 38 45 81 46 75 47 74 48 39 50 65 51 48 52 64 53 49 54
REMARK SMILES IDX 52 55 63 56 79 57 50 58 51 59 62 61 80 62 53 63 40 64 41 65
REMARK SMILES IDX 46 66 42 67 43 68 45 69 47 70 44 71 66 72 67 73 72 74 68 75
REMARK SMILES IDX 69 76 71 77 73 78 70 79 54 80 55 81 60 82 56 83 57 84 59 85
REMARK SMILES IDX 61 86 58 87
REMARK H PARENT 78 49 52 60
REMARK Flexibility Score: inf
ROOT
ATOM      1  C   UNL A   1      34.335  33.516  29.023  1.00  0.00     0.188 C 
ENDROOT
BRANCH   1   2
ATOM      2  C   UNL A   1      34.783  32.412  28.042  1.00  0.00     0.188 C 
BRANCH   2   3
ATOM      3  O   UNL A   1      34.414  31.068  28.254  1.00  0.00    -0.376 OA
BRANCH   3   4
ATOM      4  C   UNL A   1      33.754  30.317  27.249  1.00  0.00     0.202 C 
BRANCH   4   5
ATOM      5  C   UNL A   1      34.008  28.826  26.991  1.00  0.00     0.261 C 
BRANCH   5   6
ATOM      6  O   UNL A   1      33.109  28.188  26.079  1.00  0.00    -0.460 OA
BRANCH   6   7
ATOM      7  C   UNL A   1      32.252  27.304  26.645  1.00  0.00     0.338 C 
ATOM      8  O   UNL A   1      31.329  27.562  27.401  1.00  0.00    -0.246 OA
BRANCH   7   9
ATOM      9  C   UNL A   1      32.486  25.959  26.087  1.00  0.00     0.087 C 
ATOM     10  C   UNL A   1      33.267  22.294  24.213  1.00  0.00     0.018 A 
ATOM     11  C   UNL A   1      34.605  21.913  24.021  1.00  0.00     0.032 A 
ATOM     12  C   UNL A   1      32.993  23.493  24.905  1.00  0.00     0.135 A 
ATOM     13  C   UNL A   1      35.641  22.688  24.538  1.00  0.00     0.042 A 
ATOM     14  C   UNL A   1      34.044  24.286  25.384  1.00  0.00     0.019 A 
ATOM     15  O   UNL A   1      31.677  23.829  25.082  1.00  0.00    -0.475 OA
ATOM     16  Cl  UNL A   1      37.273  22.202  24.299  1.00  0.00    -0.084 Cl
ATOM     17  C   UNL A   1      35.369  23.869  25.221  1.00  0.00     0.032 A 
ATOM     18  C   UNL A   1      33.765  25.574  25.993  1.00  0.00     0.027 C 
ATOM     19  C   UNL A   1      31.321  25.111  25.665  1.00  0.00     0.316 C 
BRANCH  10  20
ATOM     20  C   UNL A   1      32.171  21.509  23.612  1.00  0.00     0.004 C 
ATOM     21  C   UNL A   1      32.101  21.139  22.326  1.00  0.00     0.009 C 
ENDBRANCH  10  20
BRANCH  19  22
ATOM     22  C   UNL A   1      30.394  25.840  24.684  1.00  0.00     0.430 C 
ATOM     23  F   UNL A   1      29.323  26.372  25.321  1.00  0.00    -0.167 F 
ATOM     24  F   UNL A   1      31.024  26.866  24.064  1.00  0.00    -0.167 F 
ATOM     25  F   UNL A   1      29.926  25.013  23.724  1.00  0.00    -0.167 F 
ENDBRANCH  19  22
ENDBRANCH   7   9
ENDBRANCH   6   7
ENDBRANCH   5   6
ENDBRANCH   4   5
ENDBRANCH   3   4
ENDBRANCH   2   3
ENDBRANCH   1   2
BRANCH   1  26
ATOM     26  O   UNL A   1      35.167  33.913  30.091  1.00  0.00    -0.376 OA
BRANCH  26  27
ATOM     27  C   UNL A   1      34.603  34.239  31.351  1.00  0.00     0.202 C 
BRANCH  27  28
ATOM     28  C   UNL A   1      34.382  33.211  32.472  1.00  0.00     0.261 C 
BRANCH  28  29
ATOM     29  O   UNL A   1      35.177  32.023  32.405  1.00  0.00    -0.460 OA
BRANCH  29  30
ATOM     30  C   UNL A   1      36.331  32.057  33.128  1.00  0.00     0.338 C 
ATOM     31  O   UNL A   1      36.463  32.335  34.297  1.00  0.00    -0.246 OA
BRANCH  30  32
ATOM     32  C   UNL A   1      37.413  31.486  32.297  1.00  0.00     0.060 A 
ATOM     33  C   UNL A   1      37.310  31.474  30.907  1.00  0.00     0.016 A 
ATOM     34  C   UNL A   1      38.541  30.951  32.936  1.00  0.00     0.016 A 
ATOM     35  C   UNL A   1      38.354  30.938  30.151  1.00  0.00     0.010 A 
ATOM     36  C   UNL A   1      39.576  30.400  32.178  1.00  0.00     0.010 A 
ATOM     37  C   UNL A   1      39.498  30.410  30.779  1.00  0.00    -0.014 A 
BRANCH  37  38
ATOM     38  C   UNL A   1      40.671  30.023  29.959  1.00  0.00     0.031 A 
ATOM     39  C   UNL A   1      41.782  30.980  29.657  1.00  0.00     0.074 A 
ATOM     40  C   UNL A   1      40.715  28.766  29.481  1.00  0.00     0.049 A 
ATOM     41  N   UNL A   1      42.916  30.753  29.041  1.00  0.00    -0.248 NA
ATOM     42  C   UNL A   1      41.598  32.371  30.092  1.00  0.00     0.031 C 
ATOM     43  C   UNL A   1      39.673  27.756  29.678  1.00  0.00     0.029 A 
ATOM     44  N   UNL A   1      41.675  28.119  28.746  1.00  0.00    -0.354 N 
ATOM     45  C   UNL A   1      43.598  31.962  29.039  1.00  0.00     0.074 A 
ATOM     46  C   UNL A   1      42.722  32.933  29.665  1.00  0.00     0.031 C 
ATOM     47  C   UNL A   1      40.062  26.609  29.102  1.00  0.00     0.029 A 
ATOM     48  C   UNL A   1      41.366  26.808  28.478  1.00  0.00     0.049 A 
ATOM     49  H   UNL A   1      42.504  28.553  28.440  1.00  0.00     0.167 HD
ATOM     50  C   UNL A   1      44.844  32.227  28.574  1.00  0.00     0.037 A 
ATOM     51  C   UNL A   1      42.059  25.870  27.808  1.00  0.00     0.037 A 
ATOM     52  C   UNL A   1      45.697  31.263  27.920  1.00  0.00     0.049 A 
ATOM     53  C   UNL A   1      43.412  26.211  27.251  1.00  0.00     0.074 A 
ATOM     54  C   UNL A   1      46.989  31.430  27.449  1.00  0.00     0.029 A 
ATOM     55  N   UNL A   1      45.335  29.955  27.624  1.00  0.00    -0.354 N 
ATOM     56  N   UNL A   1      44.086  27.331  27.339  1.00  0.00    -0.248 NA
ATOM     57  C   UNL A   1      44.103  25.150  26.506  1.00  0.00     0.031 C 
ATOM     58  C   UNL A   1      47.386  30.245  26.818  1.00  0.00     0.029 A 
ATOM     59  C   UNL A   1      46.365  29.318  26.947  1.00  0.00     0.049 A 
ATOM     60  H   UNL A   1      44.474  29.541  27.861  1.00  0.00     0.167 HD
ATOM     61  C   UNL A   1      45.290  27.102  26.686  1.00  0.00     0.074 A 
ATOM     62  C   UNL A   1      45.261  25.729  26.227  1.00  0.00     0.031 C 
ATOM     63  C   UNL A   1      46.326  27.953  26.484  1.00  0.00     0.037 A 
BRANCH  50  64
ATOM     64  C   UNL A   1      45.365  33.626  28.753  1.00  0.00     0.057 A 
ATOM     65  C   UNL A   1      45.165  34.602  27.769  1.00  0.00     0.134 A 
ATOM     66  C   UNL A   1      46.109  33.994  29.883  1.00  0.00     0.134 A 
ATOM     67  F   UNL A   1      44.475  34.317  26.655  1.00  0.00    -0.206 F 
ATOM     68  C   UNL A   1      45.682  35.893  27.903  1.00  0.00     0.040 A 
ATOM     69  C   UNL A   1      46.608  35.288  30.041  1.00  0.00     0.040 A 
ATOM     70  F   UNL A   1      46.337  33.108  30.864  1.00  0.00    -0.206 F 
ATOM     71  C   UNL A   1      46.399  36.241  29.047  1.00  0.00     0.006 A 
ENDBRANCH  50  64
BRANCH  51  72
ATOM     72  C   UNL A   1      41.497  24.508  27.643  1.00  0.00     0.057 A 
ATOM     73  C   UNL A   1      41.934  23.438  28.433  1.00  0.00     0.134 A 
ATOM     74  C   UNL A   1      40.487  24.250  26.709  1.00  0.00     0.134 A 
ATOM     75  F   UNL A   1      42.905  23.618  29.340  1.00  0.00    -0.206 F 
ATOM     76  C   UNL A   1      41.386  22.162  28.301  1.00  0.00     0.040 A 
ATOM     77  C   UNL A   1      39.911  22.986  26.586  1.00  0.00     0.040 A 
ATOM     78  F   UNL A   1      40.017  25.239  25.934  1.00  0.00    -0.206 F 
ATOM     79  C   UNL A   1      40.363  21.936  27.383  1.00  0.00     0.006 A 
ENDBRANCH  51  72
BRANCH  63  80
ATOM     80  C   UNL A   1      47.523  27.408  25.756  1.00  0.00     0.057 A 
ATOM     81  C   UNL A   1      48.582  26.819  26.459  1.00  0.00     0.134 A 
ATOM     82  C   UNL A   1      47.631  27.465  24.359  1.00  0.00     0.134 A 
ATOM     83  F   UNL A   1      48.549  26.736  27.798  1.00  0.00    -0.206 F 
ATOM     84  C   UNL A   1      49.701  26.304  25.801  1.00  0.00     0.040 A 
ATOM     85  C   UNL A   1      48.730  26.926  23.688  1.00  0.00     0.040 A 
ATOM     86  F   UNL A   1      46.645  27.998  23.622  1.00  0.00    -0.206 F 
ATOM     87  C   UNL A   1      49.772  26.348  24.411  1.00  0.00     0.006 A 
ENDBRANCH  63  80
ENDBRANCH  37  38
ENDBRANCH  30  32
ENDBRANCH  29  30
ENDBRANCH  28  29
ENDBRANCH  27  28
ENDBRANCH  26  27
ENDBRANCH   1  26
TORSDOF 19
ENDMDL
