MODEL 1
REMARK VINA RESULT:     -10.3      0.000      0.000
REMARK SMILES CC(C)CCNC(=O)[C@@H](C)Oc1ccc(N)cc1C(=O)OCCOCCOCCOC(=O)c1ccc(-c2c3nc(c(-c4c(F)cccc4F)c4ccc([nH]4)c(-c4c(F)cccc4F)c4nc(c(-c5c(F)cccc5F)c5ccc2[nH]5)C=C4)C=C3)cc1
REMARK SMILES IDX 23 1 22 2 21 3 19 4 20 5 18 6 12 7 13 8 14 9 17 10 15 11
REMARK SMILES IDX 11 12 9 13 10 14 7 15 6 16 8 18 5 19 4 20 2 21 1 22 3 23
REMARK SMILES IDX 16 24 24 27 25 28 26 29 27 30 28 31 29 32 30 33 31 34 32 35
REMARK SMILES IDX 33 36 34 37 86 38 35 39 85 40 36 41 37 42 38 43 79 44 39 45
REMARK SMILES IDX 84 46 78 47 80 48 40 49 83 50 77 51 76 52 41 54 67 55 50 56
REMARK SMILES IDX 66 57 51 58 54 59 65 60 81 61 52 62 53 63 64 65 82 66 55 67
REMARK SMILES IDX 42 68 43 69 48 70 44 71 45 72 47 73 49 74 46 75 68 76 69 77
REMARK SMILES IDX 74 78 70 79 71 80 73 81 75 82 72 83 56 84 57 85 62 86 58 87
REMARK SMILES IDX 59 88 61 89 63 90 60 91
REMARK H PARENT 6 17 16 25 16 26 80 53 54 64
REMARK Flexibility Score: inf
ROOT
ATOM      1  C   UNL A   1      33.860  29.197  27.041  1.00  0.00     0.202 C 
ENDROOT
BRANCH   1   2
ATOM      2  C   UNL A   1      33.015  27.971  26.642  1.00  0.00     0.261 C 
BRANCH   2   3
ATOM      3  O   UNL A   1      33.732  26.867  26.067  1.00  0.00    -0.460 OA
BRANCH   3   4
ATOM      4  C   UNL A   1      33.029  25.716  25.993  1.00  0.00     0.342 C 
ATOM      5  O   UNL A   1      31.808  25.620  26.015  1.00  0.00    -0.246 OA
BRANCH   4   6
ATOM      6  C   UNL A   1      33.863  24.534  25.685  1.00  0.00     0.104 A 
ATOM      7  C   UNL A   1      34.751  24.436  24.612  1.00  0.00     0.135 A 
ATOM      8  C   UNL A   1      35.840  23.592  24.785  1.00  0.00     0.049 A 
ATOM      9  C   UNL A   1      35.830  22.610  25.788  1.00  0.00     0.029 A 
ATOM     10  C   UNL A   1      33.822  23.508  26.652  1.00  0.00     0.045 A 
ATOM     11  C   UNL A   1      34.730  22.459  26.618  1.00  0.00     0.032 A 
BRANCH   7  12
ATOM     12  O   UNL A   1      34.614  25.200  23.495  1.00  0.00    -0.480 OA
BRANCH  12  13
ATOM     13  C   UNL A   1      33.474  24.980  22.644  1.00  0.00     0.258 C 
ATOM     14  C   UNL A   1      33.338  23.522  22.183  1.00  0.00     0.064 C 
BRANCH  13  15
ATOM     15  C   UNL A   1      32.926  25.959  21.546  1.00  0.00     0.260 C 
ATOM     16  N   UNL A   1      32.497  27.231  21.816  1.00  0.00    -0.353 N 
ATOM     17  H   UNL A   1      32.508  27.853  21.053  1.00  0.00     0.163 HD
ATOM     18  O   UNL A   1      32.893  25.607  20.361  1.00  0.00    -0.271 OA
BRANCH  16  19
ATOM     19  C   UNL A   1      32.030  27.788  23.068  1.00  0.00     0.116 C 
BRANCH  19  20
ATOM     20  C   UNL A   1      30.555  27.572  23.374  1.00  0.00     0.024 C 
BRANCH  20  21
ATOM     21  C   UNL A   1      29.613  28.670  22.835  1.00  0.00    -0.016 C 
ATOM     22  C   UNL A   1      28.126  28.296  22.906  1.00  0.00     0.007 C 
ATOM     23  C   UNL A   1      29.841  29.956  23.635  1.00  0.00     0.007 C 
ENDBRANCH  20  21
ENDBRANCH  19  20
ENDBRANCH  16  19
ENDBRANCH  13  15
ENDBRANCH  12  13
ENDBRANCH   7  12
BRANCH  11  24
ATOM     24  N   UNL A   1      34.633  21.395  27.494  1.00  0.00    -0.399 N 
ATOM     25  H   UNL A   1      34.750  21.541  28.459  1.00  0.00     0.156 HD
ATOM     26  H   UNL A   1      34.446  20.490  27.151  1.00  0.00     0.156 HD
ENDBRANCH  11  24
ENDBRANCH   4   6
ENDBRANCH   3   4
ENDBRANCH   2   3
ENDBRANCH   1   2
BRANCH   1  27
ATOM     27  O   UNL A   1      33.421  30.524  26.785  1.00  0.00    -0.376 OA
BRANCH  27  28
ATOM     28  C   UNL A   1      33.627  31.545  27.749  1.00  0.00     0.188 C 
BRANCH  28  29
ATOM     29  C   UNL A   1      34.896  32.415  27.689  1.00  0.00     0.188 C 
BRANCH  29  30
ATOM     30  O   UNL A   1      34.701  33.741  28.116  1.00  0.00    -0.376 OA
BRANCH  30  31
ATOM     31  C   UNL A   1      33.872  33.998  29.234  1.00  0.00     0.202 C 
BRANCH  31  32
ATOM     32  C   UNL A   1      34.329  33.781  30.688  1.00  0.00     0.261 C 
BRANCH  32  33
ATOM     33  O   UNL A   1      34.588  32.443  31.128  1.00  0.00    -0.460 OA
BRANCH  33  34
ATOM     34  C   UNL A   1      35.514  32.279  32.103  1.00  0.00     0.338 C 
ATOM     35  O   UNL A   1      35.421  32.590  33.271  1.00  0.00    -0.246 OA
BRANCH  34  36
ATOM     36  C   UNL A   1      36.614  31.472  31.531  1.00  0.00     0.060 A 
ATOM     37  C   UNL A   1      37.469  30.769  32.393  1.00  0.00     0.016 A 
ATOM     38  C   UNL A   1      36.792  31.413  30.149  1.00  0.00     0.016 A 
ATOM     39  C   UNL A   1      38.530  30.024  31.869  1.00  0.00     0.010 A 
ATOM     40  C   UNL A   1      37.865  30.687  29.629  1.00  0.00     0.010 A 
ATOM     41  C   UNL A   1      38.756  30.016  30.487  1.00  0.00    -0.014 A 
BRANCH  41  42
ATOM     42  C   UNL A   1      40.026  29.493  29.930  1.00  0.00     0.031 A 
ATOM     43  C   UNL A   1      41.167  30.456  29.753  1.00  0.00     0.074 A 
ATOM     44  C   UNL A   1      40.157  28.211  29.549  1.00  0.00     0.049 A 
ATOM     45  N   UNL A   1      42.313  30.290  29.146  1.00  0.00    -0.248 NA
ATOM     46  C   UNL A   1      40.976  31.796  30.331  1.00  0.00     0.031 C 
ATOM     47  C   UNL A   1      39.143  27.172  29.707  1.00  0.00     0.029 A 
ATOM     48  N   UNL A   1      41.198  27.578  28.916  1.00  0.00    -0.354 N 
ATOM     49  C   UNL A   1      42.970  31.508  29.250  1.00  0.00     0.074 A 
ATOM     50  C   UNL A   1      42.086  32.411  29.954  1.00  0.00     0.031 C 
ATOM     51  C   UNL A   1      39.601  26.033  29.158  1.00  0.00     0.029 A 
ATOM     52  C   UNL A   1      40.918  26.279  28.570  1.00  0.00     0.049 A 
ATOM     53  H   UNL A   1      42.061  28.013  28.730  1.00  0.00     0.167 HD
ATOM     54  C   UNL A   1      44.202  31.846  28.799  1.00  0.00     0.037 A 
ATOM     55  C   UNL A   1      41.629  25.405  27.829  1.00  0.00     0.037 A 
ATOM     56  C   UNL A   1      45.070  30.947  28.085  1.00  0.00     0.049 A 
ATOM     57  C   UNL A   1      42.963  25.823  27.265  1.00  0.00     0.074 A 
ATOM     58  C   UNL A   1      46.341  31.185  27.594  1.00  0.00     0.029 A 
ATOM     59  N   UNL A   1      44.748  29.641  27.748  1.00  0.00    -0.354 N 
ATOM     60  N   UNL A   1      43.588  26.970  27.378  1.00  0.00    -0.248 NA
ATOM     61  C   UNL A   1      43.690  24.823  26.468  1.00  0.00     0.031 C 
ATOM     62  C   UNL A   1      46.764  30.042  26.908  1.00  0.00     0.029 A 
ATOM     63  C   UNL A   1      45.787  29.068  27.034  1.00  0.00     0.049 A 
ATOM     64  H   UNL A   1      43.906  29.189  27.982  1.00  0.00     0.167 HD
ATOM     65  C   UNL A   1      44.795  26.818  26.702  1.00  0.00     0.074 A 
ATOM     66  C   UNL A   1      44.814  25.467  26.183  1.00  0.00     0.031 C 
ATOM     67  C   UNL A   1      45.799  27.715  26.536  1.00  0.00     0.037 A 
BRANCH  54  68
ATOM     68  C   UNL A   1      44.654  33.259  29.030  1.00  0.00     0.057 A 
ATOM     69  C   UNL A   1      45.332  33.643  30.195  1.00  0.00     0.134 A 
ATOM     70  C   UNL A   1      44.405  34.251  28.074  1.00  0.00     0.134 A 
ATOM     71  F   UNL A   1      45.588  32.747  31.160  1.00  0.00    -0.206 F 
ATOM     72  C   UNL A   1      45.712  34.968  30.416  1.00  0.00     0.040 A 
ATOM     73  C   UNL A   1      44.809  35.573  28.268  1.00  0.00     0.040 A 
ATOM     74  F   UNL A   1      43.764  33.954  26.933  1.00  0.00    -0.206 F 
ATOM     75  C   UNL A   1      45.455  35.937  29.447  1.00  0.00     0.006 A 
ENDBRANCH  54  68
BRANCH  55  76
ATOM     76  C   UNL A   1      41.084  24.050  27.562  1.00  0.00     0.057 A 
ATOM     77  C   UNL A   1      41.617  22.918  28.189  1.00  0.00     0.134 A 
ATOM     78  C   UNL A   1      40.023  23.851  26.670  1.00  0.00     0.134 A 
ATOM     79  F   UNL A   1      42.651  23.040  29.035  1.00  0.00    -0.206 F 
ATOM     80  C   UNL A   1      41.124  21.638  27.932  1.00  0.00     0.040 A 
ATOM     81  C   UNL A   1      39.502  22.580  26.424  1.00  0.00     0.040 A 
ATOM     82  F   UNL A   1      39.468  24.894  26.035  1.00  0.00    -0.206 F 
ATOM     83  C   UNL A   1      40.057  21.467  27.051  1.00  0.00     0.006 A 
ENDBRANCH  55  76
BRANCH  67  84
ATOM     84  C   UNL A   1      47.036  27.253  25.818  1.00  0.00     0.057 A 
ATOM     85  C   UNL A   1      47.256  27.515  24.460  1.00  0.00     0.134 A 
ATOM     86  C   UNL A   1      48.052  26.589  26.520  1.00  0.00     0.134 A 
ATOM     87  F   UNL A   1      46.322  28.137  23.726  1.00  0.00    -0.206 F 
ATOM     88  C   UNL A   1      48.434  27.118  23.823  1.00  0.00     0.040 A 
ATOM     89  C   UNL A   1      49.246  26.215  25.901  1.00  0.00     0.040 A 
ATOM     90  F   UNL A   1      47.912  26.316  27.826  1.00  0.00    -0.206 F 
ATOM     91  C   UNL A   1      49.437  26.474  24.546  1.00  0.00     0.006 A 
ENDBRANCH  67  84
ENDBRANCH  41  42
ENDBRANCH  34  36
ENDBRANCH  33  34
ENDBRANCH  32  33
ENDBRANCH  31  32
ENDBRANCH  30  31
ENDBRANCH  29  30
ENDBRANCH  28  29
ENDBRANCH  27  28
ENDBRANCH   1  27
TORSDOF 24
ENDMDL
MODEL 2
REMARK VINA RESULT:     -10.2      4.113      9.180
REMARK SMILES CC(C)CCNC(=O)[C@@H](C)Oc1ccc(N)cc1C(=O)OCCOCCOCCOC(=O)c1ccc(-c2c3nc(c(-c4c(F)cccc4F)c4ccc([nH]4)c(-c4c(F)cccc4F)c4nc(c(-c5c(F)cccc5F)c5ccc2[nH]5)C=C4)C=C3)cc1
REMARK SMILES IDX 23 1 22 2 21 3 19 4 20 5 18 6 12 7 13 8 14 9 17 10 15 11
REMARK SMILES IDX 11 12 9 13 10 14 7 15 6 16 8 18 5 19 4 20 2 21 1 22 3 23
REMARK SMILES IDX 16 24 24 27 25 28 26 29 27 30 28 31 29 32 30 33 31 34 32 35
REMARK SMILES IDX 33 36 34 37 86 38 35 39 85 40 36 41 37 42 38 43 79 44 39 45
REMARK SMILES IDX 84 46 78 47 80 48 40 49 83 50 77 51 76 52 41 54 67 55 50 56
REMARK SMILES IDX 66 57 51 58 54 59 65 60 81 61 52 62 53 63 64 65 82 66 55 67
REMARK SMILES IDX 42 68 43 69 48 70 44 71 45 72 47 73 49 74 46 75 68 76 69 77
REMARK SMILES IDX 74 78 70 79 71 80 73 81 75 82 72 83 56 84 57 85 62 86 58 87
REMARK SMILES IDX 59 88 61 89 63 90 60 91
REMARK H PARENT 6 17 16 25 16 26 80 53 54 64
REMARK Flexibility Score: inf
ROOT
ATOM      1  C   UNL A   1      36.961  21.863  24.726  1.00  0.00     0.202 C 
ENDROOT
BRANCH   1   2
ATOM      2  C   UNL A   1      35.441  21.826  24.477  1.00  0.00     0.261 C 
BRANCH   2   3
ATOM      3  O   UNL A   1      34.767  23.095  24.478  1.00  0.00    -0.460 OA
BRANCH   3   4
ATOM      4  C   UNL A   1      33.503  23.062  24.004  1.00  0.00     0.342 C 
ATOM      5  O   UNL A   1      33.117  22.416  23.037  1.00  0.00    -0.246 OA
BRANCH   4   6
ATOM      6  C   UNL A   1      32.526  23.746  24.880  1.00  0.00     0.104 A 
ATOM      7  C   UNL A   1      32.260  25.116  24.869  1.00  0.00     0.135 A 
ATOM      8  C   UNL A   1      30.985  25.502  25.262  1.00  0.00     0.049 A 
ATOM      9  C   UNL A   1      30.169  24.627  25.996  1.00  0.00     0.029 A 
ATOM     10  C   UNL A   1      31.735  22.887  25.671  1.00  0.00     0.045 A 
ATOM     11  C   UNL A   1      30.624  23.366  26.350  1.00  0.00     0.032 A 
BRANCH   7  12
ATOM     12  O   UNL A   1      33.165  26.019  24.406  1.00  0.00    -0.480 OA
BRANCH  12  13
ATOM     13  C   UNL A   1      32.771  26.909  23.344  1.00  0.00     0.258 C 
ATOM     14  C   UNL A   1      32.978  26.307  21.947  1.00  0.00     0.064 C 
BRANCH  13  15
ATOM     15  C   UNL A   1      32.966  28.465  23.310  1.00  0.00     0.260 C 
ATOM     16  N   UNL A   1      32.012  29.354  23.730  1.00  0.00    -0.353 N 
ATOM     17  H   UNL A   1      32.346  30.243  23.989  1.00  0.00     0.163 HD
ATOM     18  O   UNL A   1      34.035  28.949  22.917  1.00  0.00    -0.271 OA
BRANCH  16  19
ATOM     19  C   UNL A   1      30.581  29.168  23.845  1.00  0.00     0.116 C 
BRANCH  19  20
ATOM     20  C   UNL A   1      29.811  29.160  22.532  1.00  0.00     0.024 C 
BRANCH  20  21
ATOM     21  C   UNL A   1      28.477  29.937  22.558  1.00  0.00    -0.016 C 
ATOM     22  C   UNL A   1      28.101  30.562  21.207  1.00  0.00     0.007 C 
ATOM     23  C   UNL A   1      27.358  28.988  22.995  1.00  0.00     0.007 C 
ENDBRANCH  20  21
ENDBRANCH  19  20
ENDBRANCH  16  19
ENDBRANCH  13  15
ENDBRANCH  12  13
ENDBRANCH   7  12
BRANCH  11  24
ATOM     24  N   UNL A   1      29.905  22.560  27.213  1.00  0.00    -0.399 N 
ATOM     25  H   UNL A   1      30.328  21.766  27.610  1.00  0.00     0.156 HD
ATOM     26  H   UNL A   1      28.969  22.780  27.428  1.00  0.00     0.156 HD
ENDBRANCH  11  24
ENDBRANCH   4   6
ENDBRANCH   3   4
ENDBRANCH   2   3
ENDBRANCH   1   2
BRANCH   1  27
ATOM     27  O   UNL A   1      37.554  22.817  25.598  1.00  0.00    -0.376 OA
BRANCH  27  28
ATOM     28  C   UNL A   1      38.823  22.564  26.180  1.00  0.00     0.188 C 
BRANCH  28  29
ATOM     29  C   UNL A   1      39.466  21.171  26.047  1.00  0.00     0.188 C 
BRANCH  29  30
ATOM     30  O   UNL A   1      40.607  20.990  26.849  1.00  0.00    -0.376 OA
BRANCH  30  31
ATOM     31  C   UNL A   1      41.785  20.456  26.273  1.00  0.00     0.202 C 
BRANCH  31  32
ATOM     32  C   UNL A   1      42.917  21.334  25.706  1.00  0.00     0.261 C 
BRANCH  32  33
ATOM     33  O   UNL A   1      42.573  22.597  25.127  1.00  0.00    -0.460 OA
BRANCH  33  34
ATOM     34  C   UNL A   1      43.490  23.589  25.215  1.00  0.00     0.338 C 
ATOM     35  O   UNL A   1      44.529  23.694  24.598  1.00  0.00    -0.246 OA
BRANCH  34  36
ATOM     36  C   UNL A   1      42.914  24.645  26.077  1.00  0.00     0.060 A 
ATOM     37  C   UNL A   1      43.436  25.945  26.012  1.00  0.00     0.016 A 
ATOM     38  C   UNL A   1      41.862  24.344  26.941  1.00  0.00     0.016 A 
ATOM     39  C   UNL A   1      42.920  26.947  26.840  1.00  0.00     0.010 A 
ATOM     40  C   UNL A   1      41.363  25.339  27.783  1.00  0.00     0.010 A 
ATOM     41  C   UNL A   1      41.910  26.635  27.758  1.00  0.00    -0.014 A 
BRANCH  41  42
ATOM     42  C   UNL A   1      41.554  27.581  28.843  1.00  0.00     0.031 A 
ATOM     43  C   UNL A   1      42.316  27.490  30.135  1.00  0.00     0.074 A 
ATOM     44  C   UNL A   1      40.554  28.469  28.708  1.00  0.00     0.049 A 
ATOM     45  N   UNL A   1      42.095  28.085  31.278  1.00  0.00    -0.248 NA
ATOM     46  C   UNL A   1      43.482  26.591  30.135  1.00  0.00     0.031 C 
ATOM     47  C   UNL A   1      39.770  28.684  27.494  1.00  0.00     0.029 A 
ATOM     48  N   UNL A   1      40.010  29.335  29.624  1.00  0.00    -0.354 N 
ATOM     49  C   UNL A   1      43.078  27.616  32.140  1.00  0.00     0.074 A 
ATOM     50  C   UNL A   1      43.879  26.669  31.396  1.00  0.00     0.031 C 
ATOM     51  C   UNL A   1      38.823  29.604  27.749  1.00  0.00     0.029 A 
ATOM     52  C   UNL A   1      38.907  30.004  29.154  1.00  0.00     0.049 A 
ATOM     53  H   UNL A   1      40.375  29.463  30.529  1.00  0.00     0.167 HD
ATOM     54  C   UNL A   1      43.293  27.944  33.436  1.00  0.00     0.037 A 
ATOM     55  C   UNL A   1      38.043  30.814  29.798  1.00  0.00     0.037 A 
ATOM     56  C   UNL A   1      42.482  28.875  34.174  1.00  0.00     0.049 A 
ATOM     57  C   UNL A   1      38.249  31.106  31.262  1.00  0.00     0.074 A 
ATOM     58  C   UNL A   1      42.621  29.286  35.488  1.00  0.00     0.029 A 
ATOM     59  N   UNL A   1      41.369  29.528  33.666  1.00  0.00    -0.354 N 
ATOM     60  N   UNL A   1      39.188  30.673  32.069  1.00  0.00    -0.248 NA
ATOM     61  C   UNL A   1      37.274  31.999  31.906  1.00  0.00     0.031 C 
ATOM     62  C   UNL A   1      41.556  30.141  35.791  1.00  0.00     0.029 A 
ATOM     63  C   UNL A   1      40.797  30.320  34.646  1.00  0.00     0.049 A 
ATOM     64  H   UNL A   1      41.036  29.440  32.744  1.00  0.00     0.167 HD
ATOM     65  C   UNL A   1      38.941  31.270  33.302  1.00  0.00     0.074 A 
ATOM     66  C   UNL A   1      37.764  32.096  33.135  1.00  0.00     0.031 C 
ATOM     67  C   UNL A   1      39.633  31.150  34.462  1.00  0.00     0.037 A 
BRANCH  54  68
ATOM     68  C   UNL A   1      44.427  27.254  34.140  1.00  0.00     0.057 A 
ATOM     69  C   UNL A   1      44.271  26.009  34.764  1.00  0.00     0.134 A 
ATOM     70  C   UNL A   1      45.694  27.849  34.197  1.00  0.00     0.134 A 
ATOM     71  F   UNL A   1      43.079  25.392  34.762  1.00  0.00    -0.206 F 
ATOM     72  C   UNL A   1      45.322  25.398  35.449  1.00  0.00     0.040 A 
ATOM     73  C   UNL A   1      46.762  27.232  34.851  1.00  0.00     0.040 A 
ATOM     74  F   UNL A   1      45.916  29.038  33.619  1.00  0.00    -0.206 F 
ATOM     75  C   UNL A   1      46.575  26.008  35.488  1.00  0.00     0.006 A 
ENDBRANCH  54  68
BRANCH  55  76
ATOM     76  C   UNL A   1      36.889  31.395  29.065  1.00  0.00     0.057 A 
ATOM     77  C   UNL A   1      35.757  30.626  28.771  1.00  0.00     0.134 A 
ATOM     78  C   UNL A   1      36.890  32.728  28.637  1.00  0.00     0.134 A 
ATOM     79  F   UNL A   1      35.706  29.335  29.132  1.00  0.00    -0.206 F 
ATOM     80  C   UNL A   1      34.674  31.157  28.068  1.00  0.00     0.040 A 
ATOM     81  C   UNL A   1      35.804  33.279  27.956  1.00  0.00     0.040 A 
ATOM     82  F   UNL A   1      37.945  33.518  28.885  1.00  0.00    -0.206 F 
ATOM     83  C   UNL A   1      34.693  32.491  27.664  1.00  0.00     0.006 A 
ENDBRANCH  55  76
BRANCH  67  84
ATOM     84  C   UNL A   1      39.181  31.978  35.633  1.00  0.00     0.057 A 
ATOM     85  C   UNL A   1      38.360  31.462  36.643  1.00  0.00     0.134 A 
ATOM     86  C   UNL A   1      39.631  33.298  35.780  1.00  0.00     0.134 A 
ATOM     87  F   UNL A   1      37.885  30.209  36.562  1.00  0.00    -0.206 F 
ATOM     88  C   UNL A   1      37.989  32.233  37.747  1.00  0.00     0.040 A 
ATOM     89  C   UNL A   1      39.293  34.067  36.894  1.00  0.00     0.040 A 
ATOM     90  F   UNL A   1      40.429  33.852  34.855  1.00  0.00    -0.206 F 
ATOM     91  C   UNL A   1      38.464  33.537  37.879  1.00  0.00     0.006 A 
ENDBRANCH  67  84
ENDBRANCH  41  42
ENDBRANCH  34  36
ENDBRANCH  33  34
ENDBRANCH  32  33
ENDBRANCH  31  32
ENDBRANCH  30  31
ENDBRANCH  29  30
ENDBRANCH  28  29
ENDBRANCH  27  28
ENDBRANCH   1  27
TORSDOF 24
ENDMDL
MODEL 3
REMARK VINA RESULT:     -10.2      1.121      3.462
REMARK SMILES CC(C)CCNC(=O)[C@@H](C)Oc1ccc(N)cc1C(=O)OCCOCCOCCOC(=O)c1ccc(-c2c3nc(c(-c4c(F)cccc4F)c4ccc([nH]4)c(-c4c(F)cccc4F)c4nc(c(-c5c(F)cccc5F)c5ccc2[nH]5)C=C4)C=C3)cc1
REMARK SMILES IDX 23 1 22 2 21 3 19 4 20 5 18 6 12 7 13 8 14 9 17 10 15 11
REMARK SMILES IDX 11 12 9 13 10 14 7 15 6 16 8 18 5 19 4 20 2 21 1 22 3 23
REMARK SMILES IDX 16 24 24 27 25 28 26 29 27 30 28 31 29 32 30 33 31 34 32 35
REMARK SMILES IDX 33 36 34 37 86 38 35 39 85 40 36 41 37 42 38 43 79 44 39 45
REMARK SMILES IDX 84 46 78 47 80 48 40 49 83 50 77 51 76 52 41 54 67 55 50 56
REMARK SMILES IDX 66 57 51 58 54 59 65 60 81 61 52 62 53 63 64 65 82 66 55 67
REMARK SMILES IDX 42 68 43 69 48 70 44 71 45 72 47 73 49 74 46 75 68 76 69 77
REMARK SMILES IDX 74 78 70 79 71 80 73 81 75 82 72 83 56 84 57 85 62 86 58 87
REMARK SMILES IDX 59 88 61 89 63 90 60 91
REMARK H PARENT 6 17 16 25 16 26 80 53 54 64
REMARK Flexibility Score: inf
ROOT
ATOM      1  C   UNL A   1      34.767  30.761  27.707  1.00  0.00     0.202 C 
ENDROOT
BRANCH   1   2
ATOM      2  C   UNL A   1      34.082  29.598  26.963  1.00  0.00     0.261 C 
BRANCH   2   3
ATOM      3  O   UNL A   1      32.778  29.870  26.425  1.00  0.00    -0.460 OA
BRANCH   3   4
ATOM      4  C   UNL A   1      31.893  28.858  26.554  1.00  0.00     0.342 C 
ATOM      5  O   UNL A   1      31.427  28.445  27.609  1.00  0.00    -0.246 OA
BRANCH   4   6
ATOM      6  C   UNL A   1      31.353  28.378  25.263  1.00  0.00     0.104 A 
ATOM      7  C   UNL A   1      31.008  27.056  24.980  1.00  0.00     0.135 A 
ATOM      8  C   UNL A   1      30.011  26.866  24.032  1.00  0.00     0.049 A 
ATOM      9  C   UNL A   1      29.668  27.894  23.140  1.00  0.00     0.029 A 
ATOM     10  C   UNL A   1      31.056  29.392  24.328  1.00  0.00     0.045 A 
ATOM     11  C   UNL A   1      30.325  29.114  23.183  1.00  0.00     0.032 A 
BRANCH   7  12
ATOM     12  O   UNL A   1      31.547  26.011  25.664  1.00  0.00    -0.480 OA
BRANCH  12  13
ATOM     13  C   UNL A   1      32.650  25.296  25.075  1.00  0.00     0.258 C 
ATOM     14  C   UNL A   1      33.936  26.130  24.998  1.00  0.00     0.064 C 
BRANCH  13  15
ATOM     15  C   UNL A   1      32.573  24.286  23.876  1.00  0.00     0.260 C 
ATOM     16  N   UNL A   1      32.651  22.927  24.028  1.00  0.00    -0.353 N 
ATOM     17  H   UNL A   1      32.257  22.396  23.300  1.00  0.00     0.163 HD
ATOM     18  O   UNL A   1      32.404  24.702  22.724  1.00  0.00    -0.271 OA
BRANCH  16  19
ATOM     19  C   UNL A   1      33.235  22.164  25.112  1.00  0.00     0.116 C 
BRANCH  19  20
ATOM     20  C   UNL A   1      34.343  21.200  24.715  1.00  0.00     0.024 C 
BRANCH  20  21
ATOM     21  C   UNL A   1      35.756  21.820  24.664  1.00  0.00    -0.016 C 
ATOM     22  C   UNL A   1      35.942  23.010  25.615  1.00  0.00     0.007 C 
ATOM     23  C   UNL A   1      36.785  20.741  25.011  1.00  0.00     0.007 C 
ENDBRANCH  20  21
ENDBRANCH  19  20
ENDBRANCH  16  19
ENDBRANCH  13  15
ENDBRANCH  12  13
ENDBRANCH   7  12
BRANCH  11  24
ATOM     24  N   UNL A   1      30.121  30.073  22.209  1.00  0.00    -0.399 N 
ATOM     25  H   UNL A   1      29.395  30.729  22.310  1.00  0.00     0.156 HD
ATOM     26  H   UNL A   1      30.701  30.098  21.413  1.00  0.00     0.156 HD
ENDBRANCH  11  24
ENDBRANCH   4   6
ENDBRANCH   3   4
ENDBRANCH   2   3
ENDBRANCH   1   2
BRANCH   1  27
ATOM     27  O   UNL A   1      34.066  31.952  28.039  1.00  0.00    -0.376 OA
BRANCH  27  28
ATOM     28  C   UNL A   1      34.711  33.213  27.939  1.00  0.00     0.188 C 
BRANCH  28  29
ATOM     29  C   UNL A   1      33.938  34.501  28.281  1.00  0.00     0.188 C 
BRANCH  29  30
ATOM     30  O   UNL A   1      33.176  34.414  29.460  1.00  0.00    -0.376 OA
BRANCH  30  31
ATOM     31  C   UNL A   1      33.629  35.067  30.632  1.00  0.00     0.202 C 
BRANCH  31  32
ATOM     32  C   UNL A   1      34.464  34.362  31.718  1.00  0.00     0.261 C 
BRANCH  32  33
ATOM     33  O   UNL A   1      35.106  33.127  31.388  1.00  0.00    -0.460 OA
BRANCH  33  34
ATOM     34  C   UNL A   1      35.769  32.488  32.381  1.00  0.00     0.338 C 
ATOM     35  O   UNL A   1      35.475  32.442  33.557  1.00  0.00    -0.246 OA
BRANCH  34  36
ATOM     36  C   UNL A   1      36.838  31.684  31.750  1.00  0.00     0.060 A 
ATOM     37  C   UNL A   1      37.615  30.828  32.545  1.00  0.00     0.016 A 
ATOM     38  C   UNL A   1      37.064  31.778  30.377  1.00  0.00     0.016 A 
ATOM     39  C   UNL A   1      38.646  30.082  31.966  1.00  0.00     0.010 A 
ATOM     40  C   UNL A   1      38.109  31.050  29.805  1.00  0.00     0.010 A 
ATOM     41  C   UNL A   1      38.923  30.224  30.601  1.00  0.00    -0.014 A 
BRANCH  41  42
ATOM     42  C   UNL A   1      40.179  29.688  30.023  1.00  0.00     0.031 A 
ATOM     43  C   UNL A   1      41.330  30.637  29.838  1.00  0.00     0.074 A 
ATOM     44  C   UNL A   1      40.287  28.408  29.630  1.00  0.00     0.049 A 
ATOM     45  N   UNL A   1      42.466  30.460  29.215  1.00  0.00    -0.248 NA
ATOM     46  C   UNL A   1      41.166  31.975  30.430  1.00  0.00     0.031 C 
ATOM     47  C   UNL A   1      39.261  27.382  29.793  1.00  0.00     0.029 A 
ATOM     48  N   UNL A   1      41.311  27.766  28.979  1.00  0.00    -0.354 N 
ATOM     49  C   UNL A   1      43.141  31.669  29.320  1.00  0.00     0.074 A 
ATOM     50  C   UNL A   1      42.279  32.577  30.042  1.00  0.00     0.031 C 
ATOM     51  C   UNL A   1      39.696  26.241  29.229  1.00  0.00     0.029 A 
ATOM     52  C   UNL A   1      41.009  26.474  28.626  1.00  0.00     0.049 A 
ATOM     53  H   UNL A   1      42.177  28.191  28.784  1.00  0.00     0.167 HD
ATOM     54  C   UNL A   1      44.371  31.994  28.854  1.00  0.00     0.037 A 
ATOM     55  C   UNL A   1      41.698  25.596  27.869  1.00  0.00     0.037 A 
ATOM     56  C   UNL A   1      45.217  31.089  28.123  1.00  0.00     0.049 A 
ATOM     57  C   UNL A   1      43.029  26.000  27.290  1.00  0.00     0.074 A 
ATOM     58  C   UNL A   1      46.485  31.313  27.617  1.00  0.00     0.029 A 
ATOM     59  N   UNL A   1      44.873  29.789  27.779  1.00  0.00    -0.354 N 
ATOM     60  N   UNL A   1      43.671  27.138  27.404  1.00  0.00    -0.248 NA
ATOM     61  C   UNL A   1      43.732  24.997  26.476  1.00  0.00     0.031 C 
ATOM     62  C   UNL A   1      46.883  30.170  26.916  1.00  0.00     0.029 A 
ATOM     63  C   UNL A   1      45.894  29.208  27.047  1.00  0.00     0.049 A 
ATOM     64  H   UNL A   1      44.028  29.347  28.021  1.00  0.00     0.167 HD
ATOM     65  C   UNL A   1      44.867  26.975  26.711  1.00  0.00     0.074 A 
ATOM     66  C   UNL A   1      44.861  25.628  26.181  1.00  0.00     0.031 C 
ATOM     67  C   UNL A   1      45.881  27.859  26.539  1.00  0.00     0.037 A 
BRANCH  54  68
ATOM     68  C   UNL A   1      44.846  33.398  29.091  1.00  0.00     0.057 A 
ATOM     69  C   UNL A   1      45.589  33.753  30.225  1.00  0.00     0.134 A 
ATOM     70  C   UNL A   1      44.552  34.412  28.171  1.00  0.00     0.134 A 
ATOM     71  F   UNL A   1      45.892  32.834  31.155  1.00  0.00    -0.206 F 
ATOM     72  C   UNL A   1      45.991  35.070  30.453  1.00  0.00     0.040 A 
ATOM     73  C   UNL A   1      44.976  35.727  28.371  1.00  0.00     0.040 A 
ATOM     74  F   UNL A   1      43.847  34.144  27.062  1.00  0.00    -0.206 F 
ATOM     75  C   UNL A   1      45.688  36.061  29.521  1.00  0.00     0.006 A 
ENDBRANCH  54  68
BRANCH  55  76
ATOM     76  C   UNL A   1      41.131  24.250  27.598  1.00  0.00     0.057 A 
ATOM     77  C   UNL A   1      41.595  23.119  28.278  1.00  0.00     0.134 A 
ATOM     78  C   UNL A   1      40.117  24.061  26.651  1.00  0.00     0.134 A 
ATOM     79  F   UNL A   1      42.582  23.231  29.179  1.00  0.00    -0.206 F 
ATOM     80  C   UNL A   1      41.081  21.847  28.019  1.00  0.00     0.040 A 
ATOM     81  C   UNL A   1      39.575  22.800  26.401  1.00  0.00     0.040 A 
ATOM     82  F   UNL A   1      39.629  25.104  25.964  1.00  0.00    -0.206 F 
ATOM     83  C   UNL A   1      40.061  21.686  27.082  1.00  0.00     0.006 A 
ENDBRANCH  55  76
BRANCH  67  84
ATOM     84  C   UNL A   1      47.102  27.386  25.800  1.00  0.00     0.057 A 
ATOM     85  C   UNL A   1      48.137  26.688  26.433  1.00  0.00     0.134 A 
ATOM     86  C   UNL A   1      47.208  27.581  24.415  1.00  0.00     0.134 A 
ATOM     87  F   UNL A   1      48.105  26.475  27.758  1.00  0.00    -0.206 F 
ATOM     88  C   UNL A   1      49.242  26.216  25.720  1.00  0.00     0.040 A 
ATOM     89  C   UNL A   1      48.292  27.087  23.688  1.00  0.00     0.040 A 
ATOM     90  F   UNL A   1      46.247  28.232  23.744  1.00  0.00    -0.206 F 
ATOM     91  C   UNL A   1      49.317  26.407  24.341  1.00  0.00     0.006 A 
ENDBRANCH  67  84
ENDBRANCH  41  42
ENDBRANCH  34  36
ENDBRANCH  33  34
ENDBRANCH  32  33
ENDBRANCH  31  32
ENDBRANCH  30  31
ENDBRANCH  29  30
ENDBRANCH  28  29
ENDBRANCH  27  28
ENDBRANCH   1  27
TORSDOF 24
ENDMDL
