MODEL 1
REMARK VINA RESULT:     -11.3      0.000      0.000
REMARK SMILES CC(=O)C1=C(c2ccccc2)NC(=S)N[C@@H]1c1cc(Cl)ccc1OCC(=O)OCCOCCOCCOC(=O)c1ccc(-c2c3nc(c(-c4c(F)cccc4F)c4ccc([nH]4)c(-c4c(F)cccc4F)c4nc(c(-c5c(F)cccc5F)c5ccc2[nH]5)C=C4)C=C3)cc1
REMARK SMILES IDX 32 1 31 2 30 3 29 4 28 5 26 6 27 7 25 8 24 9 23 10 17 11
REMARK SMILES IDX 18 12 19 13 22 14 20 15 21 16 16 17 4 18 5 19 12 20 15 21
REMARK SMILES IDX 13 22 14 25 2 26 1 27 3 28 6 29 7 30 11 31 8 32 10 33 9 34
REMARK SMILES IDX 33 35 34 36 35 37 36 38 37 39 38 40 39 41 40 42 41 43 93 44
REMARK SMILES IDX 42 45 92 46 43 47 44 48 45 49 86 50 46 51 91 52 85 53 87 54
REMARK SMILES IDX 47 55 90 56 84 57 83 58 48 60 74 61 57 62 73 63 58 64 61 65
REMARK SMILES IDX 72 66 88 67 59 68 60 69 71 71 89 72 62 73 49 74 50 75 55 76
REMARK SMILES IDX 51 77 52 78 54 79 56 80 53 81 75 82 76 83 81 84 77 85 78 86
REMARK SMILES IDX 80 87 82 88 79 89 63 90 64 91 69 92 65 93 66 94 68 95 70 96
REMARK SMILES IDX 67 97
REMARK H PARENT 12 23 15 24 87 59 61 70
REMARK Flexibility Score: inf
ROOT
ATOM      1  C   UNL A   1      41.725  20.455  26.908  1.00  0.00     0.188 C 
ENDROOT
BRANCH   1   2
ATOM      2  O   UNL A   1      41.132  21.429  26.049  1.00  0.00    -0.376 OA
BRANCH   2   3
ATOM      3  C   UNL A   1      39.948  22.016  26.581  1.00  0.00     0.202 C 
BRANCH   3   4
ATOM      4  C   UNL A   1      38.701  21.442  25.902  1.00  0.00     0.261 C 
BRANCH   4   5
ATOM      5  O   UNL A   1      38.033  22.435  25.098  1.00  0.00    -0.461 OA
BRANCH   5   6
ATOM      6  C   UNL A   1      37.277  23.341  25.773  1.00  0.00     0.344 C 
ATOM      7  O   UNL A   1      37.681  24.066  26.675  1.00  0.00    -0.248 OA
BRANCH   6   8
ATOM      8  C   UNL A   1      35.831  23.370  25.296  1.00  0.00     0.351 C 
BRANCH   8   9
ATOM      9  O   UNL A   1      34.991  22.376  25.785  1.00  0.00    -0.482 OA
BRANCH   9  10
ATOM     10  C   UNL A   1      34.287  21.432  25.122  1.00  0.00     0.125 A 
ATOM     11  C   UNL A   1      32.991  21.337  24.563  1.00  0.00     0.023 A 
ATOM     12  C   UNL A   1      32.711  20.028  24.022  1.00  0.00     0.030 A 
ATOM     13  C   UNL A   1      33.589  18.928  24.069  1.00  0.00     0.041 A 
ATOM     14  C   UNL A   1      35.179  20.315  25.087  1.00  0.00     0.048 A 
ATOM     15  Cl  UNL A   1      33.105  17.361  23.563  1.00  0.00    -0.084 Cl
ATOM     16  C   UNL A   1      34.845  19.074  24.586  1.00  0.00     0.024 A 
BRANCH  11  17
ATOM     17  C   UNL A   1      31.774  22.341  24.647  1.00  0.00     0.152 C 
ATOM     18  C   UNL A   1      32.101  23.827  24.707  1.00  0.00     0.046 C 
ATOM     19  C   UNL A   1      31.896  24.606  25.796  1.00  0.00     0.057 C 
ATOM     20  N   UNL A   1      31.142  24.082  26.815  1.00  0.00    -0.332 N 
ATOM     21  N   UNL A   1      30.719  22.133  25.633  1.00  0.00    -0.351 N 
ATOM     22  C   UNL A   1      30.414  22.950  26.675  1.00  0.00     0.171 C 
ATOM     23  H   UNL A   1      31.130  24.547  27.683  1.00  0.00     0.169 HD
ATOM     24  H   UNL A   1      30.175  21.318  25.534  1.00  0.00     0.163 HD
ATOM     25  S   UNL A   1      29.093  22.675  27.642  1.00  0.00    -0.041 S 
BRANCH  18  26
ATOM     26  C   UNL A   1      32.622  24.432  23.475  1.00  0.00     0.160 C 
ATOM     27  C   UNL A   1      31.705  25.148  22.521  1.00  0.00     0.093 C 
ATOM     28  O   UNL A   1      33.798  24.234  23.208  1.00  0.00    -0.295 OA
ENDBRANCH  18  26
BRANCH  19  29
ATOM     29  C   UNL A   1      32.240  26.037  26.013  1.00  0.00    -0.002 A 
ATOM     30  C   UNL A   1      33.570  26.476  25.942  1.00  0.00     0.010 A 
ATOM     31  C   UNL A   1      31.264  26.961  26.406  1.00  0.00     0.010 A 
ATOM     32  C   UNL A   1      33.905  27.812  26.200  1.00  0.00     0.001 A 
ATOM     33  C   UNL A   1      31.591  28.307  26.626  1.00  0.00     0.001 A 
ATOM     34  C   UNL A   1      32.912  28.734  26.515  1.00  0.00     0.000 A 
ENDBRANCH  19  29
ENDBRANCH  11  17
ENDBRANCH   9  10
ENDBRANCH   8   9
ENDBRANCH   6   8
ENDBRANCH   5   6
ENDBRANCH   4   5
ENDBRANCH   3   4
ENDBRANCH   2   3
ENDBRANCH   1   2
BRANCH   1  35
ATOM     35  C   UNL A   1      42.653  19.543  26.108  1.00  0.00     0.188 C 
BRANCH  35  36
ATOM     36  O   UNL A   1      43.235  20.114  24.939  1.00  0.00    -0.376 OA
BRANCH  36  37
ATOM     37  C   UNL A   1      44.601  20.503  25.032  1.00  0.00     0.202 C 
BRANCH  37  38
ATOM     38  C   UNL A   1      44.826  21.908  25.599  1.00  0.00     0.261 C 
BRANCH  38  39
ATOM     39  O   UNL A   1      43.857  22.906  25.192  1.00  0.00    -0.460 OA
BRANCH  39  40
ATOM     40  C   UNL A   1      44.303  24.190  25.316  1.00  0.00     0.338 C 
ATOM     41  O   UNL A   1      45.175  24.711  24.634  1.00  0.00    -0.246 OA
BRANCH  40  42
ATOM     42  C   UNL A   1      43.608  24.975  26.369  1.00  0.00     0.060 A 
ATOM     43  C   UNL A   1      44.034  26.287  26.572  1.00  0.00     0.016 A 
ATOM     44  C   UNL A   1      42.648  24.445  27.236  1.00  0.00     0.016 A 
ATOM     45  C   UNL A   1      43.429  27.104  27.533  1.00  0.00     0.010 A 
ATOM     46  C   UNL A   1      42.063  25.253  28.243  1.00  0.00     0.010 A 
ATOM     47  C   UNL A   1      42.423  26.604  28.384  1.00  0.00    -0.014 A 
BRANCH  47  48
ATOM     48  C   UNL A   1      41.872  27.509  29.446  1.00  0.00     0.031 A 
ATOM     49  C   UNL A   1      42.649  27.625  30.722  1.00  0.00     0.074 A 
ATOM     50  C   UNL A   1      40.810  28.328  29.278  1.00  0.00     0.049 A 
ATOM     51  N   UNL A   1      42.463  28.430  31.736  1.00  0.00    -0.248 NA
ATOM     52  C   UNL A   1      43.819  26.743  30.853  1.00  0.00     0.031 C 
ATOM     53  C   UNL A   1      40.021  28.423  28.064  1.00  0.00     0.029 A 
ATOM     54  N   UNL A   1      40.226  29.270  30.100  1.00  0.00    -0.354 N 
ATOM     55  C   UNL A   1      43.515  28.178  32.599  1.00  0.00     0.074 A 
ATOM     56  C   UNL A   1      44.355  27.176  31.979  1.00  0.00     0.031 C 
ATOM     57  C   UNL A   1      39.098  29.389  28.179  1.00  0.00     0.029 A 
ATOM     58  C   UNL A   1      39.162  29.938  29.527  1.00  0.00     0.049 A 
ATOM     59  H   UNL A   1      40.541  29.450  31.015  1.00  0.00     0.167 HD
ATOM     60  C   UNL A   1      43.739  28.683  33.832  1.00  0.00     0.037 A 
ATOM     61  C   UNL A   1      38.309  30.855  30.034  1.00  0.00     0.037 A 
ATOM     62  C   UNL A   1      42.829  29.543  34.531  1.00  0.00     0.049 A 
ATOM     63  C   UNL A   1      38.466  31.255  31.478  1.00  0.00     0.074 A 
ATOM     64  C   UNL A   1      42.869  29.949  35.850  1.00  0.00     0.029 A 
ATOM     65  N   UNL A   1      41.683  30.088  33.973  1.00  0.00    -0.354 N 
ATOM     66  N   UNL A   1      39.431  30.953  32.312  1.00  0.00    -0.248 NA
ATOM     67  C   UNL A   1      37.402  32.083  32.066  1.00  0.00     0.031 C 
ATOM     68  C   UNL A   1      41.714  30.697  36.109  1.00  0.00     0.029 A 
ATOM     69  C   UNL A   1      40.988  30.805  34.933  1.00  0.00     0.049 A 
ATOM     70  H   UNL A   1      41.404  29.983  33.035  1.00  0.00     0.167 HD
ATOM     71  C   UNL A   1      39.093  31.553  33.518  1.00  0.00     0.074 A 
ATOM     72  C   UNL A   1      37.850  32.261  33.302  1.00  0.00     0.031 C 
ATOM     73  C   UNL A   1      39.752  31.506  34.701  1.00  0.00     0.037 A 
BRANCH  60  74
ATOM     74  C   UNL A   1      44.953  28.155  34.524  1.00  0.00     0.057 A 
ATOM     75  C   UNL A   1      44.905  27.001  35.315  1.00  0.00     0.134 A 
ATOM     76  C   UNL A   1      46.138  28.900  34.520  1.00  0.00     0.134 A 
ATOM     77  F   UNL A   1      43.777  26.278  35.399  1.00  0.00    -0.206 F 
ATOM     78  C   UNL A   1      45.990  26.622  36.106  1.00  0.00     0.040 A 
ATOM     79  C   UNL A   1      47.233  28.522  35.294  1.00  0.00     0.040 A 
ATOM     80  F   UNL A   1      46.227  30.032  33.806  1.00  0.00    -0.206 F 
ATOM     81  C   UNL A   1      47.156  27.388  36.099  1.00  0.00     0.006 A 
ENDBRANCH  60  74
BRANCH  61  82
ATOM     82  C   UNL A   1      37.173  31.401  29.230  1.00  0.00     0.057 A 
ATOM     83  C   UNL A   1      37.189  32.711  28.730  1.00  0.00     0.134 A 
ATOM     84  C   UNL A   1      36.006  30.656  29.007  1.00  0.00     0.134 A 
ATOM     85  F   UNL A   1      38.255  33.499  28.936  1.00  0.00    -0.206 F 
ATOM     86  C   UNL A   1      36.091  33.259  28.056  1.00  0.00     0.040 A 
ATOM     87  C   UNL A   1      34.914  31.180  28.310  1.00  0.00     0.040 A 
ATOM     88  F   UNL A   1      35.907  29.400  29.469  1.00  0.00    -0.206 F 
ATOM     89  C   UNL A   1      34.952  32.489  27.840  1.00  0.00     0.006 A 
ENDBRANCH  61  82
BRANCH  73  90
ATOM     90  C   UNL A   1      39.155  32.260  35.851  1.00  0.00     0.057 A 
ATOM     91  C   UNL A   1      38.243  31.665  36.731  1.00  0.00     0.134 A 
ATOM     92  C   UNL A   1      39.545  33.579  36.110  1.00  0.00     0.134 A 
ATOM     93  F   UNL A   1      37.819  30.409  36.527  1.00  0.00    -0.206 F 
ATOM     94  C   UNL A   1      37.730  32.363  37.826  1.00  0.00     0.040 A 
ATOM     95  C   UNL A   1      39.058  34.278  37.215  1.00  0.00     0.040 A 
ATOM     96  F   UNL A   1      40.419  34.201  35.307  1.00  0.00    -0.206 F 
ATOM     97  C   UNL A   1      38.144  33.670  38.075  1.00  0.00     0.006 A 
ENDBRANCH  73  90
ENDBRANCH  47  48
ENDBRANCH  40  42
ENDBRANCH  39  40
ENDBRANCH  38  39
ENDBRANCH  37  38
ENDBRANCH  36  37
ENDBRANCH  35  36
ENDBRANCH   1  35
TORSDOF 22
ENDMDL
MODEL 2
REMARK VINA RESULT:     -10.6      2.480      6.576
REMARK SMILES CC(=O)C1=C(c2ccccc2)NC(=S)N[C@@H]1c1cc(Cl)ccc1OCC(=O)OCCOCCOCCOC(=O)c1ccc(-c2c3nc(c(-c4c(F)cccc4F)c4ccc([nH]4)c(-c4c(F)cccc4F)c4nc(c(-c5c(F)cccc5F)c5ccc2[nH]5)C=C4)C=C3)cc1
REMARK SMILES IDX 32 1 31 2 30 3 29 4 28 5 26 6 27 7 25 8 24 9 23 10 17 11
REMARK SMILES IDX 18 12 19 13 22 14 20 15 21 16 16 17 4 18 5 19 12 20 15 21
REMARK SMILES IDX 13 22 14 25 2 26 1 27 3 28 6 29 7 30 11 31 8 32 10 33 9 34
REMARK SMILES IDX 33 35 34 36 35 37 36 38 37 39 38 40 39 41 40 42 41 43 93 44
REMARK SMILES IDX 42 45 92 46 43 47 44 48 45 49 86 50 46 51 91 52 85 53 87 54
REMARK SMILES IDX 47 55 90 56 84 57 83 58 48 60 74 61 57 62 73 63 58 64 61 65
REMARK SMILES IDX 72 66 88 67 59 68 60 69 71 71 89 72 62 73 49 74 50 75 55 76
REMARK SMILES IDX 51 77 52 78 54 79 56 80 53 81 75 82 76 83 81 84 77 85 78 86
REMARK SMILES IDX 80 87 82 88 79 89 63 90 64 91 69 92 65 93 66 94 68 95 70 96
REMARK SMILES IDX 67 97
REMARK H PARENT 12 23 15 24 87 59 61 70
REMARK Flexibility Score: inf
ROOT
ATOM      1  C   UNL A   1      42.623  20.403  26.018  1.00  0.00     0.188 C 
ENDROOT
BRANCH   1   2
ATOM      2  O   UNL A   1      41.394  21.080  25.754  1.00  0.00    -0.376 OA
BRANCH   2   3
ATOM      3  C   UNL A   1      40.855  21.752  26.889  1.00  0.00     0.202 C 
BRANCH   3   4
ATOM      4  C   UNL A   1      39.327  21.802  26.819  1.00  0.00     0.261 C 
BRANCH   4   5
ATOM      5  O   UNL A   1      38.874  22.514  25.651  1.00  0.00    -0.461 OA
BRANCH   5   6
ATOM      6  C   UNL A   1      38.138  23.634  25.880  1.00  0.00     0.344 C 
ATOM      7  O   UNL A   1      38.447  24.538  26.648  1.00  0.00    -0.248 OA
BRANCH   6   8
ATOM      8  C   UNL A   1      36.846  23.663  25.074  1.00  0.00     0.351 C 
BRANCH   8   9
ATOM      9  O   UNL A   1      35.804  24.426  25.589  1.00  0.00    -0.482 OA
BRANCH   9  10
ATOM     10  C   UNL A   1      34.468  24.236  25.510  1.00  0.00     0.125 A 
ATOM     11  C   UNL A   1      33.422  24.713  24.687  1.00  0.00     0.023 A 
ATOM     12  C   UNL A   1      32.124  24.236  25.103  1.00  0.00     0.030 A 
ATOM     13  C   UNL A   1      31.882  23.422  26.227  1.00  0.00     0.041 A 
ATOM     14  C   UNL A   1      34.194  23.352  26.600  1.00  0.00     0.048 A 
ATOM     15  Cl  UNL A   1      30.290  23.051  26.750  1.00  0.00    -0.084 Cl
ATOM     16  C   UNL A   1      32.926  22.955  26.973  1.00  0.00     0.024 A 
BRANCH  11  17
ATOM     17  C   UNL A   1      33.439  25.828  23.568  1.00  0.00     0.152 C 
ATOM     18  C   UNL A   1      32.395  26.932  23.670  1.00  0.00     0.046 C 
ATOM     19  C   UNL A   1      31.365  27.085  22.803  1.00  0.00     0.057 C 
ATOM     20  N   UNL A   1      31.398  26.350  21.646  1.00  0.00    -0.332 N 
ATOM     21  N   UNL A   1      33.473  25.451  22.159  1.00  0.00    -0.351 N 
ATOM     22  C   UNL A   1      32.503  25.686  21.236  1.00  0.00     0.171 C 
ATOM     23  H   UNL A   1      30.586  26.303  21.091  1.00  0.00     0.169 HD
ATOM     24  H   UNL A   1      34.277  24.978  21.846  1.00  0.00     0.163 HD
ATOM     25  S   UNL A   1      32.727  25.336  19.628  1.00  0.00    -0.041 S 
BRANCH  18  26
ATOM     26  C   UNL A   1      32.574  27.903  24.756  1.00  0.00     0.160 C 
ATOM     27  C   UNL A   1      31.867  27.727  26.071  1.00  0.00     0.093 C 
ATOM     28  O   UNL A   1      33.227  28.906  24.507  1.00  0.00    -0.295 OA
ENDBRANCH  18  26
BRANCH  19  29
ATOM     29  C   UNL A   1      30.242  28.060  22.832  1.00  0.00    -0.002 A 
ATOM     30  C   UNL A   1      28.975  27.685  23.302  1.00  0.00     0.010 A 
ATOM     31  C   UNL A   1      30.388  29.343  22.289  1.00  0.00     0.010 A 
ATOM     32  C   UNL A   1      27.900  28.584  23.279  1.00  0.00     0.001 A 
ATOM     33  C   UNL A   1      29.324  30.257  22.303  1.00  0.00     0.001 A 
ATOM     34  C   UNL A   1      28.082  29.880  22.806  1.00  0.00     0.000 A 
ENDBRANCH  19  29
ENDBRANCH  11  17
ENDBRANCH   9  10
ENDBRANCH   8   9
ENDBRANCH   6   8
ENDBRANCH   5   6
ENDBRANCH   4   5
ENDBRANCH   3   4
ENDBRANCH   2   3
ENDBRANCH   1   2
BRANCH   1  35
ATOM     35  C   UNL A   1      43.790  21.173  25.403  1.00  0.00     0.188 C 
BRANCH  35  36
ATOM     36  O   UNL A   1      43.442  22.219  24.501  1.00  0.00    -0.376 OA
BRANCH  36  37
ATOM     37  C   UNL A   1      44.130  23.455  24.662  1.00  0.00     0.202 C 
BRANCH  37  38
ATOM     38  C   UNL A   1      43.886  24.150  26.004  1.00  0.00     0.261 C 
BRANCH  38  39
ATOM     39  O   UNL A   1      42.494  24.338  26.364  1.00  0.00    -0.460 OA
BRANCH  39  40
ATOM     40  C   UNL A   1      42.008  25.576  26.053  1.00  0.00     0.338 C 
ATOM     41  O   UNL A   1      41.625  25.934  24.948  1.00  0.00    -0.246 OA
BRANCH  40  42
ATOM     42  C   UNL A   1      41.939  26.507  27.209  1.00  0.00     0.060 A 
ATOM     43  C   UNL A   1      40.985  26.236  28.189  1.00  0.00     0.016 A 
ATOM     44  C   UNL A   1      42.681  27.687  27.309  1.00  0.00     0.016 A 
ATOM     45  C   UNL A   1      40.855  27.051  29.318  1.00  0.00     0.010 A 
ATOM     46  C   UNL A   1      42.522  28.543  28.427  1.00  0.00     0.010 A 
ATOM     47  C   UNL A   1      41.630  28.219  29.464  1.00  0.00    -0.014 A 
BRANCH  47  48
ATOM     48  C   UNL A   1      41.386  29.093  30.660  1.00  0.00     0.031 A 
ATOM     49  C   UNL A   1      40.237  30.052  30.588  1.00  0.00     0.074 A 
ATOM     50  C   UNL A   1      42.036  28.975  31.839  1.00  0.00     0.049 A 
ATOM     51  N   UNL A   1      39.736  30.817  31.523  1.00  0.00    -0.248 NA
ATOM     52  C   UNL A   1      39.531  30.126  29.300  1.00  0.00     0.031 C 
ATOM     53  C   UNL A   1      43.093  28.018  32.110  1.00  0.00     0.029 A 
ATOM     54  N   UNL A   1      41.889  29.622  33.048  1.00  0.00    -0.354 N 
ATOM     55  C   UNL A   1      38.636  31.426  30.945  1.00  0.00     0.074 A 
ATOM     56  C   UNL A   1      38.518  30.918  29.596  1.00  0.00     0.031 C 
ATOM     57  C   UNL A   1      43.470  28.087  33.395  1.00  0.00     0.029 A 
ATOM     58  C   UNL A   1      42.739  29.171  34.039  1.00  0.00     0.049 A 
ATOM     59  H   UNL A   1      41.235  30.344  33.192  1.00  0.00     0.167 HD
ATOM     60  C   UNL A   1      37.824  32.375  31.461  1.00  0.00     0.037 A 
ATOM     61  C   UNL A   1      42.940  29.601  35.304  1.00  0.00     0.037 A 
ATOM     62  C   UNL A   1      38.030  33.012  32.729  1.00  0.00     0.049 A 
ATOM     63  C   UNL A   1      42.153  30.791  35.787  1.00  0.00     0.074 A 
ATOM     64  C   UNL A   1      37.385  34.115  33.253  1.00  0.00     0.029 A 
ATOM     65  N   UNL A   1      38.993  32.629  33.651  1.00  0.00    -0.354 N 
ATOM     66  N   UNL A   1      41.157  31.409  35.201  1.00  0.00    -0.248 NA
ATOM     67  C   UNL A   1      42.542  31.374  37.081  1.00  0.00     0.031 C 
ATOM     68  C   UNL A   1      37.995  34.436  34.472  1.00  0.00     0.029 A 
ATOM     69  C   UNL A   1      38.980  33.495  34.731  1.00  0.00     0.049 A 
ATOM     70  H   UNL A   1      39.595  31.857  33.553  1.00  0.00     0.167 HD
ATOM     71  C   UNL A   1      40.799  32.447  36.050  1.00  0.00     0.074 A 
ATOM     72  C   UNL A   1      41.664  32.360  37.208  1.00  0.00     0.031 C 
ATOM     73  C   UNL A   1      39.846  33.394  35.877  1.00  0.00     0.037 A 
BRANCH  60  74
ATOM     74  C   UNL A   1      36.752  32.861  30.542  1.00  0.00     0.057 A 
ATOM     75  C   UNL A   1      37.007  33.824  29.558  1.00  0.00     0.134 A 
ATOM     76  C   UNL A   1      35.423  32.474  30.754  1.00  0.00     0.134 A 
ATOM     77  F   UNL A   1      38.254  34.271  29.350  1.00  0.00    -0.206 F 
ATOM     78  C   UNL A   1      35.967  34.409  28.834  1.00  0.00     0.040 A 
ATOM     79  C   UNL A   1      34.379  33.040  30.026  1.00  0.00     0.040 A 
ATOM     80  F   UNL A   1      35.119  31.581  31.708  1.00  0.00    -0.206 F 
ATOM     81  C   UNL A   1      34.649  34.019  29.072  1.00  0.00     0.006 A 
ENDBRANCH  60  74
BRANCH  61  82
ATOM     82  C   UNL A   1      43.978  28.986  36.187  1.00  0.00     0.057 A 
ATOM     83  C   UNL A   1      45.290  29.480  36.233  1.00  0.00     0.134 A 
ATOM     84  C   UNL A   1      43.708  27.840  36.948  1.00  0.00     0.134 A 
ATOM     85  F   UNL A   1      45.634  30.551  35.503  1.00  0.00    -0.206 F 
ATOM     86  C   UNL A   1      46.289  28.853  36.987  1.00  0.00     0.040 A 
ATOM     87  C   UNL A   1      44.689  27.221  37.729  1.00  0.00     0.040 A 
ATOM     88  F   UNL A   1      42.482  27.297  36.944  1.00  0.00    -0.206 F 
ATOM     89  C   UNL A   1      45.987  27.723  37.742  1.00  0.00     0.006 A 
ENDBRANCH  61  82
BRANCH  73  90
ATOM     90  C   UNL A   1      39.670  34.402  36.972  1.00  0.00     0.057 A 
ATOM     91  C   UNL A   1      38.888  34.136  38.103  1.00  0.00     0.134 A 
ATOM     92  C   UNL A   1      40.341  35.629  36.919  1.00  0.00     0.134 A 
ATOM     93  F   UNL A   1      38.209  32.983  38.206  1.00  0.00    -0.206 F 
ATOM     94  C   UNL A   1      38.770  35.063  39.139  1.00  0.00     0.040 A 
ATOM     95  C   UNL A   1      40.250  36.554  37.959  1.00  0.00     0.040 A 
ATOM     96  F   UNL A   1      41.110  35.940  35.865  1.00  0.00    -0.206 F 
ATOM     97  C   UNL A   1      39.460  36.273  39.072  1.00  0.00     0.006 A 
ENDBRANCH  73  90
ENDBRANCH  47  48
ENDBRANCH  40  42
ENDBRANCH  39  40
ENDBRANCH  38  39
ENDBRANCH  37  38
ENDBRANCH  36  37
ENDBRANCH  35  36
ENDBRANCH   1  35
TORSDOF 22
ENDMDL
MODEL 3
REMARK VINA RESULT:     -10.5      1.921      3.654
REMARK SMILES CC(=O)C1=C(c2ccccc2)NC(=S)N[C@@H]1c1cc(Cl)ccc1OCC(=O)OCCOCCOCCOC(=O)c1ccc(-c2c3nc(c(-c4c(F)cccc4F)c4ccc([nH]4)c(-c4c(F)cccc4F)c4nc(c(-c5c(F)cccc5F)c5ccc2[nH]5)C=C4)C=C3)cc1
REMARK SMILES IDX 32 1 31 2 30 3 29 4 28 5 26 6 27 7 25 8 24 9 23 10 17 11
REMARK SMILES IDX 18 12 19 13 22 14 20 15 21 16 16 17 4 18 5 19 12 20 15 21
REMARK SMILES IDX 13 22 14 25 2 26 1 27 3 28 6 29 7 30 11 31 8 32 10 33 9 34
REMARK SMILES IDX 33 35 34 36 35 37 36 38 37 39 38 40 39 41 40 42 41 43 93 44
REMARK SMILES IDX 42 45 92 46 43 47 44 48 45 49 86 50 46 51 91 52 85 53 87 54
REMARK SMILES IDX 47 55 90 56 84 57 83 58 48 60 74 61 57 62 73 63 58 64 61 65
REMARK SMILES IDX 72 66 88 67 59 68 60 69 71 71 89 72 62 73 49 74 50 75 55 76
REMARK SMILES IDX 51 77 52 78 54 79 56 80 53 81 75 82 76 83 81 84 77 85 78 86
REMARK SMILES IDX 80 87 82 88 79 89 63 90 64 91 69 92 65 93 66 94 68 95 70 96
REMARK SMILES IDX 67 97
REMARK H PARENT 12 23 15 24 87 59 61 70
REMARK Flexibility Score: inf
ROOT
ATOM      1  C   UNL A   1      40.199  20.092  26.106  1.00  0.00     0.188 C 
ENDROOT
BRANCH   1   2
ATOM      2  O   UNL A   1      39.225  19.369  25.354  1.00  0.00    -0.376 OA
BRANCH   2   3
ATOM      3  C   UNL A   1      38.112  20.161  24.949  1.00  0.00     0.202 C 
BRANCH   3   4
ATOM      4  C   UNL A   1      38.134  21.528  25.636  1.00  0.00     0.261 C 
BRANCH   4   5
ATOM      5  O   UNL A   1      37.509  22.540  24.822  1.00  0.00    -0.461 OA
BRANCH   5   6
ATOM      6  C   UNL A   1      37.082  23.654  25.475  1.00  0.00     0.344 C 
ATOM      7  O   UNL A   1      37.699  24.232  26.363  1.00  0.00    -0.248 OA
BRANCH   6   8
ATOM      8  C   UNL A   1      35.719  24.132  24.992  1.00  0.00     0.351 C 
BRANCH   8   9
ATOM      9  O   UNL A   1      34.945  24.839  25.905  1.00  0.00    -0.482 OA
BRANCH   9  10
ATOM     10  C   UNL A   1      34.015  25.797  25.695  1.00  0.00     0.125 A 
ATOM     11  C   UNL A   1      32.778  25.880  25.014  1.00  0.00     0.023 A 
ATOM     12  C   UNL A   1      32.216  27.210  25.038  1.00  0.00     0.030 A 
ATOM     13  C   UNL A   1      32.826  28.336  25.624  1.00  0.00     0.041 A 
ATOM     14  C   UNL A   1      34.570  26.946  26.342  1.00  0.00     0.048 A 
ATOM     15  Cl  UNL A   1      32.172  29.913  25.449  1.00  0.00    -0.084 Cl
ATOM     16  C   UNL A   1      34.004  28.204  26.303  1.00  0.00     0.024 A 
BRANCH  11  17
ATOM     17  C   UNL A   1      32.065  24.829  24.075  1.00  0.00     0.152 C 
ATOM     18  C   UNL A   1      32.205  23.358  24.444  1.00  0.00     0.046 C 
ATOM     19  C   UNL A   1      32.911  22.457  23.720  1.00  0.00     0.057 C 
ATOM     20  N   UNL A   1      33.327  22.839  22.470  1.00  0.00    -0.332 N 
ATOM     21  N   UNL A   1      32.257  24.889  22.630  1.00  0.00    -0.351 N 
ATOM     22  C   UNL A   1      32.865  23.951  21.856  1.00  0.00     0.171 C 
ATOM     23  H   UNL A   1      33.990  22.281  22.001  1.00  0.00     0.169 HD
ATOM     24  H   UNL A   1      31.914  25.689  22.170  1.00  0.00     0.163 HD
ATOM     25  S   UNL A   1      32.890  24.071  20.200  1.00  0.00    -0.041 S 
BRANCH  18  26
ATOM     26  C   UNL A   1      31.474  22.911  25.636  1.00  0.00     0.160 C 
ATOM     27  C   UNL A   1      32.180  22.741  26.953  1.00  0.00     0.093 C 
ATOM     28  O   UNL A   1      30.306  22.582  25.486  1.00  0.00    -0.295 OA
ENDBRANCH  18  26
BRANCH  19  29
ATOM     29  C   UNL A   1      33.192  21.025  24.007  1.00  0.00    -0.002 A 
ATOM     30  C   UNL A   1      34.383  20.638  24.638  1.00  0.00     0.010 A 
ATOM     31  C   UNL A   1      32.330  20.018  23.556  1.00  0.00     0.010 A 
ATOM     32  C   UNL A   1      34.676  19.285  24.860  1.00  0.00     0.001 A 
ATOM     33  C   UNL A   1      32.602  18.666  23.814  1.00  0.00     0.001 A 
ATOM     34  C   UNL A   1      33.772  18.301  24.473  1.00  0.00     0.000 A 
ENDBRANCH  19  29
ENDBRANCH  11  17
ENDBRANCH   9  10
ENDBRANCH   8   9
ENDBRANCH   6   8
ENDBRANCH   5   6
ENDBRANCH   4   5
ENDBRANCH   3   4
ENDBRANCH   2   3
ENDBRANCH   1   2
BRANCH   1  35
ATOM     35  C   UNL A   1      41.506  19.305  26.169  1.00  0.00     0.188 C 
BRANCH  35  36
ATOM     36  O   UNL A   1      42.671  20.053  26.505  1.00  0.00    -0.376 OA
BRANCH  36  37
ATOM     37  C   UNL A   1      43.704  20.098  25.527  1.00  0.00     0.202 C 
BRANCH  37  38
ATOM     38  C   UNL A   1      44.183  21.508  25.170  1.00  0.00     0.261 C 
BRANCH  38  39
ATOM     39  O   UNL A   1      43.265  22.580  25.502  1.00  0.00    -0.460 OA
BRANCH  39  40
ATOM     40  C   UNL A   1      43.784  23.828  25.314  1.00  0.00     0.338 C 
ATOM     41  O   UNL A   1      44.507  24.166  24.387  1.00  0.00    -0.246 OA
BRANCH  40  42
ATOM     42  C   UNL A   1      43.373  24.818  26.343  1.00  0.00     0.060 A 
ATOM     43  C   UNL A   1      42.415  24.410  27.271  1.00  0.00     0.016 A 
ATOM     44  C   UNL A   1      43.795  26.150  26.362  1.00  0.00     0.016 A 
ATOM     45  C   UNL A   1      41.976  25.271  28.283  1.00  0.00     0.010 A 
ATOM     46  C   UNL A   1      43.320  27.040  27.357  1.00  0.00     0.010 A 
ATOM     47  C   UNL A   1      42.428  26.603  28.351  1.00  0.00    -0.014 A 
BRANCH  47  48
ATOM     48  C   UNL A   1      41.858  27.497  29.413  1.00  0.00     0.031 A 
ATOM     49  C   UNL A   1      42.622  27.613  30.697  1.00  0.00     0.074 A 
ATOM     50  C   UNL A   1      40.791  28.307  29.239  1.00  0.00     0.049 A 
ATOM     51  N   UNL A   1      42.419  28.411  31.713  1.00  0.00    -0.248 NA
ATOM     52  C   UNL A   1      43.799  26.742  30.834  1.00  0.00     0.031 C 
ATOM     53  C   UNL A   1      40.012  28.402  28.019  1.00  0.00     0.029 A 
ATOM     54  N   UNL A   1      40.190  29.240  30.060  1.00  0.00    -0.354 N 
ATOM     55  C   UNL A   1      43.465  28.164  32.585  1.00  0.00     0.074 A 
ATOM     56  C   UNL A   1      44.320  27.173  31.968  1.00  0.00     0.031 C 
ATOM     57  C   UNL A   1      39.079  29.359  28.130  1.00  0.00     0.029 A 
ATOM     58  C   UNL A   1      39.125  29.901  29.481  1.00  0.00     0.049 A 
ATOM     59  H   UNL A   1      40.494  29.418  30.980  1.00  0.00     0.167 HD
ATOM     60  C   UNL A   1      43.673  28.665  33.823  1.00  0.00     0.037 A 
ATOM     61  C   UNL A   1      38.259  30.807  29.985  1.00  0.00     0.037 A 
ATOM     62  C   UNL A   1      42.749  29.512  34.518  1.00  0.00     0.049 A 
ATOM     63  C   UNL A   1      38.399  31.200  31.433  1.00  0.00     0.074 A 
ATOM     64  C   UNL A   1      42.772  29.911  35.839  1.00  0.00     0.029 A 
ATOM     65  N   UNL A   1      41.602  30.050  33.952  1.00  0.00    -0.354 N 
ATOM     66  N   UNL A   1      39.358  30.903  32.275  1.00  0.00    -0.248 NA
ATOM     67  C   UNL A   1      37.321  32.016  32.015  1.00  0.00     0.031 C 
ATOM     68  C   UNL A   1      41.608  30.647  36.091  1.00  0.00     0.029 A 
ATOM     69  C   UNL A   1      40.892  30.754  34.909  1.00  0.00     0.049 A 
ATOM     70  H   UNL A   1      41.333  29.947  33.011  1.00  0.00     0.167 HD
ATOM     71  C   UNL A   1      39.004  31.493  33.480  1.00  0.00     0.074 A 
ATOM     72  C   UNL A   1      37.756  32.191  33.256  1.00  0.00     0.031 C 
ATOM     73  C   UNL A   1      39.651  31.446  34.670  1.00  0.00     0.037 A 
BRANCH  60  74
ATOM     74  C   UNL A   1      44.885  28.143  34.523  1.00  0.00     0.057 A 
ATOM     75  C   UNL A   1      46.134  28.761  34.391  1.00  0.00     0.134 A 
ATOM     76  C   UNL A   1      44.825  26.922  35.206  1.00  0.00     0.134 A 
ATOM     77  F   UNL A   1      46.259  29.905  33.700  1.00  0.00    -0.206 F 
ATOM     78  C   UNL A   1      47.292  28.163  34.890  1.00  0.00     0.040 A 
ATOM     79  C   UNL A   1      45.972  26.324  35.723  1.00  0.00     0.040 A 
ATOM     80  F   UNL A   1      43.659  26.271  35.333  1.00  0.00    -0.206 F 
ATOM     81  C   UNL A   1      47.211  26.939  35.555  1.00  0.00     0.006 A 
ENDBRANCH  60  74
BRANCH  61  82
ATOM     82  C   UNL A   1      37.126  31.347  29.173  1.00  0.00     0.057 A 
ATOM     83  C   UNL A   1      37.123  32.668  28.703  1.00  0.00     0.134 A 
ATOM     84  C   UNL A   1      35.979  30.583  28.914  1.00  0.00     0.134 A 
ATOM     85  F   UNL A   1      38.168  33.473  28.944  1.00  0.00    -0.206 F 
ATOM     86  C   UNL A   1      36.025  33.208  28.021  1.00  0.00     0.040 A 
ATOM     87  C   UNL A   1      34.889  31.099  28.208  1.00  0.00     0.040 A 
ATOM     88  F   UNL A   1      35.898  29.316  29.345  1.00  0.00    -0.206 F 
ATOM     89  C   UNL A   1      34.906  32.419  27.768  1.00  0.00     0.006 A 
ENDBRANCH  61  82
BRANCH  73  90
ATOM     90  C   UNL A   1      39.036  32.188  35.818  1.00  0.00     0.057 A 
ATOM     91  C   UNL A   1      38.195  31.556  36.741  1.00  0.00     0.134 A 
ATOM     92  C   UNL A   1      39.340  33.537  36.031  1.00  0.00     0.134 A 
ATOM     93  F   UNL A   1      37.855  30.267  36.582  1.00  0.00    -0.206 F 
ATOM     94  C   UNL A   1      37.666  32.246  37.833  1.00  0.00     0.040 A 
ATOM     95  C   UNL A   1      38.837  34.231  37.132  1.00  0.00     0.040 A 
ATOM     96  F   UNL A   1      40.145  34.196  35.185  1.00  0.00    -0.206 F 
ATOM     97  C   UNL A   1      37.995  33.585  38.035  1.00  0.00     0.006 A 
ENDBRANCH  73  90
ENDBRANCH  47  48
ENDBRANCH  40  42
ENDBRANCH  39  40
ENDBRANCH  38  39
ENDBRANCH  37  38
ENDBRANCH  36  37
ENDBRANCH  35  36
ENDBRANCH   1  35
TORSDOF 22
ENDMDL
