MODEL 1
REMARK VINA RESULT:     -10.7      0.000      0.000
REMARK SMILES C/C=C/c1cncc(-c2ccc([C@@H](C)C(=O)OCCOCCOCCOC(=O)c3ccc(-c4c5nc(c(-c6c(F)cccc6F)c6ccc([nH]6)c(-c6c(F)cccc6F)c6nc(c(-c7c(F)cccc7F)c7ccc4[nH]7)C=C6)C=C5)cc3)cc2)c1
REMARK SMILES IDX 21 1 20 2 19 3 18 4 17 5 15 6 16 7 13 8 14 9 12 10 9 11
REMARK SMILES IDX 10 12 84 13 11 14 83 15 8 16 4 17 5 18 85 19 6 20 7 21 3 22
REMARK SMILES IDX 1 23 2 24 22 25 23 26 24 27 25 28 26 29 27 30 28 31 29 32
REMARK SMILES IDX 30 33 82 34 31 35 81 36 32 37 33 38 34 39 75 40 35 41 80 42
REMARK SMILES IDX 74 43 76 44 36 45 79 46 73 47 72 48 37 50 63 51 46 52 62 53
REMARK SMILES IDX 47 54 50 55 61 56 77 57 48 58 49 59 60 61 78 62 51 63 38 64
REMARK SMILES IDX 39 65 44 66 40 67 41 68 43 69 45 70 42 71 64 72 65 73 70 74
REMARK SMILES IDX 66 75 67 76 69 77 71 78 68 79 52 80 53 81 58 82 54 83 55 84
REMARK SMILES IDX 57 85 59 86 56 87
REMARK H PARENT 76 49 50 60
REMARK Flexibility Score: inf
ROOT
ATOM      1  C   UNL A   1      33.638  29.153  26.924  1.00  0.00     0.188 C 
ENDROOT
BRANCH   1   2
ATOM      2  O   UNL A   1      32.971  28.425  25.898  1.00  0.00    -0.376 OA
BRANCH   2   3
ATOM      3  C   UNL A   1      33.628  28.217  24.652  1.00  0.00     0.202 C 
BRANCH   3   4
ATOM      4  C   UNL A   1      33.295  29.160  23.484  1.00  0.00     0.261 C 
BRANCH   4   5
ATOM      5  O   UNL A   1      32.268  28.699  22.572  1.00  0.00    -0.463 OA
BRANCH   5   6
ATOM      6  C   UNL A   1      31.019  28.559  23.085  1.00  0.00     0.313 C 
ATOM      7  O   UNL A   1      30.438  29.459  23.691  1.00  0.00    -0.252 OA
BRANCH   6   8
ATOM      8  C   UNL A   1      30.331  27.207  22.865  1.00  0.00     0.126 C 
ATOM      9  C   UNL A   1      28.965  27.238  23.547  1.00  0.00     0.025 C 
BRANCH   8  10
ATOM     10  C   UNL A   1      31.046  25.884  23.150  1.00  0.00    -0.034 A 
ATOM     11  C   UNL A   1      32.295  23.377  23.760  1.00  0.00    -0.017 A 
ATOM     12  C   UNL A   1      32.853  24.274  22.831  1.00  0.00     0.009 A 
ATOM     13  C   UNL A   1      31.103  23.759  24.386  1.00  0.00     0.009 A 
ATOM     14  C   UNL A   1      32.247  25.510  22.535  1.00  0.00     0.005 A 
ATOM     15  C   UNL A   1      30.495  24.991  24.094  1.00  0.00     0.005 A 
BRANCH  11  16
ATOM     16  C   UNL A   1      32.986  22.125  24.121  1.00  0.00     0.001 A 
ATOM     17  C   UNL A   1      34.950  20.825  24.760  1.00  0.00    -0.007 A 
ATOM     18  C   UNL A   1      34.133  19.697  24.746  1.00  0.00     0.119 A 
ATOM     19  C   UNL A   1      34.358  22.055  24.428  1.00  0.00     0.020 A 
ATOM     20  N   UNL A   1      32.813  19.710  24.455  1.00  0.00    -0.263 NA
ATOM     21  C   UNL A   1      32.282  20.918  24.155  1.00  0.00     0.119 A 
BRANCH  17  22
ATOM     22  C   UNL A   1      36.370  20.651  25.089  1.00  0.00     0.005 C 
ATOM     23  C   UNL A   1      38.659  21.483  25.657  1.00  0.00     0.035 C 
ATOM     24  C   UNL A   1      37.242  21.665  25.211  1.00  0.00    -0.030 C 
ENDBRANCH  17  22
ENDBRANCH  11  16
ENDBRANCH   8  10
ENDBRANCH   6   8
ENDBRANCH   5   6
ENDBRANCH   4   5
ENDBRANCH   3   4
ENDBRANCH   2   3
ENDBRANCH   1   2
BRANCH   1  25
ATOM     25  C   UNL A   1      33.244  30.613  27.186  1.00  0.00     0.188 C 
BRANCH  25  26
ATOM     26  O   UNL A   1      31.900  30.909  26.887  1.00  0.00    -0.376 OA
BRANCH  26  27
ATOM     27  C   UNL A   1      31.525  32.271  26.879  1.00  0.00     0.202 C 
BRANCH  27  28
ATOM     28  C   UNL A   1      32.634  33.275  27.217  1.00  0.00     0.261 C 
BRANCH  28  29
ATOM     29  O   UNL A   1      32.309  34.278  28.197  1.00  0.00    -0.460 OA
BRANCH  29  30
ATOM     30  C   UNL A   1      33.327  35.026  28.691  1.00  0.00     0.338 C 
ATOM     31  O   UNL A   1      33.319  36.220  28.913  1.00  0.00    -0.246 OA
BRANCH  30  32
ATOM     32  C   UNL A   1      34.393  34.089  29.124  1.00  0.00     0.060 A 
ATOM     33  C   UNL A   1      34.068  33.021  29.973  1.00  0.00     0.016 A 
ATOM     34  C   UNL A   1      35.705  34.253  28.675  1.00  0.00     0.016 A 
ATOM     35  C   UNL A   1      35.057  32.122  30.385  1.00  0.00     0.010 A 
ATOM     36  C   UNL A   1      36.697  33.367  29.107  1.00  0.00     0.010 A 
ATOM     37  C   UNL A   1      36.386  32.309  29.981  1.00  0.00    -0.014 A 
BRANCH  37  38
ATOM     38  C   UNL A   1      37.484  31.512  30.584  1.00  0.00     0.031 A 
ATOM     39  C   UNL A   1      37.916  31.828  31.989  1.00  0.00     0.074 A 
ATOM     40  C   UNL A   1      38.113  30.543  29.896  1.00  0.00     0.049 A 
ATOM     41  N   UNL A   1      38.923  31.358  32.679  1.00  0.00    -0.248 NA
ATOM     42  C   UNL A   1      37.101  32.819  32.708  1.00  0.00     0.031 C 
ATOM     43  C   UNL A   1      37.775  30.110  28.542  1.00  0.00     0.029 A 
ATOM     44  N   UNL A   1      39.193  29.765  30.241  1.00  0.00    -0.354 N 
ATOM     45  C   UNL A   1      38.871  32.004  33.908  1.00  0.00     0.074 A 
ATOM     46  C   UNL A   1      37.753  32.921  33.856  1.00  0.00     0.031 C 
ATOM     47  C   UNL A   1      38.651  29.165  28.158  1.00  0.00     0.029 A 
ATOM     48  C   UNL A   1      39.633  28.956  29.222  1.00  0.00     0.049 A 
ATOM     49  H   UNL A   1      39.610  29.786  31.132  1.00  0.00     0.167 HD
ATOM     50  C   UNL A   1      39.680  31.847  34.984  1.00  0.00     0.037 A 
ATOM     51  C   UNL A   1      40.725  28.169  29.140  1.00  0.00     0.037 A 
ATOM     52  C   UNL A   1      40.802  30.946  35.029  1.00  0.00     0.049 A 
ATOM     53  C   UNL A   1      41.661  28.067  30.317  1.00  0.00     0.074 A 
ATOM     54  C   UNL A   1      41.667  30.699  36.081  1.00  0.00     0.029 A 
ATOM     55  N   UNL A   1      41.225  30.155  33.972  1.00  0.00    -0.354 N 
ATOM     56  N   UNL A   1      41.590  28.658  31.487  1.00  0.00    -0.248 NA
ATOM     57  C   UNL A   1      42.832  27.190  30.163  1.00  0.00     0.031 C 
ATOM     58  C   UNL A   1      42.650  29.808  35.639  1.00  0.00     0.029 A 
ATOM     59  C   UNL A   1      42.360  29.447  34.333  1.00  0.00     0.049 A 
ATOM     60  H   UNL A   1      40.784  30.104  33.092  1.00  0.00     0.167 HD
ATOM     61  C   UNL A   1      42.688  28.207  32.213  1.00  0.00     0.074 A 
ATOM     62  C   UNL A   1      43.401  27.282  31.357  1.00  0.00     0.031 C 
ATOM     63  C   UNL A   1      43.067  28.529  33.475  1.00  0.00     0.037 A 
BRANCH  50  64
ATOM     64  C   UNL A   1      39.396  32.702  36.185  1.00  0.00     0.057 A 
ATOM     65  C   UNL A   1      40.036  33.933  36.391  1.00  0.00     0.134 A 
ATOM     66  C   UNL A   1      38.466  32.292  37.148  1.00  0.00     0.134 A 
ATOM     67  F   UNL A   1      40.949  34.379  35.514  1.00  0.00    -0.206 F 
ATOM     68  C   UNL A   1      39.788  34.704  37.528  1.00  0.00     0.040 A 
ATOM     69  C   UNL A   1      38.186  33.069  38.272  1.00  0.00     0.040 A 
ATOM     70  F   UNL A   1      37.812  31.128  37.013  1.00  0.00    -0.206 F 
ATOM     71  C   UNL A   1      38.857  34.275  38.470  1.00  0.00     0.006 A 
ENDBRANCH  50  64
BRANCH  51  72
ATOM     72  C   UNL A   1      41.015  27.437  27.880  1.00  0.00     0.057 A 
ATOM     73  C   UNL A   1      41.836  27.986  26.889  1.00  0.00     0.134 A 
ATOM     74  C   UNL A   1      40.470  26.170  27.636  1.00  0.00     0.134 A 
ATOM     75  F   UNL A   1      42.365  29.208  27.050  1.00  0.00    -0.206 F 
ATOM     76  C   UNL A   1      42.095  27.308  25.696  1.00  0.00     0.040 A 
ATOM     77  C   UNL A   1      40.743  25.469  26.460  1.00  0.00     0.040 A 
ATOM     78  F   UNL A   1      39.670  25.589  28.543  1.00  0.00    -0.206 F 
ATOM     79  C   UNL A   1      41.554  26.042  25.483  1.00  0.00     0.006 A 
ENDBRANCH  51  72
BRANCH  63  80
ATOM     80  C   UNL A   1      44.294  27.857  34.026  1.00  0.00     0.057 A 
ATOM     81  C   UNL A   1      45.564  28.442  33.941  1.00  0.00     0.134 A 
ATOM     82  C   UNL A   1      44.194  26.630  34.696  1.00  0.00     0.134 A 
ATOM     83  F   UNL A   1      45.733  29.610  33.303  1.00  0.00    -0.206 F 
ATOM     84  C   UNL A   1      46.691  27.822  34.485  1.00  0.00     0.040 A 
ATOM     85  C   UNL A   1      45.308  26.016  35.269  1.00  0.00     0.040 A 
ATOM     86  F   UNL A   1      43.007  26.018  34.825  1.00  0.00    -0.206 F 
ATOM     87  C   UNL A   1      46.564  26.610  35.159  1.00  0.00     0.006 A 
ENDBRANCH  63  80
ENDBRANCH  37  38
ENDBRANCH  30  32
ENDBRANCH  29  30
ENDBRANCH  28  29
ENDBRANCH  27  28
ENDBRANCH  26  27
ENDBRANCH  25  26
ENDBRANCH   1  25
TORSDOF 20
ENDMDL
MODEL 2
REMARK VINA RESULT:     -10.7      1.327      6.224
REMARK SMILES C/C=C/c1cncc(-c2ccc([C@@H](C)C(=O)OCCOCCOCCOC(=O)c3ccc(-c4c5nc(c(-c6c(F)cccc6F)c6ccc([nH]6)c(-c6c(F)cccc6F)c6nc(c(-c7c(F)cccc7F)c7ccc4[nH]7)C=C6)C=C5)cc3)cc2)c1
REMARK SMILES IDX 21 1 20 2 19 3 18 4 17 5 15 6 16 7 13 8 14 9 12 10 9 11
REMARK SMILES IDX 10 12 84 13 11 14 83 15 8 16 4 17 5 18 85 19 6 20 7 21 3 22
REMARK SMILES IDX 1 23 2 24 22 25 23 26 24 27 25 28 26 29 27 30 28 31 29 32
REMARK SMILES IDX 30 33 82 34 31 35 81 36 32 37 33 38 34 39 75 40 35 41 80 42
REMARK SMILES IDX 74 43 76 44 36 45 79 46 73 47 72 48 37 50 63 51 46 52 62 53
REMARK SMILES IDX 47 54 50 55 61 56 77 57 48 58 49 59 60 61 78 62 51 63 38 64
REMARK SMILES IDX 39 65 44 66 40 67 41 68 43 69 45 70 42 71 64 72 65 73 70 74
REMARK SMILES IDX 66 75 67 76 69 77 71 78 68 79 52 80 53 81 58 82 54 83 55 84
REMARK SMILES IDX 57 85 59 86 56 87
REMARK H PARENT 76 49 50 60
REMARK Flexibility Score: inf
ROOT
ATOM      1  C   UNL A   1      34.194  29.142  26.777  1.00  0.00     0.188 C 
ENDROOT
BRANCH   1   2
ATOM      2  O   UNL A   1      33.446  28.218  25.995  1.00  0.00    -0.376 OA
BRANCH   2   3
ATOM      3  C   UNL A   1      33.681  28.141  24.592  1.00  0.00     0.202 C 
BRANCH   3   4
ATOM      4  C   UNL A   1      33.043  29.206  23.685  1.00  0.00     0.261 C 
BRANCH   4   5
ATOM      5  O   UNL A   1      32.178  28.707  22.635  1.00  0.00    -0.463 OA
BRANCH   5   6
ATOM      6  C   UNL A   1      30.842  28.766  22.870  1.00  0.00     0.313 C 
ATOM      7  O   UNL A   1      30.246  29.821  23.083  1.00  0.00    -0.252 OA
BRANCH   6   8
ATOM      8  C   UNL A   1      30.078  27.437  22.844  1.00  0.00     0.126 C 
ATOM      9  C   UNL A   1      28.672  27.673  23.390  1.00  0.00     0.025 C 
BRANCH   8  10
ATOM     10  C   UNL A   1      30.675  26.154  23.426  1.00  0.00    -0.034 A 
ATOM     11  C   UNL A   1      31.850  23.731  24.410  1.00  0.00    -0.017 A 
ATOM     12  C   UNL A   1      31.008  24.524  25.213  1.00  0.00     0.009 A 
ATOM     13  C   UNL A   1      32.087  24.168  23.102  1.00  0.00     0.009 A 
ATOM     14  C   UNL A   1      30.423  25.710  24.729  1.00  0.00     0.005 A 
ATOM     15  C   UNL A   1      31.505  25.350  22.616  1.00  0.00     0.005 A 
BRANCH  11  16
ATOM     16  C   UNL A   1      32.386  22.449  24.903  1.00  0.00     0.001 A 
ATOM     17  C   UNL A   1      32.886  20.070  24.693  1.00  0.00    -0.007 A 
ATOM     18  C   UNL A   1      33.405  20.126  25.985  1.00  0.00     0.119 A 
ATOM     19  C   UNL A   1      32.358  21.256  24.157  1.00  0.00     0.020 A 
ATOM     20  N   UNL A   1      33.452  21.243  26.743  1.00  0.00    -0.263 NA
ATOM     21  C   UNL A   1      32.946  22.366  26.182  1.00  0.00     0.119 A 
BRANCH  17  22
ATOM     22  C   UNL A   1      32.896  18.778  23.995  1.00  0.00     0.005 C 
ATOM     23  C   UNL A   1      33.939  16.617  23.291  1.00  0.00     0.035 C 
ATOM     24  C   UNL A   1      33.972  17.981  23.907  1.00  0.00    -0.030 C 
ENDBRANCH  17  22
ENDBRANCH  11  16
ENDBRANCH   8  10
ENDBRANCH   6   8
ENDBRANCH   5   6
ENDBRANCH   4   5
ENDBRANCH   3   4
ENDBRANCH   2   3
ENDBRANCH   1   2
BRANCH   1  25
ATOM     25  C   UNL A   1      33.569  30.495  27.140  1.00  0.00     0.188 C 
BRANCH  25  26
ATOM     26  O   UNL A   1      32.211  30.616  26.788  1.00  0.00    -0.376 OA
BRANCH  26  27
ATOM     27  C   UNL A   1      31.654  31.914  26.795  1.00  0.00     0.202 C 
BRANCH  27  28
ATOM     28  C   UNL A   1      32.601  33.049  27.207  1.00  0.00     0.261 C 
BRANCH  28  29
ATOM     29  O   UNL A   1      32.088  33.988  28.171  1.00  0.00    -0.460 OA
BRANCH  29  30
ATOM     30  C   UNL A   1      32.929  34.957  28.610  1.00  0.00     0.338 C 
ATOM     31  O   UNL A   1      32.675  36.135  28.760  1.00  0.00    -0.246 OA
BRANCH  30  32
ATOM     32  C   UNL A   1      34.164  34.287  29.089  1.00  0.00     0.060 A 
ATOM     33  C   UNL A   1      34.075  33.332  30.113  1.00  0.00     0.016 A 
ATOM     34  C   UNL A   1      35.400  34.585  28.514  1.00  0.00     0.016 A 
ATOM     35  C   UNL A   1      35.226  32.684  30.573  1.00  0.00     0.010 A 
ATOM     36  C   UNL A   1      36.553  33.952  28.991  1.00  0.00     0.010 A 
ATOM     37  C   UNL A   1      36.477  33.014  30.037  1.00  0.00    -0.014 A 
BRANCH  37  38
ATOM     38  C   UNL A   1      37.728  32.513  30.661  1.00  0.00     0.031 A 
ATOM     39  C   UNL A   1      38.385  31.293  30.077  1.00  0.00     0.074 A 
ATOM     40  C   UNL A   1      38.264  33.105  31.743  1.00  0.00     0.049 A 
ATOM     41  N   UNL A   1      39.405  30.603  30.518  1.00  0.00    -0.248 NA
ATOM     42  C   UNL A   1      37.801  30.780  28.829  1.00  0.00     0.031 C 
ATOM     43  C   UNL A   1      37.751  34.311  32.389  1.00  0.00     0.029 A 
ATOM     44  N   UNL A   1      39.350  32.747  32.507  1.00  0.00    -0.354 N 
ATOM     45  C   UNL A   1      39.578  29.566  29.609  1.00  0.00     0.074 A 
ATOM     46  C   UNL A   1      38.539  29.702  28.611  1.00  0.00     0.031 C 
ATOM     47  C   UNL A   1      38.504  34.576  33.472  1.00  0.00     0.029 A 
ATOM     48  C   UNL A   1      39.523  33.537  33.617  1.00  0.00     0.049 A 
ATOM     49  H   UNL A   1      39.944  31.995  32.280  1.00  0.00     0.167 HD
ATOM     50  C   UNL A   1      40.519  28.591  29.604  1.00  0.00     0.037 A 
ATOM     51  C   UNL A   1      40.378  33.414  34.651  1.00  0.00     0.037 A 
ATOM     52  C   UNL A   1      41.544  28.447  30.605  1.00  0.00     0.049 A 
ATOM     53  C   UNL A   1      41.366  32.275  34.673  1.00  0.00     0.074 A 
ATOM     54  C   UNL A   1      42.555  27.505  30.675  1.00  0.00     0.029 A 
ATOM     55  N   UNL A   1      41.677  29.258  31.722  1.00  0.00    -0.354 N 
ATOM     56  N   UNL A   1      41.544  31.316  33.795  1.00  0.00    -0.248 NA
ATOM     57  C   UNL A   1      42.272  32.200  35.829  1.00  0.00     0.031 C 
ATOM     58  C   UNL A   1      43.261  27.708  31.865  1.00  0.00     0.029 A 
ATOM     59  C   UNL A   1      42.731  28.817  32.505  1.00  0.00     0.049 A 
ATOM     60  H   UNL A   1      41.106  30.034  31.929  1.00  0.00     0.167 HD
ATOM     61  C   UNL A   1      42.593  30.541  34.280  1.00  0.00     0.074 A 
ATOM     62  C   UNL A   1      43.021  31.150  35.522  1.00  0.00     0.031 C 
ATOM     63  C   UNL A   1      43.151  29.428  33.742  1.00  0.00     0.037 A 
BRANCH  50  64
ATOM     64  C   UNL A   1      40.452  27.580  28.494  1.00  0.00     0.057 A 
ATOM     65  C   UNL A   1      41.153  27.749  27.291  1.00  0.00     0.134 A 
ATOM     66  C   UNL A   1      39.681  26.420  28.634  1.00  0.00     0.134 A 
ATOM     67  F   UNL A   1      41.900  28.844  27.087  1.00  0.00    -0.206 F 
ATOM     68  C   UNL A   1      41.058  26.818  26.254  1.00  0.00     0.040 A 
ATOM     69  C   UNL A   1      39.604  25.468  27.617  1.00  0.00     0.040 A 
ATOM     70  F   UNL A   1      38.990  26.191  29.760  1.00  0.00    -0.206 F 
ATOM     71  C   UNL A   1      40.285  25.671  26.418  1.00  0.00     0.006 A 
ENDBRANCH  50  64
BRANCH  51  72
ATOM     72  C   UNL A   1      40.318  34.380  35.779  1.00  0.00     0.057 A 
ATOM     73  C   UNL A   1      39.537  34.130  36.913  1.00  0.00     0.134 A 
ATOM     74  C   UNL A   1      41.035  35.582  35.743  1.00  0.00     0.134 A 
ATOM     75  F   UNL A   1      38.804  33.011  36.995  1.00  0.00    -0.206 F 
ATOM     76  C   UNL A   1      39.464  35.045  37.966  1.00  0.00     0.040 A 
ATOM     77  C   UNL A   1      40.993  36.492  36.800  1.00  0.00     0.040 A 
ATOM     78  F   UNL A   1      41.799  35.885  34.682  1.00  0.00    -0.206 F 
ATOM     79  C   UNL A   1      40.200  36.226  37.914  1.00  0.00     0.006 A 
ENDBRANCH  51  72
BRANCH  63  80
ATOM     80  C   UNL A   1      44.308  28.806  34.474  1.00  0.00     0.057 A 
ATOM     81  C   UNL A   1      44.131  27.782  35.413  1.00  0.00     0.134 A 
ATOM     82  C   UNL A   1      45.623  29.205  34.197  1.00  0.00     0.134 A 
ATOM     83  F   UNL A   1      42.898  27.360  35.734  1.00  0.00    -0.206 F 
ATOM     84  C   UNL A   1      45.217  27.191  36.063  1.00  0.00     0.040 A 
ATOM     85  C   UNL A   1      46.718  28.601  34.818  1.00  0.00     0.040 A 
ATOM     86  F   UNL A   1      45.868  30.173  33.301  1.00  0.00    -0.206 F 
ATOM     87  C   UNL A   1      46.515  27.594  35.759  1.00  0.00     0.006 A 
ENDBRANCH  63  80
ENDBRANCH  37  38
ENDBRANCH  30  32
ENDBRANCH  29  30
ENDBRANCH  28  29
ENDBRANCH  27  28
ENDBRANCH  26  27
ENDBRANCH  25  26
ENDBRANCH   1  25
TORSDOF 20
ENDMDL
MODEL 3
REMARK VINA RESULT:     -10.5      3.855      6.032
REMARK SMILES C/C=C/c1cncc(-c2ccc([C@@H](C)C(=O)OCCOCCOCCOC(=O)c3ccc(-c4c5nc(c(-c6c(F)cccc6F)c6ccc([nH]6)c(-c6c(F)cccc6F)c6nc(c(-c7c(F)cccc7F)c7ccc4[nH]7)C=C6)C=C5)cc3)cc2)c1
REMARK SMILES IDX 21 1 20 2 19 3 18 4 17 5 15 6 16 7 13 8 14 9 12 10 9 11
REMARK SMILES IDX 10 12 84 13 11 14 83 15 8 16 4 17 5 18 85 19 6 20 7 21 3 22
REMARK SMILES IDX 1 23 2 24 22 25 23 26 24 27 25 28 26 29 27 30 28 31 29 32
REMARK SMILES IDX 30 33 82 34 31 35 81 36 32 37 33 38 34 39 75 40 35 41 80 42
REMARK SMILES IDX 74 43 76 44 36 45 79 46 73 47 72 48 37 50 63 51 46 52 62 53
REMARK SMILES IDX 47 54 50 55 61 56 77 57 48 58 49 59 60 61 78 62 51 63 38 64
REMARK SMILES IDX 39 65 44 66 40 67 41 68 43 69 45 70 42 71 64 72 65 73 70 74
REMARK SMILES IDX 66 75 67 76 69 77 71 78 68 79 52 80 53 81 58 82 54 83 55 84
REMARK SMILES IDX 57 85 59 86 56 87
REMARK H PARENT 76 49 50 60
REMARK Flexibility Score: inf
ROOT
ATOM      1  C   UNL A   1      33.974  31.139  27.450  1.00  0.00     0.188 C 
ENDROOT
BRANCH   1   2
ATOM      2  O   UNL A   1      32.638  30.681  27.269  1.00  0.00    -0.376 OA
BRANCH   2   3
ATOM      3  C   UNL A   1      32.145  30.474  25.949  1.00  0.00     0.202 C 
BRANCH   3   4
ATOM      4  C   UNL A   1      31.766  29.044  25.527  1.00  0.00     0.261 C 
BRANCH   4   5
ATOM      5  O   UNL A   1      31.768  28.784  24.102  1.00  0.00    -0.463 OA
BRANCH   5   6
ATOM      6  C   UNL A   1      30.558  28.750  23.490  1.00  0.00     0.313 C 
ATOM      7  O   UNL A   1      29.912  29.764  23.224  1.00  0.00    -0.252 OA
BRANCH   6   8
ATOM      8  C   UNL A   1      30.013  27.367  23.116  1.00  0.00     0.126 C 
ATOM      9  C   UNL A   1      28.540  27.299  23.513  1.00  0.00     0.025 C 
BRANCH   8  10
ATOM     10  C   UNL A   1      30.738  26.081  23.515  1.00  0.00    -0.034 A 
ATOM     11  C   UNL A   1      32.181  23.692  24.175  1.00  0.00    -0.017 A 
ATOM     12  C   UNL A   1      31.027  24.079  24.882  1.00  0.00     0.009 A 
ATOM     13  C   UNL A   1      32.597  24.519  23.126  1.00  0.00     0.009 A 
ATOM     14  C   UNL A   1      30.311  25.246  24.554  1.00  0.00     0.005 A 
ATOM     15  C   UNL A   1      31.886  25.684  22.795  1.00  0.00     0.005 A 
BRANCH  11  16
ATOM     16  C   UNL A   1      32.869  22.423  24.475  1.00  0.00     0.001 A 
ATOM     17  C   UNL A   1      34.847  21.076  24.956  1.00  0.00    -0.007 A 
ATOM     18  C   UNL A   1      34.006  19.966  24.997  1.00  0.00     0.119 A 
ATOM     19  C   UNL A   1      34.258  22.321  24.678  1.00  0.00     0.020 A 
ATOM     20  N   UNL A   1      32.670  20.010  24.806  1.00  0.00    -0.263 NA
ATOM     21  C   UNL A   1      32.143  21.231  24.554  1.00  0.00     0.119 A 
BRANCH  17  22
ATOM     22  C   UNL A   1      36.284  20.870  25.175  1.00  0.00     0.005 C 
ATOM     23  C   UNL A   1      38.418  19.580  24.994  1.00  0.00     0.035 C 
ATOM     24  C   UNL A   1      36.935  19.736  24.870  1.00  0.00    -0.030 C 
ENDBRANCH  17  22
ENDBRANCH  11  16
ENDBRANCH   8  10
ENDBRANCH   6   8
ENDBRANCH   5   6
ENDBRANCH   4   5
ENDBRANCH   3   4
ENDBRANCH   2   3
ENDBRANCH   1   2
BRANCH   1  25
ATOM     25  C   UNL A   1      34.336  31.907  28.728  1.00  0.00     0.188 C 
BRANCH  25  26
ATOM     26  O   UNL A   1      34.671  33.258  28.513  1.00  0.00    -0.376 OA
BRANCH  26  27
ATOM     27  C   UNL A   1      34.074  34.215  29.364  1.00  0.00     0.202 C 
BRANCH  27  28
ATOM     28  C   UNL A   1      34.402  34.083  30.857  1.00  0.00     0.261 C 
BRANCH  28  29
ATOM     29  O   UNL A   1      35.773  33.788  31.186  1.00  0.00    -0.460 OA
BRANCH  29  30
ATOM     30  C   UNL A   1      36.008  32.728  31.998  1.00  0.00     0.338 C 
ATOM     31  O   UNL A   1      35.329  32.355  32.933  1.00  0.00    -0.246 OA
BRANCH  30  32
ATOM     32  C   UNL A   1      37.135  31.962  31.410  1.00  0.00     0.060 A 
ATOM     33  C   UNL A   1      38.027  31.289  32.259  1.00  0.00     0.016 A 
ATOM     34  C   UNL A   1      37.298  31.892  30.025  1.00  0.00     0.016 A 
ATOM     35  C   UNL A   1      39.091  30.555  31.723  1.00  0.00     0.010 A 
ATOM     36  C   UNL A   1      38.375  31.176  29.493  1.00  0.00     0.010 A 
ATOM     37  C   UNL A   1      39.291  30.521  30.337  1.00  0.00    -0.014 A 
BRANCH  37  38
ATOM     38  C   UNL A   1      40.533  29.946  29.762  1.00  0.00     0.031 A 
ATOM     39  C   UNL A   1      41.701  30.858  29.510  1.00  0.00     0.074 A 
ATOM     40  C   UNL A   1      40.622  28.643  29.437  1.00  0.00     0.049 A 
ATOM     41  N   UNL A   1      42.836  30.615  28.908  1.00  0.00    -0.248 NA
ATOM     42  C   UNL A   1      41.559  32.238  30.001  1.00  0.00     0.031 C 
ATOM     43  C   UNL A   1      39.582  27.643  29.657  1.00  0.00     0.029 A 
ATOM     44  N   UNL A   1      41.638  27.948  28.822  1.00  0.00    -0.354 N 
ATOM     45  C   UNL A   1      43.540  31.813  28.935  1.00  0.00     0.074 A 
ATOM     46  C   UNL A   1      42.691  32.787  29.585  1.00  0.00     0.031 C 
ATOM     47  C   UNL A   1      39.999  26.466  29.156  1.00  0.00     0.029 A 
ATOM     48  C   UNL A   1      41.317  26.642  28.545  1.00  0.00     0.049 A 
ATOM     49  H   UNL A   1      42.509  28.349  28.602  1.00  0.00     0.167 HD
ATOM     50  C   UNL A   1      44.783  32.077  28.464  1.00  0.00     0.037 A 
ATOM     51  C   UNL A   1      41.989  25.707  27.844  1.00  0.00     0.037 A 
ATOM     52  C   UNL A   1      45.622  31.111  27.803  1.00  0.00     0.049 A 
ATOM     53  C   UNL A   1      43.336  26.041  27.255  1.00  0.00     0.074 A 
ATOM     54  C   UNL A   1      46.904  31.277  27.310  1.00  0.00     0.029 A 
ATOM     55  N   UNL A   1      45.255  29.802  27.527  1.00  0.00    -0.354 N 
ATOM     56  N   UNL A   1      44.009  27.167  27.310  1.00  0.00    -0.248 NA
ATOM     57  C   UNL A   1      44.018  24.976  26.504  1.00  0.00     0.031 C 
ATOM     58  C   UNL A   1      47.288  30.089  26.681  1.00  0.00     0.029 A 
ATOM     59  C   UNL A   1      46.272  29.160  26.839  1.00  0.00     0.049 A 
ATOM     60  H   UNL A   1      44.397  29.390  27.782  1.00  0.00     0.167 HD
ATOM     61  C   UNL A   1      45.198  26.938  26.625  1.00  0.00     0.074 A 
ATOM     62  C   UNL A   1      45.161  25.562  26.175  1.00  0.00     0.031 C 
ATOM     63  C   UNL A   1      46.227  27.790  26.393  1.00  0.00     0.037 A 
BRANCH  50  64
ATOM     64  C   UNL A   1      45.288  33.483  28.616  1.00  0.00     0.057 A 
ATOM     65  C   UNL A   1      45.066  34.463  27.638  1.00  0.00     0.134 A 
ATOM     66  C   UNL A   1      46.003  33.864  29.758  1.00  0.00     0.134 A 
ATOM     67  F   UNL A   1      44.400  34.163  26.512  1.00  0.00    -0.206 F 
ATOM     68  C   UNL A   1      45.569  35.759  27.775  1.00  0.00     0.040 A 
ATOM     69  C   UNL A   1      46.483  35.164  29.920  1.00  0.00     0.040 A 
ATOM     70  F   UNL A   1      46.248  32.979  30.736  1.00  0.00    -0.206 F 
ATOM     71  C   UNL A   1      46.276  36.114  28.922  1.00  0.00     0.006 A 
ENDBRANCH  50  64
BRANCH  51  72
ATOM     72  C   UNL A   1      41.384  24.368  27.629  1.00  0.00     0.057 A 
ATOM     73  C   UNL A   1      40.373  24.167  26.682  1.00  0.00     0.134 A 
ATOM     74  C   UNL A   1      41.797  23.256  28.374  1.00  0.00     0.134 A 
ATOM     75  F   UNL A   1      39.913  25.197  25.957  1.00  0.00    -0.206 F 
ATOM     76  C   UNL A   1      39.789  22.913  26.490  1.00  0.00     0.040 A 
ATOM     77  C   UNL A   1      41.242  21.992  28.173  1.00  0.00     0.040 A 
ATOM     78  F   UNL A   1      42.759  23.381  29.302  1.00  0.00    -0.206 F 
ATOM     79  C   UNL A   1      40.230  21.819  27.232  1.00  0.00     0.006 A 
ENDBRANCH  51  72
BRANCH  63  80
ATOM     80  C   UNL A   1      47.417  27.257  25.643  1.00  0.00     0.057 A 
ATOM     81  C   UNL A   1      47.537  27.383  24.253  1.00  0.00     0.134 A 
ATOM     82  C   UNL A   1      48.480  26.655  26.329  1.00  0.00     0.134 A 
ATOM     83  F   UNL A   1      46.551  27.940  23.533  1.00  0.00    -0.206 F 
ATOM     84  C   UNL A   1      48.662  26.913  23.572  1.00  0.00     0.040 A 
ATOM     85  C   UNL A   1      49.622  26.208  25.663  1.00  0.00     0.040 A 
ATOM     86  F   UNL A   1      48.437  26.511  27.662  1.00  0.00    -0.206 F 
ATOM     87  C   UNL A   1      49.713  26.331  24.278  1.00  0.00     0.006 A 
ENDBRANCH  63  80
ENDBRANCH  37  38
ENDBRANCH  30  32
ENDBRANCH  29  30
ENDBRANCH  28  29
ENDBRANCH  27  28
ENDBRANCH  26  27
ENDBRANCH  25  26
ENDBRANCH   1  25
TORSDOF 20
ENDMDL
