MODEL 1
REMARK VINA RESULT:     -11.7      0.000      0.000
REMARK SMILES CC1(C)CCC[C@H]1NC(=O)N[C@@H]1COC[C@@]1(C)C(=O)OCCOCCOCCOC(=O)c1ccc(-c2c3nc(c(-c4c(F)cccc4F)c4ccc([nH]4)c(-c4c(F)cccc4F)c4nc(c(-c5c(F)cccc5F)c5ccc2[nH]5)C=C4)C=C3)cc1
REMARK SMILES IDX 24 1 23 2 22 3 21 4 20 5 18 6 19 7 16 8 12 9 13 10 14 11
REMARK SMILES IDX 15 12 17 13 11 14 8 15 9 16 10 18 7 20 1 21 2 22 3 23 4 24
REMARK SMILES IDX 5 25 6 26 25 27 26 28 27 29 28 30 29 31 30 32 31 33 32 34
REMARK SMILES IDX 33 35 85 36 34 37 84 38 35 39 36 40 37 41 78 42 38 43 83 44
REMARK SMILES IDX 77 45 79 46 39 47 82 48 76 49 75 50 40 52 66 53 49 54 65 55
REMARK SMILES IDX 50 56 53 57 64 58 80 59 51 60 52 61 63 63 81 64 54 65 41 66
REMARK SMILES IDX 42 67 47 68 43 69 44 70 46 71 48 72 45 73 67 74 68 75 73 76
REMARK SMILES IDX 69 77 70 78 72 79 74 80 71 81 55 82 56 83 61 84 57 85 58 86
REMARK SMILES IDX 60 87 62 88 59 89
REMARK H PARENT 8 17 11 19 79 51 53 62
REMARK Flexibility Score: inf
ROOT
ATOM      1  C   UNL A   1      39.100  22.116  26.112  1.00  0.00     0.188 C 
ENDROOT
BRANCH   1   2
ATOM      2  O   UNL A   1      37.711  22.023  25.831  1.00  0.00    -0.376 OA
BRANCH   2   3
ATOM      3  C   UNL A   1      37.364  21.759  24.470  1.00  0.00     0.202 C 
BRANCH   3   4
ATOM      4  C   UNL A   1      36.489  22.828  23.792  1.00  0.00     0.261 C 
BRANCH   4   5
ATOM      5  O   UNL A   1      35.112  22.700  24.183  1.00  0.00    -0.463 OA
BRANCH   5   6
ATOM      6  C   UNL A   1      34.718  22.953  25.466  1.00  0.00     0.316 C 
ATOM      7  O   UNL A   1      34.976  23.973  26.087  1.00  0.00    -0.251 OA
BRANCH   6   8
ATOM      8  C   UNL A   1      33.788  21.833  25.971  1.00  0.00     0.111 C 
ATOM      9  C   UNL A   1      32.359  21.889  25.410  1.00  0.00     0.129 C 
ATOM     10  C   UNL A   1      32.130  20.588  24.647  1.00  0.00     0.186 C 
ATOM     11  O   UNL A   1      33.222  19.716  24.936  1.00  0.00    -0.378 OA
ATOM     12  C   UNL A   1      34.319  20.508  25.401  1.00  0.00     0.181 C 
ATOM     13  C   UNL A   1      33.803  21.871  27.493  1.00  0.00     0.028 C 
BRANCH   9  14
ATOM     14  N   UNL A   1      31.260  22.220  26.346  1.00  0.00    -0.332 N 
ATOM     15  N   UNL A   1      30.744  24.550  26.620  1.00  0.00    -0.335 N 
ATOM     16  C   UNL A   1      30.579  23.248  26.853  1.00  0.00     0.315 C 
ATOM     17  H   UNL A   1      30.034  25.076  27.053  1.00  0.00     0.165 HD
ATOM     18  O   UNL A   1      29.660  22.946  27.625  1.00  0.00    -0.249 OA
ATOM     19  H   UNL A   1      30.907  21.385  26.730  1.00  0.00     0.165 HD
BRANCH  15  20
ATOM     20  C   UNL A   1      31.675  25.420  25.906  1.00  0.00     0.089 C 
ATOM     21  C   UNL A   1      30.484  24.549  23.667  1.00  0.00     0.013 C 
ATOM     22  C   UNL A   1      31.375  25.590  24.371  1.00  0.00    -0.015 C 
ATOM     23  C   UNL A   1      32.713  25.652  23.618  1.00  0.00     0.013 C 
ATOM     24  C   UNL A   1      30.675  26.953  24.281  1.00  0.00     0.008 C 
ATOM     25  C   UNL A   1      31.379  27.803  25.318  1.00  0.00     0.003 C 
ATOM     26  C   UNL A   1      31.626  26.853  26.484  1.00  0.00     0.025 C 
ENDBRANCH  15  20
ENDBRANCH   9  14
ENDBRANCH   6   8
ENDBRANCH   5   6
ENDBRANCH   4   5
ENDBRANCH   3   4
ENDBRANCH   2   3
ENDBRANCH   1   2
BRANCH   1  27
ATOM     27  C   UNL A   1      39.882  20.802  26.128  1.00  0.00     0.188 C 
BRANCH  27  28
ATOM     28  O   UNL A   1      40.524  20.472  27.349  1.00  0.00    -0.376 OA
BRANCH  28  29
ATOM     29  C   UNL A   1      41.898  20.076  27.248  1.00  0.00     0.202 C 
BRANCH  29  30
ATOM     30  C   UNL A   1      42.792  20.698  26.148  1.00  0.00     0.261 C 
BRANCH  30  31
ATOM     31  O   UNL A   1      43.431  21.956  26.452  1.00  0.00    -0.460 OA
BRANCH  31  32
ATOM     32  C   UNL A   1      43.138  23.020  25.671  1.00  0.00     0.338 C 
ATOM     33  O   UNL A   1      43.104  23.031  24.450  1.00  0.00    -0.246 OA
BRANCH  32  34
ATOM     34  C   UNL A   1      42.601  24.107  26.537  1.00  0.00     0.060 A 
ATOM     35  C   UNL A   1      43.112  25.400  26.368  1.00  0.00     0.016 A 
ATOM     36  C   UNL A   1      41.589  23.895  27.471  1.00  0.00     0.016 A 
ATOM     37  C   UNL A   1      42.669  26.470  27.143  1.00  0.00     0.010 A 
ATOM     38  C   UNL A   1      41.142  24.966  28.260  1.00  0.00     0.010 A 
ATOM     39  C   UNL A   1      41.702  26.253  28.124  1.00  0.00    -0.014 A 
BRANCH  39  40
ATOM     40  C   UNL A   1      41.407  27.307  29.127  1.00  0.00     0.031 A 
ATOM     41  C   UNL A   1      42.219  27.322  30.392  1.00  0.00     0.074 A 
ATOM     42  C   UNL A   1      40.466  28.248  28.928  1.00  0.00     0.049 A 
ATOM     43  N   UNL A   1      42.022  27.982  31.503  1.00  0.00    -0.248 NA
ATOM     44  C   UNL A   1      43.417  26.467  30.401  1.00  0.00     0.031 C 
ATOM     45  C   UNL A   1      39.690  28.431  27.705  1.00  0.00     0.029 A 
ATOM     46  N   UNL A   1      39.992  29.221  29.777  1.00  0.00    -0.354 N 
ATOM     47  C   UNL A   1      43.044  27.586  32.358  1.00  0.00     0.074 A 
ATOM     48  C   UNL A   1      43.855  26.628  31.640  1.00  0.00     0.031 C 
ATOM     49  C   UNL A   1      38.814  29.435  27.890  1.00  0.00     0.029 A 
ATOM     50  C   UNL A   1      38.924  29.918  29.265  1.00  0.00     0.049 A 
ATOM     51  H   UNL A   1      40.379  29.399  30.664  1.00  0.00     0.167 HD
ATOM     52  C   UNL A   1      43.276  27.982  33.632  1.00  0.00     0.037 A 
ATOM     53  C   UNL A   1      38.095  30.802  29.858  1.00  0.00     0.037 A 
ATOM     54  C   UNL A   1      42.476  28.951  34.330  1.00  0.00     0.049 A 
ATOM     55  C   UNL A   1      38.303  31.150  31.312  1.00  0.00     0.074 A 
ATOM     56  C   UNL A   1      42.622  29.417  35.625  1.00  0.00     0.029 A 
ATOM     57  N   UNL A   1      41.380  29.606  33.789  1.00  0.00    -0.354 N 
ATOM     58  N   UNL A   1      39.237  30.738  32.137  1.00  0.00    -0.248 NA
ATOM     59  C   UNL A   1      37.335  32.076  31.921  1.00  0.00     0.031 C 
ATOM     60  C   UNL A   1      41.579  30.310  35.886  1.00  0.00     0.029 A 
ATOM     61  C   UNL A   1      40.824  30.453  34.733  1.00  0.00     0.049 A 
ATOM     62  H   UNL A   1      41.046  29.487  32.871  1.00  0.00     0.167 HD
ATOM     63  C   UNL A   1      38.992  31.382  33.345  1.00  0.00     0.074 A 
ATOM     64  C   UNL A   1      37.823  32.212  33.147  1.00  0.00     0.031 C 
ATOM     65  C   UNL A   1      39.676  31.295  34.512  1.00  0.00     0.037 A 
BRANCH  52  66
ATOM     66  C   UNL A   1      44.405  27.322  34.367  1.00  0.00     0.057 A 
ATOM     67  C   UNL A   1      44.237  26.130  35.083  1.00  0.00     0.134 A 
ATOM     68  C   UNL A   1      45.687  27.885  34.341  1.00  0.00     0.134 A 
ATOM     69  F   UNL A   1      43.031  25.548  35.165  1.00  0.00    -0.206 F 
ATOM     70  C   UNL A   1      45.301  25.535  35.767  1.00  0.00     0.040 A 
ATOM     71  C   UNL A   1      46.764  27.284  34.994  1.00  0.00     0.040 A 
ATOM     72  F   UNL A   1      45.918  29.025  33.672  1.00  0.00    -0.206 F 
ATOM     73  C   UNL A   1      46.570  26.109  35.716  1.00  0.00     0.006 A 
ENDBRANCH  52  66
BRANCH  53  74
ATOM     74  C   UNL A   1      36.953  31.381  29.104  1.00  0.00     0.057 A 
ATOM     75  C   UNL A   1      36.967  32.710  28.666  1.00  0.00     0.134 A 
ATOM     76  C   UNL A   1      35.801  30.630  28.832  1.00  0.00     0.134 A 
ATOM     77  F   UNL A   1      38.026  33.493  28.921  1.00  0.00    -0.206 F 
ATOM     78  C   UNL A   1      35.876  33.277  28.001  1.00  0.00     0.040 A 
ATOM     79  C   UNL A   1      34.716  31.174  28.143  1.00  0.00     0.040 A 
ATOM     80  F   UNL A   1      35.716  29.352  29.230  1.00  0.00    -0.206 F 
ATOM     81  C   UNL A   1      34.748  32.504  27.732  1.00  0.00     0.006 A 
ENDBRANCH  53  74
BRANCH  65  82
ATOM     82  C   UNL A   1      39.234  32.166  35.652  1.00  0.00     0.057 A 
ATOM     83  C   UNL A   1      39.670  33.489  35.794  1.00  0.00     0.134 A 
ATOM     84  C   UNL A   1      38.287  31.695  36.572  1.00  0.00     0.134 A 
ATOM     85  F   UNL A   1      40.583  33.998  34.953  1.00  0.00    -0.206 F 
ATOM     86  C   UNL A   1      39.188  34.309  36.817  1.00  0.00     0.040 A 
ATOM     87  C   UNL A   1      37.776  32.514  37.581  1.00  0.00     0.040 A 
ATOM     88  F   UNL A   1      37.818  30.441  36.486  1.00  0.00    -0.206 F 
ATOM     89  C   UNL A   1      38.230  33.824  37.707  1.00  0.00     0.006 A 
ENDBRANCH  65  82
ENDBRANCH  39  40
ENDBRANCH  32  34
ENDBRANCH  31  32
ENDBRANCH  30  31
ENDBRANCH  29  30
ENDBRANCH  28  29
ENDBRANCH  27  28
ENDBRANCH   1  27
TORSDOF 19
ENDMDL
MODEL 2
REMARK VINA RESULT:     -11.2      1.242      2.294
REMARK SMILES CC1(C)CCC[C@H]1NC(=O)N[C@@H]1COC[C@@]1(C)C(=O)OCCOCCOCCOC(=O)c1ccc(-c2c3nc(c(-c4c(F)cccc4F)c4ccc([nH]4)c(-c4c(F)cccc4F)c4nc(c(-c5c(F)cccc5F)c5ccc2[nH]5)C=C4)C=C3)cc1
REMARK SMILES IDX 24 1 23 2 22 3 21 4 20 5 18 6 19 7 16 8 12 9 13 10 14 11
REMARK SMILES IDX 15 12 17 13 11 14 8 15 9 16 10 18 7 20 1 21 2 22 3 23 4 24
REMARK SMILES IDX 5 25 6 26 25 27 26 28 27 29 28 30 29 31 30 32 31 33 32 34
REMARK SMILES IDX 33 35 85 36 34 37 84 38 35 39 36 40 37 41 78 42 38 43 83 44
REMARK SMILES IDX 77 45 79 46 39 47 82 48 76 49 75 50 40 52 66 53 49 54 65 55
REMARK SMILES IDX 50 56 53 57 64 58 80 59 51 60 52 61 63 63 81 64 54 65 41 66
REMARK SMILES IDX 42 67 47 68 43 69 44 70 46 71 48 72 45 73 67 74 68 75 73 76
REMARK SMILES IDX 69 77 70 78 72 79 74 80 71 81 55 82 56 83 61 84 57 85 58 86
REMARK SMILES IDX 60 87 62 88 59 89
REMARK H PARENT 8 17 11 19 79 51 53 62
REMARK Flexibility Score: inf
ROOT
ATOM      1  C   UNL A   1      38.055  20.965  25.376  1.00  0.00     0.188 C 
ENDROOT
BRANCH   1   2
ATOM      2  O   UNL A   1      37.406  21.584  24.275  1.00  0.00    -0.376 OA
BRANCH   2   3
ATOM      3  C   UNL A   1      36.057  22.001  24.498  1.00  0.00     0.202 C 
BRANCH   3   4
ATOM      4  C   UNL A   1      35.374  21.393  25.736  1.00  0.00     0.261 C 
BRANCH   4   5
ATOM      5  O   UNL A   1      34.408  22.297  26.296  1.00  0.00    -0.463 OA
BRANCH   5   6
ATOM      6  C   UNL A   1      33.143  22.380  25.788  1.00  0.00     0.316 C 
ATOM      7  O   UNL A   1      32.386  21.433  25.646  1.00  0.00    -0.251 OA
BRANCH   6   8
ATOM      8  C   UNL A   1      32.757  23.852  25.548  1.00  0.00     0.111 C 
ATOM      9  C   UNL A   1      32.136  24.132  24.171  1.00  0.00     0.129 C 
ATOM     10  C   UNL A   1      30.734  24.676  24.419  1.00  0.00     0.186 C 
ATOM     11  O   UNL A   1      30.611  24.946  25.814  1.00  0.00    -0.378 OA
ATOM     12  C   UNL A   1      31.604  24.184  26.508  1.00  0.00     0.181 C 
ATOM     13  C   UNL A   1      33.997  24.701  25.795  1.00  0.00     0.028 C 
BRANCH   9  14
ATOM     14  N   UNL A   1      32.919  24.943  23.210  1.00  0.00    -0.332 N 
ATOM     15  N   UNL A   1      32.905  27.321  23.545  1.00  0.00    -0.335 N 
ATOM     16  C   UNL A   1      33.262  26.199  22.921  1.00  0.00     0.315 C 
ATOM     17  H   UNL A   1      33.389  28.095  23.177  1.00  0.00     0.165 HD
ATOM     18  O   UNL A   1      34.030  26.331  21.960  1.00  0.00    -0.249 OA
ATOM     19  H   UNL A   1      33.333  24.341  22.549  1.00  0.00     0.165 HD
BRANCH  15  20
ATOM     20  C   UNL A   1      32.004  27.733  24.618  1.00  0.00     0.089 C 
ATOM     21  C   UNL A   1      34.223  28.272  26.025  1.00  0.00     0.013 C 
ATOM     22  C   UNL A   1      32.705  28.451  25.830  1.00  0.00    -0.015 C 
ATOM     23  C   UNL A   1      32.008  28.009  27.126  1.00  0.00     0.013 C 
ATOM     24  C   UNL A   1      32.429  29.941  25.585  1.00  0.00     0.008 C 
ATOM     25  C   UNL A   1      31.030  29.972  25.008  1.00  0.00     0.003 C 
ATOM     26  C   UNL A   1      30.970  28.754  24.092  1.00  0.00     0.025 C 
ENDBRANCH  15  20
ENDBRANCH   9  14
ENDBRANCH   6   8
ENDBRANCH   5   6
ENDBRANCH   4   5
ENDBRANCH   3   4
ENDBRANCH   2   3
ENDBRANCH   1   2
BRANCH   1  27
ATOM     27  C   UNL A   1      39.229  21.727  25.991  1.00  0.00     0.188 C 
BRANCH  27  28
ATOM     28  O   UNL A   1      40.078  20.981  26.849  1.00  0.00    -0.376 OA
BRANCH  28  29
ATOM     29  C   UNL A   1      41.044  20.142  26.203  1.00  0.00     0.202 C 
BRANCH  29  30
ATOM     30  C   UNL A   1      42.473  20.680  25.952  1.00  0.00     0.261 C 
BRANCH  30  31
ATOM     31  O   UNL A   1      42.832  21.921  26.597  1.00  0.00    -0.460 OA
BRANCH  31  32
ATOM     32  C   UNL A   1      42.852  23.043  25.844  1.00  0.00     0.338 C 
ATOM     33  O   UNL A   1      43.038  23.100  24.638  1.00  0.00    -0.246 OA
BRANCH  32  34
ATOM     34  C   UNL A   1      42.344  24.174  26.670  1.00  0.00     0.060 A 
ATOM     35  C   UNL A   1      42.971  25.421  26.541  1.00  0.00     0.016 A 
ATOM     36  C   UNL A   1      41.252  24.051  27.527  1.00  0.00     0.016 A 
ATOM     37  C   UNL A   1      42.563  26.527  27.284  1.00  0.00     0.010 A 
ATOM     38  C   UNL A   1      40.840  25.159  28.283  1.00  0.00     0.010 A 
ATOM     39  C   UNL A   1      41.513  26.395  28.190  1.00  0.00    -0.014 A 
BRANCH  39  40
ATOM     40  C   UNL A   1      41.233  27.474  29.171  1.00  0.00     0.031 A 
ATOM     41  C   UNL A   1      42.060  27.516  30.426  1.00  0.00     0.074 A 
ATOM     42  C   UNL A   1      40.293  28.413  28.960  1.00  0.00     0.049 A 
ATOM     43  N   UNL A   1      41.878  28.204  31.523  1.00  0.00    -0.248 NA
ATOM     44  C   UNL A   1      43.255  26.657  30.441  1.00  0.00     0.031 C 
ATOM     45  C   UNL A   1      39.504  28.570  27.742  1.00  0.00     0.029 A 
ATOM     46  N   UNL A   1      39.832  29.408  29.790  1.00  0.00    -0.354 N 
ATOM     47  C   UNL A   1      42.909  27.825  32.375  1.00  0.00     0.074 A 
ATOM     48  C   UNL A   1      43.708  26.847  31.671  1.00  0.00     0.031 C 
ATOM     49  C   UNL A   1      38.633  29.581  27.913  1.00  0.00     0.029 A 
ATOM     50  C   UNL A   1      38.761  30.097  29.275  1.00  0.00     0.049 A 
ATOM     51  H   UNL A   1      40.231  29.606  30.668  1.00  0.00     0.167 HD
ATOM     52  C   UNL A   1      43.157  28.251  33.636  1.00  0.00     0.037 A 
ATOM     53  C   UNL A   1      37.942  30.999  29.855  1.00  0.00     0.037 A 
ATOM     54  C   UNL A   1      42.368  29.240  34.320  1.00  0.00     0.049 A 
ATOM     55  C   UNL A   1      38.169  31.381  31.298  1.00  0.00     0.074 A 
ATOM     56  C   UNL A   1      42.532  29.736  35.601  1.00  0.00     0.029 A 
ATOM     57  N   UNL A   1      41.268  29.885  33.776  1.00  0.00    -0.354 N 
ATOM     58  N   UNL A   1      39.110  30.985  32.122  1.00  0.00    -0.248 NA
ATOM     59  C   UNL A   1      37.212  32.325  31.896  1.00  0.00     0.031 C 
ATOM     60  C   UNL A   1      41.495  30.639  35.853  1.00  0.00     0.029 A 
ATOM     61  C   UNL A   1      40.727  30.757  34.705  1.00  0.00     0.049 A 
ATOM     62  H   UNL A   1      40.924  29.745  32.865  1.00  0.00     0.167 HD
ATOM     63  C   UNL A   1      38.882  31.659  33.316  1.00  0.00     0.074 A 
ATOM     64  C   UNL A   1      37.714  32.489  33.112  1.00  0.00     0.031 C 
ATOM     65  C   UNL A   1      39.580  31.598  34.478  1.00  0.00     0.037 A 
BRANCH  52  66
ATOM     66  C   UNL A   1      44.292  27.604  34.375  1.00  0.00     0.057 A 
ATOM     67  C   UNL A   1      44.154  26.377  35.034  1.00  0.00     0.134 A 
ATOM     68  C   UNL A   1      45.551  28.217  34.407  1.00  0.00     0.134 A 
ATOM     69  F   UNL A   1      42.971  25.745  35.058  1.00  0.00    -0.206 F 
ATOM     70  C   UNL A   1      45.222  25.795  35.722  1.00  0.00     0.040 A 
ATOM     71  C   UNL A   1      46.633  27.631  35.064  1.00  0.00     0.040 A 
ATOM     72  F   UNL A   1      45.752  29.394  33.794  1.00  0.00    -0.206 F 
ATOM     73  C   UNL A   1      46.468  26.420  35.731  1.00  0.00     0.006 A 
ENDBRANCH  52  66
BRANCH  53  74
ATOM     74  C   UNL A   1      36.793  31.564  29.100  1.00  0.00     0.057 A 
ATOM     75  C   UNL A   1      36.791  32.894  28.665  1.00  0.00     0.134 A 
ATOM     76  C   UNL A   1      35.652  30.797  28.826  1.00  0.00     0.134 A 
ATOM     77  F   UNL A   1      37.839  33.690  28.923  1.00  0.00    -0.206 F 
ATOM     78  C   UNL A   1      35.693  33.447  28.000  1.00  0.00     0.040 A 
ATOM     79  C   UNL A   1      34.561  31.328  28.136  1.00  0.00     0.040 A 
ATOM     80  F   UNL A   1      35.584  29.518  29.221  1.00  0.00    -0.206 F 
ATOM     81  C   UNL A   1      34.576  32.660  27.728  1.00  0.00     0.006 A 
ENDBRANCH  53  74
BRANCH  65  82
ATOM     82  C   UNL A   1      39.153  32.498  35.601  1.00  0.00     0.057 A 
ATOM     83  C   UNL A   1      38.311  32.060  36.630  1.00  0.00     0.134 A 
ATOM     84  C   UNL A   1      39.667  33.799  35.695  1.00  0.00     0.134 A 
ATOM     85  F   UNL A   1      37.778  30.830  36.595  1.00  0.00    -0.206 F 
ATOM     86  C   UNL A   1      37.987  32.887  37.707  1.00  0.00     0.040 A 
ATOM     87  C   UNL A   1      39.373  34.625  36.782  1.00  0.00     0.040 A 
ATOM     88  F   UNL A   1      40.490  34.277  34.749  1.00  0.00    -0.206 F 
ATOM     89  C   UNL A   1      38.528  34.170  37.790  1.00  0.00     0.006 A 
ENDBRANCH  65  82
ENDBRANCH  39  40
ENDBRANCH  32  34
ENDBRANCH  31  32
ENDBRANCH  30  31
ENDBRANCH  29  30
ENDBRANCH  28  29
ENDBRANCH  27  28
ENDBRANCH   1  27
TORSDOF 19
ENDMDL
MODEL 3
REMARK VINA RESULT:     -11.0      3.737      9.001
REMARK SMILES CC1(C)CCC[C@H]1NC(=O)N[C@@H]1COC[C@@]1(C)C(=O)OCCOCCOCCOC(=O)c1ccc(-c2c3nc(c(-c4c(F)cccc4F)c4ccc([nH]4)c(-c4c(F)cccc4F)c4nc(c(-c5c(F)cccc5F)c5ccc2[nH]5)C=C4)C=C3)cc1
REMARK SMILES IDX 24 1 23 2 22 3 21 4 20 5 18 6 19 7 16 8 12 9 13 10 14 11
REMARK SMILES IDX 15 12 17 13 11 14 8 15 9 16 10 18 7 20 1 21 2 22 3 23 4 24
REMARK SMILES IDX 5 25 6 26 25 27 26 28 27 29 28 30 29 31 30 32 31 33 32 34
REMARK SMILES IDX 33 35 85 36 34 37 84 38 35 39 36 40 37 41 78 42 38 43 83 44
REMARK SMILES IDX 77 45 79 46 39 47 82 48 76 49 75 50 40 52 66 53 49 54 65 55
REMARK SMILES IDX 50 56 53 57 64 58 80 59 51 60 52 61 63 63 81 64 54 65 41 66
REMARK SMILES IDX 42 67 47 68 43 69 44 70 46 71 48 72 45 73 67 74 68 75 73 76
REMARK SMILES IDX 69 77 70 78 72 79 74 80 71 81 55 82 56 83 61 84 57 85 58 86
REMARK SMILES IDX 60 87 62 88 59 89
REMARK H PARENT 8 17 11 19 79 51 53 62
REMARK Flexibility Score: inf
ROOT
ATOM      1  C   UNL A   1      34.624  32.086  28.184  1.00  0.00     0.188 C 
ENDROOT
BRANCH   1   2
ATOM      2  O   UNL A   1      33.541  31.195  27.961  1.00  0.00    -0.376 OA
BRANCH   2   3
ATOM      3  C   UNL A   1      33.644  30.362  26.804  1.00  0.00     0.202 C 
BRANCH   3   4
ATOM      4  C   UNL A   1      33.729  28.851  27.084  1.00  0.00     0.261 C 
BRANCH   4   5
ATOM      5  O   UNL A   1      33.441  28.084  25.904  1.00  0.00    -0.463 OA
BRANCH   5   6
ATOM      6  C   UNL A   1      32.153  27.850  25.513  1.00  0.00     0.316 C 
ATOM      7  O   UNL A   1      31.289  27.356  26.221  1.00  0.00    -0.251 OA
BRANCH   6   8
ATOM      8  C   UNL A   1      31.909  28.421  24.103  1.00  0.00     0.111 C 
ATOM      9  C   UNL A   1      31.178  27.466  23.147  1.00  0.00     0.129 C 
ATOM     10  C   UNL A   1      29.879  28.153  22.740  1.00  0.00     0.186 C 
ATOM     11  O   UNL A   1      29.938  29.503  23.199  1.00  0.00    -0.378 OA
ATOM     12  C   UNL A   1      30.909  29.579  24.247  1.00  0.00     0.181 C 
ATOM     13  C   UNL A   1      33.254  28.864  23.545  1.00  0.00     0.028 C 
BRANCH   9  14
ATOM     14  N   UNL A   1      31.938  26.920  21.998  1.00  0.00    -0.332 N 
ATOM     15  N   UNL A   1      33.112  24.858  22.364  1.00  0.00    -0.335 N 
ATOM     16  C   UNL A   1      32.709  25.896  21.632  1.00  0.00     0.315 C 
ATOM     17  H   UNL A   1      33.591  24.201  21.808  1.00  0.00     0.165 HD
ATOM     18  O   UNL A   1      33.079  25.905  20.452  1.00  0.00    -0.249 OA
ATOM     19  H   UNL A   1      31.838  27.532  21.232  1.00  0.00     0.165 HD
BRANCH  15  20
ATOM     20  C   UNL A   1      33.047  24.412  23.754  1.00  0.00     0.089 C 
ATOM     21  C   UNL A   1      32.522  21.979  22.757  1.00  0.00     0.013 C 
ATOM     22  C   UNL A   1      32.969  22.852  23.944  1.00  0.00    -0.015 C 
ATOM     23  C   UNL A   1      32.034  22.553  25.127  1.00  0.00     0.013 C 
ATOM     24  C   UNL A   1      34.404  22.453  24.315  1.00  0.00     0.008 C 
ATOM     25  C   UNL A   1      34.898  23.597  25.175  1.00  0.00     0.003 C 
ATOM     26  C   UNL A   1      34.319  24.845  24.519  1.00  0.00     0.025 C 
ENDBRANCH  15  20
ENDBRANCH   9  14
ENDBRANCH   6   8
ENDBRANCH   5   6
ENDBRANCH   4   5
ENDBRANCH   3   4
ENDBRANCH   2   3
ENDBRANCH   1   2
BRANCH   1  27
ATOM     27  C   UNL A   1      34.426  33.141  29.273  1.00  0.00     0.188 C 
BRANCH  27  28
ATOM     28  O   UNL A   1      35.066  34.388  29.058  1.00  0.00    -0.376 OA
BRANCH  28  29
ATOM     29  C   UNL A   1      34.214  35.469  28.654  1.00  0.00     0.202 C 
BRANCH  29  30
ATOM     30  C   UNL A   1      32.904  35.738  29.433  1.00  0.00     0.261 C 
BRANCH  30  31
ATOM     31  O   UNL A   1      33.003  36.530  30.636  1.00  0.00    -0.460 OA
BRANCH  31  32
ATOM     32  C   UNL A   1      32.547  35.991  31.788  1.00  0.00     0.338 C 
ATOM     33  O   UNL A   1      31.391  35.999  32.181  1.00  0.00    -0.246 OA
BRANCH  32  34
ATOM     34  C   UNL A   1      33.627  35.151  32.376  1.00  0.00     0.060 A 
ATOM     35  C   UNL A   1      34.917  35.692  32.456  1.00  0.00     0.016 A 
ATOM     36  C   UNL A   1      33.397  33.873  32.882  1.00  0.00     0.016 A 
ATOM     37  C   UNL A   1      35.984  34.969  32.984  1.00  0.00     0.010 A 
ATOM     38  C   UNL A   1      34.469  33.135  33.409  1.00  0.00     0.010 A 
ATOM     39  C   UNL A   1      35.775  33.666  33.434  1.00  0.00    -0.014 A 
BRANCH  39  40
ATOM     40  C   UNL A   1      36.931  32.792  33.754  1.00  0.00     0.031 A 
ATOM     41  C   UNL A   1      37.642  33.014  35.060  1.00  0.00     0.074 A 
ATOM     42  C   UNL A   1      37.339  31.808  32.932  1.00  0.00     0.049 A 
ATOM     43  N   UNL A   1      38.790  32.548  35.476  1.00  0.00    -0.248 NA
ATOM     44  C   UNL A   1      36.958  33.887  36.027  1.00  0.00     0.031 C 
ATOM     45  C   UNL A   1      36.675  31.398  31.698  1.00  0.00     0.029 A 
ATOM     46  N   UNL A   1      38.436  30.982  33.014  1.00  0.00    -0.354 N 
ATOM     47  C   UNL A   1      38.988  33.109  36.732  1.00  0.00     0.074 A 
ATOM     48  C   UNL A   1      37.844  33.951  37.008  1.00  0.00     0.031 C 
ATOM     49  C   UNL A   1      37.394  30.420  31.119  1.00  0.00     0.029 A 
ATOM     50  C   UNL A   1      38.600  30.181  31.910  1.00  0.00     0.049 A 
ATOM     51  H   UNL A   1      39.045  30.968  33.787  1.00  0.00     0.167 HD
ATOM     52  C   UNL A   1      40.036  32.943  37.573  1.00  0.00     0.037 A 
ATOM     53  C   UNL A   1      39.633  29.390  31.551  1.00  0.00     0.037 A 
ATOM     54  C   UNL A   1      41.158  32.087  37.297  1.00  0.00     0.049 A 
ATOM     55  C   UNL A   1      40.842  29.301  32.451  1.00  0.00     0.074 A 
ATOM     56  C   UNL A   1      42.275  31.853  38.080  1.00  0.00     0.029 A 
ATOM     57  N   UNL A   1      41.304  31.322  36.150  1.00  0.00    -0.354 N 
ATOM     58  N   UNL A   1      41.054  29.871  33.613  1.00  0.00    -0.248 NA
ATOM     59  C   UNL A   1      41.962  28.469  31.982  1.00  0.00     0.031 C 
ATOM     60  C   UNL A   1      43.124  30.991  37.379  1.00  0.00     0.029 A 
ATOM     61  C   UNL A   1      42.505  30.635  36.192  1.00  0.00     0.049 A 
ATOM     62  H   UNL A   1      40.651  31.275  35.415  1.00  0.00     0.167 HD
ATOM     63  C   UNL A   1      42.307  29.437  34.030  1.00  0.00     0.074 A 
ATOM     64  C   UNL A   1      42.810  28.556  32.998  1.00  0.00     0.031 C 
ATOM     65  C   UNL A   1      42.980  29.739  35.169  1.00  0.00     0.037 A 
BRANCH  52  66
ATOM     66  C   UNL A   1      40.042  33.747  38.839  1.00  0.00     0.057 A 
ATOM     67  C   UNL A   1      39.370  33.332  39.994  1.00  0.00     0.134 A 
ATOM     68  C   UNL A   1      40.753  34.953  38.903  1.00  0.00     0.134 A 
ATOM     69  F   UNL A   1      38.655  32.197  39.996  1.00  0.00    -0.206 F 
ATOM     70  C   UNL A   1      39.384  34.100  41.161  1.00  0.00     0.040 A 
ATOM     71  C   UNL A   1      40.800  35.713  40.072  1.00  0.00     0.040 A 
ATOM     72  F   UNL A   1      41.421  35.408  37.832  1.00  0.00    -0.206 F 
ATOM     73  C   UNL A   1      40.107  35.290  41.204  1.00  0.00     0.006 A 
ENDBRANCH  52  66
BRANCH  53  74
ATOM     74  C   UNL A   1      39.606  28.662  30.256  1.00  0.00     0.057 A 
ATOM     75  C   UNL A   1      39.054  27.381  30.151  1.00  0.00     0.134 A 
ATOM     76  C   UNL A   1      40.164  29.216  29.095  1.00  0.00     0.134 A 
ATOM     77  F   UNL A   1      38.532  26.781  31.232  1.00  0.00    -0.206 F 
ATOM     78  C   UNL A   1      39.071  26.669  28.949  1.00  0.00     0.040 A 
ATOM     79  C   UNL A   1      40.160  28.529  27.879  1.00  0.00     0.040 A 
ATOM     80  F   UNL A   1      40.716  30.438  29.125  1.00  0.00    -0.206 F 
ATOM     81  C   UNL A   1      39.620  27.248  27.806  1.00  0.00     0.006 A 
ENDBRANCH  53  74
BRANCH  65  82
ATOM     82  C   UNL A   1      44.300  29.064  35.404  1.00  0.00     0.057 A 
ATOM     83  C   UNL A   1      44.401  27.824  36.045  1.00  0.00     0.134 A 
ATOM     84  C   UNL A   1      45.480  29.630  34.901  1.00  0.00     0.134 A 
ATOM     85  F   UNL A   1      43.312  27.233  36.559  1.00  0.00    -0.206 F 
ATOM     86  C   UNL A   1      45.630  27.175  36.187  1.00  0.00     0.040 A 
ATOM     87  C   UNL A   1      46.709  28.978  35.010  1.00  0.00     0.040 A 
ATOM     88  F   UNL A   1      45.452  30.811  34.264  1.00  0.00    -0.206 F 
ATOM     89  C   UNL A   1      46.786  27.748  35.658  1.00  0.00     0.006 A 
ENDBRANCH  65  82
ENDBRANCH  39  40
ENDBRANCH  32  34
ENDBRANCH  31  32
ENDBRANCH  30  31
ENDBRANCH  29  30
ENDBRANCH  28  29
ENDBRANCH  27  28
ENDBRANCH   1  27
TORSDOF 19
ENDMDL
