MODEL 1
REMARK VINA RESULT:      -9.4      0.000      0.000
REMARK SMILES CC(C)(C)[N@H+](CCC(=O)OCCOCCOCCOC(=O)c1ccc(-c2c3nc(c(-c4c(F)cccc4F)c4ccc([nH]4)c(-c4c(F)cccc4F)c4nc(c(-c5c(F)cccc5F)c5ccc2[nH]5)C=C4)C=C3)cc1)Cc1ccccc1C1CC1
REMARK SMILES IDX 13 1 12 2 11 3 10 4 8 5 9 6 7 7 6 8 5 9 2 11 1 12 3 13 4 14
REMARK SMILES IDX 76 15 77 16 78 17 82 18 79 19 81 20 80 21 83 22 84 23 85 24
REMARK SMILES IDX 14 25 15 26 16 27 17 28 18 29 19 30 20 31 21 32 22 33 23 34
REMARK SMILES IDX 75 35 24 36 74 37 25 38 26 39 27 40 68 41 28 42 73 43 67 44
REMARK SMILES IDX 69 45 29 46 72 47 66 48 65 49 30 51 56 52 39 53 55 54 40 55
REMARK SMILES IDX 43 56 54 57 70 58 41 59 42 60 53 62 71 63 44 64 31 65 32 66
REMARK SMILES IDX 37 67 33 68 34 69 36 70 38 71 35 72 57 73 58 74 63 75 59 76
REMARK SMILES IDX 60 77 62 78 64 79 61 80 45 81 46 82 51 83 47 84 48 85 50 86
REMARK SMILES IDX 52 87 49 88
REMARK H PARENT 5 10 69 50 43 61
REMARK Flexibility Score: inf
ROOT
ATOM      1  O   UNL A   1      35.604  32.801  27.909  1.00  0.00    -0.376 OA
ENDROOT
BRANCH   1   2
ATOM      2  C   UNL A   1      34.595  31.798  27.786  1.00  0.00     0.202 C 
BRANCH   2   3
ATOM      3  C   UNL A   1      35.115  30.393  27.484  1.00  0.00     0.261 C 
BRANCH   3   4
ATOM      4  O   UNL A   1      34.073  29.399  27.635  1.00  0.00    -0.463 OA
BRANCH   4   5
ATOM      5  C   UNL A   1      33.420  29.006  26.516  1.00  0.00     0.311 C 
ATOM      6  O   UNL A   1      32.634  29.720  25.900  1.00  0.00    -0.252 OA
BRANCH   5   7
ATOM      7  C   UNL A   1      33.788  27.621  25.997  1.00  0.00     0.184 C 
BRANCH   7   8
ATOM      8  C   UNL A   1      33.336  27.061  24.633  1.00  0.00     0.274 C 
BRANCH   8   9
ATOM      9  N   UNL A   1      32.308  26.021  24.654  1.00  0.00    -0.327 N 
ATOM     10  H   UNL A   1      32.197  25.964  25.666  1.00  0.00     0.348 HD
BRANCH   9  11
ATOM     11  C   UNL A   1      30.856  26.323  24.578  1.00  0.00     0.089 C 
ATOM     12  C   UNL A   1      30.500  27.690  23.951  1.00  0.00     0.078 C 
ATOM     13  C   UNL A   1      30.327  26.335  26.027  1.00  0.00     0.078 C 
ATOM     14  C   UNL A   1      30.017  25.277  23.796  1.00  0.00     0.078 C 
ENDBRANCH   9  11
BRANCH   9  15
ATOM     15  C   UNL A   1      32.774  24.709  24.182  1.00  0.00     0.299 C 
BRANCH  15  16
ATOM     16  C   UNL A   1      33.250  23.739  25.247  1.00  0.00     0.010 A 
ATOM     17  C   UNL A   1      32.318  23.237  26.189  1.00  0.00     0.010 A 
ATOM     18  C   UNL A   1      34.627  23.461  25.424  1.00  0.00    -0.036 A 
ATOM     19  C   UNL A   1      32.707  22.585  27.351  1.00  0.00     0.001 A 
ATOM     20  C   UNL A   1      34.982  22.793  26.626  1.00  0.00     0.004 A 
ATOM     21  C   UNL A   1      34.051  22.382  27.583  1.00  0.00     0.000 A 
BRANCH  18  22
ATOM     22  C   UNL A   1      35.783  23.744  24.469  1.00  0.00     0.020 C 
ATOM     23  C   UNL A   1      37.234  23.350  24.534  1.00  0.00     0.009 C 
ATOM     24  C   UNL A   1      36.312  22.613  23.615  1.00  0.00     0.009 C 
ENDBRANCH  18  22
ENDBRANCH  15  16
ENDBRANCH   9  15
ENDBRANCH   8   9
ENDBRANCH   7   8
ENDBRANCH   5   7
ENDBRANCH   4   5
ENDBRANCH   3   4
ENDBRANCH   2   3
ENDBRANCH   1   2
BRANCH   1  25
ATOM     25  C   UNL A   1      35.352  33.861  28.827  1.00  0.00     0.188 C 
BRANCH  25  26
ATOM     26  C   UNL A   1      34.016  33.806  29.589  1.00  0.00     0.188 C 
BRANCH  26  27
ATOM     27  O   UNL A   1      34.161  33.995  30.982  1.00  0.00    -0.376 OA
BRANCH  27  28
ATOM     28  C   UNL A   1      34.340  32.835  31.774  1.00  0.00     0.202 C 
BRANCH  28  29
ATOM     29  C   UNL A   1      34.801  33.008  33.232  1.00  0.00     0.261 C 
BRANCH  29  30
ATOM     30  O   UNL A   1      36.205  32.836  33.493  1.00  0.00    -0.460 OA
BRANCH  30  31
ATOM     31  C   UNL A   1      37.093  33.676  32.899  1.00  0.00     0.338 C 
ATOM     32  O   UNL A   1      37.249  34.849  33.127  1.00  0.00    -0.246 OA
BRANCH  31  33
ATOM     33  C   UNL A   1      38.042  32.805  32.140  1.00  0.00     0.060 A 
ATOM     34  C   UNL A   1      38.748  31.810  32.837  1.00  0.00     0.016 A 
ATOM     35  C   UNL A   1      38.128  32.871  30.745  1.00  0.00     0.016 A 
ATOM     36  C   UNL A   1      39.551  30.898  32.145  1.00  0.00     0.010 A 
ATOM     37  C   UNL A   1      38.945  31.972  30.055  1.00  0.00     0.010 A 
ATOM     38  C   UNL A   1      39.689  31.003  30.754  1.00  0.00    -0.014 A 
BRANCH  38  39
ATOM     39  C   UNL A   1      40.832  30.349  30.071  1.00  0.00     0.031 A 
ATOM     40  C   UNL A   1      42.033  31.215  29.788  1.00  0.00     0.074 A 
ATOM     41  C   UNL A   1      40.828  29.059  29.692  1.00  0.00     0.049 A 
ATOM     42  N   UNL A   1      43.124  30.943  29.123  1.00  0.00    -0.248 NA
ATOM     43  C   UNL A   1      41.981  32.585  30.329  1.00  0.00     0.031 C 
ATOM     44  C   UNL A   1      39.757  28.098  29.941  1.00  0.00     0.029 A 
ATOM     45  N   UNL A   1      41.770  28.341  28.994  1.00  0.00    -0.354 N 
ATOM     46  C   UNL A   1      43.878  32.111  29.156  1.00  0.00     0.074 A 
ATOM     47  C   UNL A   1      43.113  33.098  29.879  1.00  0.00     0.031 C 
ATOM     48  C   UNL A   1      40.096  26.916  29.389  1.00  0.00     0.029 A 
ATOM     49  C   UNL A   1      41.390  27.049  28.720  1.00  0.00     0.049 A 
ATOM     50  H   UNL A   1      42.636  28.717  28.715  1.00  0.00     0.167 HD
ATOM     51  C   UNL A   1      45.103  32.343  28.633  1.00  0.00     0.037 A 
ATOM     52  C   UNL A   1      42.012  26.096  27.994  1.00  0.00     0.037 A 
ATOM     53  C   UNL A   1      45.865  31.368  27.904  1.00  0.00     0.049 A 
ATOM     54  C   UNL A   1      43.343  26.404  27.348  1.00  0.00     0.074 A 
ATOM     55  C   UNL A   1      47.122  31.502  27.342  1.00  0.00     0.029 A 
ATOM     56  N   UNL A   1      45.432  30.081  27.627  1.00  0.00    -0.354 N 
ATOM     57  N   UNL A   1      44.061  27.500  27.405  1.00  0.00    -0.248 NA
ATOM     58  C   UNL A   1      43.948  25.338  26.533  1.00  0.00     0.031 C 
ATOM     59  C   UNL A   1      47.429  30.308  26.682  1.00  0.00     0.029 A 
ATOM     60  C   UNL A   1      46.387  29.416  26.880  1.00  0.00     0.049 A 
ATOM     61  H   UNL A   1      44.573  29.698  27.919  1.00  0.00     0.167 HD
ATOM     62  C   UNL A   1      45.212  27.244  26.666  1.00  0.00     0.074 A 
ATOM     63  C   UNL A   1      45.101  25.887  26.176  1.00  0.00     0.031 C 
ATOM     64  C   UNL A   1      46.267  28.058  26.416  1.00  0.00     0.037 A 
BRANCH  51  65
ATOM     65  C   UNL A   1      45.668  33.720  28.806  1.00  0.00     0.057 A 
ATOM     66  C   UNL A   1      46.468  34.060  29.906  1.00  0.00     0.134 A 
ATOM     67  C   UNL A   1      45.401  34.720  27.865  1.00  0.00     0.134 A 
ATOM     68  F   UNL A   1      46.737  33.153  30.857  1.00  0.00    -0.206 F 
ATOM     69  C   UNL A   1      46.961  35.354  30.074  1.00  0.00     0.040 A 
ATOM     70  C   UNL A   1      45.911  36.010  28.008  1.00  0.00     0.040 A 
ATOM     71  F   UNL A   1      44.635  34.461  26.793  1.00  0.00    -0.206 F 
ATOM     72  C   UNL A   1      46.688  36.332  29.119  1.00  0.00     0.006 A 
ENDBRANCH  51  65
BRANCH  52  73
ATOM     73  C   UNL A   1      41.388  24.758  27.809  1.00  0.00     0.057 A 
ATOM     74  C   UNL A   1      41.815  23.651  28.554  1.00  0.00     0.134 A 
ATOM     75  C   UNL A   1      40.393  24.541  26.849  1.00  0.00     0.134 A 
ATOM     76  F   UNL A   1      42.790  23.786  29.465  1.00  0.00    -0.206 F 
ATOM     77  C   UNL A   1      41.287  22.376  28.338  1.00  0.00     0.040 A 
ATOM     78  C   UNL A   1      39.839  23.276  26.641  1.00  0.00     0.040 A 
ATOM     79  F   UNL A   1      39.948  25.556  26.093  1.00  0.00    -0.206 F 
ATOM     80  C   UNL A   1      40.293  22.186  27.381  1.00  0.00     0.006 A 
ENDBRANCH  52  73
BRANCH  64  81
ATOM     81  C   UNL A   1      47.409  27.495  25.622  1.00  0.00     0.057 A 
ATOM     82  C   UNL A   1      47.462  27.591  24.225  1.00  0.00     0.134 A 
ATOM     83  C   UNL A   1      48.501  26.904  26.271  1.00  0.00     0.134 A 
ATOM     84  F   UNL A   1      46.445  28.137  23.542  1.00  0.00    -0.206 F 
ATOM     85  C   UNL A   1      48.552  27.101  23.503  1.00  0.00     0.040 A 
ATOM     86  C   UNL A   1      49.609  26.436  25.562  1.00  0.00     0.040 A 
ATOM     87  F   UNL A   1      48.522  26.794  27.608  1.00  0.00    -0.206 F 
ATOM     88  C   UNL A   1      49.633  26.530  24.172  1.00  0.00     0.006 A 
ENDBRANCH  64  81
ENDBRANCH  38  39
ENDBRANCH  31  33
ENDBRANCH  30  31
ENDBRANCH  29  30
ENDBRANCH  28  29
ENDBRANCH  27  28
ENDBRANCH  26  27
ENDBRANCH  25  26
ENDBRANCH   1  25
TORSDOF 23
ENDMDL
MODEL 2
REMARK VINA RESULT:      -9.4      4.133      6.660
REMARK SMILES CC(C)(C)[N@H+](CCC(=O)OCCOCCOCCOC(=O)c1ccc(-c2c3nc(c(-c4c(F)cccc4F)c4ccc([nH]4)c(-c4c(F)cccc4F)c4nc(c(-c5c(F)cccc5F)c5ccc2[nH]5)C=C4)C=C3)cc1)Cc1ccccc1C1CC1
REMARK SMILES IDX 13 1 12 2 11 3 10 4 8 5 9 6 7 7 6 8 5 9 2 11 1 12 3 13 4 14
REMARK SMILES IDX 76 15 77 16 78 17 82 18 79 19 81 20 80 21 83 22 84 23 85 24
REMARK SMILES IDX 14 25 15 26 16 27 17 28 18 29 19 30 20 31 21 32 22 33 23 34
REMARK SMILES IDX 75 35 24 36 74 37 25 38 26 39 27 40 68 41 28 42 73 43 67 44
REMARK SMILES IDX 69 45 29 46 72 47 66 48 65 49 30 51 56 52 39 53 55 54 40 55
REMARK SMILES IDX 43 56 54 57 70 58 41 59 42 60 53 62 71 63 44 64 31 65 32 66
REMARK SMILES IDX 37 67 33 68 34 69 36 70 38 71 35 72 57 73 58 74 63 75 59 76
REMARK SMILES IDX 60 77 62 78 64 79 61 80 45 81 46 82 51 83 47 84 48 85 50 86
REMARK SMILES IDX 52 87 49 88
REMARK H PARENT 5 10 69 50 43 61
REMARK Flexibility Score: inf
ROOT
ATOM      1  O   UNL A   1      32.628  28.310  23.841  1.00  0.00    -0.376 OA
ENDROOT
BRANCH   1   2
ATOM      2  C   UNL A   1      32.183  27.108  23.213  1.00  0.00     0.202 C 
BRANCH   2   3
ATOM      3  C   UNL A   1      33.284  26.270  22.566  1.00  0.00     0.261 C 
BRANCH   3   4
ATOM      4  O   UNL A   1      33.753  25.231  23.459  1.00  0.00    -0.463 OA
BRANCH   4   5
ATOM      5  C   UNL A   1      33.958  24.002  22.931  1.00  0.00     0.311 C 
ATOM      6  O   UNL A   1      35.063  23.474  22.843  1.00  0.00    -0.252 OA
BRANCH   5   7
ATOM      7  C   UNL A   1      32.698  23.249  22.519  1.00  0.00     0.184 C 
BRANCH   7   8
ATOM      8  C   UNL A   1      31.400  23.216  23.352  1.00  0.00     0.274 C 
BRANCH   8   9
ATOM      9  N   UNL A   1      31.550  23.121  24.804  1.00  0.00    -0.327 N 
ATOM     10  H   UNL A   1      32.463  23.571  24.874  1.00  0.00     0.348 HD
BRANCH   9  11
ATOM     11  C   UNL A   1      31.042  24.160  25.736  1.00  0.00     0.089 C 
ATOM     12  C   UNL A   1      32.130  24.976  26.469  1.00  0.00     0.078 C 
ATOM     13  C   UNL A   1      30.217  23.427  26.814  1.00  0.00     0.078 C 
ATOM     14  C   UNL A   1      30.104  25.212  25.083  1.00  0.00     0.078 C 
ENDBRANCH   9  11
BRANCH   9  15
ATOM     15  C   UNL A   1      31.692  21.745  25.303  1.00  0.00     0.299 C 
BRANCH  15  16
ATOM     16  C   UNL A   1      33.108  21.213  25.422  1.00  0.00     0.010 A 
ATOM     17  C   UNL A   1      34.088  22.001  26.076  1.00  0.00     0.010 A 
ATOM     18  C   UNL A   1      33.508  20.034  24.748  1.00  0.00    -0.036 A 
ATOM     19  C   UNL A   1      35.447  21.733  25.983  1.00  0.00     0.001 A 
ATOM     20  C   UNL A   1      34.906  19.797  24.675  1.00  0.00     0.004 A 
ATOM     21  C   UNL A   1      35.861  20.636  25.257  1.00  0.00     0.000 A 
BRANCH  18  22
ATOM     22  C   UNL A   1      32.630  18.951  24.127  1.00  0.00     0.020 C 
ATOM     23  C   UNL A   1      32.990  17.736  23.316  1.00  0.00     0.009 C 
ATOM     24  C   UNL A   1      32.619  17.577  24.756  1.00  0.00     0.009 C 
ENDBRANCH  18  22
ENDBRANCH  15  16
ENDBRANCH   9  15
ENDBRANCH   8   9
ENDBRANCH   7   8
ENDBRANCH   5   7
ENDBRANCH   4   5
ENDBRANCH   3   4
ENDBRANCH   2   3
ENDBRANCH   1   2
BRANCH   1  25
ATOM     25  C   UNL A   1      31.750  28.905  24.792  1.00  0.00     0.188 C 
BRANCH  25  26
ATOM     26  C   UNL A   1      32.086  28.675  26.276  1.00  0.00     0.188 C 
BRANCH  26  27
ATOM     27  O   UNL A   1      31.717  29.758  27.105  1.00  0.00    -0.376 OA
BRANCH  27  28
ATOM     28  C   UNL A   1      32.001  31.060  26.625  1.00  0.00     0.202 C 
BRANCH  28  29
ATOM     29  C   UNL A   1      32.928  31.962  27.460  1.00  0.00     0.261 C 
BRANCH  29  30
ATOM     30  O   UNL A   1      32.788  33.382  27.275  1.00  0.00    -0.460 OA
BRANCH  30  31
ATOM     31  C   UNL A   1      33.151  34.217  28.284  1.00  0.00     0.338 C 
ATOM     32  O   UNL A   1      32.525  35.154  28.714  1.00  0.00    -0.246 OA
BRANCH  31  33
ATOM     33  C   UNL A   1      34.317  33.569  28.958  1.00  0.00     0.060 A 
ATOM     34  C   UNL A   1      35.604  33.795  28.443  1.00  0.00     0.016 A 
ATOM     35  C   UNL A   1      34.161  32.871  30.161  1.00  0.00     0.016 A 
ATOM     36  C   UNL A   1      36.730  33.308  29.115  1.00  0.00     0.010 A 
ATOM     37  C   UNL A   1      35.285  32.367  30.823  1.00  0.00     0.010 A 
ATOM     38  C   UNL A   1      36.572  32.552  30.285  1.00  0.00    -0.014 A 
BRANCH  38  39
ATOM     39  C   UNL A   1      37.678  31.686  30.763  1.00  0.00     0.031 A 
ATOM     40  C   UNL A   1      38.155  31.921  32.173  1.00  0.00     0.074 A 
ATOM     41  C   UNL A   1      38.260  30.742  30.003  1.00  0.00     0.049 A 
ATOM     42  N   UNL A   1      39.160  31.389  32.817  1.00  0.00    -0.248 NA
ATOM     43  C   UNL A   1      37.390  32.907  32.957  1.00  0.00     0.031 C 
ATOM     44  C   UNL A   1      37.871  30.378  28.644  1.00  0.00     0.029 A 
ATOM     45  N   UNL A   1      39.329  29.923  30.278  1.00  0.00    -0.354 N 
ATOM     46  C   UNL A   1      39.153  31.985  34.073  1.00  0.00     0.074 A 
ATOM     47  C   UNL A   1      38.066  32.935  34.093  1.00  0.00     0.031 C 
ATOM     48  C   UNL A   1      38.700  29.416  28.196  1.00  0.00     0.029 A 
ATOM     49  C   UNL A   1      39.698  29.122  29.224  1.00  0.00     0.049 A 
ATOM     50  H   UNL A   1      39.788  29.910  31.149  1.00  0.00     0.167 HD
ATOM     51  C   UNL A   1      39.975  31.760  35.122  1.00  0.00     0.037 A 
ATOM     52  C   UNL A   1      40.738  28.269  29.104  1.00  0.00     0.037 A 
ATOM     53  C   UNL A   1      41.064  30.825  35.105  1.00  0.00     0.049 A 
ATOM     54  C   UNL A   1      41.695  28.096  30.260  1.00  0.00     0.074 A 
ATOM     55  C   UNL A   1      41.950  30.516  36.121  1.00  0.00     0.029 A 
ATOM     56  N   UNL A   1      41.420  30.055  34.009  1.00  0.00    -0.354 N 
ATOM     57  N   UNL A   1      41.667  28.643  31.452  1.00  0.00    -0.248 NA
ATOM     58  C   UNL A   1      42.832  27.185  30.050  1.00  0.00     0.031 C 
ATOM     59  C   UNL A   1      42.875  29.593  35.623  1.00  0.00     0.029 A 
ATOM     60  C   UNL A   1      42.529  29.287  34.315  1.00  0.00     0.049 A 
ATOM     61  H   UNL A   1      40.952  30.053  33.143  1.00  0.00     0.167 HD
ATOM     62  C   UNL A   1      42.756  28.118  32.142  1.00  0.00     0.074 A 
ATOM     63  C   UNL A   1      43.421  27.204  31.238  1.00  0.00     0.031 C 
ATOM     64  C   UNL A   1      43.167  28.369  33.409  1.00  0.00     0.037 A 
BRANCH  51  65
ATOM     65  C   UNL A   1      39.741  32.576  36.358  1.00  0.00     0.057 A 
ATOM     66  C   UNL A   1      38.775  32.219  37.308  1.00  0.00     0.134 A 
ATOM     67  C   UNL A   1      40.487  33.735  36.595  1.00  0.00     0.134 A 
ATOM     68  F   UNL A   1      38.008  31.134  37.123  1.00  0.00    -0.206 F 
ATOM     69  C   UNL A   1      38.542  33.004  38.438  1.00  0.00     0.040 A 
ATOM     70  C   UNL A   1      40.284  34.513  37.735  1.00  0.00     0.040 A 
ATOM     71  F   UNL A   1      41.424  34.135  35.720  1.00  0.00    -0.206 F 
ATOM     72  C   UNL A   1      39.304  34.150  38.657  1.00  0.00     0.006 A 
ENDBRANCH  51  65
BRANCH  52  73
ATOM     73  C   UNL A   1      40.958  27.518  27.839  1.00  0.00     0.057 A 
ATOM     74  C   UNL A   1      40.400  26.248  27.644  1.00  0.00     0.134 A 
ATOM     75  C   UNL A   1      41.772  28.025  26.819  1.00  0.00     0.134 A 
ATOM     76  F   UNL A   1      39.639  25.692  28.598  1.00  0.00    -0.206 F 
ATOM     77  C   UNL A   1      40.659  25.503  26.491  1.00  0.00     0.040 A 
ATOM     78  C   UNL A   1      42.018  27.302  25.650  1.00  0.00     0.040 A 
ATOM     79  F   UNL A   1      42.347  29.230  26.947  1.00  0.00    -0.206 F 
ATOM     80  C   UNL A   1      41.467  26.032  25.488  1.00  0.00     0.006 A 
ENDBRANCH  52  73
BRANCH  64  81
ATOM     81  C   UNL A   1      44.361  27.613  33.917  1.00  0.00     0.057 A 
ATOM     82  C   UNL A   1      44.246  26.339  34.488  1.00  0.00     0.134 A 
ATOM     83  C   UNL A   1      45.650  28.143  33.774  1.00  0.00     0.134 A 
ATOM     84  F   UNL A   1      43.039  25.779  34.661  1.00  0.00    -0.206 F 
ATOM     85  C   UNL A   1      45.368  25.629  34.916  1.00  0.00     0.040 A 
ATOM     86  C   UNL A   1      46.782  27.431  34.172  1.00  0.00     0.040 A 
ATOM     87  F   UNL A   1      45.833  29.352  33.221  1.00  0.00    -0.206 F 
ATOM     88  C   UNL A   1      46.642  26.171  34.750  1.00  0.00     0.006 A 
ENDBRANCH  64  81
ENDBRANCH  38  39
ENDBRANCH  31  33
ENDBRANCH  30  31
ENDBRANCH  29  30
ENDBRANCH  28  29
ENDBRANCH  27  28
ENDBRANCH  26  27
ENDBRANCH  25  26
ENDBRANCH   1  25
TORSDOF 23
ENDMDL
MODEL 3
REMARK VINA RESULT:      -9.2      4.060      6.609
REMARK SMILES CC(C)(C)[N@H+](CCC(=O)OCCOCCOCCOC(=O)c1ccc(-c2c3nc(c(-c4c(F)cccc4F)c4ccc([nH]4)c(-c4c(F)cccc4F)c4nc(c(-c5c(F)cccc5F)c5ccc2[nH]5)C=C4)C=C3)cc1)Cc1ccccc1C1CC1
REMARK SMILES IDX 13 1 12 2 11 3 10 4 8 5 9 6 7 7 6 8 5 9 2 11 1 12 3 13 4 14
REMARK SMILES IDX 76 15 77 16 78 17 82 18 79 19 81 20 80 21 83 22 84 23 85 24
REMARK SMILES IDX 14 25 15 26 16 27 17 28 18 29 19 30 20 31 21 32 22 33 23 34
REMARK SMILES IDX 75 35 24 36 74 37 25 38 26 39 27 40 68 41 28 42 73 43 67 44
REMARK SMILES IDX 69 45 29 46 72 47 66 48 65 49 30 51 56 52 39 53 55 54 40 55
REMARK SMILES IDX 43 56 54 57 70 58 41 59 42 60 53 62 71 63 44 64 31 65 32 66
REMARK SMILES IDX 37 67 33 68 34 69 36 70 38 71 35 72 57 73 58 74 63 75 59 76
REMARK SMILES IDX 60 77 62 78 64 79 61 80 45 81 46 82 51 83 47 84 48 85 50 86
REMARK SMILES IDX 52 87 49 88
REMARK H PARENT 5 10 69 50 43 61
REMARK Flexibility Score: inf
ROOT
ATOM      1  O   UNL A   1      29.491  30.580  22.885  1.00  0.00    -0.376 OA
ENDROOT
BRANCH   1   2
ATOM      2  C   UNL A   1      28.851  29.305  22.845  1.00  0.00     0.202 C 
BRANCH   2   3
ATOM      3  C   UNL A   1      29.785  28.108  23.016  1.00  0.00     0.261 C 
BRANCH   3   4
ATOM      4  O   UNL A   1      31.147  28.442  22.655  1.00  0.00    -0.463 OA
BRANCH   4   5
ATOM      5  C   UNL A   1      31.988  27.419  22.379  1.00  0.00     0.311 C 
ATOM      6  O   UNL A   1      33.211  27.526  22.369  1.00  0.00    -0.252 OA
BRANCH   5   7
ATOM      7  C   UNL A   1      31.321  26.065  22.162  1.00  0.00     0.184 C 
BRANCH   7   8
ATOM      8  C   UNL A   1      31.487  24.859  23.108  1.00  0.00     0.274 C 
BRANCH   8   9
ATOM      9  N   UNL A   1      32.687  24.835  23.943  1.00  0.00    -0.327 N 
ATOM     10  H   UNL A   1      32.946  25.816  23.833  1.00  0.00     0.348 HD
BRANCH   9  11
ATOM     11  C   UNL A   1      32.653  25.079  25.408  1.00  0.00     0.089 C 
ATOM     12  C   UNL A   1      31.643  26.151  25.874  1.00  0.00     0.078 C 
ATOM     13  C   UNL A   1      34.059  25.572  25.811  1.00  0.00     0.078 C 
ATOM     14  C   UNL A   1      32.349  23.821  26.266  1.00  0.00     0.078 C 
ENDBRANCH   9  11
BRANCH   9  15
ATOM     15  C   UNL A   1      33.783  24.021  23.396  1.00  0.00     0.299 C 
BRANCH  15  16
ATOM     16  C   UNL A   1      33.677  22.522  23.601  1.00  0.00     0.010 A 
ATOM     17  C   UNL A   1      32.561  21.830  23.067  1.00  0.00     0.010 A 
ATOM     18  C   UNL A   1      34.572  21.833  24.454  1.00  0.00    -0.036 A 
ATOM     19  C   UNL A   1      32.236  20.533  23.443  1.00  0.00     0.001 A 
ATOM     20  C   UNL A   1      34.202  20.510  24.814  1.00  0.00     0.004 A 
ATOM     21  C   UNL A   1      33.050  19.876  24.342  1.00  0.00     0.000 A 
BRANCH  18  22
ATOM     22  C   UNL A   1      35.913  22.308  25.005  1.00  0.00     0.020 C 
ATOM     23  C   UNL A   1      37.192  21.559  25.267  1.00  0.00     0.009 C 
ATOM     24  C   UNL A   1      37.084  22.432  24.057  1.00  0.00     0.009 C 
ENDBRANCH  18  22
ENDBRANCH  15  16
ENDBRANCH   9  15
ENDBRANCH   8   9
ENDBRANCH   7   8
ENDBRANCH   5   7
ENDBRANCH   4   5
ENDBRANCH   3   4
ENDBRANCH   2   3
ENDBRANCH   1   2
BRANCH   1  25
ATOM     25  C   UNL A   1      29.407  31.307  24.107  1.00  0.00     0.188 C 
BRANCH  25  26
ATOM     26  C   UNL A   1      30.606  31.184  25.063  1.00  0.00     0.188 C 
BRANCH  26  27
ATOM     27  O   UNL A   1      30.798  32.331  25.866  1.00  0.00    -0.376 OA
BRANCH  27  28
ATOM     28  C   UNL A   1      31.671  32.203  26.974  1.00  0.00     0.202 C 
BRANCH  28  29
ATOM     29  C   UNL A   1      32.712  33.310  27.217  1.00  0.00     0.261 C 
BRANCH  29  30
ATOM     30  O   UNL A   1      32.427  34.247  28.271  1.00  0.00    -0.460 OA
BRANCH  30  31
ATOM     31  C   UNL A   1      33.441  34.994  28.781  1.00  0.00     0.338 C 
ATOM     32  O   UNL A   1      33.392  36.149  29.123  1.00  0.00    -0.246 OA
BRANCH  31  33
ATOM     33  C   UNL A   1      34.532  34.032  29.124  1.00  0.00     0.060 A 
ATOM     34  C   UNL A   1      34.201  32.858  29.821  1.00  0.00     0.016 A 
ATOM     35  C   UNL A   1      35.833  34.212  28.642  1.00  0.00     0.016 A 
ATOM     36  C   UNL A   1      35.170  31.877  30.053  1.00  0.00     0.010 A 
ATOM     37  C   UNL A   1      36.807  33.240  28.891  1.00  0.00     0.010 A 
ATOM     38  C   UNL A   1      36.490  32.085  29.628  1.00  0.00    -0.014 A 
BRANCH  38  39
ATOM     39  C   UNL A   1      37.593  31.289  30.221  1.00  0.00     0.031 A 
ATOM     40  C   UNL A   1      37.919  31.563  31.667  1.00  0.00     0.074 A 
ATOM     41  C   UNL A   1      38.300  30.375  29.532  1.00  0.00     0.049 A 
ATOM     42  N   UNL A   1      38.888  31.096  32.410  1.00  0.00    -0.248 NA
ATOM     43  C   UNL A   1      37.027  32.508  32.361  1.00  0.00     0.031 C 
ATOM     44  C   UNL A   1      38.064  29.978  28.147  1.00  0.00     0.029 A 
ATOM     45  N   UNL A   1      39.383  29.623  29.919  1.00  0.00    -0.354 N 
ATOM     46  C   UNL A   1      38.725  31.701  33.651  1.00  0.00     0.074 A 
ATOM     47  C   UNL A   1      37.588  32.585  33.555  1.00  0.00     0.031 C 
ATOM     48  C   UNL A   1      38.987  29.063  27.794  1.00  0.00     0.029 A 
ATOM     49  C   UNL A   1      39.898  28.837  28.916  1.00  0.00     0.049 A 
ATOM     50  H   UNL A   1      39.757  29.645  30.830  1.00  0.00     0.167 HD
ATOM     51  C   UNL A   1      39.455  31.534  34.777  1.00  0.00     0.037 A 
ATOM     52  C   UNL A   1      40.992  28.046  28.907  1.00  0.00     0.037 A 
ATOM     53  C   UNL A   1      40.593  30.664  34.876  1.00  0.00     0.049 A 
ATOM     54  C   UNL A   1      41.842  27.939  30.151  1.00  0.00     0.074 A 
ATOM     55  C   UNL A   1      41.395  30.417  35.976  1.00  0.00     0.029 A 
ATOM     56  N   UNL A   1      41.096  29.908  33.830  1.00  0.00    -0.354 N 
ATOM     57  N   UNL A   1      41.668  28.493  31.327  1.00  0.00    -0.248 NA
ATOM     58  C   UNL A   1      43.045  27.095  30.062  1.00  0.00     0.031 C 
ATOM     59  C   UNL A   1      42.414  29.545  35.580  1.00  0.00     0.029 A 
ATOM     60  C   UNL A   1      42.214  29.209  34.250  1.00  0.00     0.049 A 
ATOM     61  H   UNL A   1      40.714  29.872  32.923  1.00  0.00     0.167 HD
ATOM     62  C   UNL A   1      42.715  28.039  32.124  1.00  0.00     0.074 A 
ATOM     63  C   UNL A   1      43.516  27.159  31.300  1.00  0.00     0.031 C 
ATOM     64  C   UNL A   1      42.988  28.324  33.421  1.00  0.00     0.037 A 
BRANCH  51  65
ATOM     65  C   UNL A   1      39.057  32.343  35.974  1.00  0.00     0.057 A 
ATOM     66  C   UNL A   1      39.517  33.653  36.168  1.00  0.00     0.134 A 
ATOM     67  C   UNL A   1      38.210  31.802  36.947  1.00  0.00     0.134 A 
ATOM     68  F   UNL A   1      40.354  34.218  35.284  1.00  0.00    -0.206 F 
ATOM     69  C   UNL A   1      39.166  34.386  37.302  1.00  0.00     0.040 A 
ATOM     70  C   UNL A   1      37.830  32.535  38.072  1.00  0.00     0.040 A 
ATOM     71  F   UNL A   1      37.742  30.550  36.824  1.00  0.00    -0.206 F 
ATOM     72  C   UNL A   1      38.314  33.829  38.254  1.00  0.00     0.006 A 
ENDBRANCH  51  65
BRANCH  52  73
ATOM     73  C   UNL A   1      41.375  27.300  27.678  1.00  0.00     0.057 A 
ATOM     74  C   UNL A   1      42.123  27.909  26.664  1.00  0.00     0.134 A 
ATOM     75  C   UNL A   1      40.957  25.980  27.464  1.00  0.00     0.134 A 
ATOM     76  F   UNL A   1      42.524  29.182  26.793  1.00  0.00    -0.206 F 
ATOM     77  C   UNL A   1      42.427  27.241  25.475  1.00  0.00     0.040 A 
ATOM     78  C   UNL A   1      41.275  25.293  26.291  1.00  0.00     0.040 A 
ATOM     79  F   UNL A   1      40.227  25.343  28.390  1.00  0.00    -0.206 F 
ATOM     80  C   UNL A   1      42.005  25.927  25.288  1.00  0.00     0.006 A 
ENDBRANCH  52  73
BRANCH  64  81
ATOM     81  C   UNL A   1      44.169  27.644  34.050  1.00  0.00     0.057 A 
ATOM     82  C   UNL A   1      44.076  26.368  34.620  1.00  0.00     0.134 A 
ATOM     83  C   UNL A   1      45.432  28.250  34.028  1.00  0.00     0.134 A 
ATOM     84  F   UNL A   1      42.894  25.735  34.681  1.00  0.00    -0.206 F 
ATOM     85  C   UNL A   1      45.192  25.728  35.162  1.00  0.00     0.040 A 
ATOM     86  C   UNL A   1      46.561  27.610  34.542  1.00  0.00     0.040 A 
ATOM     87  F   UNL A   1      45.595  29.466  33.484  1.00  0.00    -0.206 F 
ATOM     88  C   UNL A   1      46.441  26.346  35.116  1.00  0.00     0.006 A 
ENDBRANCH  64  81
ENDBRANCH  38  39
ENDBRANCH  31  33
ENDBRANCH  30  31
ENDBRANCH  29  30
ENDBRANCH  28  29
ENDBRANCH  27  28
ENDBRANCH  26  27
ENDBRANCH  25  26
ENDBRANCH   1  25
TORSDOF 23
ENDMDL
