MODEL 1
REMARK VINA RESULT:     -10.4      0.000      0.000
REMARK SMILES O=C(OCCOCCOCCOC(=O)C1(NC(=O)c2nc(C3CC3)n[nH]2)CCCCC1)c1ccc(-c2c3nc(c(-c4c(F)cccc4F)c4ccc([nH]4)c(-c4c(F)cccc4F)c4nc(c(-c5c(F)cccc5F)c5ccc2[nH]5)C=C4)C=C3)cc1
REMARK SMILES IDX 8 1 7 2 6 3 5 4 4 5 3 6 2 7 1 8 32 9 33 10 85 11 34 12 84 13
REMARK SMILES IDX 35 14 36 15 37 16 78 17 38 18 83 19 77 20 79 21 39 22 82 23
REMARK SMILES IDX 76 24 75 25 40 27 66 28 49 29 65 30 50 31 53 32 64 33 80 34
REMARK SMILES IDX 51 35 52 36 63 38 81 39 54 40 41 41 42 42 47 43 43 44 44 45
REMARK SMILES IDX 46 46 48 47 45 48 67 49 68 50 73 51 69 52 70 53 72 54 74 55
REMARK SMILES IDX 71 56 55 57 56 58 61 59 57 60 58 61 60 62 62 63 59 64 9 65
REMARK SMILES IDX 10 66 11 67 12 68 13 69 14 70 15 71 27 72 31 73 28 74 30 75
REMARK SMILES IDX 29 76 16 77 17 78 18 80 19 81 20 82 26 83 21 84 25 85 22 87
REMARK SMILES IDX 23 88 24 89
REMARK H PARENT 79 26 53 37 16 79 26 86
REMARK Flexibility Score: inf
ROOT
ATOM      1  C   UNL A   1      36.818  23.606  25.243  1.00  0.00     0.188 C 
ENDROOT
BRANCH   1   2
ATOM      2  C   UNL A   1      37.196  22.218  24.758  1.00  0.00     0.188 C 
BRANCH   2   3
ATOM      3  O   UNL A   1      38.368  21.690  25.375  1.00  0.00    -0.376 OA
BRANCH   3   4
ATOM      4  C   UNL A   1      38.512  20.294  25.105  1.00  0.00     0.202 C 
BRANCH   4   5
ATOM      5  C   UNL A   1      39.592  19.595  25.947  1.00  0.00     0.261 C 
BRANCH   5   6
ATOM      6  O   UNL A   1      40.863  19.574  25.268  1.00  0.00    -0.460 OA
BRANCH   6   7
ATOM      7  C   UNL A   1      41.987  19.703  26.018  1.00  0.00     0.338 C 
ATOM      8  O   UNL A   1      42.593  18.764  26.511  1.00  0.00    -0.246 OA
BRANCH   7   9
ATOM      9  C   UNL A   1      42.174  21.091  26.494  1.00  0.00     0.060 A 
ATOM     10  C   UNL A   1      42.183  22.158  25.594  1.00  0.00     0.016 A 
ATOM     11  C   UNL A   1      42.295  21.333  27.870  1.00  0.00     0.016 A 
ATOM     12  C   UNL A   1      42.181  23.461  26.064  1.00  0.00     0.010 A 
ATOM     13  C   UNL A   1      42.374  22.648  28.342  1.00  0.00     0.010 A 
ATOM     14  C   UNL A   1      42.305  23.714  27.435  1.00  0.00    -0.014 A 
BRANCH  14  15
ATOM     15  C   UNL A   1      42.595  25.108  27.812  1.00  0.00     0.031 A 
ATOM     16  C   UNL A   1      43.944  25.637  27.431  1.00  0.00     0.074 A 
ATOM     17  C   UNL A   1      41.644  25.922  28.299  1.00  0.00     0.049 A 
ATOM     18  N   UNL A   1      44.360  26.871  27.385  1.00  0.00    -0.248 NA
ATOM     19  C   UNL A   1      44.920  24.644  26.946  1.00  0.00     0.031 C 
ATOM     20  C   UNL A   1      40.263  25.541  28.573  1.00  0.00     0.029 A 
ATOM     21  N   UNL A   1      41.697  27.250  28.632  1.00  0.00    -0.354 N 
ATOM     22  C   UNL A   1      45.596  26.812  26.761  1.00  0.00     0.074 A 
ATOM     23  C   UNL A   1      45.887  25.423  26.491  1.00  0.00     0.031 C 
ATOM     24  C   UNL A   1      39.611  26.597  29.092  1.00  0.00     0.029 A 
ATOM     25  C   UNL A   1      40.531  27.725  29.180  1.00  0.00     0.049 A 
ATOM     26  H   UNL A   1      42.494  27.810  28.493  1.00  0.00     0.167 HD
ATOM     27  C   UNL A   1      46.413  27.837  26.434  1.00  0.00     0.037 A 
ATOM     28  C   UNL A   1      40.263  28.934  29.711  1.00  0.00     0.037 A 
ATOM     29  C   UNL A   1      46.187  29.188  26.856  1.00  0.00     0.049 A 
ATOM     30  C   UNL A   1      41.320  30.002  29.608  1.00  0.00     0.074 A 
ATOM     31  C   UNL A   1      47.009  30.288  26.719  1.00  0.00     0.029 A 
ATOM     32  N   UNL A   1      45.064  29.602  27.558  1.00  0.00    -0.354 N 
ATOM     33  N   UNL A   1      42.480  29.954  28.996  1.00  0.00    -0.248 NA
ATOM     34  C   UNL A   1      41.033  31.291  30.249  1.00  0.00     0.031 C 
ATOM     35  C   UNL A   1      46.409  31.357  27.395  1.00  0.00     0.029 A 
ATOM     36  C   UNL A   1      45.190  30.933  27.907  1.00  0.00     0.049 A 
ATOM     37  H   UNL A   1      44.290  29.032  27.775  1.00  0.00     0.167 HD
ATOM     38  C   UNL A   1      43.041  31.215  29.138  1.00  0.00     0.074 A 
ATOM     39  C   UNL A   1      42.097  32.004  29.904  1.00  0.00     0.031 C 
ATOM     40  C   UNL A   1      44.222  31.686  28.665  1.00  0.00     0.037 A 
BRANCH  27  41
ATOM     41  C   UNL A   1      47.639  27.479  25.659  1.00  0.00     0.057 A 
ATOM     42  C   UNL A   1      47.645  27.500  24.257  1.00  0.00     0.134 A 
ATOM     43  C   UNL A   1      48.792  27.028  26.309  1.00  0.00     0.134 A 
ATOM     44  F   UNL A   1      46.554  27.886  23.578  1.00  0.00    -0.206 F 
ATOM     45  C   UNL A   1      48.753  27.066  23.528  1.00  0.00     0.040 A 
ATOM     46  C   UNL A   1      49.910  26.603  25.591  1.00  0.00     0.040 A 
ATOM     47  F   UNL A   1      48.834  26.959  27.647  1.00  0.00    -0.206 F 
ATOM     48  C   UNL A   1      49.890  26.616  24.196  1.00  0.00     0.006 A 
ENDBRANCH  27  41
BRANCH  28  49
ATOM     49  C   UNL A   1      38.983  29.178  30.425  1.00  0.00     0.057 A 
ATOM     50  C   UNL A   1      37.889  29.790  29.806  1.00  0.00     0.134 A 
ATOM     51  C   UNL A   1      38.846  28.840  31.779  1.00  0.00     0.134 A 
ATOM     52  F   UNL A   1      37.960  30.158  28.517  1.00  0.00    -0.206 F 
ATOM     53  C   UNL A   1      36.715  30.077  30.509  1.00  0.00     0.040 A 
ATOM     54  C   UNL A   1      37.672  29.102  32.489  1.00  0.00     0.040 A 
ATOM     55  F   UNL A   1      39.856  28.250  32.437  1.00  0.00    -0.206 F 
ATOM     56  C   UNL A   1      36.605  29.732  31.855  1.00  0.00     0.006 A 
ENDBRANCH  28  49
BRANCH  40  57
ATOM     57  C   UNL A   1      44.535  33.125  28.930  1.00  0.00     0.057 A 
ATOM     58  C   UNL A   1      45.172  33.539  30.105  1.00  0.00     0.134 A 
ATOM     59  C   UNL A   1      44.247  34.098  27.965  1.00  0.00     0.134 A 
ATOM     60  F   UNL A   1      45.461  32.652  31.070  1.00  0.00    -0.206 F 
ATOM     61  C   UNL A   1      45.501  34.877  30.318  1.00  0.00     0.040 A 
ATOM     62  C   UNL A   1      44.591  35.435  28.157  1.00  0.00     0.040 A 
ATOM     63  F   UNL A   1      43.645  33.759  26.815  1.00  0.00    -0.206 F 
ATOM     64  C   UNL A   1      45.218  35.827  29.338  1.00  0.00     0.006 A 
ENDBRANCH  40  57
ENDBRANCH  14  15
ENDBRANCH   7   9
ENDBRANCH   6   7
ENDBRANCH   5   6
ENDBRANCH   4   5
ENDBRANCH   3   4
ENDBRANCH   2   3
ENDBRANCH   1   2
BRANCH   1  65
ATOM     65  O   UNL A   1      35.568  24.104  24.799  1.00  0.00    -0.376 OA
BRANCH  65  66
ATOM     66  C   UNL A   1      34.482  23.713  25.654  1.00  0.00     0.202 C 
BRANCH  66  67
ATOM     67  C   UNL A   1      33.432  24.816  25.880  1.00  0.00     0.261 C 
BRANCH  67  68
ATOM     68  O   UNL A   1      33.000  25.339  24.611  1.00  0.00    -0.461 OA
BRANCH  68  69
ATOM     69  C   UNL A   1      33.089  26.686  24.435  1.00  0.00     0.331 C 
ATOM     70  O   UNL A   1      34.133  27.294  24.223  1.00  0.00    -0.249 OA
BRANCH  69  71
ATOM     71  C   UNL A   1      31.706  27.386  24.614  1.00  0.00     0.138 C 
ATOM     72  C   UNL A   1      31.598  28.765  23.886  1.00  0.00     0.040 C 
ATOM     73  C   UNL A   1      30.704  26.374  23.976  1.00  0.00     0.040 C 
ATOM     74  C   UNL A   1      30.184  29.240  23.553  1.00  0.00     0.003 C 
ATOM     75  C   UNL A   1      29.322  26.927  23.626  1.00  0.00     0.003 C 
ATOM     76  C   UNL A   1      29.423  28.184  22.780  1.00  0.00     0.000 C 
BRANCH  71  77
ATOM     77  N   UNL A   1      31.317  27.631  26.035  1.00  0.00    -0.333 N 
ATOM     78  C   UNL A   1      31.795  28.304  27.133  1.00  0.00     0.289 C 
ATOM     79  H   UNL A   1      30.469  27.178  26.246  1.00  0.00     0.165 HD
ATOM     80  O   UNL A   1      31.197  28.006  28.176  1.00  0.00    -0.266 OA
BRANCH  78  81
ATOM     81  C   UNL A   1      32.914  29.222  27.193  1.00  0.00     0.214 A 
ATOM     82  N   UNL A   1      32.996  30.502  27.540  1.00  0.00    -0.207 NA
ATOM     83  N   UNL A   1      34.188  28.732  27.104  1.00  0.00    -0.255 N 
ATOM     84  C   UNL A   1      34.366  30.747  27.547  1.00  0.00     0.154 A 
ATOM     85  N   UNL A   1      35.114  29.683  27.233  1.00  0.00    -0.158 NA
ATOM     86  H   UNL A   1      34.398  27.781  26.961  1.00  0.00     0.192 HD
BRANCH  84  87
ATOM     87  C   UNL A   1      35.087  32.066  27.840  1.00  0.00     0.060 C 
ATOM     88  C   UNL A   1      34.358  33.376  27.925  1.00  0.00     0.012 C 
ATOM     89  C   UNL A   1      34.933  32.773  29.168  1.00  0.00     0.012 C 
ENDBRANCH  84  87
ENDBRANCH  78  81
ENDBRANCH  71  77
ENDBRANCH  69  71
ENDBRANCH  68  69
ENDBRANCH  67  68
ENDBRANCH  66  67
ENDBRANCH  65  66
ENDBRANCH   1  65
TORSDOF 20
ENDMDL
MODEL 2
REMARK VINA RESULT:     -10.2      4.613      9.947
REMARK SMILES O=C(OCCOCCOCCOC(=O)C1(NC(=O)c2nc(C3CC3)n[nH]2)CCCCC1)c1ccc(-c2c3nc(c(-c4c(F)cccc4F)c4ccc([nH]4)c(-c4c(F)cccc4F)c4nc(c(-c5c(F)cccc5F)c5ccc2[nH]5)C=C4)C=C3)cc1
REMARK SMILES IDX 8 1 7 2 6 3 5 4 4 5 3 6 2 7 1 8 32 9 33 10 85 11 34 12 84 13
REMARK SMILES IDX 35 14 36 15 37 16 78 17 38 18 83 19 77 20 79 21 39 22 82 23
REMARK SMILES IDX 76 24 75 25 40 27 66 28 49 29 65 30 50 31 53 32 64 33 80 34
REMARK SMILES IDX 51 35 52 36 63 38 81 39 54 40 41 41 42 42 47 43 43 44 44 45
REMARK SMILES IDX 46 46 48 47 45 48 67 49 68 50 73 51 69 52 70 53 72 54 74 55
REMARK SMILES IDX 71 56 55 57 56 58 61 59 57 60 58 61 60 62 62 63 59 64 9 65
REMARK SMILES IDX 10 66 11 67 12 68 13 69 14 70 15 71 27 72 31 73 28 74 30 75
REMARK SMILES IDX 29 76 16 77 17 78 18 80 19 81 20 82 26 83 21 84 25 85 22 87
REMARK SMILES IDX 23 88 24 89
REMARK H PARENT 79 26 53 37 16 79 26 86
REMARK Flexibility Score: inf
ROOT
ATOM      1  C   UNL A   1      31.834  29.009  24.766  1.00  0.00     0.188 C 
ENDROOT
BRANCH   1   2
ATOM      2  C   UNL A   1      31.193  30.280  25.295  1.00  0.00     0.188 C 
BRANCH   2   3
ATOM      3  O   UNL A   1      31.718  30.711  26.549  1.00  0.00    -0.376 OA
BRANCH   3   4
ATOM      4  C   UNL A   1      31.546  32.118  26.725  1.00  0.00     0.202 C 
BRANCH   4   5
ATOM      5  C   UNL A   1      32.619  32.781  27.605  1.00  0.00     0.261 C 
BRANCH   5   6
ATOM      6  O   UNL A   1      32.445  34.211  27.668  1.00  0.00    -0.460 OA
BRANCH   6   7
ATOM      7  C   UNL A   1      32.936  34.863  28.753  1.00  0.00     0.338 C 
ATOM      8  O   UNL A   1      32.607  35.994  29.079  1.00  0.00    -0.246 OA
BRANCH   7   9
ATOM      9  C   UNL A   1      34.172  34.230  29.262  1.00  0.00     0.060 A 
ATOM     10  C   UNL A   1      35.375  34.352  28.565  1.00  0.00     0.016 A 
ATOM     11  C   UNL A   1      34.136  33.541  30.483  1.00  0.00     0.016 A 
ATOM     12  C   UNL A   1      36.556  33.908  29.137  1.00  0.00     0.010 A 
ATOM     13  C   UNL A   1      35.316  33.020  31.025  1.00  0.00     0.010 A 
ATOM     14  C   UNL A   1      36.531  33.216  30.353  1.00  0.00    -0.014 A 
BRANCH  14  15
ATOM     15  C   UNL A   1      37.776  32.526  30.731  1.00  0.00     0.031 A 
ATOM     16  C   UNL A   1      38.518  33.084  31.907  1.00  0.00     0.074 A 
ATOM     17  C   UNL A   1      38.132  31.355  30.179  1.00  0.00     0.049 A 
ATOM     18  N   UNL A   1      39.464  32.536  32.617  1.00  0.00    -0.248 NA
ATOM     19  C   UNL A   1      38.063  34.396  32.403  1.00  0.00     0.031 C 
ATOM     20  C   UNL A   1      37.402  30.659  29.125  1.00  0.00     0.029 A 
ATOM     21  N   UNL A   1      39.196  30.535  30.447  1.00  0.00    -0.354 N 
ATOM     22  C   UNL A   1      39.634  33.380  33.704  1.00  0.00     0.074 A 
ATOM     23  C   UNL A   1      38.735  34.498  33.538  1.00  0.00     0.031 C 
ATOM     24  C   UNL A   1      38.072  29.543  28.790  1.00  0.00     0.029 A 
ATOM     25  C   UNL A   1      39.275  29.448  29.611  1.00  0.00     0.049 A 
ATOM     26  H   UNL A   1      39.843  30.708  31.168  1.00  0.00     0.167 HD
ATOM     27  C   UNL A   1      40.467  33.224  34.755  1.00  0.00     0.037 A 
ATOM     28  C   UNL A   1      40.232  28.505  29.518  1.00  0.00     0.037 A 
ATOM     29  C   UNL A   1      41.467  32.199  34.822  1.00  0.00     0.049 A 
ATOM     30  C   UNL A   1      41.345  28.523  30.533  1.00  0.00     0.074 A 
ATOM     31  C   UNL A   1      42.466  32.023  35.758  1.00  0.00     0.029 A 
ATOM     32  N   UNL A   1      41.621  31.206  33.865  1.00  0.00    -0.354 N 
ATOM     33  N   UNL A   1      41.492  29.305  31.577  1.00  0.00    -0.248 NA
ATOM     34  C   UNL A   1      42.411  27.526  30.375  1.00  0.00     0.031 C 
ATOM     35  C   UNL A   1      43.266  30.955  35.332  1.00  0.00     0.029 A 
ATOM     36  C   UNL A   1      42.732  30.438  34.159  1.00  0.00     0.049 A 
ATOM     37  H   UNL A   1      41.027  31.068  33.092  1.00  0.00     0.167 HD
ATOM     38  C   UNL A   1      42.639  28.870  32.224  1.00  0.00     0.074 A 
ATOM     39  C   UNL A   1      43.155  27.759  31.449  1.00  0.00     0.031 C 
ATOM     40  C   UNL A   1      43.209  29.334  33.364  1.00  0.00     0.037 A 
BRANCH  27  41
ATOM     41  C   UNL A   1      40.351  34.243  35.842  1.00  0.00     0.057 A 
ATOM     42  C   UNL A   1      39.482  34.055  36.926  1.00  0.00     0.134 A 
ATOM     43  C   UNL A   1      41.043  35.456  35.764  1.00  0.00     0.134 A 
ATOM     44  F   UNL A   1      38.762  32.928  37.032  1.00  0.00    -0.206 F 
ATOM     45  C   UNL A   1      39.293  35.049  37.888  1.00  0.00     0.040 A 
ATOM     46  C   UNL A   1      40.871  36.452  36.725  1.00  0.00     0.040 A 
ATOM     47  F   UNL A   1      41.866  35.704  34.735  1.00  0.00    -0.206 F 
ATOM     48  C   UNL A   1      39.989  36.251  37.788  1.00  0.00     0.006 A 
ENDBRANCH  27  41
BRANCH  28  49
ATOM     49  C   UNL A   1      40.213  27.516  28.409  1.00  0.00     0.057 A 
ATOM     50  C   UNL A   1      39.611  26.260  28.540  1.00  0.00     0.134 A 
ATOM     51  C   UNL A   1      40.850  27.797  27.191  1.00  0.00     0.134 A 
ATOM     52  F   UNL A   1      39.002  25.919  29.685  1.00  0.00    -0.206 F 
ATOM     53  C   UNL A   1      39.661  25.313  27.512  1.00  0.00     0.040 A 
ATOM     54  C   UNL A   1      40.890  26.868  26.150  1.00  0.00     0.040 A 
ATOM     55  F   UNL A   1      41.448  28.982  26.997  1.00  0.00    -0.206 F 
ATOM     56  C   UNL A   1      40.302  25.617  26.313  1.00  0.00     0.006 A 
ENDBRANCH  28  49
BRANCH  40  57
ATOM     57  C   UNL A   1      44.424  28.614  33.858  1.00  0.00     0.057 A 
ATOM     58  C   UNL A   1      44.331  27.467  34.655  1.00  0.00     0.134 A 
ATOM     59  C   UNL A   1      45.701  29.044  33.477  1.00  0.00     0.134 A 
ATOM     60  F   UNL A   1      43.135  27.016  35.061  1.00  0.00    -0.206 F 
ATOM     61  C   UNL A   1      45.471  26.778  35.068  1.00  0.00     0.040 A 
ATOM     62  C   UNL A   1      46.846  28.350  33.865  1.00  0.00     0.040 A 
ATOM     63  F   UNL A   1      45.852  30.132  32.707  1.00  0.00    -0.206 F 
ATOM     64  C   UNL A   1      46.732  27.215  34.665  1.00  0.00     0.006 A 
ENDBRANCH  40  57
ENDBRANCH  14  15
ENDBRANCH   7   9
ENDBRANCH   6   7
ENDBRANCH   5   6
ENDBRANCH   4   5
ENDBRANCH   3   4
ENDBRANCH   2   3
ENDBRANCH   1   2
BRANCH   1  65
ATOM     65  O   UNL A   1      33.242  28.918  24.899  1.00  0.00    -0.376 OA
BRANCH  65  66
ATOM     66  C   UNL A   1      33.873  28.362  23.735  1.00  0.00     0.202 C 
BRANCH  66  67
ATOM     67  C   UNL A   1      33.303  27.000  23.302  1.00  0.00     0.261 C 
BRANCH  67  68
ATOM     68  O   UNL A   1      34.066  25.942  23.910  1.00  0.00    -0.461 OA
BRANCH  68  69
ATOM     69  C   UNL A   1      34.240  24.807  23.179  1.00  0.00     0.331 C 
ATOM     70  O   UNL A   1      33.923  24.680  22.001  1.00  0.00    -0.249 OA
BRANCH  69  71
ATOM     71  C   UNL A   1      34.826  23.647  24.043  1.00  0.00     0.138 C 
ATOM     72  C   UNL A   1      35.981  22.860  23.342  1.00  0.00     0.040 C 
ATOM     73  C   UNL A   1      35.378  24.379  25.305  1.00  0.00     0.040 C 
ATOM     74  C   UNL A   1      36.941  22.112  24.266  1.00  0.00     0.003 C 
ATOM     75  C   UNL A   1      36.369  23.589  26.160  1.00  0.00     0.003 C 
ATOM     76  C   UNL A   1      37.508  23.034  25.323  1.00  0.00     0.000 C 
BRANCH  71  77
ATOM     77  N   UNL A   1      33.823  22.626  24.468  1.00  0.00    -0.333 N 
ATOM     78  C   UNL A   1      32.470  22.541  24.695  1.00  0.00     0.289 C 
ATOM     79  H   UNL A   1      34.258  21.759  24.634  1.00  0.00     0.165 HD
ATOM     80  O   UNL A   1      32.145  21.493  25.268  1.00  0.00    -0.266 OA
BRANCH  78  81
ATOM     81  C   UNL A   1      31.459  23.538  24.408  1.00  0.00     0.214 A 
ATOM     82  N   UNL A   1      30.957  24.530  25.137  1.00  0.00    -0.207 NA
ATOM     83  N   UNL A   1      31.038  23.714  23.119  1.00  0.00    -0.255 N 
ATOM     84  C   UNL A   1      30.153  25.218  24.233  1.00  0.00     0.154 A 
ATOM     85  N   UNL A   1      30.151  24.703  22.999  1.00  0.00    -0.158 NA
ATOM     86  H   UNL A   1      31.356  23.171  22.362  1.00  0.00     0.192 HD
BRANCH  84  87
ATOM     87  C   UNL A   1      29.277  26.447  24.496  1.00  0.00     0.060 C 
ATOM     88  C   UNL A   1      28.834  27.365  23.393  1.00  0.00     0.012 C 
ATOM     89  C   UNL A   1      27.826  26.489  24.068  1.00  0.00     0.012 C 
ENDBRANCH  84  87
ENDBRANCH  78  81
ENDBRANCH  71  77
ENDBRANCH  69  71
ENDBRANCH  68  69
ENDBRANCH  67  68
ENDBRANCH  66  67
ENDBRANCH  65  66
ENDBRANCH   1  65
TORSDOF 20
ENDMDL
MODEL 3
REMARK VINA RESULT:     -10.1      1.345      2.263
REMARK SMILES O=C(OCCOCCOCCOC(=O)C1(NC(=O)c2nc(C3CC3)n[nH]2)CCCCC1)c1ccc(-c2c3nc(c(-c4c(F)cccc4F)c4ccc([nH]4)c(-c4c(F)cccc4F)c4nc(c(-c5c(F)cccc5F)c5ccc2[nH]5)C=C4)C=C3)cc1
REMARK SMILES IDX 8 1 7 2 6 3 5 4 4 5 3 6 2 7 1 8 32 9 33 10 85 11 34 12 84 13
REMARK SMILES IDX 35 14 36 15 37 16 78 17 38 18 83 19 77 20 79 21 39 22 82 23
REMARK SMILES IDX 76 24 75 25 40 27 66 28 49 29 65 30 50 31 53 32 64 33 80 34
REMARK SMILES IDX 51 35 52 36 63 38 81 39 54 40 41 41 42 42 47 43 43 44 44 45
REMARK SMILES IDX 46 46 48 47 45 48 67 49 68 50 73 51 69 52 70 53 72 54 74 55
REMARK SMILES IDX 71 56 55 57 56 58 61 59 57 60 58 61 60 62 62 63 59 64 9 65
REMARK SMILES IDX 10 66 11 67 12 68 13 69 14 70 15 71 27 72 31 73 28 74 30 75
REMARK SMILES IDX 29 76 16 77 17 78 18 80 19 81 20 82 26 83 21 84 25 85 22 87
REMARK SMILES IDX 23 88 24 89
REMARK H PARENT 79 26 53 37 16 79 26 86
REMARK Flexibility Score: inf
ROOT
ATOM      1  C   UNL A   1      36.213  22.585  25.481  1.00  0.00     0.188 C 
ENDROOT
BRANCH   1   2
ATOM      2  C   UNL A   1      37.198  21.768  24.663  1.00  0.00     0.188 C 
BRANCH   2   3
ATOM      3  O   UNL A   1      38.396  21.440  25.363  1.00  0.00    -0.376 OA
BRANCH   3   4
ATOM      4  C   UNL A   1      38.727  20.059  25.204  1.00  0.00     0.202 C 
BRANCH   4   5
ATOM      5  C   UNL A   1      39.890  19.581  26.090  1.00  0.00     0.261 C 
BRANCH   5   6
ATOM      6  O   UNL A   1      41.085  19.352  25.318  1.00  0.00    -0.460 OA
BRANCH   6   7
ATOM      7  C   UNL A   1      42.282  19.556  25.926  1.00  0.00     0.338 C 
ATOM      8  O   UNL A   1      43.011  18.659  26.321  1.00  0.00    -0.246 OA
BRANCH   7   9
ATOM      9  C   UNL A   1      42.427  20.949  26.402  1.00  0.00     0.060 A 
ATOM     10  C   UNL A   1      42.467  22.011  25.497  1.00  0.00     0.016 A 
ATOM     11  C   UNL A   1      42.476  21.200  27.781  1.00  0.00     0.016 A 
ATOM     12  C   UNL A   1      42.425  23.317  25.958  1.00  0.00     0.010 A 
ATOM     13  C   UNL A   1      42.514  22.519  28.248  1.00  0.00     0.010 A 
ATOM     14  C   UNL A   1      42.477  23.579  27.332  1.00  0.00    -0.014 A 
BRANCH  14  15
ATOM     15  C   UNL A   1      42.730  24.979  27.714  1.00  0.00     0.031 A 
ATOM     16  C   UNL A   1      44.084  25.528  27.383  1.00  0.00     0.074 A 
ATOM     17  C   UNL A   1      41.748  25.779  28.161  1.00  0.00     0.049 A 
ATOM     18  N   UNL A   1      44.482  26.769  27.349  1.00  0.00    -0.248 NA
ATOM     19  C   UNL A   1      45.094  24.549  26.941  1.00  0.00     0.031 C 
ATOM     20  C   UNL A   1      40.363  25.376  28.383  1.00  0.00     0.029 A 
ATOM     21  N   UNL A   1      41.767  27.108  28.490  1.00  0.00    -0.354 N 
ATOM     22  C   UNL A   1      45.742  26.727  26.774  1.00  0.00     0.074 A 
ATOM     23  C   UNL A   1      46.065  25.342  26.521  1.00  0.00     0.031 C 
ATOM     24  C   UNL A   1      39.675  26.423  28.871  1.00  0.00     0.029 A 
ATOM     25  C   UNL A   1      40.573  27.566  28.991  1.00  0.00     0.049 A 
ATOM     26  H   UNL A   1      42.560  27.680  28.380  1.00  0.00     0.167 HD
ATOM     27  C   UNL A   1      46.555  27.763  26.475  1.00  0.00     0.037 A 
ATOM     28  C   UNL A   1      40.266  28.772  29.506  1.00  0.00     0.037 A 
ATOM     29  C   UNL A   1      46.291  29.112  26.882  1.00  0.00     0.049 A 
ATOM     30  C   UNL A   1      41.309  29.857  29.440  1.00  0.00     0.074 A 
ATOM     31  C   UNL A   1      47.100  30.225  26.772  1.00  0.00     0.029 A 
ATOM     32  N   UNL A   1      45.135  29.511  27.538  1.00  0.00    -0.354 N 
ATOM     33  N   UNL A   1      42.492  29.826  28.873  1.00  0.00    -0.248 NA
ATOM     34  C   UNL A   1      40.976  31.144  30.064  1.00  0.00     0.031 C 
ATOM     35  C   UNL A   1      46.457  31.287  27.420  1.00  0.00     0.029 A 
ATOM     36  C   UNL A   1      45.226  30.845  27.886  1.00  0.00     0.049 A 
ATOM     37  H   UNL A   1      44.362  28.929  27.727  1.00  0.00     0.167 HD
ATOM     38  C   UNL A   1      43.027  31.096  29.032  1.00  0.00     0.074 A 
ATOM     39  C   UNL A   1      42.041  31.872  29.758  1.00  0.00     0.031 C 
ATOM     40  C   UNL A   1      44.218  31.584  28.603  1.00  0.00     0.037 A 
BRANCH  27  41
ATOM     41  C   UNL A   1      47.816  27.423  25.749  1.00  0.00     0.057 A 
ATOM     42  C   UNL A   1      47.879  27.451  24.349  1.00  0.00     0.134 A 
ATOM     43  C   UNL A   1      48.945  26.981  26.444  1.00  0.00     0.134 A 
ATOM     44  F   UNL A   1      46.812  27.829  23.627  1.00  0.00    -0.206 F 
ATOM     45  C   UNL A   1      49.021  27.033  23.664  1.00  0.00     0.040 A 
ATOM     46  C   UNL A   1      50.096  26.571  25.771  1.00  0.00     0.040 A 
ATOM     47  F   UNL A   1      48.933  26.905  27.782  1.00  0.00    -0.206 F 
ATOM     48  C   UNL A   1      50.134  26.592  24.376  1.00  0.00     0.006 A 
ENDBRANCH  27  41
BRANCH  28  49
ATOM     49  C   UNL A   1      38.954  28.998  30.169  1.00  0.00     0.057 A 
ATOM     50  C   UNL A   1      37.871  29.577  29.500  1.00  0.00     0.134 A 
ATOM     51  C   UNL A   1      38.775  28.678  31.522  1.00  0.00     0.134 A 
ATOM     52  F   UNL A   1      37.982  29.927  28.210  1.00  0.00    -0.206 F 
ATOM     53  C   UNL A   1      36.666  29.848  30.156  1.00  0.00     0.040 A 
ATOM     54  C   UNL A   1      37.570  28.924  32.184  1.00  0.00     0.040 A 
ATOM     55  F   UNL A   1      39.772  28.121  32.225  1.00  0.00    -0.206 F 
ATOM     56  C   UNL A   1      36.514  29.520  31.502  1.00  0.00     0.006 A 
ENDBRANCH  28  49
BRANCH  40  57
ATOM     57  C   UNL A   1      44.497  33.030  28.874  1.00  0.00     0.057 A 
ATOM     58  C   UNL A   1      44.221  34.025  27.929  1.00  0.00     0.134 A 
ATOM     59  C   UNL A   1      44.990  33.431  30.122  1.00  0.00     0.134 A 
ATOM     60  F   UNL A   1      43.759  33.698  26.712  1.00  0.00    -0.206 F 
ATOM     61  C   UNL A   1      44.441  35.372  28.212  1.00  0.00     0.040 A 
ATOM     62  C   UNL A   1      45.191  34.776  30.424  1.00  0.00     0.040 A 
ATOM     63  F   UNL A   1      45.264  32.522  31.070  1.00  0.00    -0.206 F 
ATOM     64  C   UNL A   1      44.919  35.751  29.466  1.00  0.00     0.006 A 
ENDBRANCH  40  57
ENDBRANCH  14  15
ENDBRANCH   7   9
ENDBRANCH   6   7
ENDBRANCH   5   6
ENDBRANCH   4   5
ENDBRANCH   3   4
ENDBRANCH   2   3
ENDBRANCH   1   2
BRANCH   1  65
ATOM     65  O   UNL A   1      35.048  21.906  25.915  1.00  0.00    -0.376 OA
BRANCH  65  66
ATOM     66  C   UNL A   1      34.876  21.958  27.340  1.00  0.00     0.202 C 
BRANCH  66  67
ATOM     67  C   UNL A   1      33.416  22.145  27.790  1.00  0.00     0.261 C 
BRANCH  67  68
ATOM     68  O   UNL A   1      32.562  22.229  26.636  1.00  0.00    -0.461 OA
BRANCH  68  69
ATOM     69  C   UNL A   1      31.878  23.393  26.456  1.00  0.00     0.331 C 
ATOM     70  O   UNL A   1      31.255  23.977  27.335  1.00  0.00    -0.249 OA
BRANCH  69  71
ATOM     71  C   UNL A   1      31.916  23.862  24.969  1.00  0.00     0.138 C 
ATOM     72  C   UNL A   1      33.270  24.522  24.550  1.00  0.00     0.040 C 
ATOM     73  C   UNL A   1      31.704  22.541  24.167  1.00  0.00     0.040 C 
ATOM     74  C   UNL A   1      33.590  24.508  23.056  1.00  0.00     0.003 C 
ATOM     75  C   UNL A   1      32.087  22.584  22.687  1.00  0.00     0.003 C 
ATOM     76  C   UNL A   1      33.499  23.106  22.492  1.00  0.00     0.000 C 
BRANCH  71  77
ATOM     77  N   UNL A   1      30.845  24.836  24.601  1.00  0.00    -0.333 N 
ATOM     78  C   UNL A   1      30.508  26.143  24.858  1.00  0.00     0.289 C 
ATOM     79  H   UNL A   1      30.188  24.419  23.998  1.00  0.00     0.165 HD
ATOM     80  O   UNL A   1      29.363  26.426  24.477  1.00  0.00    -0.266 OA
BRANCH  78  81
ATOM     81  C   UNL A   1      31.293  27.141  25.555  1.00  0.00     0.214 A 
ATOM     82  N   UNL A   1      31.999  28.180  25.120  1.00  0.00    -0.207 NA
ATOM     83  N   UNL A   1      31.179  27.253  26.913  1.00  0.00    -0.255 N 
ATOM     84  C   UNL A   1      32.367  28.832  26.293  1.00  0.00     0.154 A 
ATOM     85  N   UNL A   1      31.914  28.250  27.409  1.00  0.00    -0.158 NA
ATOM     86  H   UNL A   1      30.616  26.664  27.465  1.00  0.00     0.192 HD
BRANCH  84  87
ATOM     87  C   UNL A   1      33.229  30.089  26.442  1.00  0.00     0.060 C 
ATOM     88  C   UNL A   1      33.531  30.700  27.780  1.00  0.00     0.012 C 
ATOM     89  C   UNL A   1      34.627  30.025  27.016  1.00  0.00     0.012 C 
ENDBRANCH  84  87
ENDBRANCH  78  81
ENDBRANCH  71  77
ENDBRANCH  69  71
ENDBRANCH  68  69
ENDBRANCH  67  68
ENDBRANCH  66  67
ENDBRANCH  65  66
ENDBRANCH   1  65
TORSDOF 20
ENDMDL
