MODEL 1
REMARK VINA RESULT:     -10.3      0.000      0.000
REMARK SMILES CCC1(C(=O)N[C@H]2C=C[C@H](C(=O)OCCOCCOCCOC(=O)c3ccc(-c4c5nc(c(-c6c(F)cccc6F)c6ccc([nH]6)c(-c6c(F)cccc6F)c6nc(c(-c7c(F)cccc7F)c7ccc4[nH]7)C=C6)C=C5)cc3)C2)CC[NH2+]CC1
REMARK SMILES IDX 17 1 16 2 15 3 14 4 13 5 11 6 12 7 10 8 7 9 8 10 79 11 9 12
REMARK SMILES IDX 6 13 4 14 5 15 3 17 80 18 84 19 81 20 83 21 82 22 2 25 1 26
REMARK SMILES IDX 18 27 19 28 20 29 21 30 22 31 23 32 24 33 25 34 26 35 78 36
REMARK SMILES IDX 27 37 77 38 28 39 29 40 30 41 71 42 31 43 76 44 70 45 72 46
REMARK SMILES IDX 32 47 75 48 69 49 68 50 33 52 59 53 42 54 58 55 43 56 46 57
REMARK SMILES IDX 57 58 73 59 44 60 45 61 56 63 74 64 47 65 34 66 35 67 40 68
REMARK SMILES IDX 36 69 37 70 39 71 41 72 38 73 60 74 61 75 66 76 62 77 63 78
REMARK SMILES IDX 65 79 67 80 64 81 48 82 49 83 54 84 50 85 51 86 53 87 55 88
REMARK SMILES IDX 52 89
REMARK H PARENT 6 16 82 23 82 24 72 51 46 62
REMARK Flexibility Score: inf
ROOT
ATOM      1  C   UNL A   1      42.944  19.296  25.843  1.00  0.00     0.188 C 
ENDROOT
BRANCH   1   2
ATOM      2  O   UNL A   1      42.190  20.113  26.725  1.00  0.00    -0.376 OA
BRANCH   2   3
ATOM      3  C   UNL A   1      41.386  21.159  26.175  1.00  0.00     0.202 C 
BRANCH   3   4
ATOM      4  C   UNL A   1      39.879  20.941  25.978  1.00  0.00     0.261 C 
BRANCH   4   5
ATOM      5  O   UNL A   1      39.107  21.920  26.689  1.00  0.00    -0.463 OA
BRANCH   5   6
ATOM      6  C   UNL A   1      38.203  22.610  25.942  1.00  0.00     0.312 C 
ATOM      7  O   UNL A   1      38.053  23.825  25.977  1.00  0.00    -0.252 OA
BRANCH   6   8
ATOM      8  C   UNL A   1      37.516  21.674  24.948  1.00  0.00     0.124 C 
ATOM      9  C   UNL A   1      35.695  22.964  23.968  1.00  0.00     0.106 C 
ATOM     10  C   UNL A   1      35.184  21.870  24.866  1.00  0.00    -0.006 C 
ATOM     11  C   UNL A   1      37.119  22.465  23.691  1.00  0.00     0.048 C 
ATOM     12  C   UNL A   1      36.188  21.181  25.423  1.00  0.00    -0.014 C 
BRANCH   9  13
ATOM     13  N   UNL A   1      34.825  23.070  22.813  1.00  0.00    -0.349 N 
ATOM     14  C   UNL A   1      33.672  23.737  22.532  1.00  0.00     0.227 C 
ATOM     15  O   UNL A   1      33.152  23.414  21.456  1.00  0.00    -0.274 OA
ATOM     16  H   UNL A   1      35.142  22.532  22.052  1.00  0.00     0.164 HD
BRANCH  14  17
ATOM     17  C   UNL A   1      33.079  24.901  23.373  1.00  0.00     0.060 C 
ATOM     18  C   UNL A   1      34.107  25.586  24.306  1.00  0.00     0.078 C 
ATOM     19  C   UNL A   1      32.472  25.901  22.347  1.00  0.00     0.078 C 
ATOM     20  C   UNL A   1      33.715  26.998  24.734  1.00  0.00     0.261 C 
ATOM     21  C   UNL A   1      32.255  27.314  22.869  1.00  0.00     0.261 C 
ATOM     22  N   UNL A   1      33.436  27.820  23.560  1.00  0.00    -0.346 N 
ATOM     23  H   UNL A   1      34.235  27.789  22.928  1.00  0.00     0.346 HD
ATOM     24  H   UNL A   1      33.266  28.781  23.855  1.00  0.00     0.346 HD
BRANCH  17  25
ATOM     25  C   UNL A   1      31.880  24.381  24.253  1.00  0.00     0.014 C 
ATOM     26  C   UNL A   1      30.638  23.879  23.515  1.00  0.00     0.005 C 
ENDBRANCH  17  25
ENDBRANCH  14  17
ENDBRANCH   9  13
ENDBRANCH   6   8
ENDBRANCH   5   6
ENDBRANCH   4   5
ENDBRANCH   3   4
ENDBRANCH   2   3
ENDBRANCH   1   2
BRANCH   1  27
ATOM     27  C   UNL A   1      43.998  19.952  24.932  1.00  0.00     0.188 C 
BRANCH  27  28
ATOM     28  O   UNL A   1      45.273  20.207  25.469  1.00  0.00    -0.376 OA
BRANCH  28  29
ATOM     29  C   UNL A   1      46.045  21.315  25.027  1.00  0.00     0.202 C 
BRANCH  29  30
ATOM     30  C   UNL A   1      45.969  22.764  25.558  1.00  0.00     0.261 C 
BRANCH  30  31
ATOM     31  O   UNL A   1      44.774  23.184  26.218  1.00  0.00    -0.460 OA
BRANCH  31  32
ATOM     32  C   UNL A   1      43.867  23.799  25.424  1.00  0.00     0.338 C 
ATOM     33  O   UNL A   1      43.540  23.488  24.286  1.00  0.00    -0.246 OA
BRANCH  32  34
ATOM     34  C   UNL A   1      43.151  24.815  26.209  1.00  0.00     0.060 A 
ATOM     35  C   UNL A   1      43.749  26.073  26.366  1.00  0.00     0.016 A 
ATOM     36  C   UNL A   1      41.949  24.510  26.850  1.00  0.00     0.016 A 
ATOM     37  C   UNL A   1      43.166  27.023  27.199  1.00  0.00     0.010 A 
ATOM     38  C   UNL A   1      41.378  25.454  27.705  1.00  0.00     0.010 A 
ATOM     39  C   UNL A   1      42.006  26.696  27.912  1.00  0.00    -0.014 A 
BRANCH  39  40
ATOM     40  C   UNL A   1      41.584  27.569  29.031  1.00  0.00     0.031 A 
ATOM     41  C   UNL A   1      42.333  27.479  30.330  1.00  0.00     0.074 A 
ATOM     42  C   UNL A   1      40.573  28.442  28.892  1.00  0.00     0.049 A 
ATOM     43  N   UNL A   1      42.132  28.119  31.453  1.00  0.00    -0.248 NA
ATOM     44  C   UNL A   1      43.457  26.530  30.367  1.00  0.00     0.031 C 
ATOM     45  C   UNL A   1      39.786  28.634  27.678  1.00  0.00     0.029 A 
ATOM     46  N   UNL A   1      40.031  29.321  29.794  1.00  0.00    -0.354 N 
ATOM     47  C   UNL A   1      43.093  27.640  32.333  1.00  0.00     0.074 A 
ATOM     48  C   UNL A   1      43.858  26.638  31.625  1.00  0.00     0.031 C 
ATOM     49  C   UNL A   1      38.844  29.564  27.915  1.00  0.00     0.029 A 
ATOM     50  C   UNL A   1      38.948  30.007  29.305  1.00  0.00     0.049 A 
ATOM     51  H   UNL A   1      40.383  29.448  30.704  1.00  0.00     0.167 HD
ATOM     52  C   UNL A   1      43.319  28.005  33.618  1.00  0.00     0.037 A 
ATOM     53  C   UNL A   1      38.119  30.874  29.919  1.00  0.00     0.037 A 
ATOM     54  C   UNL A   1      42.556  29.001  34.321  1.00  0.00     0.049 A 
ATOM     55  C   UNL A   1      38.364  31.240  31.359  1.00  0.00     0.074 A 
ATOM     56  C   UNL A   1      42.730  29.470  35.611  1.00  0.00     0.029 A 
ATOM     57  N   UNL A   1      41.462  29.672  33.795  1.00  0.00    -0.354 N 
ATOM     58  N   UNL A   1      39.299  30.813  32.173  1.00  0.00    -0.248 NA
ATOM     59  C   UNL A   1      37.442  32.212  31.962  1.00  0.00     0.031 C 
ATOM     60  C   UNL A   1      41.707  30.384  35.885  1.00  0.00     0.029 A 
ATOM     61  C   UNL A   1      40.931  30.529  34.744  1.00  0.00     0.049 A 
ATOM     62  H   UNL A   1      41.113  29.557  32.881  1.00  0.00     0.167 HD
ATOM     63  C   UNL A   1      39.094  31.481  33.376  1.00  0.00     0.074 A 
ATOM     64  C   UNL A   1      37.951  32.349  33.178  1.00  0.00     0.031 C 
ATOM     65  C   UNL A   1      39.789  31.384  34.536  1.00  0.00     0.037 A 
BRANCH  52  66
ATOM     66  C   UNL A   1      44.413  27.282  34.350  1.00  0.00     0.057 A 
ATOM     67  C   UNL A   1      44.183  26.085  35.042  1.00  0.00     0.134 A 
ATOM     68  C   UNL A   1      45.713  27.800  34.369  1.00  0.00     0.134 A 
ATOM     69  F   UNL A   1      42.955  25.546  35.078  1.00  0.00    -0.206 F 
ATOM     70  C   UNL A   1      45.199  25.449  35.756  1.00  0.00     0.040 A 
ATOM     71  C   UNL A   1      46.744  27.157  35.056  1.00  0.00     0.040 A 
ATOM     72  F   UNL A   1      46.004  28.941  33.726  1.00  0.00    -0.206 F 
ATOM     73  C   UNL A   1      46.486  25.983  35.761  1.00  0.00     0.006 A 
ENDBRANCH  52  66
BRANCH  53  74
ATOM     74  C   UNL A   1      36.970  31.441  29.172  1.00  0.00     0.057 A 
ATOM     75  C   UNL A   1      35.812  30.694  28.937  1.00  0.00     0.134 A 
ATOM     76  C   UNL A   1      37.002  32.755  28.685  1.00  0.00     0.134 A 
ATOM     77  F   UNL A   1      35.732  29.424  29.359  1.00  0.00    -0.206 F 
ATOM     78  C   UNL A   1      34.729  31.227  28.237  1.00  0.00     0.040 A 
ATOM     79  C   UNL A   1      35.916  33.309  28.005  1.00  0.00     0.040 A 
ATOM     80  F   UNL A   1      38.083  33.524  28.883  1.00  0.00    -0.206 F 
ATOM     81  C   UNL A   1      34.777  32.542  27.776  1.00  0.00     0.006 A 
ENDBRANCH  53  74
BRANCH  65  82
ATOM     82  C   UNL A   1      39.353  32.261  35.676  1.00  0.00     0.057 A 
ATOM     83  C   UNL A   1      39.831  33.568  35.832  1.00  0.00     0.134 A 
ATOM     84  C   UNL A   1      38.410  31.804  36.606  1.00  0.00     0.134 A 
ATOM     85  F   UNL A   1      40.744  34.065  34.982  1.00  0.00    -0.206 F 
ATOM     86  C   UNL A   1      39.407  34.380  36.886  1.00  0.00     0.040 A 
ATOM     87  C   UNL A   1      37.958  32.615  37.648  1.00  0.00     0.040 A 
ATOM     88  F   UNL A   1      37.902  30.566  36.509  1.00  0.00    -0.206 F 
ATOM     89  C   UNL A   1      38.462  33.905  37.795  1.00  0.00     0.006 A 
ENDBRANCH  65  82
ENDBRANCH  39  40
ENDBRANCH  32  34
ENDBRANCH  31  32
ENDBRANCH  30  31
ENDBRANCH  29  30
ENDBRANCH  28  29
ENDBRANCH  27  28
ENDBRANCH   1  27
TORSDOF 20
ENDMDL
MODEL 2
REMARK VINA RESULT:     -10.0      2.019      6.765
REMARK SMILES CCC1(C(=O)N[C@H]2C=C[C@H](C(=O)OCCOCCOCCOC(=O)c3ccc(-c4c5nc(c(-c6c(F)cccc6F)c6ccc([nH]6)c(-c6c(F)cccc6F)c6nc(c(-c7c(F)cccc7F)c7ccc4[nH]7)C=C6)C=C5)cc3)C2)CC[NH2+]CC1
REMARK SMILES IDX 17 1 16 2 15 3 14 4 13 5 11 6 12 7 10 8 7 9 8 10 79 11 9 12
REMARK SMILES IDX 6 13 4 14 5 15 3 17 80 18 84 19 81 20 83 21 82 22 2 25 1 26
REMARK SMILES IDX 18 27 19 28 20 29 21 30 22 31 23 32 24 33 25 34 26 35 78 36
REMARK SMILES IDX 27 37 77 38 28 39 29 40 30 41 71 42 31 43 76 44 70 45 72 46
REMARK SMILES IDX 32 47 75 48 69 49 68 50 33 52 59 53 42 54 58 55 43 56 46 57
REMARK SMILES IDX 57 58 73 59 44 60 45 61 56 63 74 64 47 65 34 66 35 67 40 68
REMARK SMILES IDX 36 69 37 70 39 71 41 72 38 73 60 74 61 75 66 76 62 77 63 78
REMARK SMILES IDX 65 79 67 80 64 81 48 82 49 83 54 84 50 85 51 86 53 87 55 88
REMARK SMILES IDX 52 89
REMARK H PARENT 6 16 82 23 82 24 72 51 46 62
REMARK Flexibility Score: inf
ROOT
ATOM      1  C   UNL A   1      39.016  21.616  26.012  1.00  0.00     0.188 C 
ENDROOT
BRANCH   1   2
ATOM      2  O   UNL A   1      38.014  21.597  25.006  1.00  0.00    -0.376 OA
BRANCH   2   3
ATOM      3  C   UNL A   1      36.643  21.698  25.400  1.00  0.00     0.202 C 
BRANCH   3   4
ATOM      4  C   UNL A   1      35.775  22.841  24.857  1.00  0.00     0.261 C 
BRANCH   4   5
ATOM      5  O   UNL A   1      34.390  22.468  24.794  1.00  0.00    -0.463 OA
BRANCH   5   6
ATOM      6  C   UNL A   1      33.624  22.875  25.842  1.00  0.00     0.312 C 
ATOM      7  O   UNL A   1      34.030  23.549  26.781  1.00  0.00    -0.252 OA
BRANCH   6   8
ATOM      8  C   UNL A   1      32.161  22.506  25.601  1.00  0.00     0.124 C 
ATOM      9  C   UNL A   1      30.996  24.613  25.220  1.00  0.00     0.106 C 
ATOM     10  C   UNL A   1      30.608  23.991  26.533  1.00  0.00    -0.006 C 
ATOM     11  C   UNL A   1      31.584  23.398  24.490  1.00  0.00     0.048 C 
ATOM     12  C   UNL A   1      31.269  22.847  26.752  1.00  0.00    -0.014 C 
BRANCH   9  13
ATOM     13  N   UNL A   1      29.821  25.208  24.615  1.00  0.00    -0.349 N 
ATOM     14  C   UNL A   1      29.544  26.394  24.007  1.00  0.00     0.227 C 
ATOM     15  O   UNL A   1      28.342  26.574  23.776  1.00  0.00    -0.274 OA
ATOM     16  H   UNL A   1      29.036  24.614  24.653  1.00  0.00     0.164 HD
BRANCH  14  17
ATOM     17  C   UNL A   1      30.603  27.412  23.501  1.00  0.00     0.060 C 
ATOM     18  C   UNL A   1      31.397  28.105  24.634  1.00  0.00     0.078 C 
ATOM     19  C   UNL A   1      31.536  26.616  22.543  1.00  0.00     0.078 C 
ATOM     20  C   UNL A   1      32.737  28.688  24.190  1.00  0.00     0.261 C 
ATOM     21  C   UNL A   1      32.897  27.248  22.290  1.00  0.00     0.261 C 
ATOM     22  N   UNL A   1      33.539  27.660  23.533  1.00  0.00    -0.346 N 
ATOM     23  H   UNL A   1      33.627  26.853  24.151  1.00  0.00     0.346 HD
ATOM     24  H   UNL A   1      34.463  28.037  23.325  1.00  0.00     0.346 HD
BRANCH  17  25
ATOM     25  C   UNL A   1      29.912  28.527  22.627  1.00  0.00     0.014 C 
ATOM     26  C   UNL A   1      29.519  29.824  23.334  1.00  0.00     0.005 C 
ENDBRANCH  17  25
ENDBRANCH  14  17
ENDBRANCH   9  13
ENDBRANCH   6   8
ENDBRANCH   5   6
ENDBRANCH   4   5
ENDBRANCH   3   4
ENDBRANCH   2   3
ENDBRANCH   1   2
BRANCH   1  27
ATOM     27  C   UNL A   1      40.034  20.462  26.075  1.00  0.00     0.188 C 
BRANCH  27  28
ATOM     28  O   UNL A   1      41.334  20.748  26.529  1.00  0.00    -0.376 OA
BRANCH  28  29
ATOM     29  C   UNL A   1      42.145  21.707  25.866  1.00  0.00     0.202 C 
BRANCH  29  30
ATOM     30  C   UNL A   1      42.433  23.153  26.329  1.00  0.00     0.261 C 
BRANCH  30  31
ATOM     31  O   UNL A   1      41.370  24.106  26.280  1.00  0.00    -0.460 OA
BRANCH  31  32
ATOM     32  C   UNL A   1      41.736  25.352  25.900  1.00  0.00     0.338 C 
ATOM     33  O   UNL A   1      42.262  25.687  24.846  1.00  0.00    -0.246 OA
BRANCH  32  34
ATOM     34  C   UNL A   1      41.221  26.324  26.877  1.00  0.00     0.060 A 
ATOM     35  C   UNL A   1      41.709  27.637  26.826  1.00  0.00     0.016 A 
ATOM     36  C   UNL A   1      40.333  25.929  27.878  1.00  0.00     0.016 A 
ATOM     37  C   UNL A   1      41.340  28.555  27.803  1.00  0.00     0.010 A 
ATOM     38  C   UNL A   1      39.984  26.844  28.873  1.00  0.00     0.010 A 
ATOM     39  C   UNL A   1      40.518  28.146  28.860  1.00  0.00    -0.014 A 
BRANCH  39  40
ATOM     40  C   UNL A   1      40.403  29.013  30.054  1.00  0.00     0.031 A 
ATOM     41  C   UNL A   1      39.313  30.046  30.085  1.00  0.00     0.074 A 
ATOM     42  C   UNL A   1      41.230  28.871  31.103  1.00  0.00     0.049 A 
ATOM     43  N   UNL A   1      39.031  30.933  31.005  1.00  0.00    -0.248 NA
ATOM     44  C   UNL A   1      38.425  30.090  28.912  1.00  0.00     0.031 C 
ATOM     45  C   UNL A   1      42.309  27.893  31.199  1.00  0.00     0.029 A 
ATOM     46  N   UNL A   1      41.292  29.566  32.283  1.00  0.00    -0.354 N 
ATOM     47  C   UNL A   1      37.947  31.648  30.516  1.00  0.00     0.074 A 
ATOM     48  C   UNL A   1      37.638  31.112  29.208  1.00  0.00     0.031 C 
ATOM     49  C   UNL A   1      42.944  28.062  32.372  1.00  0.00     0.029 A 
ATOM     50  C   UNL A   1      42.331  29.178  33.092  1.00  0.00     0.049 A 
ATOM     51  H   UNL A   1      40.656  30.276  32.527  1.00  0.00     0.167 HD
ATOM     52  C   UNL A   1      37.266  32.660  31.105  1.00  0.00     0.037 A 
ATOM     53  C   UNL A   1      42.752  29.684  34.267  1.00  0.00     0.037 A 
ATOM     54  C   UNL A   1      37.576  33.192  32.405  1.00  0.00     0.049 A 
ATOM     55  C   UNL A   1      42.006  30.834  34.890  1.00  0.00     0.074 A 
ATOM     56  C   UNL A   1      36.924  34.191  33.106  1.00  0.00     0.029 A 
ATOM     57  N   UNL A   1      38.639  32.778  33.194  1.00  0.00    -0.354 N 
ATOM     58  N   UNL A   1      40.956  31.479  34.440  1.00  0.00    -0.248 NA
ATOM     59  C   UNL A   1      42.500  31.321  36.185  1.00  0.00     0.031 C 
ATOM     60  C   UNL A   1      37.625  34.418  34.295  1.00  0.00     0.029 A 
ATOM     61  C   UNL A   1      38.680  33.520  34.361  1.00  0.00     0.049 A 
ATOM     62  H   UNL A   1      39.272  32.060  32.958  1.00  0.00     0.167 HD
ATOM     63  C   UNL A   1      40.649  32.431  35.406  1.00  0.00     0.074 A 
ATOM     64  C   UNL A   1      41.618  32.269  36.470  1.00  0.00     0.031 C 
ATOM     65  C   UNL A   1      39.655  33.353  35.411  1.00  0.00     0.037 A 
BRANCH  52  66
ATOM     66  C   UNL A   1      36.149  33.280  30.317  1.00  0.00     0.057 A 
ATOM     67  C   UNL A   1      34.802  32.983  30.570  1.00  0.00     0.134 A 
ATOM     68  C   UNL A   1      36.428  34.180  29.282  1.00  0.00     0.134 A 
ATOM     69  F   UNL A   1      34.469  32.114  31.536  1.00  0.00    -0.206 F 
ATOM     70  C   UNL A   1      33.778  33.531  29.799  1.00  0.00     0.040 A 
ATOM     71  C   UNL A   1      35.409  34.757  28.522  1.00  0.00     0.040 A 
ATOM     72  F   UNL A   1      37.694  34.510  28.986  1.00  0.00    -0.206 F 
ATOM     73  C   UNL A   1      34.079  34.425  28.773  1.00  0.00     0.006 A 
ENDBRANCH  52  66
BRANCH  53  74
ATOM     74  C   UNL A   1      43.955  29.111  34.920  1.00  0.00     0.057 A 
ATOM     75  C   UNL A   1      43.856  28.065  35.842  1.00  0.00     0.134 A 
ATOM     76  C   UNL A   1      45.237  29.593  34.624  1.00  0.00     0.134 A 
ATOM     77  F   UNL A   1      42.654  27.577  36.182  1.00  0.00    -0.206 F 
ATOM     78  C   UNL A   1      44.987  27.522  36.454  1.00  0.00     0.040 A 
ATOM     79  C   UNL A   1      46.378  29.044  35.211  1.00  0.00     0.040 A 
ATOM     80  F   UNL A   1      45.398  30.593  33.744  1.00  0.00    -0.206 F 
ATOM     81  C   UNL A   1      46.253  28.007  36.133  1.00  0.00     0.006 A 
ENDBRANCH  53  74
BRANCH  65  82
ATOM     82  C   UNL A   1      39.544  34.241  36.618  1.00  0.00     0.057 A 
ATOM     83  C   UNL A   1      40.092  35.529  36.646  1.00  0.00     0.134 A 
ATOM     84  C   UNL A   1      38.843  33.814  37.754  1.00  0.00     0.134 A 
ATOM     85  F   UNL A   1      40.786  35.995  35.595  1.00  0.00    -0.206 F 
ATOM     86  C   UNL A   1      39.970  36.351  37.768  1.00  0.00     0.040 A 
ATOM     87  C   UNL A   1      38.690  34.637  38.871  1.00  0.00     0.040 A 
ATOM     88  F   UNL A   1      38.281  32.595  37.791  1.00  0.00    -0.206 F 
ATOM     89  C   UNL A   1      39.261  35.907  38.883  1.00  0.00     0.006 A 
ENDBRANCH  65  82
ENDBRANCH  39  40
ENDBRANCH  32  34
ENDBRANCH  31  32
ENDBRANCH  30  31
ENDBRANCH  29  30
ENDBRANCH  28  29
ENDBRANCH  27  28
ENDBRANCH   1  27
TORSDOF 20
ENDMDL
MODEL 3
REMARK VINA RESULT:      -9.8      4.936     10.400
REMARK SMILES CCC1(C(=O)N[C@H]2C=C[C@H](C(=O)OCCOCCOCCOC(=O)c3ccc(-c4c5nc(c(-c6c(F)cccc6F)c6ccc([nH]6)c(-c6c(F)cccc6F)c6nc(c(-c7c(F)cccc7F)c7ccc4[nH]7)C=C6)C=C5)cc3)C2)CC[NH2+]CC1
REMARK SMILES IDX 17 1 16 2 15 3 14 4 13 5 11 6 12 7 10 8 7 9 8 10 79 11 9 12
REMARK SMILES IDX 6 13 4 14 5 15 3 17 80 18 84 19 81 20 83 21 82 22 2 25 1 26
REMARK SMILES IDX 18 27 19 28 20 29 21 30 22 31 23 32 24 33 25 34 26 35 78 36
REMARK SMILES IDX 27 37 77 38 28 39 29 40 30 41 71 42 31 43 76 44 70 45 72 46
REMARK SMILES IDX 32 47 75 48 69 49 68 50 33 52 59 53 42 54 58 55 43 56 46 57
REMARK SMILES IDX 57 58 73 59 44 60 45 61 56 63 74 64 47 65 34 66 35 67 40 68
REMARK SMILES IDX 36 69 37 70 39 71 41 72 38 73 60 74 61 75 66 76 62 77 63 78
REMARK SMILES IDX 65 79 67 80 64 81 48 82 49 83 54 84 50 85 51 86 53 87 55 88
REMARK SMILES IDX 52 89
REMARK H PARENT 6 16 82 23 82 24 72 51 46 62
REMARK Flexibility Score: inf
ROOT
ATOM      1  C   UNL A   1      34.388  34.812  28.429  1.00  0.00     0.188 C 
ENDROOT
BRANCH   1   2
ATOM      2  O   UNL A   1      34.387  33.641  27.626  1.00  0.00    -0.376 OA
BRANCH   2   3
ATOM      3  C   UNL A   1      33.962  32.407  28.211  1.00  0.00     0.202 C 
BRANCH   3   4
ATOM      4  C   UNL A   1      33.281  31.343  27.339  1.00  0.00     0.261 C 
BRANCH   4   5
ATOM      5  O   UNL A   1      34.073  30.150  27.248  1.00  0.00    -0.463 OA
BRANCH   5   6
ATOM      6  C   UNL A   1      33.657  29.237  26.328  1.00  0.00     0.312 C 
ATOM      7  O   UNL A   1      34.396  28.640  25.556  1.00  0.00    -0.252 OA
BRANCH   6   8
ATOM      8  C   UNL A   1      32.166  28.953  26.504  1.00  0.00     0.124 C 
ATOM      9  C   UNL A   1      31.939  26.528  26.462  1.00  0.00     0.106 C 
ATOM     10  C   UNL A   1      31.351  27.164  25.233  1.00  0.00    -0.006 C 
ATOM     11  C   UNL A   1      31.981  27.729  27.415  1.00  0.00     0.048 C 
ATOM     12  C   UNL A   1      31.500  28.494  25.247  1.00  0.00    -0.014 C 
BRANCH   9  13
ATOM     13  N   UNL A   1      31.093  25.424  26.872  1.00  0.00    -0.349 N 
ATOM     14  C   UNL A   1      31.127  24.072  26.713  1.00  0.00     0.227 C 
ATOM     15  O   UNL A   1      30.097  23.495  27.085  1.00  0.00    -0.274 OA
ATOM     16  H   UNL A   1      30.309  25.722  27.387  1.00  0.00     0.164 HD
BRANCH  14  17
ATOM     17  C   UNL A   1      32.360  23.253  26.242  1.00  0.00     0.060 C 
ATOM     18  C   UNL A   1      33.417  23.020  27.348  1.00  0.00     0.078 C 
ATOM     19  C   UNL A   1      31.794  21.913  25.689  1.00  0.00     0.078 C 
ATOM     20  C   UNL A   1      34.343  21.834  27.085  1.00  0.00     0.261 C 
ATOM     21  C   UNL A   1      32.798  20.772  25.603  1.00  0.00     0.261 C 
ATOM     22  N   UNL A   1      33.557  20.628  26.840  1.00  0.00    -0.346 N 
ATOM     23  H   UNL A   1      32.912  20.481  27.616  1.00  0.00     0.346 HD
ATOM     24  H   UNL A   1      34.185  19.829  26.758  1.00  0.00     0.346 HD
BRANCH  17  25
ATOM     25  C   UNL A   1      33.062  23.975  25.029  1.00  0.00     0.014 C 
ATOM     26  C   UNL A   1      34.501  24.448  25.237  1.00  0.00     0.005 C 
ENDBRANCH  17  25
ENDBRANCH  14  17
ENDBRANCH   9  13
ENDBRANCH   6   8
ENDBRANCH   5   6
ENDBRANCH   4   5
ENDBRANCH   3   4
ENDBRANCH   2   3
ENDBRANCH   1   2
BRANCH   1  27
ATOM     27  C   UNL A   1      33.237  35.035  29.428  1.00  0.00     0.188 C 
BRANCH  27  28
ATOM     28  O   UNL A   1      33.499  34.840  30.796  1.00  0.00    -0.376 OA
BRANCH  28  29
ATOM     29  C   UNL A   1      34.789  35.091  31.337  1.00  0.00     0.202 C 
BRANCH  29  30
ATOM     30  C   UNL A   1      35.476  34.319  32.485  1.00  0.00     0.261 C 
BRANCH  30  31
ATOM     31  O   UNL A   1      36.506  33.387  32.156  1.00  0.00    -0.460 OA
BRANCH  31  32
ATOM     32  C   UNL A   1      36.092  32.108  31.999  1.00  0.00     0.338 C 
ATOM     33  O   UNL A   1      34.982  31.650  32.234  1.00  0.00    -0.246 OA
BRANCH  32  34
ATOM     34  C   UNL A   1      37.136  31.347  31.295  1.00  0.00     0.060 A 
ATOM     35  C   UNL A   1      38.030  30.586  32.061  1.00  0.00     0.016 A 
ATOM     36  C   UNL A   1      37.284  31.447  29.912  1.00  0.00     0.016 A 
ATOM     37  C   UNL A   1      39.104  29.948  31.448  1.00  0.00     0.010 A 
ATOM     38  C   UNL A   1      38.377  30.828  29.301  1.00  0.00     0.010 A 
ATOM     39  C   UNL A   1      39.311  30.112  30.073  1.00  0.00    -0.014 A 
BRANCH  39  40
ATOM     40  C   UNL A   1      40.614  29.719  29.493  1.00  0.00     0.031 A 
ATOM     41  C   UNL A   1      40.773  28.318  28.975  1.00  0.00     0.074 A 
ATOM     42  C   UNL A   1      41.630  30.593  29.402  1.00  0.00     0.049 A 
ATOM     43  N   UNL A   1      41.823  27.739  28.450  1.00  0.00    -0.248 NA
ATOM     44  C   UNL A   1      39.588  27.451  29.071  1.00  0.00     0.031 C 
ATOM     45  C   UNL A   1      41.589  31.982  29.850  1.00  0.00     0.029 A 
ATOM     46  N   UNL A   1      42.900  30.429  28.912  1.00  0.00    -0.354 N 
ATOM     47  C   UNL A   1      41.429  26.437  28.169  1.00  0.00     0.074 A 
ATOM     48  C   UNL A   1      40.056  26.303  28.605  1.00  0.00     0.031 C 
ATOM     49  C   UNL A   1      42.791  32.543  29.630  1.00  0.00     0.029 A 
ATOM     50  C   UNL A   1      43.689  31.542  29.054  1.00  0.00     0.049 A 
ATOM     51  H   UNL A   1      43.216  29.594  28.499  1.00  0.00     0.167 HD
ATOM     52  C   UNL A   1      42.147  25.442  27.596  1.00  0.00     0.037 A 
ATOM     53  C   UNL A   1      44.994  31.723  28.774  1.00  0.00     0.037 A 
ATOM     54  C   UNL A   1      43.512  25.577  27.164  1.00  0.00     0.049 A 
ATOM     55  C   UNL A   1      45.787  30.594  28.171  1.00  0.00     0.074 A 
ATOM     56  C   UNL A   1      44.315  24.641  26.537  1.00  0.00     0.029 A 
ATOM     57  N   UNL A   1      44.282  26.719  27.329  1.00  0.00    -0.354 N 
ATOM     58  N   UNL A   1      45.397  29.379  27.871  1.00  0.00    -0.248 NA
ATOM     59  C   UNL A   1      47.198  30.865  27.864  1.00  0.00     0.031 C 
ATOM     60  C   UNL A   1      45.588  25.198  26.373  1.00  0.00     0.029 A 
ATOM     61  C   UNL A   1      45.561  26.502  26.844  1.00  0.00     0.049 A 
ATOM     62  H   UNL A   1      43.966  27.561  27.731  1.00  0.00     0.167 HD
ATOM     63  C   UNL A   1      46.505  28.747  27.318  1.00  0.00     0.074 A 
ATOM     64  C   UNL A   1      47.579  29.719  27.315  1.00  0.00     0.031 C 
ATOM     65  C   UNL A   1      46.622  27.478  26.853  1.00  0.00     0.037 A 
BRANCH  52  66
ATOM     66  C   UNL A   1      41.470  24.110  27.449  1.00  0.00     0.057 A 
ATOM     67  C   UNL A   1      40.464  23.885  26.499  1.00  0.00     0.134 A 
ATOM     68  C   UNL A   1      41.825  23.041  28.280  1.00  0.00     0.134 A 
ATOM     69  F   UNL A   1      40.065  24.873  25.685  1.00  0.00    -0.206 F 
ATOM     70  C   UNL A   1      39.812  22.655  26.406  1.00  0.00     0.040 A 
ATOM     71  C   UNL A   1      41.199  21.798  28.176  1.00  0.00     0.040 A 
ATOM     72  F   UNL A   1      42.781  23.186  29.210  1.00  0.00    -0.206 F 
ATOM     73  C   UNL A   1      40.182  21.605  27.244  1.00  0.00     0.006 A 
ENDBRANCH  52  66
BRANCH  53  74
ATOM     74  C   UNL A   1      45.634  33.027  29.080  1.00  0.00     0.057 A 
ATOM     75  C   UNL A   1      45.645  34.070  28.149  1.00  0.00     0.134 A 
ATOM     76  C   UNL A   1      46.239  33.261  30.322  1.00  0.00     0.134 A 
ATOM     77  F   UNL A   1      45.101  33.897  26.936  1.00  0.00    -0.206 F 
ATOM     78  C   UNL A   1      46.243  35.298  28.437  1.00  0.00     0.040 A 
ATOM     79  C   UNL A   1      46.819  34.492  30.632  1.00  0.00     0.040 A 
ATOM     80  F   UNL A   1      46.256  32.301  31.259  1.00  0.00    -0.206 F 
ATOM     81  C   UNL A   1      46.826  35.514  29.685  1.00  0.00     0.006 A 
ENDBRANCH  53  74
BRANCH  65  82
ATOM     82  C   UNL A   1      47.950  27.075  26.274  1.00  0.00     0.057 A 
ATOM     83  C   UNL A   1      48.269  27.292  24.928  1.00  0.00     0.134 A 
ATOM     84  C   UNL A   1      48.936  26.500  27.087  1.00  0.00     0.134 A 
ATOM     85  F   UNL A   1      47.366  27.828  24.092  1.00  0.00    -0.206 F 
ATOM     86  C   UNL A   1      49.511  26.927  24.405  1.00  0.00     0.040 A 
ATOM     87  C   UNL A   1      50.191  26.158  26.582  1.00  0.00     0.040 A 
ATOM     88  F   UNL A   1      48.701  26.276  28.389  1.00  0.00    -0.206 F 
ATOM     89  C   UNL A   1      50.479  26.364  25.235  1.00  0.00     0.006 A 
ENDBRANCH  65  82
ENDBRANCH  39  40
ENDBRANCH  32  34
ENDBRANCH  31  32
ENDBRANCH  30  31
ENDBRANCH  29  30
ENDBRANCH  28  29
ENDBRANCH  27  28
ENDBRANCH   1  27
TORSDOF 20
ENDMDL
