MODEL 1
REMARK VINA RESULT:     -11.2      0.000      0.000
REMARK SMILES O=C(OCCOCCOCCOC(=O)[C@@H]1C=C[C@H](NC(=O)[C@@H]2Cc3ccccc3O2)C1)c1ccc(-c2c3nc(c(-c4c(F)cccc4F)c4ccc([nH]4)c(-c4c(F)cccc4F)c4nc(c(-c5c(F)cccc5F)c5ccc2[nH]5)C=C4)C=C3)cc1
REMARK SMILES IDX 7 1 6 2 5 3 4 4 3 5 2 6 1 7 32 8 33 9 85 10 34 11 84 12
REMARK SMILES IDX 35 13 36 14 37 15 78 16 38 17 83 18 77 19 79 20 39 21 82 22
REMARK SMILES IDX 76 23 75 24 40 26 66 27 49 28 65 29 50 30 53 31 64 32 80 33
REMARK SMILES IDX 51 34 52 35 63 37 81 38 54 39 41 40 42 41 47 42 43 43 44 44
REMARK SMILES IDX 46 45 48 46 45 47 67 48 68 49 73 50 69 51 70 52 72 53 74 54
REMARK SMILES IDX 71 55 55 56 56 57 61 58 57 59 58 60 60 61 62 62 59 63 8 64
REMARK SMILES IDX 9 65 10 66 11 67 12 68 13 69 14 70 15 71 16 72 31 73 17 74
REMARK SMILES IDX 18 75 19 76 20 77 21 79 22 80 23 81 30 82 24 83 29 84 25 85
REMARK SMILES IDX 28 86 26 87 27 88
REMARK H PARENT 79 25 53 36 19 78
REMARK Flexibility Score: inf
ROOT
ATOM      1  C   UNL A   1      41.319  19.283  26.060  1.00  0.00     0.188 C 
ENDROOT
BRANCH   1   2
ATOM      2  O   UNL A   1      42.455  19.474  25.204  1.00  0.00    -0.376 OA
BRANCH   2   3
ATOM      3  C   UNL A   1      43.464  20.306  25.791  1.00  0.00     0.202 C 
BRANCH   3   4
ATOM      4  C   UNL A   1      44.012  21.428  24.893  1.00  0.00     0.261 C 
BRANCH   4   5
ATOM      5  O   UNL A   1      43.256  22.648  24.973  1.00  0.00    -0.460 OA
BRANCH   5   6
ATOM      6  C   UNL A   1      43.696  23.905  25.223  1.00  0.00     0.338 C 
ATOM      7  O   UNL A   1      44.479  24.418  24.425  1.00  0.00    -0.246 OA
BRANCH   6   8
ATOM      8  C   UNL A   1      43.283  24.720  26.410  1.00  0.00     0.060 A 
ATOM      9  C   UNL A   1      42.402  24.305  27.410  1.00  0.00     0.016 A 
ATOM     10  C   UNL A   1      43.887  25.981  26.556  1.00  0.00     0.016 A 
ATOM     11  C   UNL A   1      42.048  25.143  28.464  1.00  0.00     0.010 A 
ATOM     12  C   UNL A   1      43.575  26.813  27.640  1.00  0.00     0.010 A 
ATOM     13  C   UNL A   1      42.625  26.406  28.583  1.00  0.00    -0.014 A 
BRANCH  13  14
ATOM     14  C   UNL A   1      42.127  27.325  29.629  1.00  0.00     0.031 A 
ATOM     15  C   UNL A   1      42.814  27.345  30.955  1.00  0.00     0.074 A 
ATOM     16  C   UNL A   1      41.154  28.216  29.370  1.00  0.00     0.049 A 
ATOM     17  N   UNL A   1      42.533  28.058  32.012  1.00  0.00    -0.248 NA
ATOM     18  C   UNL A   1      43.991  26.474  31.098  1.00  0.00     0.031 C 
ATOM     19  C   UNL A   1      40.525  28.400  28.069  1.00  0.00     0.029 A 
ATOM     20  N   UNL A   1      40.543  29.146  30.171  1.00  0.00    -0.354 N 
ATOM     21  C   UNL A   1      43.492  27.719  32.951  1.00  0.00     0.074 A 
ATOM     22  C   UNL A   1      44.357  26.730  32.345  1.00  0.00     0.031 C 
ATOM     23  C   UNL A   1      39.607  29.374  28.170  1.00  0.00     0.029 A 
ATOM     24  C   UNL A   1      39.537  29.837  29.540  1.00  0.00     0.049 A 
ATOM     25  H   UNL A   1      40.800  29.304  31.108  1.00  0.00     0.167 HD
ATOM     26  C   UNL A   1      43.630  28.191  34.210  1.00  0.00     0.037 A 
ATOM     27  C   UNL A   1      38.642  30.718  30.022  1.00  0.00     0.037 A 
ATOM     28  C   UNL A   1      42.763  29.171  34.808  1.00  0.00     0.049 A 
ATOM     29  C   UNL A   1      38.740  31.117  31.455  1.00  0.00     0.074 A 
ATOM     30  C   UNL A   1      42.811  29.702  36.084  1.00  0.00     0.029 A 
ATOM     31  N   UNL A   1      41.679  29.756  34.171  1.00  0.00    -0.354 N 
ATOM     32  N   UNL A   1      39.616  30.746  32.350  1.00  0.00    -0.248 NA
ATOM     33  C   UNL A   1      37.730  32.071  31.935  1.00  0.00     0.031 C 
ATOM     34  C   UNL A   1      41.718  30.561  36.241  1.00  0.00     0.029 A 
ATOM     35  C   UNL A   1      41.021  30.604  35.046  1.00  0.00     0.049 A 
ATOM     36  H   UNL A   1      41.416  29.592  33.237  1.00  0.00     0.167 HD
ATOM     37  C   UNL A   1      39.267  31.422  33.504  1.00  0.00     0.074 A 
ATOM     38  C   UNL A   1      38.119  32.247  33.185  1.00  0.00     0.031 C 
ATOM     39  C   UNL A   1      39.848  31.366  34.723  1.00  0.00     0.037 A 
BRANCH  26  40
ATOM     40  C   UNL A   1      44.710  27.577  35.041  1.00  0.00     0.057 A 
ATOM     41  C   UNL A   1      46.010  28.096  35.091  1.00  0.00     0.134 A 
ATOM     42  C   UNL A   1      44.439  26.423  35.785  1.00  0.00     0.134 A 
ATOM     43  F   UNL A   1      46.338  29.178  34.369  1.00  0.00    -0.206 F 
ATOM     44  C   UNL A   1      47.009  27.474  35.840  1.00  0.00     0.040 A 
ATOM     45  C   UNL A   1      45.423  25.806  36.556  1.00  0.00     0.040 A 
ATOM     46  F   UNL A   1      43.216  25.871  35.764  1.00  0.00    -0.206 F 
ATOM     47  C   UNL A   1      46.714  26.330  36.580  1.00  0.00     0.006 A 
ENDBRANCH  26  40
BRANCH  27  48
ATOM     48  C   UNL A   1      37.506  31.247  29.232  1.00  0.00     0.057 A 
ATOM     49  C   UNL A   1      37.486  32.566  28.766  1.00  0.00     0.134 A 
ATOM     50  C   UNL A   1      36.342  30.481  29.080  1.00  0.00     0.134 A 
ATOM     51  F   UNL A   1      38.564  33.349  28.912  1.00  0.00    -0.206 F 
ATOM     52  C   UNL A   1      36.343  33.109  28.172  1.00  0.00     0.040 A 
ATOM     53  C   UNL A   1      35.192  31.014  28.494  1.00  0.00     0.040 A 
ATOM     54  F   UNL A   1      36.307  29.210  29.503  1.00  0.00    -0.206 F 
ATOM     55  C   UNL A   1      35.192  32.333  28.040  1.00  0.00     0.006 A 
ENDBRANCH  27  48
BRANCH  39  56
ATOM     56  C   UNL A   1      39.214  32.214  35.774  1.00  0.00     0.057 A 
ATOM     57  C   UNL A   1      39.595  33.549  35.961  1.00  0.00     0.134 A 
ATOM     58  C   UNL A   1      38.272  31.669  36.651  1.00  0.00     0.134 A 
ATOM     59  F   UNL A   1      40.528  34.107  35.175  1.00  0.00    -0.206 F 
ATOM     60  C   UNL A   1      39.079  34.307  37.010  1.00  0.00     0.040 A 
ATOM     61  C   UNL A   1      37.729  32.426  37.687  1.00  0.00     0.040 A 
ATOM     62  F   UNL A   1      37.887  30.390  36.530  1.00  0.00    -0.206 F 
ATOM     63  C   UNL A   1      38.140  33.746  37.874  1.00  0.00     0.006 A 
ENDBRANCH  39  56
ENDBRANCH  13  14
ENDBRANCH   6   8
ENDBRANCH   5   6
ENDBRANCH   4   5
ENDBRANCH   3   4
ENDBRANCH   2   3
ENDBRANCH   1   2
BRANCH   1  64
ATOM     64  C   UNL A   1      41.305  20.209  27.275  1.00  0.00     0.188 C 
BRANCH  64  65
ATOM     65  O   UNL A   1      40.250  21.162  27.383  1.00  0.00    -0.376 OA
BRANCH  65  66
ATOM     66  C   UNL A   1      39.938  21.962  26.248  1.00  0.00     0.202 C 
BRANCH  66  67
ATOM     67  C   UNL A   1      38.471  22.337  25.999  1.00  0.00     0.261 C 
BRANCH  67  68
ATOM     68  O   UNL A   1      37.915  21.735  24.829  1.00  0.00    -0.463 OA
BRANCH  68  69
ATOM     69  C   UNL A   1      36.771  22.319  24.369  1.00  0.00     0.312 C 
ATOM     70  O   UNL A   1      36.565  22.629  23.204  1.00  0.00    -0.252 OA
BRANCH  69  71
ATOM     71  C   UNL A   1      35.720  22.396  25.473  1.00  0.00     0.124 C 
ATOM     72  C   UNL A   1      34.676  21.359  25.209  1.00  0.00    -0.014 C 
ATOM     73  C   UNL A   1      34.909  23.694  25.502  1.00  0.00     0.048 C 
ATOM     74  C   UNL A   1      33.554  21.907  24.745  1.00  0.00    -0.006 C 
ATOM     75  C   UNL A   1      33.629  23.394  24.716  1.00  0.00     0.106 C 
BRANCH  75  76
ATOM     76  N   UNL A   1      33.671  23.872  23.357  1.00  0.00    -0.347 N 
ATOM     77  C   UNL A   1      33.480  25.104  22.819  1.00  0.00     0.261 C 
ATOM     78  H   UNL A   1      33.876  23.173  22.694  1.00  0.00     0.164 HD
ATOM     79  O   UNL A   1      33.777  25.210  21.620  1.00  0.00    -0.271 OA
BRANCH  77  80
ATOM     80  C   UNL A   1      32.894  26.323  23.562  1.00  0.00     0.266 C 
ATOM     81  C   UNL A   1      33.823  27.400  24.113  1.00  0.00     0.095 C 
ATOM     82  O   UNL A   1      31.962  25.934  24.603  1.00  0.00    -0.480 OA
ATOM     83  C   UNL A   1      33.133  27.767  25.356  1.00  0.00    -0.002 A 
ATOM     84  C   UNL A   1      32.057  26.924  25.544  1.00  0.00     0.123 A 
ATOM     85  C   UNL A   1      33.463  28.756  26.264  1.00  0.00     0.008 A 
ATOM     86  C   UNL A   1      31.213  27.084  26.618  1.00  0.00     0.047 A 
ATOM     87  C   UNL A   1      32.627  28.930  27.362  1.00  0.00     0.001 A 
ATOM     88  C   UNL A   1      31.498  28.111  27.528  1.00  0.00     0.004 A 
ENDBRANCH  77  80
ENDBRANCH  75  76
ENDBRANCH  69  71
ENDBRANCH  68  69
ENDBRANCH  67  68
ENDBRANCH  66  67
ENDBRANCH  65  66
ENDBRANCH  64  65
ENDBRANCH   1  64
TORSDOF 19
ENDMDL
MODEL 2
REMARK VINA RESULT:     -11.1      4.519     10.025
REMARK SMILES O=C(OCCOCCOCCOC(=O)[C@@H]1C=C[C@H](NC(=O)[C@@H]2Cc3ccccc3O2)C1)c1ccc(-c2c3nc(c(-c4c(F)cccc4F)c4ccc([nH]4)c(-c4c(F)cccc4F)c4nc(c(-c5c(F)cccc5F)c5ccc2[nH]5)C=C4)C=C3)cc1
REMARK SMILES IDX 7 1 6 2 5 3 4 4 3 5 2 6 1 7 32 8 33 9 85 10 34 11 84 12
REMARK SMILES IDX 35 13 36 14 37 15 78 16 38 17 83 18 77 19 79 20 39 21 82 22
REMARK SMILES IDX 76 23 75 24 40 26 66 27 49 28 65 29 50 30 53 31 64 32 80 33
REMARK SMILES IDX 51 34 52 35 63 37 81 38 54 39 41 40 42 41 47 42 43 43 44 44
REMARK SMILES IDX 46 45 48 46 45 47 67 48 68 49 73 50 69 51 70 52 72 53 74 54
REMARK SMILES IDX 71 55 55 56 56 57 61 58 57 59 58 60 60 61 62 62 59 63 8 64
REMARK SMILES IDX 9 65 10 66 11 67 12 68 13 69 14 70 15 71 16 72 31 73 17 74
REMARK SMILES IDX 18 75 19 76 20 77 21 79 22 80 23 81 30 82 24 83 29 84 25 85
REMARK SMILES IDX 28 86 26 87 27 88
REMARK H PARENT 79 25 53 36 19 78
REMARK Flexibility Score: inf
ROOT
ATOM      1  C   UNL A   1      33.498  34.778  28.728  1.00  0.00     0.188 C 
ENDROOT
BRANCH   1   2
ATOM      2  O   UNL A   1      32.558  35.135  29.752  1.00  0.00    -0.376 OA
BRANCH   2   3
ATOM      3  C   UNL A   1      33.135  35.134  31.064  1.00  0.00     0.202 C 
BRANCH   3   4
ATOM      4  C   UNL A   1      34.537  34.514  31.181  1.00  0.00     0.261 C 
BRANCH   4   5
ATOM      5  O   UNL A   1      34.527  33.154  31.647  1.00  0.00    -0.460 OA
BRANCH   5   6
ATOM      6  C   UNL A   1      35.456  32.503  32.388  1.00  0.00     0.338 C 
ATOM      7  O   UNL A   1      35.319  32.485  33.610  1.00  0.00    -0.246 OA
BRANCH   6   8
ATOM      8  C   UNL A   1      36.642  31.792  31.812  1.00  0.00     0.060 A 
ATOM      9  C   UNL A   1      37.606  31.099  32.546  1.00  0.00     0.016 A 
ATOM     10  C   UNL A   1      36.752  31.772  30.411  1.00  0.00     0.016 A 
ATOM     11  C   UNL A   1      38.697  30.493  31.928  1.00  0.00     0.010 A 
ATOM     12  C   UNL A   1      37.820  31.123  29.776  1.00  0.00     0.010 A 
ATOM     13  C   UNL A   1      38.818  30.508  30.540  1.00  0.00    -0.014 A 
BRANCH  13  14
ATOM     14  C   UNL A   1      40.053  29.981  29.923  1.00  0.00     0.031 A 
ATOM     15  C   UNL A   1      41.229  30.890  29.777  1.00  0.00     0.074 A 
ATOM     16  C   UNL A   1      40.174  28.681  29.604  1.00  0.00     0.049 A 
ATOM     17  N   UNL A   1      42.399  30.639  29.253  1.00  0.00    -0.248 NA
ATOM     18  C   UNL A   1      41.082  32.247  30.323  1.00  0.00     0.031 C 
ATOM     19  C   UNL A   1      39.156  27.669  29.852  1.00  0.00     0.029 A 
ATOM     20  N   UNL A   1      41.205  27.982  29.029  1.00  0.00    -0.354 N 
ATOM     21  C   UNL A   1      43.127  31.808  29.397  1.00  0.00     0.074 A 
ATOM     22  C   UNL A   1      42.266  32.772  30.049  1.00  0.00     0.031 C 
ATOM     23  C   UNL A   1      39.612  26.484  29.416  1.00  0.00     0.029 A 
ATOM     24  C   UNL A   1      40.914  26.657  28.809  1.00  0.00     0.049 A 
ATOM     25  H   UNL A   1      42.070  28.390  28.797  1.00  0.00     0.167 HD
ATOM     26  C   UNL A   1      44.399  32.050  29.013  1.00  0.00     0.037 A 
ATOM     27  C   UNL A   1      41.607  25.703  28.161  1.00  0.00     0.037 A 
ATOM     28  C   UNL A   1      45.247  31.088  28.362  1.00  0.00     0.049 A 
ATOM     29  C   UNL A   1      42.958  26.044  27.629  1.00  0.00     0.074 A 
ATOM     30  C   UNL A   1      46.548  31.243  27.918  1.00  0.00     0.029 A 
ATOM     31  N   UNL A   1      44.869  29.792  28.047  1.00  0.00    -0.354 N 
ATOM     32  N   UNL A   1      43.614  27.170  27.722  1.00  0.00    -0.248 NA
ATOM     33  C   UNL A   1      43.667  24.971  26.919  1.00  0.00     0.031 C 
ATOM     34  C   UNL A   1      46.935  30.061  27.278  1.00  0.00     0.029 A 
ATOM     35  C   UNL A   1      45.894  29.154  27.369  1.00  0.00     0.049 A 
ATOM     36  H   UNL A   1      44.000  29.386  28.270  1.00  0.00     0.167 HD
ATOM     37  C   UNL A   1      44.817  26.945  27.081  1.00  0.00     0.074 A 
ATOM     38  C   UNL A   1      44.811  25.567  26.633  1.00  0.00     0.031 C 
ATOM     39  C   UNL A   1      45.841  27.804  26.883  1.00  0.00     0.037 A 
BRANCH  26  40
ATOM     40  C   UNL A   1      44.905  33.443  29.214  1.00  0.00     0.057 A 
ATOM     41  C   UNL A   1      44.721  34.455  28.265  1.00  0.00     0.134 A 
ATOM     42  C   UNL A   1      45.617  33.760  30.377  1.00  0.00     0.134 A 
ATOM     43  F   UNL A   1      44.079  34.200  27.114  1.00  0.00    -0.206 F 
ATOM     44  C   UNL A   1      45.243  35.734  28.460  1.00  0.00     0.040 A 
ATOM     45  C   UNL A   1      46.124  35.039  30.594  1.00  0.00     0.040 A 
ATOM     46  F   UNL A   1      45.838  32.826  31.315  1.00  0.00    -0.206 F 
ATOM     47  C   UNL A   1      45.942  36.029  29.630  1.00  0.00     0.006 A 
ENDBRANCH  26  40
BRANCH  27  48
ATOM     48  C   UNL A   1      41.067  24.356  27.865  1.00  0.00     0.057 A 
ATOM     49  C   UNL A   1      41.559  23.211  28.502  1.00  0.00     0.134 A 
ATOM     50  C   UNL A   1      40.162  24.181  26.810  1.00  0.00     0.134 A 
ATOM     51  F   UNL A   1      42.447  23.323  29.500  1.00  0.00    -0.206 F 
ATOM     52  C   UNL A   1      41.168  21.931  28.099  1.00  0.00     0.040 A 
ATOM     53  C   UNL A   1      39.770  22.907  26.393  1.00  0.00     0.040 A 
ATOM     54  F   UNL A   1      39.656  25.242  26.168  1.00  0.00    -0.206 F 
ATOM     55  C   UNL A   1      40.275  21.778  27.039  1.00  0.00     0.006 A 
ENDBRANCH  27  48
BRANCH  39  56
ATOM     56  C   UNL A   1      47.005  27.251  26.131  1.00  0.00     0.057 A 
ATOM     57  C   UNL A   1      47.075  27.331  24.734  1.00  0.00     0.134 A 
ATOM     58  C   UNL A   1      48.024  26.570  26.803  1.00  0.00     0.134 A 
ATOM     59  F   UNL A   1      46.100  27.935  24.037  1.00  0.00    -0.206 F 
ATOM     60  C   UNL A   1      48.109  26.722  24.027  1.00  0.00     0.040 A 
ATOM     61  C   UNL A   1      49.077  25.980  26.108  1.00  0.00     0.040 A 
ATOM     62  F   UNL A   1      47.996  26.446  28.139  1.00  0.00    -0.206 F 
ATOM     63  C   UNL A   1      49.116  26.048  24.715  1.00  0.00     0.006 A 
ENDBRANCH  39  56
ENDBRANCH  13  14
ENDBRANCH   6   8
ENDBRANCH   5   6
ENDBRANCH   4   5
ENDBRANCH   3   4
ENDBRANCH   2   3
ENDBRANCH   1   2
BRANCH   1  64
ATOM     64  C   UNL A   1      33.137  33.492  27.986  1.00  0.00     0.188 C 
BRANCH  64  65
ATOM     65  O   UNL A   1      34.200  32.668  27.513  1.00  0.00    -0.376 OA
BRANCH  65  66
ATOM     66  C   UNL A   1      34.209  31.293  27.880  1.00  0.00     0.202 C 
BRANCH  66  67
ATOM     67  C   UNL A   1      33.401  30.303  27.030  1.00  0.00     0.261 C 
BRANCH  67  68
ATOM     68  O   UNL A   1      33.153  29.056  27.680  1.00  0.00    -0.463 OA
BRANCH  68  69
ATOM     69  C   UNL A   1      32.183  28.288  27.103  1.00  0.00     0.312 C 
ATOM     70  O   UNL A   1      31.186  27.876  27.678  1.00  0.00    -0.252 OA
BRANCH  69  71
ATOM     71  C   UNL A   1      32.429  28.141  25.604  1.00  0.00     0.124 C 
ATOM     72  C   UNL A   1      31.144  28.394  24.884  1.00  0.00    -0.014 C 
ATOM     73  C   UNL A   1      32.801  26.728  25.149  1.00  0.00     0.048 C 
ATOM     74  C   UNL A   1      30.608  27.260  24.435  1.00  0.00    -0.006 C 
ATOM     75  C   UNL A   1      31.487  26.086  24.693  1.00  0.00     0.106 C 
BRANCH  75  76
ATOM     76  N   UNL A   1      30.901  25.223  25.688  1.00  0.00    -0.347 N 
ATOM     77  C   UNL A   1      31.371  24.125  26.333  1.00  0.00     0.261 C 
ATOM     78  H   UNL A   1      29.985  25.479  25.948  1.00  0.00     0.164 HD
ATOM     79  O   UNL A   1      30.674  23.726  27.276  1.00  0.00    -0.271 OA
BRANCH  77  80
ATOM     80  C   UNL A   1      32.645  23.343  25.951  1.00  0.00     0.266 C 
ATOM     81  C   UNL A   1      33.976  23.676  26.619  1.00  0.00     0.095 C 
ATOM     82  O   UNL A   1      32.845  23.288  24.516  1.00  0.00    -0.480 OA
ATOM     83  C   UNL A   1      34.913  23.477  25.507  1.00  0.00    -0.002 A 
ATOM     84  C   UNL A   1      34.203  23.211  24.355  1.00  0.00     0.123 A 
ATOM     85  C   UNL A   1      36.293  23.561  25.521  1.00  0.00     0.008 A 
ATOM     86  C   UNL A   1      34.850  22.941  23.172  1.00  0.00     0.047 A 
ATOM     87  C   UNL A   1      36.968  23.299  24.333  1.00  0.00     0.001 A 
ATOM     88  C   UNL A   1      36.251  22.973  23.170  1.00  0.00     0.004 A 
ENDBRANCH  77  80
ENDBRANCH  75  76
ENDBRANCH  69  71
ENDBRANCH  68  69
ENDBRANCH  67  68
ENDBRANCH  66  67
ENDBRANCH  65  66
ENDBRANCH  64  65
ENDBRANCH   1  64
TORSDOF 19
ENDMDL
MODEL 3
REMARK VINA RESULT:     -10.8      1.771      2.598
REMARK SMILES O=C(OCCOCCOCCOC(=O)[C@@H]1C=C[C@H](NC(=O)[C@@H]2Cc3ccccc3O2)C1)c1ccc(-c2c3nc(c(-c4c(F)cccc4F)c4ccc([nH]4)c(-c4c(F)cccc4F)c4nc(c(-c5c(F)cccc5F)c5ccc2[nH]5)C=C4)C=C3)cc1
REMARK SMILES IDX 7 1 6 2 5 3 4 4 3 5 2 6 1 7 32 8 33 9 85 10 34 11 84 12
REMARK SMILES IDX 35 13 36 14 37 15 78 16 38 17 83 18 77 19 79 20 39 21 82 22
REMARK SMILES IDX 76 23 75 24 40 26 66 27 49 28 65 29 50 30 53 31 64 32 80 33
REMARK SMILES IDX 51 34 52 35 63 37 81 38 54 39 41 40 42 41 47 42 43 43 44 44
REMARK SMILES IDX 46 45 48 46 45 47 67 48 68 49 73 50 69 51 70 52 72 53 74 54
REMARK SMILES IDX 71 55 55 56 56 57 61 58 57 59 58 60 60 61 62 62 59 63 8 64
REMARK SMILES IDX 9 65 10 66 11 67 12 68 13 69 14 70 15 71 16 72 31 73 17 74
REMARK SMILES IDX 18 75 19 76 20 77 21 79 22 80 23 81 30 82 24 83 29 84 25 85
REMARK SMILES IDX 28 86 26 87 27 88
REMARK H PARENT 79 25 53 36 19 78
REMARK Flexibility Score: inf
ROOT
ATOM      1  C   UNL A   1      39.543  21.099  26.067  1.00  0.00     0.188 C 
ENDROOT
BRANCH   1   2
ATOM      2  O   UNL A   1      40.768  21.030  26.811  1.00  0.00    -0.376 OA
BRANCH   2   3
ATOM      3  C   UNL A   1      41.791  20.288  26.136  1.00  0.00     0.202 C 
BRANCH   3   4
ATOM      4  C   UNL A   1      43.070  21.070  25.791  1.00  0.00     0.261 C 
BRANCH   4   5
ATOM      5  O   UNL A   1      42.834  22.223  24.967  1.00  0.00    -0.460 OA
BRANCH   5   6
ATOM      6  C   UNL A   1      43.378  23.461  25.061  1.00  0.00     0.338 C 
ATOM      7  O   UNL A   1      44.304  23.749  24.303  1.00  0.00    -0.246 OA
BRANCH   6   8
ATOM      8  C   UNL A   1      42.920  24.510  26.026  1.00  0.00     0.060 A 
ATOM      9  C   UNL A   1      43.454  25.794  26.141  1.00  0.00     0.016 A 
ATOM     10  C   UNL A   1      41.817  24.189  26.836  1.00  0.00     0.016 A 
ATOM     11  C   UNL A   1      42.985  26.698  27.091  1.00  0.00     0.010 A 
ATOM     12  C   UNL A   1      41.305  25.108  27.762  1.00  0.00     0.010 A 
ATOM     13  C   UNL A   1      41.914  26.359  27.915  1.00  0.00    -0.014 A 
BRANCH  13  14
ATOM     14  C   UNL A   1      41.530  27.280  29.006  1.00  0.00     0.031 A 
ATOM     15  C   UNL A   1      42.307  27.249  30.281  1.00  0.00     0.074 A 
ATOM     16  C   UNL A   1      40.581  28.215  28.828  1.00  0.00     0.049 A 
ATOM     17  N   UNL A   1      42.132  27.956  31.365  1.00  0.00    -0.248 NA
ATOM     18  C   UNL A   1      43.453  26.327  30.330  1.00  0.00     0.031 C 
ATOM     19  C   UNL A   1      39.872  28.448  27.577  1.00  0.00     0.029 A 
ATOM     20  N   UNL A   1      40.068  29.157  29.682  1.00  0.00    -0.354 N 
ATOM     21  C   UNL A   1      43.138  27.561  32.230  1.00  0.00     0.074 A 
ATOM     22  C   UNL A   1      43.915  26.546  31.551  1.00  0.00     0.031 C 
ATOM     23  C   UNL A   1      39.006  29.458  27.755  1.00  0.00     0.029 A 
ATOM     24  C   UNL A   1      39.051  29.901  29.132  1.00  0.00     0.049 A 
ATOM     25  H   UNL A   1      40.396  29.289  30.601  1.00  0.00     0.167 HD
ATOM     26  C   UNL A   1      43.383  28.007  33.482  1.00  0.00     0.037 A 
ATOM     27  C   UNL A   1      38.231  30.810  29.688  1.00  0.00     0.037 A 
ATOM     28  C   UNL A   1      42.603  29.012  34.152  1.00  0.00     0.049 A 
ATOM     29  C   UNL A   1      38.445  31.181  31.116  1.00  0.00     0.074 A 
ATOM     30  C   UNL A   1      42.762  29.520  35.429  1.00  0.00     0.029 A 
ATOM     31  N   UNL A   1      41.504  29.653  33.601  1.00  0.00    -0.354 N 
ATOM     32  N   UNL A   1      39.365  30.759  31.942  1.00  0.00    -0.248 NA
ATOM     33  C   UNL A   1      37.514  32.169  31.678  1.00  0.00     0.031 C 
ATOM     34  C   UNL A   1      41.721  30.422  35.673  1.00  0.00     0.029 A 
ATOM     35  C   UNL A   1      40.945  30.513  34.531  1.00  0.00     0.049 A 
ATOM     36  H   UNL A   1      41.170  29.515  32.685  1.00  0.00     0.167 HD
ATOM     37  C   UNL A   1      39.126  31.430  33.127  1.00  0.00     0.074 A 
ATOM     38  C   UNL A   1      37.995  32.308  32.900  1.00  0.00     0.031 C 
ATOM     39  C   UNL A   1      39.787  31.330  34.301  1.00  0.00     0.037 A 
BRANCH  26  40
ATOM     40  C   UNL A   1      44.491  27.333  34.227  1.00  0.00     0.057 A 
ATOM     41  C   UNL A   1      44.293  26.171  34.982  1.00  0.00     0.134 A 
ATOM     42  C   UNL A   1      45.777  27.885  34.203  1.00  0.00     0.134 A 
ATOM     43  F   UNL A   1      43.074  25.617  35.072  1.00  0.00    -0.206 F 
ATOM     44  C   UNL A   1      45.336  25.590  35.703  1.00  0.00     0.040 A 
ATOM     45  C   UNL A   1      46.832  27.302  34.901  1.00  0.00     0.040 A 
ATOM     46  F   UNL A   1      46.023  29.008  33.510  1.00  0.00    -0.206 F 
ATOM     47  C   UNL A   1      46.611  26.153  35.659  1.00  0.00     0.006 A 
ENDBRANCH  26  40
BRANCH  27  48
ATOM     48  C   UNL A   1      37.066  31.399  28.987  1.00  0.00     0.057 A 
ATOM     49  C   UNL A   1      37.050  32.742  28.591  1.00  0.00     0.134 A 
ATOM     50  C   UNL A   1      35.881  30.663  28.857  1.00  0.00     0.134 A 
ATOM     51  F   UNL A   1      38.149  33.497  28.719  1.00  0.00    -0.206 F 
ATOM     52  C   UNL A   1      35.889  33.335  28.086  1.00  0.00     0.040 A 
ATOM     53  C   UNL A   1      34.713  31.247  28.361  1.00  0.00     0.040 A 
ATOM     54  F   UNL A   1      35.842  29.373  29.217  1.00  0.00    -0.206 F 
ATOM     55  C   UNL A   1      34.717  32.588  27.975  1.00  0.00     0.006 A 
ENDBRANCH  27  48
BRANCH  39  56
ATOM     56  C   UNL A   1      39.265  32.186  35.406  1.00  0.00     0.057 A 
ATOM     57  C   UNL A   1      38.314  31.702  36.314  1.00  0.00     0.134 A 
ATOM     58  C   UNL A   1      39.659  33.522  35.515  1.00  0.00     0.134 A 
ATOM     59  F   UNL A   1      37.868  30.440  36.225  1.00  0.00    -0.206 F 
ATOM     60  C   UNL A   1      37.749  32.534  37.279  1.00  0.00     0.040 A 
ATOM     61  C   UNL A   1      39.121  34.355  36.492  1.00  0.00     0.040 A 
ATOM     62  F   UNL A   1      40.551  34.042  34.658  1.00  0.00    -0.206 F 
ATOM     63  C   UNL A   1      38.156  33.863  37.372  1.00  0.00     0.006 A 
ENDBRANCH  39  56
ENDBRANCH  13  14
ENDBRANCH   6   8
ENDBRANCH   5   6
ENDBRANCH   4   5
ENDBRANCH   3   4
ENDBRANCH   2   3
ENDBRANCH   1   2
BRANCH   1  64
ATOM     64  C   UNL A   1      38.875  22.473  26.114  1.00  0.00     0.188 C 
BRANCH  64  65
ATOM     65  O   UNL A   1      37.491  22.559  25.781  1.00  0.00    -0.376 OA
BRANCH  65  66
ATOM     66  C   UNL A   1      37.023  21.854  24.637  1.00  0.00     0.202 C 
BRANCH  66  67
ATOM     67  C   UNL A   1      35.515  21.846  24.350  1.00  0.00     0.261 C 
BRANCH  67  68
ATOM     68  O   UNL A   1      34.721  21.422  25.459  1.00  0.00    -0.463 OA
BRANCH  68  69
ATOM     69  C   UNL A   1      33.381  21.648  25.327  1.00  0.00     0.312 C 
ATOM     70  O   UNL A   1      32.656  21.091  24.515  1.00  0.00    -0.252 OA
BRANCH  69  71
ATOM     71  C   UNL A   1      32.877  22.574  26.431  1.00  0.00     0.124 C 
ATOM     72  C   UNL A   1      31.399  22.737  26.277  1.00  0.00    -0.014 C 
ATOM     73  C   UNL A   1      33.388  24.015  26.346  1.00  0.00     0.048 C 
ATOM     74  C   UNL A   1      31.093  23.932  25.775  1.00  0.00    -0.006 C 
ATOM     75  C   UNL A   1      32.296  24.793  25.606  1.00  0.00     0.106 C 
BRANCH  75  76
ATOM     76  N   UNL A   1      32.586  24.988  24.207  1.00  0.00    -0.347 N 
ATOM     77  C   UNL A   1      32.313  26.009  23.354  1.00  0.00     0.261 C 
ATOM     78  H   UNL A   1      33.072  24.239  23.792  1.00  0.00     0.164 HD
ATOM     79  O   UNL A   1      32.873  25.940  22.251  1.00  0.00    -0.271 OA
BRANCH  77  80
ATOM     80  C   UNL A   1      31.349  27.179  23.642  1.00  0.00     0.266 C 
ATOM     81  C   UNL A   1      29.859  26.913  23.829  1.00  0.00     0.095 C 
ATOM     82  O   UNL A   1      31.514  28.269  22.699  1.00  0.00    -0.480 OA
ATOM     83  C   UNL A   1      29.273  28.102  23.199  1.00  0.00    -0.002 A 
ATOM     84  C   UNL A   1      30.277  28.851  22.620  1.00  0.00     0.123 A 
ATOM     85  C   UNL A   1      27.942  28.467  23.121  1.00  0.00     0.008 A 
ATOM     86  C   UNL A   1      29.998  30.046  21.999  1.00  0.00     0.047 A 
ATOM     87  C   UNL A   1      27.637  29.668  22.489  1.00  0.00     0.001 A 
ATOM     88  C   UNL A   1      28.662  30.462  21.948  1.00  0.00     0.004 A 
ENDBRANCH  77  80
ENDBRANCH  75  76
ENDBRANCH  69  71
ENDBRANCH  68  69
ENDBRANCH  67  68
ENDBRANCH  66  67
ENDBRANCH  65  66
ENDBRANCH  64  65
ENDBRANCH   1  64
TORSDOF 19
ENDMDL
