MODEL 1
REMARK VINA RESULT:      -8.9      0.000      0.000
REMARK SMILES O=C(CSc1ccc2ccccc2c1)OCCOCCOCCOC(=O)c1ccc(-c2c3nc(c(-c4c(F)cccc4F)c4ccc([nH]4)c(-c4c(F)cccc4F)c4nc(c(-c5c(F)cccc5F)c5ccc2[nH]5)C=C4)C=C3)cc1
REMARK SMILES IDX 19 1 18 2 17 3 16 4 15 5 2 6 1 7 3 8 4 9 5 10 6 11 14 12
REMARK SMILES IDX 7 13 13 14 8 15 12 16 9 17 11 18 10 19 20 20 21 21 22 22
REMARK SMILES IDX 23 23 24 24 25 25 26 26 27 27 28 28 80 29 29 30 79 31 30 32
REMARK SMILES IDX 31 33 32 34 73 35 33 36 78 37 72 38 74 39 34 40 77 41 71 42
REMARK SMILES IDX 70 43 35 45 61 46 44 47 60 48 45 49 48 50 59 51 75 52 46 53
REMARK SMILES IDX 47 54 58 56 76 57 49 58 36 59 37 60 42 61 38 62 39 63 41 64
REMARK SMILES IDX 43 65 40 66 62 67 63 68 68 69 64 70 65 71 67 72 69 73 66 74
REMARK SMILES IDX 50 75 51 76 56 77 52 78 53 79 55 80 57 81 54 82
REMARK H PARENT 74 44 48 55
REMARK Flexibility Score: inf
ROOT
ATOM      1  C   UNL A   1      32.644  36.217  30.334  1.00  0.00     0.188 C 
ENDROOT
BRANCH   1   2
ATOM      2  O   UNL A   1      32.893  37.410  31.056  1.00  0.00    -0.376 OA
BRANCH   2   3
ATOM      3  C   UNL A   1      33.556  37.335  32.308  1.00  0.00     0.202 C 
BRANCH   3   4
ATOM      4  C   UNL A   1      34.040  35.947  32.735  1.00  0.00     0.261 C 
BRANCH   4   5
ATOM      5  O   UNL A   1      35.455  35.760  32.991  1.00  0.00    -0.463 OA
BRANCH   5   6
ATOM      6  C   UNL A   1      36.197  34.632  32.965  1.00  0.00     0.316 C 
ATOM      7  O   UNL A   1      37.082  34.517  32.117  1.00  0.00    -0.251 OA
BRANCH   6   8
ATOM      8  C   UNL A   1      35.923  33.513  33.935  1.00  0.00     0.197 C 
BRANCH   8   9
ATOM      9  S   UNL A   1      37.066  33.507  35.349  1.00  0.00    -0.114 SA
BRANCH   9  10
ATOM     10  C   UNL A   1      38.272  32.415  34.621  1.00  0.00     0.008 A 
ATOM     11  C   UNL A   1      39.627  32.624  34.875  1.00  0.00     0.016 A 
ATOM     12  C   UNL A   1      37.852  31.262  33.953  1.00  0.00     0.023 A 
ATOM     13  C   UNL A   1      40.561  31.661  34.497  1.00  0.00     0.010 A 
ATOM     14  C   UNL A   1      38.777  30.275  33.591  1.00  0.00    -0.017 A 
ATOM     15  C   UNL A   1      40.149  30.475  33.871  1.00  0.00    -0.018 A 
ATOM     16  C   UNL A   1      38.363  29.076  32.991  1.00  0.00     0.009 A 
ATOM     17  C   UNL A   1      41.070  29.472  33.536  1.00  0.00     0.009 A 
ATOM     18  C   UNL A   1      39.292  28.086  32.670  1.00  0.00     0.001 A 
ATOM     19  C   UNL A   1      40.644  28.286  32.941  1.00  0.00     0.001 A 
ENDBRANCH   9  10
ENDBRANCH   8   9
ENDBRANCH   6   8
ENDBRANCH   5   6
ENDBRANCH   4   5
ENDBRANCH   3   4
ENDBRANCH   2   3
ENDBRANCH   1   2
BRANCH   1  20
ATOM     20  C   UNL A   1      33.016  36.323  28.846  1.00  0.00     0.188 C 
BRANCH  20  21
ATOM     21  O   UNL A   1      34.326  35.916  28.473  1.00  0.00    -0.376 OA
BRANCH  21  22
ATOM     22  C   UNL A   1      34.820  34.694  29.025  1.00  0.00     0.202 C 
BRANCH  22  23
ATOM     23  C   UNL A   1      34.452  33.385  28.308  1.00  0.00     0.261 C 
BRANCH  23  24
ATOM     24  O   UNL A   1      34.818  32.182  29.023  1.00  0.00    -0.460 OA
BRANCH  24  25
ATOM     25  C   UNL A   1      34.663  31.030  28.323  1.00  0.00     0.338 C 
ATOM     26  O   UNL A   1      33.709  30.701  27.637  1.00  0.00    -0.246 OA
BRANCH  25  27
ATOM     27  C   UNL A   1      35.879  30.199  28.385  1.00  0.00     0.060 A 
ATOM     28  C   UNL A   1      36.229  29.605  29.606  1.00  0.00     0.016 A 
ATOM     29  C   UNL A   1      36.771  30.182  27.311  1.00  0.00     0.016 A 
ATOM     30  C   UNL A   1      37.491  29.027  29.768  1.00  0.00     0.010 A 
ATOM     31  C   UNL A   1      38.039  29.613  27.480  1.00  0.00     0.010 A 
ATOM     32  C   UNL A   1      38.422  29.067  28.719  1.00  0.00    -0.014 A 
BRANCH  32  33
ATOM     33  C   UNL A   1      39.837  28.682  28.960  1.00  0.00     0.031 A 
ATOM     34  C   UNL A   1      40.772  29.677  29.595  1.00  0.00     0.074 A 
ATOM     35  C   UNL A   1      40.294  27.464  28.621  1.00  0.00     0.049 A 
ATOM     36  N   UNL A   1      42.055  29.575  29.835  1.00  0.00    -0.248 NA
ATOM     37  C   UNL A   1      40.181  30.958  30.014  1.00  0.00     0.031 C 
ATOM     38  C   UNL A   1      39.491  26.393  28.035  1.00  0.00     0.029 A 
ATOM     39  N   UNL A   1      41.556  26.931  28.712  1.00  0.00    -0.354 N 
ATOM     40  C   UNL A   1      42.426  30.776  30.429  1.00  0.00     0.074 A 
ATOM     41  C   UNL A   1      41.237  31.601  30.490  1.00  0.00     0.031 C 
ATOM     42  C   UNL A   1      40.286  25.334  27.801  1.00  0.00     0.029 A 
ATOM     43  C   UNL A   1      41.656  25.663  28.194  1.00  0.00     0.049 A 
ATOM     44  H   UNL A   1      42.317  27.412  29.110  1.00  0.00     0.167 HD
ATOM     45  C   UNL A   1      43.642  31.156  30.889  1.00  0.00     0.037 A 
ATOM     46  C   UNL A   1      42.732  24.869  28.032  1.00  0.00     0.037 A 
ATOM     47  C   UNL A   1      44.830  30.345  30.831  1.00  0.00     0.049 A 
ATOM     48  C   UNL A   1      44.090  25.345  28.480  1.00  0.00     0.074 A 
ATOM     49  C   UNL A   1      46.102  30.645  31.289  1.00  0.00     0.029 A 
ATOM     50  N   UNL A   1      44.894  29.079  30.273  1.00  0.00    -0.354 N 
ATOM     51  N   UNL A   1      44.422  26.471  29.062  1.00  0.00    -0.248 NA
ATOM     52  C   UNL A   1      45.222  24.435  28.248  1.00  0.00     0.031 C 
ATOM     53  C   UNL A   1      46.946  29.575  30.969  1.00  0.00     0.029 A 
ATOM     54  C   UNL A   1      46.189  28.593  30.353  1.00  0.00     0.049 A 
ATOM     55  H   UNL A   1      44.133  28.596  29.879  1.00  0.00     0.167 HD
ATOM     56  C   UNL A   1      45.791  26.393  29.290  1.00  0.00     0.074 A 
ATOM     57  C   UNL A   1      46.227  25.106  28.792  1.00  0.00     0.031 C 
ATOM     58  C   UNL A   1      46.613  27.307  29.863  1.00  0.00     0.037 A 
BRANCH  45  59
ATOM     59  C   UNL A   1      43.756  32.528  31.484  1.00  0.00     0.057 A 
ATOM     60  C   UNL A   1      43.728  32.736  32.869  1.00  0.00     0.134 A 
ATOM     61  C   UNL A   1      43.935  33.649  30.664  1.00  0.00     0.134 A 
ATOM     62  F   UNL A   1      43.548  31.704  33.707  1.00  0.00    -0.206 F 
ATOM     63  C   UNL A   1      43.857  34.013  33.417  1.00  0.00     0.040 A 
ATOM     64  C   UNL A   1      44.087  34.928  31.201  1.00  0.00     0.040 A 
ATOM     65  F   UNL A   1      43.976  33.517  29.330  1.00  0.00    -0.206 F 
ATOM     66  C   UNL A   1      44.044  35.113  32.581  1.00  0.00     0.006 A 
ENDBRANCH  45  59
BRANCH  46  67
ATOM     67  C   UNL A   1      42.584  23.537  27.396  1.00  0.00     0.057 A 
ATOM     68  C   UNL A   1      42.323  22.393  28.161  1.00  0.00     0.134 A 
ATOM     69  C   UNL A   1      42.738  23.369  26.015  1.00  0.00     0.134 A 
ATOM     70  F   UNL A   1      42.193  22.488  29.493  1.00  0.00    -0.206 F 
ATOM     71  C   UNL A   1      42.237  21.129  27.577  1.00  0.00     0.040 A 
ATOM     72  C   UNL A   1      42.633  22.114  25.416  1.00  0.00     0.040 A 
ATOM     73  F   UNL A   1      42.993  24.425  25.230  1.00  0.00    -0.206 F 
ATOM     74  C   UNL A   1      42.389  20.987  26.199  1.00  0.00     0.006 A 
ENDBRANCH  46  67
BRANCH  58  75
ATOM     75  C   UNL A   1      48.059  26.936  30.016  1.00  0.00     0.057 A 
ATOM     76  C   UNL A   1      48.520  26.187  31.105  1.00  0.00     0.134 A 
ATOM     77  C   UNL A   1      48.995  27.298  29.039  1.00  0.00     0.134 A 
ATOM     78  F   UNL A   1      47.676  25.819  32.083  1.00  0.00    -0.206 F 
ATOM     79  C   UNL A   1      49.864  25.829  31.229  1.00  0.00     0.040 A 
ATOM     80  C   UNL A   1      50.337  26.927  29.139  1.00  0.00     0.040 A 
ATOM     81  F   UNL A   1      48.619  28.009  27.965  1.00  0.00    -0.206 F 
ATOM     82  C   UNL A   1      50.775  26.194  30.240  1.00  0.00     0.006 A 
ENDBRANCH  58  75
ENDBRANCH  32  33
ENDBRANCH  25  27
ENDBRANCH  24  25
ENDBRANCH  23  24
ENDBRANCH  22  23
ENDBRANCH  21  22
ENDBRANCH  20  21
ENDBRANCH   1  20
TORSDOF 19
ENDMDL
MODEL 2
REMARK VINA RESULT:      -8.7      3.852      6.443
REMARK SMILES O=C(CSc1ccc2ccccc2c1)OCCOCCOCCOC(=O)c1ccc(-c2c3nc(c(-c4c(F)cccc4F)c4ccc([nH]4)c(-c4c(F)cccc4F)c4nc(c(-c5c(F)cccc5F)c5ccc2[nH]5)C=C4)C=C3)cc1
REMARK SMILES IDX 19 1 18 2 17 3 16 4 15 5 2 6 1 7 3 8 4 9 5 10 6 11 14 12
REMARK SMILES IDX 7 13 13 14 8 15 12 16 9 17 11 18 10 19 20 20 21 21 22 22
REMARK SMILES IDX 23 23 24 24 25 25 26 26 27 27 28 28 80 29 29 30 79 31 30 32
REMARK SMILES IDX 31 33 32 34 73 35 33 36 78 37 72 38 74 39 34 40 77 41 71 42
REMARK SMILES IDX 70 43 35 45 61 46 44 47 60 48 45 49 48 50 59 51 75 52 46 53
REMARK SMILES IDX 47 54 58 56 76 57 49 58 36 59 37 60 42 61 38 62 39 63 41 64
REMARK SMILES IDX 43 65 40 66 62 67 63 68 68 69 64 70 65 71 67 72 69 73 66 74
REMARK SMILES IDX 50 75 51 76 56 77 52 78 53 79 55 80 57 81 54 82
REMARK H PARENT 74 44 48 55
REMARK Flexibility Score: inf
ROOT
ATOM      1  C   UNL A   1      33.990  31.201  27.522  1.00  0.00     0.188 C 
ENDROOT
BRANCH   1   2
ATOM      2  O   UNL A   1      32.851  30.374  27.360  1.00  0.00    -0.376 OA
BRANCH   2   3
ATOM      3  C   UNL A   1      32.770  29.522  26.228  1.00  0.00     0.202 C 
BRANCH   3   4
ATOM      4  C   UNL A   1      31.601  29.776  25.273  1.00  0.00     0.261 C 
BRANCH   4   5
ATOM      5  O   UNL A   1      31.031  28.645  24.567  1.00  0.00    -0.463 OA
BRANCH   5   6
ATOM      6  C   UNL A   1      31.130  28.298  23.266  1.00  0.00     0.316 C 
ATOM      7  O   UNL A   1      30.879  29.139  22.402  1.00  0.00    -0.251 OA
BRANCH   6   8
ATOM      8  C   UNL A   1      31.506  26.894  22.874  1.00  0.00     0.197 C 
BRANCH   8   9
ATOM      9  S   UNL A   1      33.219  26.760  22.280  1.00  0.00    -0.114 SA
BRANCH   9  10
ATOM     10  C   UNL A   1      33.811  25.742  23.617  1.00  0.00     0.008 A 
ATOM     11  C   UNL A   1      33.536  26.112  24.933  1.00  0.00     0.016 A 
ATOM     12  C   UNL A   1      34.388  24.500  23.342  1.00  0.00     0.023 A 
ATOM     13  C   UNL A   1      33.799  25.223  25.974  1.00  0.00     0.010 A 
ATOM     14  C   UNL A   1      34.634  23.588  24.376  1.00  0.00    -0.017 A 
ATOM     15  C   UNL A   1      34.331  23.953  25.709  1.00  0.00    -0.018 A 
ATOM     16  C   UNL A   1      35.139  22.306  24.109  1.00  0.00     0.009 A 
ATOM     17  C   UNL A   1      34.548  23.027  26.739  1.00  0.00     0.009 A 
ATOM     18  C   UNL A   1      35.343  21.394  25.146  1.00  0.00     0.001 A 
ATOM     19  C   UNL A   1      35.049  21.756  26.458  1.00  0.00     0.001 A 
ENDBRANCH   9  10
ENDBRANCH   8   9
ENDBRANCH   6   8
ENDBRANCH   5   6
ENDBRANCH   4   5
ENDBRANCH   3   4
ENDBRANCH   2   3
ENDBRANCH   1   2
BRANCH   1  20
ATOM     20  C   UNL A   1      33.642  32.622  27.989  1.00  0.00     0.188 C 
BRANCH  20  21
ATOM     21  O   UNL A   1      34.640  33.331  28.713  1.00  0.00    -0.376 OA
BRANCH  21  22
ATOM     22  C   UNL A   1      34.200  34.264  29.703  1.00  0.00     0.202 C 
BRANCH  22  23
ATOM     23  C   UNL A   1      34.407  33.892  31.180  1.00  0.00     0.261 C 
BRANCH  23  24
ATOM     24  O   UNL A   1      34.519  32.473  31.435  1.00  0.00    -0.460 OA
BRANCH  24  25
ATOM     25  C   UNL A   1      35.484  32.124  32.322  1.00  0.00     0.338 C 
ATOM     26  O   UNL A   1      35.540  32.410  33.507  1.00  0.00    -0.246 OA
BRANCH  25  27
ATOM     27  C   UNL A   1      36.472  31.218  31.709  1.00  0.00     0.060 A 
ATOM     28  C   UNL A   1      37.469  30.659  32.520  1.00  0.00     0.016 A 
ATOM     29  C   UNL A   1      36.540  31.093  30.320  1.00  0.00     0.016 A 
ATOM     30  C   UNL A   1      38.561  30.007  31.939  1.00  0.00     0.010 A 
ATOM     31  C   UNL A   1      37.640  30.450  29.740  1.00  0.00     0.010 A 
ATOM     32  C   UNL A   1      38.676  29.937  30.543  1.00  0.00    -0.014 A 
BRANCH  32  33
ATOM     33  C   UNL A   1      39.942  29.471  29.919  1.00  0.00     0.031 A 
ATOM     34  C   UNL A   1      41.085  30.439  29.763  1.00  0.00     0.074 A 
ATOM     35  C   UNL A   1      40.082  28.204  29.493  1.00  0.00     0.049 A 
ATOM     36  N   UNL A   1      42.250  30.264  29.192  1.00  0.00    -0.248 NA
ATOM     37  C   UNL A   1      40.888  31.784  30.328  1.00  0.00     0.031 C 
ATOM     38  C   UNL A   1      39.073  27.154  29.615  1.00  0.00     0.029 A 
ATOM     39  N   UNL A   1      41.133  27.591  28.857  1.00  0.00    -0.354 N 
ATOM     40  C   UNL A   1      42.923  31.473  29.324  1.00  0.00     0.074 A 
ATOM     41  C   UNL A   1      42.026  32.381  30.008  1.00  0.00     0.031 C 
ATOM     42  C   UNL A   1      39.548  26.029  29.053  1.00  0.00     0.029 A 
ATOM     43  C   UNL A   1      40.880  26.287  28.508  1.00  0.00     0.049 A 
ATOM     44  H   UNL A   1      41.987  28.043  28.667  1.00  0.00     0.167 HD
ATOM     45  C   UNL A   1      44.175  31.797  28.920  1.00  0.00     0.037 A 
ATOM     46  C   UNL A   1      41.627  25.410  27.809  1.00  0.00     0.037 A 
ATOM     47  C   UNL A   1      45.072  30.903  28.237  1.00  0.00     0.049 A 
ATOM     48  C   UNL A   1      42.985  25.818  27.301  1.00  0.00     0.074 A 
ATOM     49  C   UNL A   1      46.365  31.142  27.806  1.00  0.00     0.029 A 
ATOM     50  N   UNL A   1      44.766  29.600  27.878  1.00  0.00    -0.354 N 
ATOM     51  N   UNL A   1      43.619  26.956  27.454  1.00  0.00    -0.248 NA
ATOM     52  C   UNL A   1      43.732  24.818  26.523  1.00  0.00     0.031 C 
ATOM     53  C   UNL A   1      46.828  29.997  27.148  1.00  0.00     0.029 A 
ATOM     54  C   UNL A   1      45.838  29.031  27.209  1.00  0.00     0.049 A 
ATOM     55  H   UNL A   1      43.915  29.146  28.070  1.00  0.00     0.167 HD
ATOM     56  C   UNL A   1      44.844  26.797  26.818  1.00  0.00     0.074 A 
ATOM     57  C   UNL A   1      44.871  25.452  26.285  1.00  0.00     0.031 C 
ATOM     58  C   UNL A   1      45.858  27.688  26.690  1.00  0.00     0.037 A 
BRANCH  45  59
ATOM     59  C   UNL A   1      44.646  33.195  29.191  1.00  0.00     0.057 A 
ATOM     60  C   UNL A   1      45.338  33.525  30.363  1.00  0.00     0.134 A 
ATOM     61  C   UNL A   1      44.440  34.212  28.251  1.00  0.00     0.134 A 
ATOM     62  F   UNL A   1      45.557  32.598  31.307  1.00  0.00    -0.206 F 
ATOM     63  C   UNL A   1      45.793  34.824  30.598  1.00  0.00     0.040 A 
ATOM     64  C   UNL A   1      44.910  35.509  28.465  1.00  0.00     0.040 A 
ATOM     65  F   UNL A   1      43.789  33.959  27.106  1.00  0.00    -0.206 F 
ATOM     66  C   UNL A   1      45.585  35.818  29.644  1.00  0.00     0.006 A 
ENDBRANCH  45  59
BRANCH  46  67
ATOM     67  C   UNL A   1      41.103  24.051  27.523  1.00  0.00     0.057 A 
ATOM     68  C   UNL A   1      40.083  23.850  26.586  1.00  0.00     0.134 A 
ATOM     69  C   UNL A   1      41.583  22.928  28.208  1.00  0.00     0.134 A 
ATOM     70  F   UNL A   1      39.564  24.892  25.919  1.00  0.00    -0.206 F 
ATOM     71  C   UNL A   1      39.546  22.583  26.351  1.00  0.00     0.040 A 
ATOM     72  C   UNL A   1      41.071  21.653  27.966  1.00  0.00     0.040 A 
ATOM     73  F   UNL A   1      42.557  23.057  29.119  1.00  0.00    -0.206 F 
ATOM     74  C   UNL A   1      40.044  21.479  27.041  1.00  0.00     0.006 A 
ENDBRANCH  46  67
BRANCH  58  75
ATOM     75  C   UNL A   1      47.097  27.228  25.976  1.00  0.00     0.057 A 
ATOM     76  C   UNL A   1      47.308  27.488  24.617  1.00  0.00     0.134 A 
ATOM     77  C   UNL A   1      48.109  26.552  26.670  1.00  0.00     0.134 A 
ATOM     78  F   UNL A   1      46.371  28.121  23.893  1.00  0.00    -0.206 F 
ATOM     79  C   UNL A   1      48.472  27.074  23.967  1.00  0.00     0.040 A 
ATOM     80  C   UNL A   1      49.287  26.153  26.036  1.00  0.00     0.040 A 
ATOM     81  F   UNL A   1      47.974  26.278  27.976  1.00  0.00    -0.206 F 
ATOM     82  C   UNL A   1      49.469  26.410  24.680  1.00  0.00     0.006 A 
ENDBRANCH  58  75
ENDBRANCH  32  33
ENDBRANCH  25  27
ENDBRANCH  24  25
ENDBRANCH  23  24
ENDBRANCH  22  23
ENDBRANCH  21  22
ENDBRANCH  20  21
ENDBRANCH   1  20
TORSDOF 19
ENDMDL
MODEL 3
REMARK VINA RESULT:      -8.6      3.489      5.856
REMARK SMILES O=C(CSc1ccc2ccccc2c1)OCCOCCOCCOC(=O)c1ccc(-c2c3nc(c(-c4c(F)cccc4F)c4ccc([nH]4)c(-c4c(F)cccc4F)c4nc(c(-c5c(F)cccc5F)c5ccc2[nH]5)C=C4)C=C3)cc1
REMARK SMILES IDX 19 1 18 2 17 3 16 4 15 5 2 6 1 7 3 8 4 9 5 10 6 11 14 12
REMARK SMILES IDX 7 13 13 14 8 15 12 16 9 17 11 18 10 19 20 20 21 21 22 22
REMARK SMILES IDX 23 23 24 24 25 25 26 26 27 27 28 28 80 29 29 30 79 31 30 32
REMARK SMILES IDX 31 33 32 34 73 35 33 36 78 37 72 38 74 39 34 40 77 41 71 42
REMARK SMILES IDX 70 43 35 45 61 46 44 47 60 48 45 49 48 50 59 51 75 52 46 53
REMARK SMILES IDX 47 54 58 56 76 57 49 58 36 59 37 60 42 61 38 62 39 63 41 64
REMARK SMILES IDX 43 65 40 66 62 67 63 68 68 69 64 70 65 71 67 72 69 73 66 74
REMARK SMILES IDX 50 75 51 76 56 77 52 78 53 79 55 80 57 81 54 82
REMARK H PARENT 74 44 48 55
REMARK Flexibility Score: inf
ROOT
ATOM      1  C   UNL A   1      33.492  34.872  29.017  1.00  0.00     0.188 C 
ENDROOT
BRANCH   1   2
ATOM      2  O   UNL A   1      33.798  33.491  29.097  1.00  0.00    -0.376 OA
BRANCH   2   3
ATOM      3  C   UNL A   1      34.561  32.891  28.062  1.00  0.00     0.202 C 
BRANCH   3   4
ATOM      4  C   UNL A   1      34.226  31.434  27.734  1.00  0.00     0.261 C 
BRANCH   4   5
ATOM      5  O   UNL A   1      32.904  31.129  27.223  1.00  0.00    -0.463 OA
BRANCH   5   6
ATOM      6  C   UNL A   1      32.507  30.153  26.379  1.00  0.00     0.316 C 
ATOM      7  O   UNL A   1      31.598  30.384  25.581  1.00  0.00    -0.251 OA
BRANCH   6   8
ATOM      8  C   UNL A   1      33.140  28.787  26.434  1.00  0.00     0.197 C 
BRANCH   8   9
ATOM      9  S   UNL A   1      32.917  27.841  24.898  1.00  0.00    -0.114 SA
BRANCH   9  10
ATOM     10  C   UNL A   1      33.202  26.235  25.614  1.00  0.00     0.008 A 
ATOM     11  C   UNL A   1      32.138  25.546  26.195  1.00  0.00     0.016 A 
ATOM     12  C   UNL A   1      34.435  25.602  25.436  1.00  0.00     0.023 A 
ATOM     13  C   UNL A   1      32.292  24.210  26.562  1.00  0.00     0.010 A 
ATOM     14  C   UNL A   1      34.595  24.253  25.776  1.00  0.00    -0.017 A 
ATOM     15  C   UNL A   1      33.508  23.547  26.342  1.00  0.00    -0.018 A 
ATOM     16  C   UNL A   1      35.802  23.581  25.530  1.00  0.00     0.009 A 
ATOM     17  C   UNL A   1      33.661  22.188  26.653  1.00  0.00     0.009 A 
ATOM     18  C   UNL A   1      35.935  22.227  25.838  1.00  0.00     0.001 A 
ATOM     19  C   UNL A   1      34.867  21.533  26.401  1.00  0.00     0.001 A 
ENDBRANCH   9  10
ENDBRANCH   8   9
ENDBRANCH   6   8
ENDBRANCH   5   6
ENDBRANCH   4   5
ENDBRANCH   3   4
ENDBRANCH   2   3
ENDBRANCH   1   2
BRANCH   1  20
ATOM     20  C   UNL A   1      33.161  35.497  30.381  1.00  0.00     0.188 C 
BRANCH  20  21
ATOM     21  O   UNL A   1      34.058  35.232  31.453  1.00  0.00    -0.376 OA
BRANCH  21  22
ATOM     22  C   UNL A   1      33.502  34.738  32.672  1.00  0.00     0.202 C 
BRANCH  22  23
ATOM     23  C   UNL A   1      33.839  33.294  33.080  1.00  0.00     0.261 C 
BRANCH  23  24
ATOM     24  O   UNL A   1      34.853  32.659  32.268  1.00  0.00    -0.460 OA
BRANCH  24  25
ATOM     25  C   UNL A   1      36.077  32.568  32.847  1.00  0.00     0.338 C 
ATOM     26  O   UNL A   1      36.438  33.068  33.899  1.00  0.00    -0.246 OA
BRANCH  25  27
ATOM     27  C   UNL A   1      36.960  31.662  32.090  1.00  0.00     0.060 A 
ATOM     28  C   UNL A   1      37.859  30.850  32.797  1.00  0.00     0.016 A 
ATOM     29  C   UNL A   1      37.048  31.768  30.701  1.00  0.00     0.016 A 
ATOM     30  C   UNL A   1      38.875  30.173  32.117  1.00  0.00     0.010 A 
ATOM     31  C   UNL A   1      38.074  31.098  30.024  1.00  0.00     0.010 A 
ATOM     32  C   UNL A   1      39.017  30.329  30.730  1.00  0.00    -0.014 A 
BRANCH  32  33
ATOM     33  C   UNL A   1      40.230  29.819  30.041  1.00  0.00     0.031 A 
ATOM     34  C   UNL A   1      41.394  30.748  29.815  1.00  0.00     0.074 A 
ATOM     35  C   UNL A   1      40.306  28.545  29.616  1.00  0.00     0.049 A 
ATOM     36  N   UNL A   1      42.519  30.532  29.182  1.00  0.00    -0.248 NA
ATOM     37  C   UNL A   1      41.271  32.101  30.381  1.00  0.00     0.031 C 
ATOM     38  C   UNL A   1      39.272  27.530  29.800  1.00  0.00     0.029 A 
ATOM     39  N   UNL A   1      41.300  27.896  28.927  1.00  0.00    -0.354 N 
ATOM     40  C   UNL A   1      43.237  31.720  29.268  1.00  0.00     0.074 A 
ATOM     41  C   UNL A   1      42.409  32.660  29.994  1.00  0.00     0.031 C 
ATOM     42  C   UNL A   1      39.679  26.386  29.221  1.00  0.00     0.029 A 
ATOM     43  C   UNL A   1      40.987  26.599  28.602  1.00  0.00     0.049 A 
ATOM     44  H   UNL A   1      42.156  28.319  28.688  1.00  0.00     0.167 HD
ATOM     45  C   UNL A   1      44.474  32.001  28.793  1.00  0.00     0.037 A 
ATOM     46  C   UNL A   1      41.665  25.695  27.868  1.00  0.00     0.037 A 
ATOM     47  C   UNL A   1      45.303  31.075  28.068  1.00  0.00     0.049 A 
ATOM     48  C   UNL A   1      43.005  26.056  27.284  1.00  0.00     0.074 A 
ATOM     49  C   UNL A   1      46.577  31.270  27.564  1.00  0.00     0.029 A 
ATOM     50  N   UNL A   1      44.936  29.781  27.735  1.00  0.00    -0.354 N 
ATOM     51  N   UNL A   1      43.682  27.173  27.393  1.00  0.00    -0.248 NA
ATOM     52  C   UNL A   1      43.675  25.028  26.472  1.00  0.00     0.031 C 
ATOM     53  C   UNL A   1      46.965  30.107  26.889  1.00  0.00     0.029 A 
ATOM     54  C   UNL A   1      45.950  29.174  27.012  1.00  0.00     0.049 A 
ATOM     55  H   UNL A   1      44.082  29.356  27.977  1.00  0.00     0.167 HD
ATOM     56  C   UNL A   1      44.865  26.972  26.692  1.00  0.00     0.074 A 
ATOM     57  C   UNL A   1      44.819  25.624  26.167  1.00  0.00     0.031 C 
ATOM     58  C   UNL A   1      45.899  27.829  26.501  1.00  0.00     0.037 A 
BRANCH  45  59
ATOM     59  C   UNL A   1      45.004  33.384  29.028  1.00  0.00     0.057 A 
ATOM     60  C   UNL A   1      44.781  34.424  28.117  1.00  0.00     0.134 A 
ATOM     61  C   UNL A   1      45.711  33.688  30.198  1.00  0.00     0.134 A 
ATOM     62  F   UNL A   1      44.120  34.194  26.972  1.00  0.00    -0.206 F 
ATOM     63  C   UNL A   1      45.257  35.714  28.353  1.00  0.00     0.040 A 
ATOM     64  C   UNL A   1      46.174  34.979  30.456  1.00  0.00     0.040 A 
ATOM     65  F   UNL A   1      45.954  32.738  31.113  1.00  0.00    -0.206 F 
ATOM     66  C   UNL A   1      45.951  35.996  29.529  1.00  0.00     0.006 A 
ENDBRANCH  45  59
BRANCH  46  67
ATOM     67  C   UNL A   1      41.083  24.352  27.621  1.00  0.00     0.057 A 
ATOM     68  C   UNL A   1      41.549  23.223  28.304  1.00  0.00     0.134 A 
ATOM     69  C   UNL A   1      40.076  24.161  26.667  1.00  0.00     0.134 A 
ATOM     70  F   UNL A   1      42.532  23.340  29.209  1.00  0.00    -0.206 F 
ATOM     71  C   UNL A   1      41.046  21.949  28.037  1.00  0.00     0.040 A 
ATOM     72  C   UNL A   1      39.549  22.896  26.406  1.00  0.00     0.040 A 
ATOM     73  F   UNL A   1      39.590  25.203  25.977  1.00  0.00    -0.206 F 
ATOM     74  C   UNL A   1      40.040  21.783  27.087  1.00  0.00     0.006 A 
ENDBRANCH  46  67
BRANCH  58  75
ATOM     75  C   UNL A   1      47.080  27.325  25.724  1.00  0.00     0.057 A 
ATOM     76  C   UNL A   1      47.212  27.552  24.349  1.00  0.00     0.134 A 
ATOM     77  C   UNL A   1      48.118  26.640  26.369  1.00  0.00     0.134 A 
ATOM     78  F   UNL A   1      46.247  28.191  23.669  1.00  0.00    -0.206 F 
ATOM     79  C   UNL A   1      48.325  27.097  23.638  1.00  0.00     0.040 A 
ATOM     80  C   UNL A   1      49.246  26.201  25.673  1.00  0.00     0.040 A 
ATOM     81  F   UNL A   1      48.058  26.396  27.687  1.00  0.00    -0.206 F 
ATOM     82  C   UNL A   1      49.349  26.425  24.303  1.00  0.00     0.006 A 
ENDBRANCH  58  75
ENDBRANCH  32  33
ENDBRANCH  25  27
ENDBRANCH  24  25
ENDBRANCH  23  24
ENDBRANCH  22  23
ENDBRANCH  21  22
ENDBRANCH  20  21
ENDBRANCH   1  20
TORSDOF 19
ENDMDL
