MODEL 1
REMARK VINA RESULT:     -10.0      0.000      0.000
REMARK SMILES CC1(C)CC[C@@]2(C(=O)OCCOCCOCCOC(=O)c3ccc(-c4c5nc(c(-c6c(F)cccc6F)c6ccc([nH]6)c(-c6c(F)cccc6F)c6nc(c(-c7c(F)cccc7F)c7ccc4[nH]7)C=C6)C=C5)cc3)CC[C@@]3(C)C(=CC[C@H]4[C@@]5(C)CC[C@H](O)C(C)(C)[C@@H]5CC[C@]43C)[C@@H]2C1
REMARK SMILES IDX 14 1 13 2 12 3 11 4 10 5 9 6 7 7 8 8 6 9 1 10 2 11 3 12 4 13
REMARK SMILES IDX 98 14 5 15 97 16 79 17 75 18 77 19 80 20 76 21 78 22 95 23
REMARK SMILES IDX 81 24 82 25 94 26 96 27 83 28 93 29 84 30 85 31 92 32 86 33
REMARK SMILES IDX 89 34 87 35 90 36 91 37 88 38 15 40 16 41 17 42 18 43 19 44
REMARK SMILES IDX 20 45 21 46 22 47 74 48 23 49 73 50 24 51 25 52 26 53 67 54
REMARK SMILES IDX 27 55 72 56 66 57 68 58 28 59 71 60 65 61 64 62 29 64 55 65
REMARK SMILES IDX 38 66 54 67 39 68 42 69 53 70 69 71 40 72 41 73 52 75 70 76
REMARK SMILES IDX 43 77 30 78 31 79 36 80 32 81 33 82 35 83 37 84 34 85 56 86
REMARK SMILES IDX 57 87 62 88 58 89 59 90 61 91 63 92 60 93 44 94 45 95 50 96
REMARK SMILES IDX 46 97 47 98 49 99 51 100 48 101
REMARK H PARENT 88 39 68 63 42 74
REMARK Flexibility Score: inf
ROOT
ATOM      1  C   UNL A   1      47.799  25.915  24.753  1.00  0.00     0.188 C 
ENDROOT
BRANCH   1   2
ATOM      2  C   UNL A   1      49.213  26.067  25.077  1.00  0.00     0.188 C 
BRANCH   2   3
ATOM      3  O   UNL A   1      49.428  27.413  24.909  1.00  0.00    -0.376 OA
BRANCH   3   4
ATOM      4  C   UNL A   1      48.810  28.159  25.918  1.00  0.00     0.202 C 
BRANCH   4   5
ATOM      5  C   UNL A   1      49.399  27.809  27.197  1.00  0.00     0.261 C 
BRANCH   5   6
ATOM      6  O   UNL A   1      50.669  28.455  27.246  1.00  0.00    -0.463 OA
BRANCH   6   7
ATOM      7  C   UNL A   1      51.823  27.733  27.369  1.00  0.00     0.312 C 
ATOM      8  O   UNL A   1      52.426  27.401  26.344  1.00  0.00    -0.252 OA
BRANCH   7   9
ATOM      9  C   UNL A   1      52.488  27.606  28.747  1.00  0.00     0.075 C 
ATOM     10  C   UNL A   1      54.650  31.428  28.686  1.00  0.00     0.011 C 
ATOM     11  C   UNL A   1      53.413  30.531  28.435  1.00  0.00    -0.035 C 
ATOM     12  C   UNL A   1      52.485  31.555  27.679  1.00  0.00     0.011 C 
ATOM     13  C   UNL A   1      53.947  29.381  27.538  1.00  0.00     0.007 C 
ATOM     14  C   UNL A   1      52.793  29.984  29.832  1.00  0.00     0.015 C 
ATOM     15  C   UNL A   1      53.929  27.989  28.247  1.00  0.00     0.020 C 
ATOM     16  C   UNL A   1      52.151  28.464  29.990  1.00  0.00     0.033 C 
ATOM     17  C   UNL A   1      50.676  28.143  30.645  1.00  0.00    -0.063 C 
ATOM     18  C   UNL A   1      52.336  26.128  29.263  1.00  0.00     0.020 C 
ATOM     19  C   UNL A   1      50.003  26.639  30.645  1.00  0.00    -0.006 C 
ATOM     20  C   UNL A   1      50.002  29.130  31.266  1.00  0.00    -0.027 C 
ATOM     21  C   UNL A   1      50.915  25.641  29.789  1.00  0.00     0.013 C 
ATOM     22  C   UNL A   1      50.414  26.142  32.103  1.00  0.00     0.017 C 
ATOM     23  C   UNL A   1      48.127  26.558  30.518  1.00  0.00    -0.020 C 
ATOM     24  C   UNL A   1      48.546  29.164  31.616  1.00  0.00     0.032 C 
ATOM     25  C   UNL A   1      47.526  28.340  30.775  1.00  0.00     0.006 C 
ATOM     26  C   UNL A   1      47.076  25.520  29.181  1.00  0.00     0.008 C 
ATOM     27  C   UNL A   1      47.676  25.785  31.837  1.00  0.00     0.012 C 
ATOM     28  C   UNL A   1      46.433  29.325  29.551  1.00  0.00    -0.025 C 
ATOM     29  C   UNL A   1      45.778  26.503  27.873  1.00  0.00     0.005 C 
ATOM     30  C   UNL A   1      45.224  29.857  30.416  1.00  0.00     0.012 C 
ATOM     31  C   UNL A   1      47.055  30.732  29.117  1.00  0.00     0.010 C 
ATOM     32  C   UNL A   1      45.828  28.482  27.966  1.00  0.00     0.003 C 
ATOM     33  C   UNL A   1      46.368  31.461  27.947  1.00  0.00     0.033 C 
ATOM     34  C   UNL A   1      45.199  29.372  26.839  1.00  0.00    -0.006 C 
ATOM     35  C   UNL A   1      46.130  30.640  26.672  1.00  0.00     0.120 C 
ATOM     36  C   UNL A   1      43.753  29.768  27.110  1.00  0.00     0.014 C 
ATOM     37  C   UNL A   1      45.225  28.617  25.481  1.00  0.00     0.014 C 
BRANCH  35  38
ATOM     38  O   UNL A   1      45.654  31.507  25.641  1.00  0.00    -0.393 OA
ATOM     39  H   UNL A   1      45.391  32.357  26.029  1.00  0.00     0.210 HD
ENDBRANCH  35  38
ENDBRANCH   7   9
ENDBRANCH   6   7
ENDBRANCH   5   6
ENDBRANCH   4   5
ENDBRANCH   3   4
ENDBRANCH   2   3
ENDBRANCH   1   2
BRANCH   1  40
ATOM     40  O   UNL A   1      47.339  24.445  23.818  1.00  0.00    -0.376 OA
BRANCH  40  41
ATOM     41  C   UNL A   1      46.213  22.973  24.286  1.00  0.00     0.202 C 
BRANCH  41  42
ATOM     42  C   UNL A   1      44.477  22.630  24.045  1.00  0.00     0.261 C 
BRANCH  42  43
ATOM     43  O   UNL A   1      43.415  23.355  24.744  1.00  0.00    -0.460 OA
BRANCH  43  44
ATOM     44  C   UNL A   1      42.831  22.965  25.920  1.00  0.00     0.338 C 
ATOM     45  O   UNL A   1      42.770  21.866  26.415  1.00  0.00    -0.246 OA
BRANCH  44  46
ATOM     46  C   UNL A   1      42.462  24.228  26.622  1.00  0.00     0.060 A 
ATOM     47  C   UNL A   1      42.796  25.493  26.099  1.00  0.00     0.016 A 
ATOM     48  C   UNL A   1      41.666  24.129  27.758  1.00  0.00     0.016 A 
ATOM     49  C   UNL A   1      42.276  26.659  26.678  1.00  0.00     0.010 A 
ATOM     50  C   UNL A   1      41.211  25.284  28.377  1.00  0.00     0.010 A 
ATOM     51  C   UNL A   1      41.528  26.552  27.855  1.00  0.00    -0.014 A 
BRANCH  51  52
ATOM     52  C   UNL A   1      41.369  27.685  28.793  1.00  0.00     0.031 A 
ATOM     53  C   UNL A   1      42.165  27.595  30.063  1.00  0.00     0.074 A 
ATOM     54  C   UNL A   1      40.393  28.595  28.635  1.00  0.00     0.049 A 
ATOM     55  N   UNL A   1      41.976  28.186  31.212  1.00  0.00    -0.248 NA
ATOM     56  C   UNL A   1      43.304  26.660  30.046  1.00  0.00     0.031 C 
ATOM     57  C   UNL A   1      39.580  28.771  27.433  1.00  0.00     0.029 A 
ATOM     58  N   UNL A   1      39.880  29.501  29.529  1.00  0.00    -0.354 N 
ATOM     59  C   UNL A   1      42.953  27.670  32.055  1.00  0.00     0.074 A 
ATOM     60  C   UNL A   1      43.717  26.708  31.300  1.00  0.00     0.031 C 
ATOM     61  C   UNL A   1      38.634  29.695  27.682  1.00  0.00     0.029 A 
ATOM     62  C   UNL A   1      38.748  30.132  29.073  1.00  0.00     0.049 A 
ATOM     63  H   UNL A   1      40.282  29.680  30.409  1.00  0.00     0.167 HD
ATOM     64  C   UNL A   1      43.183  27.965  33.353  1.00  0.00     0.037 A 
ATOM     65  C   UNL A   1      37.882  30.929  29.730  1.00  0.00     0.037 A 
ATOM     66  C   UNL A   1      42.380  28.892  34.099  1.00  0.00     0.049 A 
ATOM     67  C   UNL A   1      38.121  31.207  31.195  1.00  0.00     0.074 A 
ATOM     68  C   UNL A   1      42.514  29.287  35.416  1.00  0.00     0.029 A 
ATOM     69  N   UNL A   1      41.274  29.555  33.585  1.00  0.00    -0.354 N 
ATOM     70  N   UNL A   1      39.066  30.747  31.983  1.00  0.00    -0.248 NA
ATOM     71  C   UNL A   1      37.175  32.111  31.862  1.00  0.00     0.031 C 
ATOM     72  C   UNL A   1      41.457  30.153  35.714  1.00  0.00     0.029 A 
ATOM     73  C   UNL A   1      40.703  30.345  34.564  1.00  0.00     0.049 A 
ATOM     74  H   UNL A   1      40.946  29.474  32.661  1.00  0.00     0.167 HD
ATOM     75  C   UNL A   1      38.851  31.334  33.224  1.00  0.00     0.074 A 
ATOM     76  C   UNL A   1      37.687  32.186  33.083  1.00  0.00     0.031 C 
ATOM     77  C   UNL A   1      39.549  31.190  34.379  1.00  0.00     0.037 A 
BRANCH  64  78
ATOM     78  C   UNL A   1      44.310  27.244  34.031  1.00  0.00     0.057 A 
ATOM     79  C   UNL A   1      45.583  27.819  34.164  1.00  0.00     0.134 A 
ATOM     80  C   UNL A   1      44.133  25.950  34.534  1.00  0.00     0.134 A 
ATOM     81  F   UNL A   1      45.831  29.044  33.676  1.00  0.00    -0.206 F 
ATOM     82  C   UNL A   1      46.644  27.121  34.744  1.00  0.00     0.040 A 
ATOM     83  C   UNL A   1      45.178  25.254  35.145  1.00  0.00     0.040 A 
ATOM     84  F   UNL A   1      42.946  25.335  34.432  1.00  0.00    -0.206 F 
ATOM     85  C   UNL A   1      46.440  25.837  35.244  1.00  0.00     0.006 A 
ENDBRANCH  64  78
BRANCH  65  86
ATOM     86  C   UNL A   1      36.712  31.515  29.024  1.00  0.00     0.057 A 
ATOM     87  C   UNL A   1      36.702  32.865  28.652  1.00  0.00     0.134 A 
ATOM     88  C   UNL A   1      35.580  30.755  28.705  1.00  0.00     0.134 A 
ATOM     89  F   UNL A   1      37.744  33.655  28.951  1.00  0.00    -0.206 F 
ATOM     90  C   UNL A   1      35.607  33.441  28.001  1.00  0.00     0.040 A 
ATOM     91  C   UNL A   1      34.488  31.311  28.032  1.00  0.00     0.040 A 
ATOM     92  F   UNL A   1      35.521  29.456  29.032  1.00  0.00    -0.206 F 
ATOM     93  C   UNL A   1      34.499  32.660  27.682  1.00  0.00     0.006 A 
ENDBRANCH  65  86
BRANCH  77  94
ATOM     94  C   UNL A   1      39.111  32.011  35.555  1.00  0.00     0.057 A 
ATOM     95  C   UNL A   1      38.274  31.496  36.552  1.00  0.00     0.134 A 
ATOM     96  C   UNL A   1      39.588  33.319  35.719  1.00  0.00     0.134 A 
ATOM     97  F   UNL A   1      37.778  30.254  36.450  1.00  0.00    -0.206 F 
ATOM     98  C   UNL A   1      37.907  32.262  37.660  1.00  0.00     0.040 A 
ATOM     99  C   UNL A   1      39.253  34.082  36.837  1.00  0.00     0.040 A 
ATOM    100  F   UNL A   1      40.406  33.865  34.808  1.00  0.00    -0.206 F 
ATOM    101  C   UNL A   1      38.404  33.556  37.808  1.00  0.00     0.006 A 
ENDBRANCH  77  94
ENDBRANCH  51  52
ENDBRANCH  44  46
ENDBRANCH  43  44
ENDBRANCH  42  43
ENDBRANCH  41  42
ENDBRANCH  40  41
ENDBRANCH   1  40
TORSDOF 18
ENDMDL
MODEL 2
REMARK VINA RESULT:      -9.6      3.570      8.866
REMARK SMILES CC1(C)CC[C@@]2(C(=O)OCCOCCOCCOC(=O)c3ccc(-c4c5nc(c(-c6c(F)cccc6F)c6ccc([nH]6)c(-c6c(F)cccc6F)c6nc(c(-c7c(F)cccc7F)c7ccc4[nH]7)C=C6)C=C5)cc3)CC[C@@]3(C)C(=CC[C@H]4[C@@]5(C)CC[C@H](O)C(C)(C)[C@@H]5CC[C@]43C)[C@@H]2C1
REMARK SMILES IDX 14 1 13 2 12 3 11 4 10 5 9 6 7 7 8 8 6 9 1 10 2 11 3 12 4 13
REMARK SMILES IDX 98 14 5 15 97 16 79 17 75 18 77 19 80 20 76 21 78 22 95 23
REMARK SMILES IDX 81 24 82 25 94 26 96 27 83 28 93 29 84 30 85 31 92 32 86 33
REMARK SMILES IDX 89 34 87 35 90 36 91 37 88 38 15 40 16 41 17 42 18 43 19 44
REMARK SMILES IDX 20 45 21 46 22 47 74 48 23 49 73 50 24 51 25 52 26 53 67 54
REMARK SMILES IDX 27 55 72 56 66 57 68 58 28 59 71 60 65 61 64 62 29 64 55 65
REMARK SMILES IDX 38 66 54 67 39 68 42 69 53 70 69 71 40 72 41 73 52 75 70 76
REMARK SMILES IDX 43 77 30 78 31 79 36 80 32 81 33 82 35 83 37 84 34 85 56 86
REMARK SMILES IDX 57 87 62 88 58 89 59 90 61 91 63 92 60 93 44 94 45 95 50 96
REMARK SMILES IDX 46 97 47 98 49 99 51 100 48 101
REMARK H PARENT 88 39 68 63 42 74
REMARK Flexibility Score: inf
ROOT
ATOM      1  C   UNL A   1      39.535  24.942  27.507  1.00  0.00     0.188 C 
ENDROOT
BRANCH   1   2
ATOM      2  C   UNL A   1      40.059  26.298  27.383  1.00  0.00     0.188 C 
BRANCH   2   3
ATOM      3  O   UNL A   1      40.643  26.518  28.606  1.00  0.00    -0.376 OA
BRANCH   3   4
ATOM      4  C   UNL A   1      41.926  27.059  28.470  1.00  0.00     0.202 C 
BRANCH   4   5
ATOM      5  C   UNL A   1      41.985  27.845  27.250  1.00  0.00     0.261 C 
BRANCH   5   6
ATOM      6  O   UNL A   1      43.226  28.546  27.283  1.00  0.00    -0.463 OA
BRANCH   6   7
ATOM      7  C   UNL A   1      43.369  29.691  28.013  1.00  0.00     0.312 C 
ATOM      8  O   UNL A   1      42.393  30.436  28.146  1.00  0.00    -0.252 OA
BRANCH   7   9
ATOM      9  C   UNL A   1      44.623  29.881  28.879  1.00  0.00     0.075 C 
ATOM     10  C   UNL A   1      46.375  33.211  26.614  1.00  0.00     0.011 C 
ATOM     11  C   UNL A   1      45.197  32.447  27.268  1.00  0.00    -0.035 C 
ATOM     12  C   UNL A   1      43.991  33.322  26.758  1.00  0.00     0.011 C 
ATOM     13  C   UNL A   1      45.261  31.029  26.639  1.00  0.00     0.007 C 
ATOM     14  C   UNL A   1      45.350  32.411  28.884  1.00  0.00     0.015 C 
ATOM     15  C   UNL A   1      45.629  29.915  27.670  1.00  0.00     0.020 C 
ATOM     16  C   UNL A   1      44.908  31.097  29.793  1.00  0.00     0.033 C 
ATOM     17  C   UNL A   1      43.946  31.172  31.127  1.00  0.00    -0.063 C 
ATOM     18  C   UNL A   1      44.783  28.647  29.841  1.00  0.00     0.020 C 
ATOM     19  C   UNL A   1      43.400  29.831  31.915  1.00  0.00    -0.006 C 
ATOM     20  C   UNL A   1      43.630  32.374  31.645  1.00  0.00    -0.027 C 
ATOM     21  C   UNL A   1      43.810  28.520  31.094  1.00  0.00     0.013 C 
ATOM     22  C   UNL A   1      44.481  29.726  33.082  1.00  0.00     0.017 C 
ATOM     23  C   UNL A   1      41.701  29.960  32.714  1.00  0.00    -0.020 C 
ATOM     24  C   UNL A   1      42.527  32.696  32.605  1.00  0.00     0.032 C 
ATOM     25  C   UNL A   1      41.250  31.803  32.648  1.00  0.00     0.006 C 
ATOM     26  C   UNL A   1      40.163  28.727  32.429  1.00  0.00     0.008 C 
ATOM     27  C   UNL A   1      41.969  29.665  34.257  1.00  0.00     0.012 C 
ATOM     28  C   UNL A   1      39.673  32.527  31.840  1.00  0.00    -0.025 C 
ATOM     29  C   UNL A   1      38.366  29.451  31.649  1.00  0.00     0.005 C 
ATOM     30  C   UNL A   1      39.022  33.437  32.954  1.00  0.00     0.012 C 
ATOM     31  C   UNL A   1      39.967  33.656  30.748  1.00  0.00     0.010 C 
ATOM     32  C   UNL A   1      38.399  31.349  31.081  1.00  0.00     0.003 C 
ATOM     33  C   UNL A   1      38.778  34.100  29.875  1.00  0.00     0.033 C 
ATOM     34  C   UNL A   1      37.278  31.950  30.165  1.00  0.00    -0.006 C 
ATOM     35  C   UNL A   1      37.974  32.985  29.192  1.00  0.00     0.120 C 
ATOM     36  C   UNL A   1      36.134  32.591  30.941  1.00  0.00     0.014 C 
ATOM     37  C   UNL A   1      36.663  30.839  29.269  1.00  0.00     0.014 C 
BRANCH  35  38
ATOM     38  O   UNL A   1      37.034  33.573  28.292  1.00  0.00    -0.393 OA
ATOM     39  H   UNL A   1      37.453  33.706  27.427  1.00  0.00     0.210 HD
ENDBRANCH  35  38
ENDBRANCH   7   9
ENDBRANCH   6   7
ENDBRANCH   5   6
ENDBRANCH   4   5
ENDBRANCH   3   4
ENDBRANCH   2   3
ENDBRANCH   1   2
BRANCH   1  40
ATOM     40  O   UNL A   1      38.058  24.557  26.550  1.00  0.00    -0.376 OA
BRANCH  40  41
ATOM     41  C   UNL A   1      37.631  23.038  25.472  1.00  0.00     0.202 C 
BRANCH  41  42
ATOM     42  C   UNL A   1      38.237  21.358  25.423  1.00  0.00     0.261 C 
BRANCH  42  43
ATOM     43  O   UNL A   1      39.179  20.820  26.405  1.00  0.00    -0.460 OA
BRANCH  43  44
ATOM     44  C   UNL A   1      40.374  20.219  26.110  1.00  0.00     0.338 C 
ATOM     45  O   UNL A   1      40.590  19.235  25.444  1.00  0.00    -0.246 OA
BRANCH  44  46
ATOM     46  C   UNL A   1      41.426  21.161  26.588  1.00  0.00     0.060 A 
ATOM     47  C   UNL A   1      41.685  22.380  25.929  1.00  0.00     0.016 A 
ATOM     48  C   UNL A   1      42.070  20.861  27.783  1.00  0.00     0.016 A 
ATOM     49  C   UNL A   1      42.543  23.328  26.505  1.00  0.00     0.010 A 
ATOM     50  C   UNL A   1      42.977  21.766  28.317  1.00  0.00     0.010 A 
ATOM     51  C   UNL A   1      43.233  22.990  27.674  1.00  0.00    -0.014 A 
BRANCH  51  52
ATOM     52  C   UNL A   1      44.486  23.670  28.072  1.00  0.00     0.031 A 
ATOM     53  C   UNL A   1      44.638  23.947  29.540  1.00  0.00     0.074 A 
ATOM     54  C   UNL A   1      45.304  24.224  27.161  1.00  0.00     0.049 A 
ATOM     55  N   UNL A   1      45.385  24.825  30.152  1.00  0.00    -0.248 NA
ATOM     56  C   UNL A   1      43.778  23.156  30.439  1.00  0.00     0.031 C 
ATOM     57  C   UNL A   1      45.247  24.000  25.718  1.00  0.00     0.029 A 
ATOM     58  N   UNL A   1      46.304  25.149  27.323  1.00  0.00    -0.354 N 
ATOM     59  C   UNL A   1      45.062  24.708  31.498  1.00  0.00     0.074 A 
ATOM     60  C   UNL A   1      44.041  23.695  31.615  1.00  0.00     0.031 C 
ATOM     61  C   UNL A   1      46.142  24.807  25.119  1.00  0.00     0.029 A 
ATOM     62  C   UNL A   1      46.792  25.634  26.133  1.00  0.00     0.049 A 
ATOM     63  H   UNL A   1      46.639  25.436  28.203  1.00  0.00     0.167 HD
ATOM     64  C   UNL A   1      45.565  25.396  32.546  1.00  0.00     0.037 A 
ATOM     65  C   UNL A   1      47.630  26.665  25.903  1.00  0.00     0.037 A 
ATOM     66  C   UNL A   1      46.547  26.433  32.402  1.00  0.00     0.049 A 
ATOM     67  C   UNL A   1      48.143  27.461  27.080  1.00  0.00     0.074 A 
ATOM     68  C   UNL A   1      47.147  27.199  33.383  1.00  0.00     0.029 A 
ATOM     69  N   UNL A   1      47.059  26.858  31.184  1.00  0.00    -0.354 N 
ATOM     70  N   UNL A   1      47.863  27.326  28.356  1.00  0.00    -0.248 NA
ATOM     71  C   UNL A   1      49.082  28.550  26.785  1.00  0.00     0.031 C 
ATOM     72  C   UNL A   1      47.986  28.123  32.753  1.00  0.00     0.029 A 
ATOM     73  C   UNL A   1      47.956  27.890  31.385  1.00  0.00     0.049 A 
ATOM     74  H   UNL A   1      46.819  26.481  30.307  1.00  0.00     0.167 HD
ATOM     75  C   UNL A   1      48.620  28.286  29.018  1.00  0.00     0.074 A 
ATOM     76  C   UNL A   1      49.372  28.993  28.001  1.00  0.00     0.031 C 
ATOM     77  C   UNL A   1      48.695  28.561  30.345  1.00  0.00     0.037 A 
BRANCH  64  78
ATOM     78  C   UNL A   1      45.022  25.070  33.906  1.00  0.00     0.057 A 
ATOM     79  C   UNL A   1      43.867  25.687  34.409  1.00  0.00     0.134 A 
ATOM     80  C   UNL A   1      45.672  24.149  34.735  1.00  0.00     0.134 A 
ATOM     81  F   UNL A   1      43.212  26.603  33.679  1.00  0.00    -0.206 F 
ATOM     82  C   UNL A   1      43.398  25.422  35.697  1.00  0.00     0.040 A 
ATOM     83  C   UNL A   1      45.194  23.852  36.013  1.00  0.00     0.040 A 
ATOM     84  F   UNL A   1      46.787  23.529  34.324  1.00  0.00    -0.206 F 
ATOM     85  C   UNL A   1      44.059  24.496  36.500  1.00  0.00     0.006 A 
ENDBRANCH  64  78
BRANCH  65  86
ATOM     86  C   UNL A   1      48.032  27.013  24.514  1.00  0.00     0.057 A 
ATOM     87  C   UNL A   1      47.190  27.772  23.693  1.00  0.00     0.134 A 
ATOM     88  C   UNL A   1      49.254  26.600  23.970  1.00  0.00     0.134 A 
ATOM     89  F   UNL A   1      45.994  28.178  24.144  1.00  0.00    -0.206 F 
ATOM     90  C   UNL A   1      47.540  28.098  22.380  1.00  0.00     0.040 A 
ATOM     91  C   UNL A   1      49.629  26.940  22.667  1.00  0.00     0.040 A 
ATOM     92  F   UNL A   1      50.109  25.869  24.700  1.00  0.00    -0.206 F 
ATOM     93  C   UNL A   1      48.768  27.687  21.866  1.00  0.00     0.006 A 
ENDBRANCH  65  86
BRANCH  77  94
ATOM     94  C   UNL A   1      49.659  29.627  30.773  1.00  0.00     0.057 A 
ATOM     95  C   UNL A   1      49.281  30.968  30.898  1.00  0.00     0.134 A 
ATOM     96  C   UNL A   1      50.973  29.287  31.126  1.00  0.00     0.134 A 
ATOM     97  F   UNL A   1      48.040  31.358  30.569  1.00  0.00    -0.206 F 
ATOM     98  C   UNL A   1      50.181  31.940  31.336  1.00  0.00     0.040 A 
ATOM     99  C   UNL A   1      51.873  30.245  31.594  1.00  0.00     0.040 A 
ATOM    100  F   UNL A   1      51.395  28.017  31.044  1.00  0.00    -0.206 F 
ATOM    101  C   UNL A   1      51.479  31.577  31.693  1.00  0.00     0.006 A 
ENDBRANCH  77  94
ENDBRANCH  51  52
ENDBRANCH  44  46
ENDBRANCH  43  44
ENDBRANCH  42  43
ENDBRANCH  41  42
ENDBRANCH  40  41
ENDBRANCH   1  40
TORSDOF 18
ENDMDL
MODEL 3
REMARK VINA RESULT:      -9.1      4.188     10.125
REMARK SMILES CC1(C)CC[C@@]2(C(=O)OCCOCCOCCOC(=O)c3ccc(-c4c5nc(c(-c6c(F)cccc6F)c6ccc([nH]6)c(-c6c(F)cccc6F)c6nc(c(-c7c(F)cccc7F)c7ccc4[nH]7)C=C6)C=C5)cc3)CC[C@@]3(C)C(=CC[C@H]4[C@@]5(C)CC[C@H](O)C(C)(C)[C@@H]5CC[C@]43C)[C@@H]2C1
REMARK SMILES IDX 14 1 13 2 12 3 11 4 10 5 9 6 7 7 8 8 6 9 1 10 2 11 3 12 4 13
REMARK SMILES IDX 98 14 5 15 97 16 79 17 75 18 77 19 80 20 76 21 78 22 95 23
REMARK SMILES IDX 81 24 82 25 94 26 96 27 83 28 93 29 84 30 85 31 92 32 86 33
REMARK SMILES IDX 89 34 87 35 90 36 91 37 88 38 15 40 16 41 17 42 18 43 19 44
REMARK SMILES IDX 20 45 21 46 22 47 74 48 23 49 73 50 24 51 25 52 26 53 67 54
REMARK SMILES IDX 27 55 72 56 66 57 68 58 28 59 71 60 65 61 64 62 29 64 55 65
REMARK SMILES IDX 38 66 54 67 39 68 42 69 53 70 69 71 40 72 41 73 52 75 70 76
REMARK SMILES IDX 43 77 30 78 31 79 36 80 32 81 33 82 35 83 37 84 34 85 56 86
REMARK SMILES IDX 57 87 62 88 58 89 59 90 61 91 63 92 60 93 44 94 45 95 50 96
REMARK SMILES IDX 46 97 47 98 49 99 51 100 48 101
REMARK H PARENT 88 39 68 63 42 74
REMARK Flexibility Score: inf
ROOT
ATOM      1  C   UNL A   1      40.495  28.122  27.152  1.00  0.00     0.188 C 
ENDROOT
BRANCH   1   2
ATOM      2  C   UNL A   1      39.407  28.494  28.050  1.00  0.00     0.188 C 
BRANCH   2   3
ATOM      3  O   UNL A   1      39.790  27.941  29.247  1.00  0.00    -0.376 OA
BRANCH   3   4
ATOM      4  C   UNL A   1      38.715  27.855  30.138  1.00  0.00     0.202 C 
BRANCH   4   5
ATOM      5  C   UNL A   1      39.174  28.194  31.473  1.00  0.00     0.261 C 
BRANCH   5   6
ATOM      6  O   UNL A   1      39.558  29.566  31.429  1.00  0.00    -0.463 OA
BRANCH   6   7
ATOM      7  C   UNL A   1      40.717  29.993  32.011  1.00  0.00     0.312 C 
ATOM      8  O   UNL A   1      41.159  29.370  32.981  1.00  0.00    -0.252 OA
BRANCH   7   9
ATOM      9  C   UNL A   1      41.585  31.033  31.287  1.00  0.00     0.075 C 
ATOM     10  C   UNL A   1      40.673  34.446  33.896  1.00  0.00     0.011 C 
ATOM     11  C   UNL A   1      41.013  32.959  33.626  1.00  0.00    -0.035 C 
ATOM     12  C   UNL A   1      40.862  32.378  35.082  1.00  0.00     0.011 C 
ATOM     13  C   UNL A   1      39.911  32.486  32.639  1.00  0.00     0.007 C 
ATOM     14  C   UNL A   1      42.504  32.804  33.003  1.00  0.00     0.015 C 
ATOM     15  C   UNL A   1      40.465  32.135  31.222  1.00  0.00     0.020 C 
ATOM     16  C   UNL A   1      42.877  31.674  31.850  1.00  0.00     0.033 C 
ATOM     17  C   UNL A   1      44.152  30.637  31.942  1.00  0.00    -0.063 C 
ATOM     18  C   UNL A   1      42.032  30.458  29.893  1.00  0.00     0.020 C 
ATOM     19  C   UNL A   1      44.403  29.425  30.855  1.00  0.00    -0.006 C 
ATOM     20  C   UNL A   1      45.073  30.812  32.909  1.00  0.00    -0.027 C 
ATOM     21  C   UNL A   1      43.160  29.335  29.852  1.00  0.00     0.013 C 
ATOM     22  C   UNL A   1      45.446  30.130  29.876  1.00  0.00     0.017 C 
ATOM     23  C   UNL A   1      45.206  27.856  31.517  1.00  0.00    -0.020 C 
ATOM     24  C   UNL A   1      46.092  29.826  33.391  1.00  0.00     0.032 C 
ATOM     25  C   UNL A   1      45.816  28.297  33.260  1.00  0.00     0.006 C 
ATOM     26  C   UNL A   1      44.502  26.001  31.338  1.00  0.00     0.008 C 
ATOM     27  C   UNL A   1      46.534  27.699  30.651  1.00  0.00     0.012 C 
ATOM     28  C   UNL A   1      45.336  27.374  34.866  1.00  0.00    -0.025 C 
ATOM     29  C   UNL A   1      44.049  24.880  33.041  1.00  0.00     0.005 C 
ATOM     30  C   UNL A   1      46.708  27.022  35.563  1.00  0.00     0.012 C 
ATOM     31  C   UNL A   1      44.726  28.322  35.999  1.00  0.00     0.010 C 
ATOM     32  C   UNL A   1      44.209  25.855  34.758  1.00  0.00     0.003 C 
ATOM     33  C   UNL A   1      44.082  27.625  37.212  1.00  0.00     0.033 C 
ATOM     34  C   UNL A   1      43.581  25.296  36.081  1.00  0.00    -0.006 C 
ATOM     35  C   UNL A   1      43.046  26.535  36.906  1.00  0.00     0.120 C 
ATOM     36  C   UNL A   1      44.544  24.447  36.902  1.00  0.00     0.014 C 
ATOM     37  C   UNL A   1      42.346  24.409  35.756  1.00  0.00     0.014 C 
BRANCH  35  38
ATOM     38  O   UNL A   1      42.426  26.124  38.126  1.00  0.00    -0.393 OA
ATOM     39  H   UNL A   1      42.281  26.899  38.692  1.00  0.00     0.210 HD
ENDBRANCH  35  38
ENDBRANCH   7   9
ENDBRANCH   6   7
ENDBRANCH   5   6
ENDBRANCH   4   5
ENDBRANCH   3   4
ENDBRANCH   2   3
ENDBRANCH   1   2
BRANCH   1  40
ATOM     40  O   UNL A   1      40.555  26.399  26.628  1.00  0.00    -0.376 OA
BRANCH  40  41
ATOM     41  C   UNL A   1      40.019  24.803  27.533  1.00  0.00     0.202 C 
BRANCH  41  42
ATOM     42  C   UNL A   1      40.819  23.234  27.831  1.00  0.00     0.261 C 
BRANCH  42  43
ATOM     43  O   UNL A   1      42.245  23.108  28.128  1.00  0.00    -0.460 OA
BRANCH  43  44
ATOM     44  C   UNL A   1      43.229  22.868  27.205  1.00  0.00     0.338 C 
ATOM     45  O   UNL A   1      43.504  21.842  26.631  1.00  0.00    -0.246 OA
BRANCH  44  46
ATOM     46  C   UNL A   1      43.783  24.206  26.851  1.00  0.00     0.060 A 
ATOM     47  C   UNL A   1      43.567  24.786  25.585  1.00  0.00     0.016 A 
ATOM     48  C   UNL A   1      44.422  24.929  27.852  1.00  0.00     0.016 A 
ATOM     49  C   UNL A   1      43.935  26.118  25.345  1.00  0.00     0.010 A 
ATOM     50  C   UNL A   1      44.854  26.222  27.593  1.00  0.00     0.010 A 
ATOM     51  C   UNL A   1      44.633  26.815  26.337  1.00  0.00    -0.014 A 
BRANCH  51  52
ATOM     52  C   UNL A   1      45.481  27.987  26.027  1.00  0.00     0.031 A 
ATOM     53  C   UNL A   1      46.945  27.703  25.854  1.00  0.00     0.074 A 
ATOM     54  C   UNL A   1      45.015  29.241  26.147  1.00  0.00     0.049 A 
ATOM     55  N   UNL A   1      47.970  28.505  25.959  1.00  0.00    -0.248 NA
ATOM     56  C   UNL A   1      47.303  26.300  25.580  1.00  0.00     0.031 C 
ATOM     57  C   UNL A   1      43.610  29.617  26.299  1.00  0.00     0.029 A 
ATOM     58  N   UNL A   1      45.695  30.431  26.226  1.00  0.00    -0.354 N 
ATOM     59  C   UNL A   1      49.087  27.696  25.791  1.00  0.00     0.074 A 
ATOM     60  C   UNL A   1      48.623  26.344  25.601  1.00  0.00     0.031 C 
ATOM     61  C   UNL A   1      43.536  30.945  26.504  1.00  0.00     0.029 A 
ATOM     62  C   UNL A   1      44.890  31.497  26.547  1.00  0.00     0.049 A 
ATOM     63  H   UNL A   1      46.663  30.511  26.069  1.00  0.00     0.167 HD
ATOM     64  C   UNL A   1      50.391  28.051  25.809  1.00  0.00     0.037 A 
ATOM     65  C   UNL A   1      45.225  32.758  26.885  1.00  0.00     0.037 A 
ATOM     66  C   UNL A   1      50.834  29.395  26.048  1.00  0.00     0.049 A 
ATOM     67  C   UNL A   1      46.688  33.126  26.954  1.00  0.00     0.074 A 
ATOM     68  C   UNL A   1      52.124  29.888  26.081  1.00  0.00     0.029 A 
ATOM     69  N   UNL A   1      49.984  30.460  26.313  1.00  0.00    -0.354 N 
ATOM     70  N   UNL A   1      47.744  32.369  26.761  1.00  0.00    -0.248 NA
ATOM     71  C   UNL A   1      47.006  34.520  27.289  1.00  0.00     0.031 C 
ATOM     72  C   UNL A   1      52.056  31.244  26.416  1.00  0.00     0.029 A 
ATOM     73  C   UNL A   1      50.721  31.608  26.529  1.00  0.00     0.049 A 
ATOM     74  H   UNL A   1      49.001  30.405  26.343  1.00  0.00     0.167 HD
ATOM     75  C   UNL A   1      48.846  33.200  26.913  1.00  0.00     0.074 A 
ATOM     76  C   UNL A   1      48.330  34.522  27.211  1.00  0.00     0.031 C 
ATOM     77  C   UNL A   1      50.168  32.909  26.812  1.00  0.00     0.037 A 
BRANCH  64  78
ATOM     78  C   UNL A   1      51.401  26.959  25.610  1.00  0.00     0.057 A 
ATOM     79  C   UNL A   1      51.869  26.180  26.678  1.00  0.00     0.134 A 
ATOM     80  C   UNL A   1      51.934  26.699  24.342  1.00  0.00     0.134 A 
ATOM     81  F   UNL A   1      51.424  26.397  27.926  1.00  0.00    -0.206 F 
ATOM     82  C   UNL A   1      52.851  25.205  26.497  1.00  0.00     0.040 A 
ATOM     83  C   UNL A   1      52.894  25.704  24.144  1.00  0.00     0.040 A 
ATOM     84  F   UNL A   1      51.541  27.412  23.277  1.00  0.00    -0.206 F 
ATOM     85  C   UNL A   1      53.360  24.959  25.224  1.00  0.00     0.006 A 
ENDBRANCH  64  78
BRANCH  65  86
ATOM     86  C   UNL A   1      44.171  33.761  27.191  1.00  0.00     0.057 A 
ATOM     87  C   UNL A   1      43.637  34.571  26.181  1.00  0.00     0.134 A 
ATOM     88  C   UNL A   1      43.671  33.942  28.486  1.00  0.00     0.134 A 
ATOM     89  F   UNL A   1      44.091  34.466  24.923  1.00  0.00    -0.206 F 
ATOM     90  C   UNL A   1      42.657  35.530  26.447  1.00  0.00     0.040 A 
ATOM     91  C   UNL A   1      42.672  34.880  28.764  1.00  0.00     0.040 A 
ATOM     92  F   UNL A   1      44.137  33.201  29.503  1.00  0.00    -0.206 F 
ATOM     93  C   UNL A   1      42.167  35.681  27.742  1.00  0.00     0.006 A 
ENDBRANCH  65  86
BRANCH  77  94
ATOM     94  C   UNL A   1      51.137  34.042  26.968  1.00  0.00     0.057 A 
ATOM     95  C   UNL A   1      51.712  34.366  28.202  1.00  0.00     0.134 A 
ATOM     96  C   UNL A   1      51.545  34.779  25.848  1.00  0.00     0.134 A 
ATOM     97  F   UNL A   1      51.357  33.704  29.313  1.00  0.00    -0.206 F 
ATOM     98  C   UNL A   1      52.642  35.400  28.322  1.00  0.00     0.040 A 
ATOM     99  C   UNL A   1      52.497  35.794  25.950  1.00  0.00     0.040 A 
ATOM    100  F   UNL A   1      51.044  34.508  24.634  1.00  0.00    -0.206 F 
ATOM    101  C   UNL A   1      53.042  36.111  27.191  1.00  0.00     0.006 A 
ENDBRANCH  77  94
ENDBRANCH  51  52
ENDBRANCH  44  46
ENDBRANCH  43  44
ENDBRANCH  42  43
ENDBRANCH  41  42
ENDBRANCH  40  41
ENDBRANCH   1  40
TORSDOF 18
ENDMDL
