MODEL 1
REMARK VINA RESULT:     -11.0      0.000      0.000
REMARK SMILES O=C(CC1CC[NH+](C[C@H]2Cc3ccccc3O2)CC1)OCCOCCOCCOC(=O)c1ccc(-c2c3nc(c(-c4c(F)cccc4F)c4ccc([nH]4)c(-c4c(F)cccc4F)c4nc(c(-c5c(F)cccc5F)c5ccc2[nH]5)C=C4)C=C3)cc1
REMARK SMILES IDX 24 1 23 2 22 3 21 4 20 5 2 6 1 7 3 8 4 9 5 10 19 11 6 12
REMARK SMILES IDX 18 13 7 14 8 16 9 17 10 18 17 19 11 20 16 21 12 22 15 23
REMARK SMILES IDX 13 24 14 25 25 26 26 27 27 28 28 29 29 30 30 31 31 32 32 33
REMARK SMILES IDX 33 34 85 35 34 36 84 37 35 38 36 39 37 40 78 41 38 42 83 43
REMARK SMILES IDX 77 44 79 45 39 46 82 47 76 48 75 49 40 51 66 52 49 53 65 54
REMARK SMILES IDX 50 55 53 56 64 57 80 58 51 59 52 60 63 62 81 63 54 64 41 65
REMARK SMILES IDX 42 66 47 67 43 68 44 69 46 70 48 71 45 72 67 73 68 74 73 75
REMARK SMILES IDX 69 76 70 77 72 78 74 79 71 80 55 81 56 82 61 83 57 84 58 85
REMARK SMILES IDX 60 86 62 87 59 88
REMARK H PARENT 7 15 79 50 53 61
REMARK Flexibility Score: inf
ROOT
ATOM      1  C   UNL A   1      42.086  19.856  27.321  1.00  0.00     0.188 C 
ENDROOT
BRANCH   1   2
ATOM      2  O   UNL A   1      40.787  20.311  27.654  1.00  0.00    -0.376 OA
BRANCH   2   3
ATOM      3  C   UNL A   1      40.433  21.646  27.329  1.00  0.00     0.202 C 
BRANCH   3   4
ATOM      4  C   UNL A   1      39.490  21.825  26.135  1.00  0.00     0.261 C 
BRANCH   4   5
ATOM      5  O   UNL A   1      38.729  20.689  25.655  1.00  0.00    -0.463 OA
BRANCH   5   6
ATOM      6  C   UNL A   1      37.528  20.648  25.047  1.00  0.00     0.306 C 
ATOM      7  O   UNL A   1      37.090  19.579  24.627  1.00  0.00    -0.252 OA
BRANCH   6   8
ATOM      8  C   UNL A   1      36.777  21.926  24.813  1.00  0.00     0.126 C 
BRANCH   8   9
ATOM      9  C   UNL A   1      35.404  21.980  25.494  1.00  0.00     0.011 C 
ATOM     10  C   UNL A   1      34.268  21.699  24.504  1.00  0.00     0.066 C 
ATOM     11  C   UNL A   1      35.144  23.354  26.125  1.00  0.00     0.066 C 
ATOM     12  C   UNL A   1      34.134  22.808  23.454  1.00  0.00     0.262 C 
ATOM     13  C   UNL A   1      35.041  24.448  25.063  1.00  0.00     0.262 C 
ATOM     14  N   UNL A   1      34.039  24.145  24.047  1.00  0.00    -0.332 N 
ATOM     15  H   UNL A   1      33.173  24.120  24.585  1.00  0.00     0.348 HD
BRANCH  14  16
ATOM     16  C   UNL A   1      33.851  25.211  23.042  1.00  0.00     0.308 C 
BRANCH  16  17
ATOM     17  C   UNL A   1      32.877  26.417  23.221  1.00  0.00     0.232 C 
ATOM     18  C   UNL A   1      31.577  26.153  24.000  1.00  0.00     0.090 C 
ATOM     19  O   UNL A   1      33.546  27.574  23.787  1.00  0.00    -0.484 OA
ATOM     20  C   UNL A   1      31.846  26.946  25.222  1.00  0.00    -0.002 A 
ATOM     21  C   UNL A   1      32.948  27.756  25.006  1.00  0.00     0.123 A 
ATOM     22  C   UNL A   1      31.169  26.976  26.429  1.00  0.00     0.007 A 
ATOM     23  C   UNL A   1      33.418  28.620  25.975  1.00  0.00     0.047 A 
ATOM     24  C   UNL A   1      31.641  27.829  27.431  1.00  0.00     0.001 A 
ATOM     25  C   UNL A   1      32.759  28.648  27.205  1.00  0.00     0.004 A 
ENDBRANCH  16  17
ENDBRANCH  14  16
ENDBRANCH   8   9
ENDBRANCH   6   8
ENDBRANCH   5   6
ENDBRANCH   4   5
ENDBRANCH   3   4
ENDBRANCH   2   3
ENDBRANCH   1   2
BRANCH   1  26
ATOM     26  C   UNL A   1      42.158  19.248  25.911  1.00  0.00     0.188 C 
BRANCH  26  27
ATOM     27  O   UNL A   1      43.075  19.829  24.991  1.00  0.00    -0.376 OA
BRANCH  27  28
ATOM     28  C   UNL A   1      43.947  20.851  25.476  1.00  0.00     0.202 C 
BRANCH  28  29
ATOM     29  C   UNL A   1      44.287  22.030  24.543  1.00  0.00     0.261 C 
BRANCH  29  30
ATOM     30  O   UNL A   1      43.408  23.173  24.640  1.00  0.00    -0.460 OA
BRANCH  30  31
ATOM     31  C   UNL A   1      44.013  24.341  24.939  1.00  0.00     0.338 C 
ATOM     32  O   UNL A   1      45.157  24.686  24.626  1.00  0.00    -0.246 OA
BRANCH  31  33
ATOM     33  C   UNL A   1      43.107  25.284  25.613  1.00  0.00     0.060 A 
ATOM     34  C   UNL A   1      43.522  26.615  25.759  1.00  0.00     0.016 A 
ATOM     35  C   UNL A   1      41.987  24.818  26.305  1.00  0.00     0.016 A 
ATOM     36  C   UNL A   1      42.866  27.462  26.654  1.00  0.00     0.010 A 
ATOM     37  C   UNL A   1      41.334  25.666  27.210  1.00  0.00     0.010 A 
ATOM     38  C   UNL A   1      41.806  26.973  27.431  1.00  0.00    -0.014 A 
BRANCH  38  39
ATOM     39  C   UNL A   1      41.353  27.749  28.616  1.00  0.00     0.031 A 
ATOM     40  C   UNL A   1      42.117  27.616  29.909  1.00  0.00     0.074 A 
ATOM     41  C   UNL A   1      40.311  28.595  28.547  1.00  0.00     0.049 A 
ATOM     42  N   UNL A   1      41.906  28.194  31.064  1.00  0.00    -0.248 NA
ATOM     43  C   UNL A   1      43.275  26.706  29.894  1.00  0.00     0.031 C 
ATOM     44  C   UNL A   1      39.505  28.849  27.357  1.00  0.00     0.029 A 
ATOM     45  N   UNL A   1      39.756  29.402  29.511  1.00  0.00    -0.354 N 
ATOM     46  C   UNL A   1      42.894  27.712  31.915  1.00  0.00     0.074 A 
ATOM     47  C   UNL A   1      43.690  26.776  31.151  1.00  0.00     0.031 C 
ATOM     48  C   UNL A   1      38.562  29.760  27.657  1.00  0.00     0.029 A 
ATOM     49  C   UNL A   1      38.678  30.128  29.067  1.00  0.00     0.049 A 
ATOM     50  H   UNL A   1      40.099  29.455  30.431  1.00  0.00     0.167 HD
ATOM     51  C   UNL A   1      43.126  28.023  33.213  1.00  0.00     0.037 A 
ATOM     52  C   UNL A   1      37.869  30.979  29.728  1.00  0.00     0.037 A 
ATOM     53  C   UNL A   1      42.347  28.958  33.982  1.00  0.00     0.049 A 
ATOM     54  C   UNL A   1      38.108  31.260  31.189  1.00  0.00     0.074 A 
ATOM     55  C   UNL A   1      42.527  29.354  35.297  1.00  0.00     0.029 A 
ATOM     56  N   UNL A   1      41.239  29.638  33.507  1.00  0.00    -0.354 N 
ATOM     57  N   UNL A   1      39.060  30.817  31.974  1.00  0.00    -0.248 NA
ATOM     58  C   UNL A   1      37.153  32.159  31.855  1.00  0.00     0.031 C 
ATOM     59  C   UNL A   1      41.499  30.242  35.631  1.00  0.00     0.029 A 
ATOM     60  C   UNL A   1      40.708  30.433  34.510  1.00  0.00     0.049 A 
ATOM     61  H   UNL A   1      40.882  29.569  32.593  1.00  0.00     0.167 HD
ATOM     62  C   UNL A   1      38.838  31.409  33.213  1.00  0.00     0.074 A 
ATOM     63  C   UNL A   1      37.666  32.246  33.075  1.00  0.00     0.031 C 
ATOM     64  C   UNL A   1      39.547  31.273  34.361  1.00  0.00     0.037 A 
BRANCH  51  65
ATOM     65  C   UNL A   1      44.261  27.318  33.894  1.00  0.00     0.057 A 
ATOM     66  C   UNL A   1      44.068  26.139  34.626  1.00  0.00     0.134 A 
ATOM     67  C   UNL A   1      45.567  27.815  33.799  1.00  0.00     0.134 A 
ATOM     68  F   UNL A   1      42.838  25.619  34.765  1.00  0.00    -0.206 F 
ATOM     69  C   UNL A   1      45.130  25.493  35.261  1.00  0.00     0.040 A 
ATOM     70  C   UNL A   1      46.640  27.166  34.411  1.00  0.00     0.040 A 
ATOM     71  F   UNL A   1      45.820  28.937  33.111  1.00  0.00    -0.206 F 
ATOM     72  C   UNL A   1      46.422  26.005  35.149  1.00  0.00     0.006 A 
ENDBRANCH  51  65
BRANCH  52  73
ATOM     73  C   UNL A   1      36.744  31.637  29.019  1.00  0.00     0.057 A 
ATOM     74  C   UNL A   1      36.822  32.980  28.630  1.00  0.00     0.134 A 
ATOM     75  C   UNL A   1      35.553  30.953  28.748  1.00  0.00     0.134 A 
ATOM     76  F   UNL A   1      37.926  33.694  28.888  1.00  0.00    -0.206 F 
ATOM     77  C   UNL A   1      35.748  33.624  28.011  1.00  0.00     0.040 A 
ATOM     78  C   UNL A   1      34.481  31.579  28.109  1.00  0.00     0.040 A 
ATOM     79  F   UNL A   1      35.416  29.666  29.096  1.00  0.00    -0.206 F 
ATOM     80  C   UNL A   1      34.576  32.921  27.746  1.00  0.00     0.006 A 
ENDBRANCH  52  73
BRANCH  64  81
ATOM     81  C   UNL A   1      39.102  32.078  35.547  1.00  0.00     0.057 A 
ATOM     82  C   UNL A   1      38.256  31.547  36.529  1.00  0.00     0.134 A 
ATOM     83  C   UNL A   1      39.555  33.392  35.725  1.00  0.00     0.134 A 
ATOM     84  F   UNL A   1      37.777  30.300  36.411  1.00  0.00    -0.206 F 
ATOM     85  C   UNL A   1      37.858  32.302  37.634  1.00  0.00     0.040 A 
ATOM     86  C   UNL A   1      39.183  34.148  36.838  1.00  0.00     0.040 A 
ATOM     87  F   UNL A   1      40.374  33.958  34.827  1.00  0.00    -0.206 F 
ATOM     88  C   UNL A   1      38.327  33.606  37.794  1.00  0.00     0.006 A 
ENDBRANCH  64  81
ENDBRANCH  38  39
ENDBRANCH  31  33
ENDBRANCH  30  31
ENDBRANCH  29  30
ENDBRANCH  28  29
ENDBRANCH  27  28
ENDBRANCH  26  27
ENDBRANCH   1  26
TORSDOF 20
ENDMDL
MODEL 2
REMARK VINA RESULT:     -10.1      1.031      2.303
REMARK SMILES O=C(CC1CC[NH+](C[C@H]2Cc3ccccc3O2)CC1)OCCOCCOCCOC(=O)c1ccc(-c2c3nc(c(-c4c(F)cccc4F)c4ccc([nH]4)c(-c4c(F)cccc4F)c4nc(c(-c5c(F)cccc5F)c5ccc2[nH]5)C=C4)C=C3)cc1
REMARK SMILES IDX 24 1 23 2 22 3 21 4 20 5 2 6 1 7 3 8 4 9 5 10 19 11 6 12
REMARK SMILES IDX 18 13 7 14 8 16 9 17 10 18 17 19 11 20 16 21 12 22 15 23
REMARK SMILES IDX 13 24 14 25 25 26 26 27 27 28 28 29 29 30 30 31 31 32 32 33
REMARK SMILES IDX 33 34 85 35 34 36 84 37 35 38 36 39 37 40 78 41 38 42 83 43
REMARK SMILES IDX 77 44 79 45 39 46 82 47 76 48 75 49 40 51 66 52 49 53 65 54
REMARK SMILES IDX 50 55 53 56 64 57 80 58 51 59 52 60 63 62 81 63 54 64 41 65
REMARK SMILES IDX 42 66 47 67 43 68 44 69 46 70 48 71 45 72 67 73 68 74 73 75
REMARK SMILES IDX 69 76 70 77 72 78 74 79 71 80 55 81 56 82 61 83 57 84 58 85
REMARK SMILES IDX 60 86 62 87 59 88
REMARK H PARENT 7 15 79 50 53 61
REMARK Flexibility Score: inf
ROOT
ATOM      1  C   UNL A   1      39.206  21.140  26.131  1.00  0.00     0.188 C 
ENDROOT
BRANCH   1   2
ATOM      2  O   UNL A   1      38.382  21.830  25.207  1.00  0.00    -0.376 OA
BRANCH   2   3
ATOM      3  C   UNL A   1      37.173  22.405  25.677  1.00  0.00     0.202 C 
BRANCH   3   4
ATOM      4  C   UNL A   1      36.051  22.558  24.646  1.00  0.00     0.261 C 
BRANCH   4   5
ATOM      5  O   UNL A   1      34.893  21.691  24.722  1.00  0.00    -0.463 OA
BRANCH   5   6
ATOM      6  C   UNL A   1      33.752  21.830  25.422  1.00  0.00     0.306 C 
ATOM      7  O   UNL A   1      33.383  20.934  26.178  1.00  0.00    -0.252 OA
BRANCH   6   8
ATOM      8  C   UNL A   1      32.898  23.046  25.204  1.00  0.00     0.126 C 
BRANCH   8   9
ATOM      9  C   UNL A   1      31.793  22.856  24.159  1.00  0.00     0.011 C 
ATOM     10  C   UNL A   1      32.367  22.726  22.743  1.00  0.00     0.066 C 
ATOM     11  C   UNL A   1      30.812  24.036  24.158  1.00  0.00     0.066 C 
ATOM     12  C   UNL A   1      33.021  24.029  22.267  1.00  0.00     0.262 C 
ATOM     13  C   UNL A   1      31.491  25.329  23.706  1.00  0.00     0.262 C 
ATOM     14  N   UNL A   1      32.140  25.192  22.407  1.00  0.00    -0.332 N 
ATOM     15  H   UNL A   1      31.357  24.991  21.784  1.00  0.00     0.348 HD
BRANCH  14  16
ATOM     16  C   UNL A   1      32.743  26.439  21.896  1.00  0.00     0.308 C 
BRANCH  16  17
ATOM     17  C   UNL A   1      33.609  27.408  22.760  1.00  0.00     0.232 C 
ATOM     18  C   UNL A   1      33.037  28.814  23.015  1.00  0.00     0.090 C 
ATOM     19  O   UNL A   1      33.988  26.810  24.027  1.00  0.00    -0.484 OA
ATOM     20  C   UNL A   1      32.753  28.716  24.464  1.00  0.00    -0.002 A 
ATOM     21  C   UNL A   1      33.361  27.580  24.972  1.00  0.00     0.123 A 
ATOM     22  C   UNL A   1      32.034  29.563  25.289  1.00  0.00     0.007 A 
ATOM     23  C   UNL A   1      33.277  27.243  26.309  1.00  0.00     0.047 A 
ATOM     24  C   UNL A   1      31.919  29.231  26.642  1.00  0.00     0.001 A 
ATOM     25  C   UNL A   1      32.538  28.077  27.149  1.00  0.00     0.004 A 
ENDBRANCH  16  17
ENDBRANCH  14  16
ENDBRANCH   8   9
ENDBRANCH   6   8
ENDBRANCH   5   6
ENDBRANCH   4   5
ENDBRANCH   3   4
ENDBRANCH   2   3
ENDBRANCH   1   2
BRANCH   1  26
ATOM     26  C   UNL A   1      40.621  21.732  26.221  1.00  0.00     0.188 C 
BRANCH  26  27
ATOM     27  O   UNL A   1      41.650  21.090  25.476  1.00  0.00    -0.376 OA
BRANCH  27  28
ATOM     28  C   UNL A   1      42.948  21.010  26.067  1.00  0.00     0.202 C 
BRANCH  28  29
ATOM     29  C   UNL A   1      43.972  22.115  25.742  1.00  0.00     0.261 C 
BRANCH  29  30
ATOM     30  O   UNL A   1      43.510  23.144  24.839  1.00  0.00    -0.460 OA
BRANCH  30  31
ATOM     31  C   UNL A   1      44.091  24.351  24.997  1.00  0.00     0.338 C 
ATOM     32  O   UNL A   1      45.196  24.706  24.571  1.00  0.00    -0.246 OA
BRANCH  31  33
ATOM     33  C   UNL A   1      43.203  25.318  25.662  1.00  0.00     0.060 A 
ATOM     34  C   UNL A   1      43.668  26.627  25.851  1.00  0.00     0.016 A 
ATOM     35  C   UNL A   1      42.041  24.885  26.305  1.00  0.00     0.016 A 
ATOM     36  C   UNL A   1      43.017  27.483  26.742  1.00  0.00     0.010 A 
ATOM     37  C   UNL A   1      41.394  25.742  27.206  1.00  0.00     0.010 A 
ATOM     38  C   UNL A   1      41.912  27.023  27.472  1.00  0.00    -0.014 A 
BRANCH  38  39
ATOM     39  C   UNL A   1      41.451  27.793  28.657  1.00  0.00     0.031 A 
ATOM     40  C   UNL A   1      42.238  27.693  29.940  1.00  0.00     0.074 A 
ATOM     41  C   UNL A   1      40.382  28.605  28.598  1.00  0.00     0.049 A 
ATOM     42  N   UNL A   1      42.025  28.273  31.094  1.00  0.00    -0.248 NA
ATOM     43  C   UNL A   1      43.423  26.820  29.915  1.00  0.00     0.031 C 
ATOM     44  C   UNL A   1      39.552  28.824  27.417  1.00  0.00     0.029 A 
ATOM     45  N   UNL A   1      39.816  29.401  29.564  1.00  0.00    -0.354 N 
ATOM     46  C   UNL A   1      43.039  27.829  31.935  1.00  0.00     0.074 A 
ATOM     47  C   UNL A   1      43.853  26.913  31.165  1.00  0.00     0.031 C 
ATOM     48  C   UNL A   1      38.585  29.707  27.725  1.00  0.00     0.029 A 
ATOM     49  C   UNL A   1      38.709  30.089  29.131  1.00  0.00     0.049 A 
ATOM     50  H   UNL A   1      40.170  29.472  30.479  1.00  0.00     0.167 HD
ATOM     51  C   UNL A   1      43.279  28.156  33.227  1.00  0.00     0.037 A 
ATOM     52  C   UNL A   1      37.883  30.920  29.797  1.00  0.00     0.037 A 
ATOM     53  C   UNL A   1      42.483  29.072  34.000  1.00  0.00     0.049 A 
ATOM     54  C   UNL A   1      38.133  31.218  31.252  1.00  0.00     0.074 A 
ATOM     55  C   UNL A   1      42.668  29.483  35.309  1.00  0.00     0.029 A 
ATOM     56  N   UNL A   1      41.346  29.713  33.537  1.00  0.00    -0.354 N 
ATOM     57  N   UNL A   1      39.109  30.812  32.027  1.00  0.00    -0.248 NA
ATOM     58  C   UNL A   1      37.160  32.092  31.926  1.00  0.00     0.031 C 
ATOM     59  C   UNL A   1      41.617  30.341  35.652  1.00  0.00     0.029 A 
ATOM     60  C   UNL A   1      40.804  30.499  34.541  1.00  0.00     0.049 A 
ATOM     61  H   UNL A   1      40.979  29.626  32.628  1.00  0.00     0.167 HD
ATOM     62  C   UNL A   1      38.887  31.405  33.265  1.00  0.00     0.074 A 
ATOM     63  C   UNL A   1      37.687  32.204  33.138  1.00  0.00     0.031 C 
ATOM     64  C   UNL A   1      39.616  31.300  34.404  1.00  0.00     0.037 A 
BRANCH  51  65
ATOM     65  C   UNL A   1      44.446  27.492  33.897  1.00  0.00     0.057 A 
ATOM     66  C   UNL A   1      45.707  28.100  33.960  1.00  0.00     0.134 A 
ATOM     67  C   UNL A   1      44.299  26.239  34.503  1.00  0.00     0.134 A 
ATOM     68  F   UNL A   1      45.915  29.295  33.386  1.00  0.00    -0.206 F 
ATOM     69  C   UNL A   1      46.787  27.472  34.581  1.00  0.00     0.040 A 
ATOM     70  C   UNL A   1      45.366  25.611  35.147  1.00  0.00     0.040 A 
ATOM     71  F   UNL A   1      43.117  25.606  34.482  1.00  0.00    -0.206 F 
ATOM     72  C   UNL A   1      46.616  26.225  35.182  1.00  0.00     0.006 A 
ENDBRANCH  51  65
BRANCH  52  73
ATOM     73  C   UNL A   1      36.727  31.536  29.100  1.00  0.00     0.057 A 
ATOM     74  C   UNL A   1      35.575  30.792  28.816  1.00  0.00     0.134 A 
ATOM     75  C   UNL A   1      36.760  32.867  28.670  1.00  0.00     0.134 A 
ATOM     76  F   UNL A   1      35.498  29.504  29.178  1.00  0.00    -0.206 F 
ATOM     77  C   UNL A   1      34.504  31.346  28.113  1.00  0.00     0.040 A 
ATOM     78  C   UNL A   1      35.686  33.441  27.986  1.00  0.00     0.040 A 
ATOM     79  F   UNL A   1      37.834  33.632  28.912  1.00  0.00    -0.206 F 
ATOM     80  C   UNL A   1      34.557  32.675  27.700  1.00  0.00     0.006 A 
ENDBRANCH  52  73
BRANCH  64  81
ATOM     81  C   UNL A   1      39.162  32.099  35.590  1.00  0.00     0.057 A 
ATOM     82  C   UNL A   1      39.543  33.434  35.775  1.00  0.00     0.134 A 
ATOM     83  C   UNL A   1      38.304  31.534  36.543  1.00  0.00     0.134 A 
ATOM     84  F   UNL A   1      40.373  34.031  34.906  1.00  0.00    -0.206 F 
ATOM     85  C   UNL A   1      39.105  34.171  36.877  1.00  0.00     0.040 A 
ATOM     86  C   UNL A   1      37.840  32.268  37.636  1.00  0.00     0.040 A 
ATOM     87  F   UNL A   1      37.894  30.263  36.421  1.00  0.00    -0.206 F 
ATOM     88  C   UNL A   1      38.246  33.590  37.808  1.00  0.00     0.006 A 
ENDBRANCH  64  81
ENDBRANCH  38  39
ENDBRANCH  31  33
ENDBRANCH  30  31
ENDBRANCH  29  30
ENDBRANCH  28  29
ENDBRANCH  27  28
ENDBRANCH  26  27
ENDBRANCH   1  26
TORSDOF 20
ENDMDL
MODEL 3
REMARK VINA RESULT:      -9.8      4.490     10.289
REMARK SMILES O=C(CC1CC[NH+](C[C@H]2Cc3ccccc3O2)CC1)OCCOCCOCCOC(=O)c1ccc(-c2c3nc(c(-c4c(F)cccc4F)c4ccc([nH]4)c(-c4c(F)cccc4F)c4nc(c(-c5c(F)cccc5F)c5ccc2[nH]5)C=C4)C=C3)cc1
REMARK SMILES IDX 24 1 23 2 22 3 21 4 20 5 2 6 1 7 3 8 4 9 5 10 19 11 6 12
REMARK SMILES IDX 18 13 7 14 8 16 9 17 10 18 17 19 11 20 16 21 12 22 15 23
REMARK SMILES IDX 13 24 14 25 25 26 26 27 27 28 28 29 29 30 30 31 31 32 32 33
REMARK SMILES IDX 33 34 85 35 34 36 84 37 35 38 36 39 37 40 78 41 38 42 83 43
REMARK SMILES IDX 77 44 79 45 39 46 82 47 76 48 75 49 40 51 66 52 49 53 65 54
REMARK SMILES IDX 50 55 53 56 64 57 80 58 51 59 52 60 63 62 81 63 54 64 41 65
REMARK SMILES IDX 42 66 47 67 43 68 44 69 46 70 48 71 45 72 67 73 68 74 73 75
REMARK SMILES IDX 69 76 70 77 72 78 74 79 71 80 55 81 56 82 61 83 57 84 58 85
REMARK SMILES IDX 60 86 62 87 59 88
REMARK H PARENT 7 15 79 50 53 61
REMARK Flexibility Score: inf
ROOT
ATOM      1  C   UNL A   1      35.070  32.413  28.355  1.00  0.00     0.188 C 
ENDROOT
BRANCH   1   2
ATOM      2  O   UNL A   1      33.976  32.273  27.465  1.00  0.00    -0.376 OA
BRANCH   2   3
ATOM      3  C   UNL A   1      33.333  31.012  27.377  1.00  0.00     0.202 C 
BRANCH   3   4
ATOM      4  C   UNL A   1      31.903  31.018  26.827  1.00  0.00     0.261 C 
BRANCH   4   5
ATOM      5  O   UNL A   1      31.639  30.434  25.528  1.00  0.00    -0.463 OA
BRANCH   5   6
ATOM      6  C   UNL A   1      32.153  29.329  24.955  1.00  0.00     0.306 C 
ATOM      7  O   UNL A   1      33.255  29.376  24.413  1.00  0.00    -0.252 OA
BRANCH   6   8
ATOM      8  C   UNL A   1      31.333  28.072  24.912  1.00  0.00     0.126 C 
BRANCH   8   9
ATOM      9  C   UNL A   1      30.601  27.848  23.583  1.00  0.00     0.011 C 
ATOM     10  C   UNL A   1      29.366  26.957  23.760  1.00  0.00     0.066 C 
ATOM     11  C   UNL A   1      31.513  27.181  22.546  1.00  0.00     0.066 C 
ATOM     12  C   UNL A   1      29.744  25.523  24.150  1.00  0.00     0.262 C 
ATOM     13  C   UNL A   1      31.899  25.763  22.967  1.00  0.00     0.262 C 
ATOM     14  N   UNL A   1      30.735  24.930  23.247  1.00  0.00    -0.332 N 
ATOM     15  H   UNL A   1      30.262  24.893  22.344  1.00  0.00     0.348 HD
BRANCH  14  16
ATOM     16  C   UNL A   1      31.058  23.529  23.583  1.00  0.00     0.308 C 
BRANCH  16  17
ATOM     17  C   UNL A   1      32.273  22.748  22.993  1.00  0.00     0.232 C 
ATOM     18  C   UNL A   1      33.436  22.439  23.952  1.00  0.00     0.090 C 
ATOM     19  O   UNL A   1      31.860  21.523  22.334  1.00  0.00    -0.484 OA
ATOM     20  C   UNL A   1      33.294  20.969  24.060  1.00  0.00    -0.002 A 
ATOM     21  C   UNL A   1      32.420  20.522  23.084  1.00  0.00     0.123 A 
ATOM     22  C   UNL A   1      33.896  20.079  24.933  1.00  0.00     0.007 A 
ATOM     23  C   UNL A   1      32.111  19.184  22.938  1.00  0.00     0.047 A 
ATOM     24  C   UNL A   1      33.583  18.722  24.817  1.00  0.00     0.001 A 
ATOM     25  C   UNL A   1      32.695  18.276  23.824  1.00  0.00     0.004 A 
ENDBRANCH  16  17
ENDBRANCH  14  16
ENDBRANCH   8   9
ENDBRANCH   6   8
ENDBRANCH   5   6
ENDBRANCH   4   5
ENDBRANCH   3   4
ENDBRANCH   2   3
ENDBRANCH   1   2
BRANCH   1  26
ATOM     26  C   UNL A   1      34.675  32.174  29.821  1.00  0.00     0.188 C 
BRANCH  26  27
ATOM     27  O   UNL A   1      34.327  33.312  30.601  1.00  0.00    -0.376 OA
BRANCH  27  28
ATOM     28  C   UNL A   1      34.236  33.145  32.018  1.00  0.00     0.202 C 
BRANCH  28  29
ATOM     29  C   UNL A   1      35.094  34.053  32.920  1.00  0.00     0.261 C 
BRANCH  29  30
ATOM     30  O   UNL A   1      36.521  33.845  32.834  1.00  0.00    -0.460 OA
BRANCH  30  31
ATOM     31  C   UNL A   1      36.984  32.754  33.478  1.00  0.00     0.338 C 
ATOM     32  O   UNL A   1      36.845  32.483  34.676  1.00  0.00    -0.246 OA
BRANCH  31  33
ATOM     33  C   UNL A   1      37.612  31.788  32.563  1.00  0.00     0.060 A 
ATOM     34  C   UNL A   1      38.461  30.813  33.106  1.00  0.00     0.016 A 
ATOM     35  C   UNL A   1      37.566  31.989  31.182  1.00  0.00     0.016 A 
ATOM     36  C   UNL A   1      39.321  30.089  32.278  1.00  0.00     0.010 A 
ATOM     37  C   UNL A   1      38.437  31.268  30.352  1.00  0.00     0.010 A 
ATOM     38  C   UNL A   1      39.358  30.357  30.903  1.00  0.00    -0.014 A 
BRANCH  38  39
ATOM     39  C   UNL A   1      40.500  29.857  30.094  1.00  0.00     0.031 A 
ATOM     40  C   UNL A   1      41.668  30.776  29.838  1.00  0.00     0.074 A 
ATOM     41  C   UNL A   1      40.534  28.597  29.626  1.00  0.00     0.049 A 
ATOM     42  N   UNL A   1      42.769  30.556  29.164  1.00  0.00    -0.248 NA
ATOM     43  C   UNL A   1      41.580  32.125  30.420  1.00  0.00     0.031 C 
ATOM     44  C   UNL A   1      39.495  27.593  29.827  1.00  0.00     0.029 A 
ATOM     45  N   UNL A   1      41.493  27.950  28.885  1.00  0.00    -0.354 N 
ATOM     46  C   UNL A   1      43.498  31.737  29.232  1.00  0.00     0.074 A 
ATOM     47  C   UNL A   1      42.704  32.680  29.991  1.00  0.00     0.031 C 
ATOM     48  C   UNL A   1      39.876  26.449  29.231  1.00  0.00     0.029 A 
ATOM     49  C   UNL A   1      41.169  26.651  28.580  1.00  0.00     0.049 A 
ATOM     50  H   UNL A   1      42.332  28.377  28.600  1.00  0.00     0.167 HD
ATOM     51  C   UNL A   1      44.719  32.016  28.717  1.00  0.00     0.037 A 
ATOM     52  C   UNL A   1      41.834  25.736  27.847  1.00  0.00     0.037 A 
ATOM     53  C   UNL A   1      45.522  31.086  27.967  1.00  0.00     0.049 A 
ATOM     54  C   UNL A   1      43.162  26.090  27.230  1.00  0.00     0.074 A 
ATOM     55  C   UNL A   1      46.783  31.274  27.429  1.00  0.00     0.029 A 
ATOM     56  N   UNL A   1      45.138  29.795  27.644  1.00  0.00    -0.354 N 
ATOM     57  N   UNL A   1      43.850  27.201  27.323  1.00  0.00    -0.248 NA
ATOM     58  C   UNL A   1      43.802  25.057  26.400  1.00  0.00     0.031 C 
ATOM     59  C   UNL A   1      47.145  30.109  26.743  1.00  0.00     0.029 A 
ATOM     60  C   UNL A   1      46.127  29.182  26.893  1.00  0.00     0.049 A 
ATOM     61  H   UNL A   1      44.289  29.375  27.910  1.00  0.00     0.167 HD
ATOM     62  C   UNL A   1      45.016  26.990  26.595  1.00  0.00     0.074 A 
ATOM     63  C   UNL A   1      44.946  25.643  26.071  1.00  0.00     0.031 C 
ATOM     64  C   UNL A   1      46.054  27.836  26.385  1.00  0.00     0.037 A 
BRANCH  51  65
ATOM     65  C   UNL A   1      45.252  33.402  28.927  1.00  0.00     0.057 A 
ATOM     66  C   UNL A   1      46.072  33.722  30.017  1.00  0.00     0.134 A 
ATOM     67  C   UNL A   1      44.957  34.423  28.016  1.00  0.00     0.134 A 
ATOM     68  F   UNL A   1      46.381  32.790  30.932  1.00  0.00    -0.206 F 
ATOM     69  C   UNL A   1      46.559  35.016  30.206  1.00  0.00     0.040 A 
ATOM     70  C   UNL A   1      45.456  35.716  28.182  1.00  0.00     0.040 A 
ATOM     71  F   UNL A   1      44.180  34.182  26.950  1.00  0.00    -0.206 F 
ATOM     72  C   UNL A   1      46.255  36.017  29.283  1.00  0.00     0.006 A 
ENDBRANCH  51  65
BRANCH  52  73
ATOM     73  C   UNL A   1      41.257  24.383  27.646  1.00  0.00     0.057 A 
ATOM     74  C   UNL A   1      41.731  23.282  28.369  1.00  0.00     0.134 A 
ATOM     75  C   UNL A   1      40.249  24.153  26.703  1.00  0.00     0.134 A 
ATOM     76  F   UNL A   1      42.715  23.437  29.266  1.00  0.00    -0.206 F 
ATOM     77  C   UNL A   1      41.234  21.996  28.149  1.00  0.00     0.040 A 
ATOM     78  C   UNL A   1      39.727  22.876  26.489  1.00  0.00     0.040 A 
ATOM     79  F   UNL A   1      39.753  25.166  25.979  1.00  0.00    -0.206 F 
ATOM     80  C   UNL A   1      40.226  21.792  27.210  1.00  0.00     0.006 A 
ENDBRANCH  52  73
BRANCH  64  81
ATOM     81  C   UNL A   1      47.218  27.318  25.589  1.00  0.00     0.057 A 
ATOM     82  C   UNL A   1      47.345  27.563  24.217  1.00  0.00     0.134 A 
ATOM     83  C   UNL A   1      48.242  26.595  26.216  1.00  0.00     0.134 A 
ATOM     84  F   UNL A   1      46.394  28.238  23.555  1.00  0.00    -0.206 F 
ATOM     85  C   UNL A   1      48.437  27.086  23.490  1.00  0.00     0.040 A 
ATOM     86  C   UNL A   1      49.350  26.134  25.504  1.00  0.00     0.040 A 
ATOM     87  F   UNL A   1      48.185  26.334  27.530  1.00  0.00    -0.206 F 
ATOM     88  C   UNL A   1      49.447  26.373  24.135  1.00  0.00     0.006 A 
ENDBRANCH  64  81
ENDBRANCH  38  39
ENDBRANCH  31  33
ENDBRANCH  30  31
ENDBRANCH  29  30
ENDBRANCH  28  29
ENDBRANCH  27  28
ENDBRANCH  26  27
ENDBRANCH   1  26
TORSDOF 20
ENDMDL
