MODEL 1
REMARK VINA RESULT:     -11.0      0.000      0.000
REMARK SMILES CC[C@@H](C(=O)OCCOCCOCCOC(=O)c1ccc(-c2c3nc(c(-c4c(F)cccc4F)c4ccc([nH]4)c(-c4c(F)cccc4F)c4nc(c(-c5c(F)cccc5F)c5ccc2[nH]5)C=C4)C=C3)cc1)N1C(=O)/C(=C/C(C)=C/c2ccccc2)SC1=S
REMARK SMILES IDX 10 1 9 2 8 3 7 4 6 5 4 6 5 7 3 8 2 9 1 10 72 11 73 12 87 13
REMARK SMILES IDX 74 14 75 15 86 16 88 17 76 18 77 19 78 20 79 21 80 22 81 23
REMARK SMILES IDX 85 24 82 25 84 26 83 27 11 28 12 29 13 30 14 31 15 32 16 33
REMARK SMILES IDX 17 34 18 35 19 36 71 37 20 38 70 39 21 40 22 41 23 42 64 43
REMARK SMILES IDX 24 44 69 45 63 46 65 47 25 48 68 49 62 50 61 51 26 53 52 54
REMARK SMILES IDX 35 55 51 56 36 57 39 58 50 59 66 60 37 61 38 62 49 64 67 65
REMARK SMILES IDX 40 66 27 67 28 68 33 69 29 70 30 71 32 72 34 73 31 74 53 75
REMARK SMILES IDX 54 76 59 77 55 78 56 79 58 80 60 81 57 82 41 83 42 84 47 85
REMARK SMILES IDX 43 86 44 87 46 88 48 89 45 90
REMARK H PARENT 65 52 39 63
REMARK Flexibility Score: inf
ROOT
ATOM      1  C   UNL A   1      39.853  21.841  26.739  1.00  0.00     0.188 C 
ENDROOT
BRANCH   1   2
ATOM      2  O   UNL A   1      39.682  23.228  27.000  1.00  0.00    -0.376 OA
BRANCH   2   3
ATOM      3  C   UNL A   1      38.508  23.878  26.527  1.00  0.00     0.202 C 
BRANCH   3   4
ATOM      4  C   UNL A   1      37.497  23.000  25.796  1.00  0.00     0.261 C 
BRANCH   4   5
ATOM      5  O   UNL A   1      36.160  23.376  26.159  1.00  0.00    -0.462 OA
BRANCH   5   6
ATOM      6  C   UNL A   1      35.277  23.495  25.137  1.00  0.00     0.329 C 
ATOM      7  O   UNL A   1      35.570  23.850  24.003  1.00  0.00    -0.250 OA
BRANCH   6   8
ATOM      8  C   UNL A   1      33.847  23.150  25.575  1.00  0.00     0.201 C 
BRANCH   8   9
ATOM      9  C   UNL A   1      33.632  21.600  25.566  1.00  0.00     0.034 C 
ATOM     10  C   UNL A   1      34.674  20.736  24.866  1.00  0.00     0.007 C 
ENDBRANCH   8   9
BRANCH   8  11
ATOM     11  N   UNL A   1      32.719  23.851  24.866  1.00  0.00    -0.278 N 
ATOM     12  C   UNL A   1      32.293  25.062  25.410  1.00  0.00     0.266 C 
ATOM     13  C   UNL A   1      32.269  23.660  23.572  1.00  0.00     0.149 C 
ATOM     14  O   UNL A   1      32.735  25.596  26.420  1.00  0.00    -0.268 OA
ATOM     15  C   UNL A   1      31.297  25.735  24.533  1.00  0.00     0.080 C 
ATOM     16  S   UNL A   1      30.849  24.670  23.282  1.00  0.00    -0.054 SA
ATOM     17  S   UNL A   1      32.863  22.729  22.327  1.00  0.00    -0.052 S 
ATOM     18  C   UNL A   1      30.973  27.018  24.733  1.00  0.00     0.024 C 
BRANCH  18  19
ATOM     19  C   UNL A   1      30.122  27.927  23.974  1.00  0.00    -0.049 C 
ATOM     20  C   UNL A   1      28.744  27.378  23.665  1.00  0.00     0.044 C 
ATOM     21  C   UNL A   1      30.447  29.208  23.697  1.00  0.00     0.011 C 
BRANCH  21  22
ATOM     22  C   UNL A   1      29.533  30.140  23.032  1.00  0.00    -0.025 A 
ATOM     23  C   UNL A   1      28.849  31.118  23.760  1.00  0.00     0.008 A 
ATOM     24  C   UNL A   1      29.388  30.082  21.641  1.00  0.00     0.008 A 
ATOM     25  C   UNL A   1      28.069  32.062  23.095  1.00  0.00     0.001 A 
ATOM     26  C   UNL A   1      28.588  31.014  20.979  1.00  0.00     0.001 A 
ATOM     27  C   UNL A   1      27.941  32.010  21.706  1.00  0.00     0.000 A 
ENDBRANCH  21  22
ENDBRANCH  18  19
ENDBRANCH   8  11
ENDBRANCH   6   8
ENDBRANCH   5   6
ENDBRANCH   4   5
ENDBRANCH   3   4
ENDBRANCH   2   3
ENDBRANCH   1   2
BRANCH   1  28
ATOM     28  C   UNL A   1      41.098  21.349  25.973  1.00  0.00     0.188 C 
BRANCH  28  29
ATOM     29  O   UNL A   1      42.397  21.467  26.529  1.00  0.00    -0.376 OA
BRANCH  29  30
ATOM     30  C   UNL A   1      43.514  21.058  25.754  1.00  0.00     0.202 C 
BRANCH  30  31
ATOM     31  C   UNL A   1      44.391  22.156  25.157  1.00  0.00     0.261 C 
BRANCH  31  32
ATOM     32  O   UNL A   1      44.740  23.170  26.110  1.00  0.00    -0.460 OA
BRANCH  32  33
ATOM     33  C   UNL A   1      44.830  24.421  25.611  1.00  0.00     0.338 C 
ATOM     34  O   UNL A   1      45.454  24.782  24.614  1.00  0.00    -0.246 OA
BRANCH  33  35
ATOM     35  C   UNL A   1      43.918  25.324  26.334  1.00  0.00     0.060 A 
ATOM     36  C   UNL A   1      44.345  26.638  26.570  1.00  0.00     0.016 A 
ATOM     37  C   UNL A   1      42.695  24.873  26.838  1.00  0.00     0.016 A 
ATOM     38  C   UNL A   1      43.585  27.486  27.372  1.00  0.00     0.010 A 
ATOM     39  C   UNL A   1      41.943  25.718  27.659  1.00  0.00     0.010 A 
ATOM     40  C   UNL A   1      42.413  27.007  27.969  1.00  0.00    -0.014 A 
BRANCH  40  41
ATOM     41  C   UNL A   1      41.829  27.751  29.109  1.00  0.00     0.031 A 
ATOM     42  C   UNL A   1      42.473  27.581  30.459  1.00  0.00     0.074 A 
ATOM     43  C   UNL A   1      40.762  28.554  28.954  1.00  0.00     0.049 A 
ATOM     44  N   UNL A   1      42.198  28.173  31.590  1.00  0.00    -0.248 NA
ATOM     45  C   UNL A   1      43.587  26.618  30.539  1.00  0.00     0.031 C 
ATOM     46  C   UNL A   1      40.091  28.816  27.686  1.00  0.00     0.029 A 
ATOM     47  N   UNL A   1      40.053  29.290  29.872  1.00  0.00    -0.354 N 
ATOM     48  C   UNL A   1      43.093  27.651  32.514  1.00  0.00     0.074 A 
ATOM     49  C   UNL A   1      43.910  26.681  31.821  1.00  0.00     0.031 C 
ATOM     50  C   UNL A   1      39.058  29.647  27.906  1.00  0.00     0.029 A 
ATOM     51  C   UNL A   1      38.969  29.949  29.336  1.00  0.00     0.049 A 
ATOM     52  H   UNL A   1      40.297  29.342  30.825  1.00  0.00     0.167 HD
ATOM     53  C   UNL A   1      43.223  27.958  33.825  1.00  0.00     0.037 A 
ATOM     54  C   UNL A   1      38.022  30.703  29.940  1.00  0.00     0.037 A 
ATOM     55  C   UNL A   1      42.413  28.933  34.502  1.00  0.00     0.049 A 
ATOM     56  C   UNL A   1      38.179  30.976  31.421  1.00  0.00     0.074 A 
ATOM     57  C   UNL A   1      42.491  29.358  35.815  1.00  0.00     0.029 A 
ATOM     58  N   UNL A   1      41.364  29.621  33.914  1.00  0.00    -0.354 N 
ATOM     59  N   UNL A   1      39.167  30.656  32.226  1.00  0.00    -0.248 NA
ATOM     60  C   UNL A   1      37.117  31.753  32.073  1.00  0.00     0.031 C 
ATOM     61  C   UNL A   1      41.458  30.275  36.033  1.00  0.00     0.029 A 
ATOM     62  C   UNL A   1      40.759  30.443  34.847  1.00  0.00     0.049 A 
ATOM     63  H   UNL A   1      41.090  29.539  32.972  1.00  0.00     0.167 HD
ATOM     64  C   UNL A   1      38.896  31.286  33.438  1.00  0.00     0.074 A 
ATOM     65  C   UNL A   1      37.654  32.006  33.258  1.00  0.00     0.031 C 
ATOM     66  C   UNL A   1      39.603  31.267  34.597  1.00  0.00     0.037 A 
BRANCH  53  67
ATOM     67  C   UNL A   1      44.255  27.208  34.611  1.00  0.00     0.057 A 
ATOM     68  C   UNL A   1      44.004  25.937  35.142  1.00  0.00     0.134 A 
ATOM     69  C   UNL A   1      45.522  27.762  34.825  1.00  0.00     0.134 A 
ATOM     70  F   UNL A   1      42.801  25.362  34.989  1.00  0.00    -0.206 F 
ATOM     71  C   UNL A   1      44.975  25.249  35.872  1.00  0.00     0.040 A 
ATOM     72  C   UNL A   1      46.508  27.075  35.536  1.00  0.00     0.040 A 
ATOM     73  F   UNL A   1      45.823  28.978  34.346  1.00  0.00    -0.206 F 
ATOM     74  C   UNL A   1      46.233  25.816  36.065  1.00  0.00     0.006 A 
ENDBRANCH  53  67
BRANCH  54  75
ATOM     75  C   UNL A   1      36.913  31.316  29.139  1.00  0.00     0.057 A 
ATOM     76  C   UNL A   1      35.764  30.592  28.785  1.00  0.00     0.134 A 
ATOM     77  C   UNL A   1      36.950  32.650  28.711  1.00  0.00     0.134 A 
ATOM     78  F   UNL A   1      35.690  29.278  29.029  1.00  0.00    -0.206 F 
ATOM     79  C   UNL A   1      34.689  31.168  28.105  1.00  0.00     0.040 A 
ATOM     80  C   UNL A   1      35.875  33.249  28.044  1.00  0.00     0.040 A 
ATOM     81  F   UNL A   1      38.031  33.409  28.946  1.00  0.00    -0.206 F 
ATOM     82  C   UNL A   1      34.735  32.509  27.748  1.00  0.00     0.006 A 
ENDBRANCH  54  75
BRANCH  66  83
ATOM     83  C   UNL A   1      39.149  32.170  35.710  1.00  0.00     0.057 A 
ATOM     84  C   UNL A   1      39.542  33.511  35.798  1.00  0.00     0.134 A 
ATOM     85  C   UNL A   1      38.258  31.695  36.683  1.00  0.00     0.134 A 
ATOM     86  F   UNL A   1      40.391  34.030  34.898  1.00  0.00    -0.206 F 
ATOM     87  C   UNL A   1      39.101  34.334  36.835  1.00  0.00     0.040 A 
ATOM     88  C   UNL A   1      37.783  32.518  37.705  1.00  0.00     0.040 A 
ATOM     89  F   UNL A   1      37.820  30.427  36.647  1.00  0.00    -0.206 F 
ATOM     90  C   UNL A   1      38.215  33.839  37.790  1.00  0.00     0.006 A 
ENDBRANCH  66  83
ENDBRANCH  40  41
ENDBRANCH  33  35
ENDBRANCH  32  33
ENDBRANCH  31  32
ENDBRANCH  30  31
ENDBRANCH  29  30
ENDBRANCH  28  29
ENDBRANCH   1  28
TORSDOF 21
ENDMDL
MODEL 2
REMARK VINA RESULT:      -9.9      4.108      6.179
REMARK SMILES CC[C@@H](C(=O)OCCOCCOCCOC(=O)c1ccc(-c2c3nc(c(-c4c(F)cccc4F)c4ccc([nH]4)c(-c4c(F)cccc4F)c4nc(c(-c5c(F)cccc5F)c5ccc2[nH]5)C=C4)C=C3)cc1)N1C(=O)/C(=C/C(C)=C/c2ccccc2)SC1=S
REMARK SMILES IDX 10 1 9 2 8 3 7 4 6 5 4 6 5 7 3 8 2 9 1 10 72 11 73 12 87 13
REMARK SMILES IDX 74 14 75 15 86 16 88 17 76 18 77 19 78 20 79 21 80 22 81 23
REMARK SMILES IDX 85 24 82 25 84 26 83 27 11 28 12 29 13 30 14 31 15 32 16 33
REMARK SMILES IDX 17 34 18 35 19 36 71 37 20 38 70 39 21 40 22 41 23 42 64 43
REMARK SMILES IDX 24 44 69 45 63 46 65 47 25 48 68 49 62 50 61 51 26 53 52 54
REMARK SMILES IDX 35 55 51 56 36 57 39 58 50 59 66 60 37 61 38 62 49 64 67 65
REMARK SMILES IDX 40 66 27 67 28 68 33 69 29 70 30 71 32 72 34 73 31 74 53 75
REMARK SMILES IDX 54 76 59 77 55 78 56 79 58 80 60 81 57 82 41 83 42 84 47 85
REMARK SMILES IDX 43 86 44 87 46 88 48 89 45 90
REMARK H PARENT 65 52 39 63
REMARK Flexibility Score: inf
ROOT
ATOM      1  C   UNL A   1      37.272  22.256  24.726  1.00  0.00     0.188 C 
ENDROOT
BRANCH   1   2
ATOM      2  O   UNL A   1      36.389  22.742  23.724  1.00  0.00    -0.376 OA
BRANCH   2   3
ATOM      3  C   UNL A   1      35.740  23.992  23.927  1.00  0.00     0.202 C 
BRANCH   3   4
ATOM      4  C   UNL A   1      35.643  24.478  25.369  1.00  0.00     0.261 C 
BRANCH   4   5
ATOM      5  O   UNL A   1      34.281  24.426  25.821  1.00  0.00    -0.462 OA
BRANCH   5   6
ATOM      6  C   UNL A   1      33.901  23.278  26.431  1.00  0.00     0.329 C 
ATOM      7  O   UNL A   1      34.446  22.801  27.418  1.00  0.00    -0.250 OA
BRANCH   6   8
ATOM      8  C   UNL A   1      32.707  22.622  25.722  1.00  0.00     0.201 C 
BRANCH   8   9
ATOM      9  C   UNL A   1      33.163  21.329  24.968  1.00  0.00     0.034 C 
ATOM     10  C   UNL A   1      32.820  19.979  25.587  1.00  0.00     0.007 C 
ENDBRANCH   8   9
BRANCH   8  11
ATOM     11  N   UNL A   1      31.869  23.497  24.827  1.00  0.00    -0.278 N 
ATOM     12  C   UNL A   1      31.186  24.546  25.439  1.00  0.00     0.266 C 
ATOM     13  C   UNL A   1      31.940  23.634  23.453  1.00  0.00     0.149 C 
ATOM     14  O   UNL A   1      31.186  24.810  26.635  1.00  0.00    -0.268 OA
ATOM     15  C   UNL A   1      30.534  25.431  24.436  1.00  0.00     0.080 C 
ATOM     16  S   UNL A   1      30.655  24.712  22.898  1.00  0.00    -0.054 SA
ATOM     17  S   UNL A   1      33.015  23.022  22.340  1.00  0.00    -0.052 S 
ATOM     18  C   UNL A   1      30.066  26.634  24.793  1.00  0.00     0.024 C 
BRANCH  18  19
ATOM     19  C   UNL A   1      29.487  27.716  24.005  1.00  0.00    -0.049 C 
ATOM     20  C   UNL A   1      28.036  27.505  23.627  1.00  0.00     0.044 C 
ATOM     21  C   UNL A   1      30.116  28.885  23.757  1.00  0.00     0.011 C 
BRANCH  21  22
ATOM     22  C   UNL A   1      29.478  30.004  23.060  1.00  0.00    -0.025 A 
ATOM     23  C   UNL A   1      29.460  30.064  21.663  1.00  0.00     0.008 A 
ATOM     24  C   UNL A   1      28.831  30.997  23.805  1.00  0.00     0.008 A 
ATOM     25  C   UNL A   1      28.756  31.079  21.019  1.00  0.00     0.001 A 
ATOM     26  C   UNL A   1      28.146  32.025  23.158  1.00  0.00     0.001 A 
ATOM     27  C   UNL A   1      28.099  32.057  21.766  1.00  0.00     0.000 A 
ENDBRANCH  21  22
ENDBRANCH  18  19
ENDBRANCH   8  11
ENDBRANCH   6   8
ENDBRANCH   5   6
ENDBRANCH   4   5
ENDBRANCH   3   4
ENDBRANCH   2   3
ENDBRANCH   1   2
BRANCH   1  28
ATOM     28  C   UNL A   1      36.872  21.037  25.581  1.00  0.00     0.188 C 
BRANCH  28  29
ATOM     29  O   UNL A   1      36.912  19.722  25.051  1.00  0.00    -0.376 OA
BRANCH  29  30
ATOM     30  C   UNL A   1      38.165  19.066  24.936  1.00  0.00     0.202 C 
BRANCH  30  31
ATOM     31  C   UNL A   1      39.287  19.534  25.861  1.00  0.00     0.261 C 
BRANCH  31  32
ATOM     32  O   UNL A   1      40.559  19.611  25.199  1.00  0.00    -0.460 OA
BRANCH  32  33
ATOM     33  C   UNL A   1      41.622  19.272  25.958  1.00  0.00     0.338 C 
ATOM     34  O   UNL A   1      42.048  18.140  26.180  1.00  0.00    -0.246 OA
BRANCH  33  35
ATOM     35  C   UNL A   1      42.352  20.481  26.379  1.00  0.00     0.060 A 
ATOM     36  C   UNL A   1      42.153  20.945  27.687  1.00  0.00     0.016 A 
ATOM     37  C   UNL A   1      43.160  21.191  25.487  1.00  0.00     0.016 A 
ATOM     38  C   UNL A   1      42.704  22.160  28.088  1.00  0.00     0.010 A 
ATOM     39  C   UNL A   1      43.695  22.420  25.884  1.00  0.00     0.010 A 
ATOM     40  C   UNL A   1      43.424  22.930  27.166  1.00  0.00    -0.014 A 
BRANCH  40  41
ATOM     41  C   UNL A   1      43.665  24.363  27.457  1.00  0.00     0.031 A 
ATOM     42  C   UNL A   1      45.082  24.863  27.378  1.00  0.00     0.074 A 
ATOM     43  C   UNL A   1      42.660  25.195  27.781  1.00  0.00     0.049 A 
ATOM     44  N   UNL A   1      45.542  26.079  27.517  1.00  0.00    -0.248 NA
ATOM     45  C   UNL A   1      46.121  23.856  27.095  1.00  0.00     0.031 C 
ATOM     46  C   UNL A   1      41.252  24.818  27.846  1.00  0.00     0.029 A 
ATOM     47  N   UNL A   1      42.671  26.525  28.121  1.00  0.00    -0.354 N 
ATOM     48  C   UNL A   1      46.916  25.981  27.347  1.00  0.00     0.074 A 
ATOM     49  C   UNL A   1      47.223  24.589  27.113  1.00  0.00     0.031 C 
ATOM     50  C   UNL A   1      40.533  25.892  28.216  1.00  0.00     0.029 A 
ATOM     51  C   UNL A   1      41.431  27.024  28.450  1.00  0.00     0.049 A 
ATOM     52  H   UNL A   1      43.491  27.072  28.128  1.00  0.00     0.167 HD
ATOM     53  C   UNL A   1      47.839  26.969  27.380  1.00  0.00     0.037 A 
ATOM     54  C   UNL A   1      41.075  28.254  28.890  1.00  0.00     0.037 A 
ATOM     55  C   UNL A   1      47.522  28.352  27.602  1.00  0.00     0.049 A 
ATOM     56  C   UNL A   1      42.154  29.315  28.962  1.00  0.00     0.074 A 
ATOM     57  C   UNL A   1      48.372  29.443  27.606  1.00  0.00     0.029 A 
ATOM     58  N   UNL A   1      46.249  28.829  27.875  1.00  0.00    -0.354 N 
ATOM     59  N   UNL A   1      43.407  29.254  28.574  1.00  0.00    -0.248 NA
ATOM     60  C   UNL A   1      41.763  30.628  29.489  1.00  0.00     0.031 C 
ATOM     61  C   UNL A   1      47.617  30.577  27.926  1.00  0.00     0.029 A 
ATOM     62  C   UNL A   1      46.294  30.194  28.087  1.00  0.00     0.049 A 
ATOM     63  H   UNL A   1      45.434  28.277  27.911  1.00  0.00     0.167 HD
ATOM     64  C   UNL A   1      43.914  30.545  28.706  1.00  0.00     0.074 A 
ATOM     65  C   UNL A   1      42.831  31.362  29.207  1.00  0.00     0.031 C 
ATOM     66  C   UNL A   1      45.162  31.012  28.445  1.00  0.00     0.037 A 
BRANCH  53  67
ATOM     67  C   UNL A   1      49.275  26.578  27.204  1.00  0.00     0.057 A 
ATOM     68  C   UNL A   1      49.876  26.508  25.942  1.00  0.00     0.134 A 
ATOM     69  C   UNL A   1      50.069  26.282  28.318  1.00  0.00     0.134 A 
ATOM     70  F   UNL A   1      49.162  26.759  24.834  1.00  0.00    -0.206 F 
ATOM     71  C   UNL A   1      51.215  26.142  25.793  1.00  0.00     0.040 A 
ATOM     72  C   UNL A   1      51.414  25.934  28.183  1.00  0.00     0.040 A 
ATOM     73  F   UNL A   1      49.551  26.326  29.555  1.00  0.00    -0.206 F 
ATOM     74  C   UNL A   1      51.989  25.860  26.917  1.00  0.00     0.006 A 
ENDBRANCH  53  67
BRANCH  54  75
ATOM     75  C   UNL A   1      39.643  28.565  29.203  1.00  0.00     0.057 A 
ATOM     76  C   UNL A   1      39.092  28.335  30.473  1.00  0.00     0.134 A 
ATOM     77  C   UNL A   1      38.773  29.117  28.252  1.00  0.00     0.134 A 
ATOM     78  F   UNL A   1      39.798  27.690  31.409  1.00  0.00    -0.206 F 
ATOM     79  C   UNL A   1      37.782  28.687  30.803  1.00  0.00     0.040 A 
ATOM     80  C   UNL A   1      37.463  29.492  28.569  1.00  0.00     0.040 A 
ATOM     81  F   UNL A   1      39.186  29.318  26.991  1.00  0.00    -0.206 F 
ATOM     82  C   UNL A   1      36.967  29.287  29.852  1.00  0.00     0.006 A 
ENDBRANCH  54  75
BRANCH  66  83
ATOM     83  C   UNL A   1      45.387  32.496  28.536  1.00  0.00     0.057 A 
ATOM     84  C   UNL A   1      45.119  33.364  27.471  1.00  0.00     0.134 A 
ATOM     85  C   UNL A   1      45.836  33.067  29.736  1.00  0.00     0.134 A 
ATOM     86  F   UNL A   1      44.687  32.884  26.296  1.00  0.00    -0.206 F 
ATOM     87  C   UNL A   1      45.328  34.740  27.581  1.00  0.00     0.040 A 
ATOM     88  C   UNL A   1      46.014  34.445  29.869  1.00  0.00     0.040 A 
ATOM     89  F   UNL A   1      46.089  32.298  30.806  1.00  0.00    -0.206 F 
ATOM     90  C   UNL A   1      45.772  35.284  28.784  1.00  0.00     0.006 A 
ENDBRANCH  66  83
ENDBRANCH  40  41
ENDBRANCH  33  35
ENDBRANCH  32  33
ENDBRANCH  31  32
ENDBRANCH  30  31
ENDBRANCH  29  30
ENDBRANCH  28  29
ENDBRANCH   1  28
TORSDOF 21
ENDMDL
MODEL 3
REMARK VINA RESULT:      -9.5      1.087      2.066
REMARK SMILES CC[C@@H](C(=O)OCCOCCOCCOC(=O)c1ccc(-c2c3nc(c(-c4c(F)cccc4F)c4ccc([nH]4)c(-c4c(F)cccc4F)c4nc(c(-c5c(F)cccc5F)c5ccc2[nH]5)C=C4)C=C3)cc1)N1C(=O)/C(=C/C(C)=C/c2ccccc2)SC1=S
REMARK SMILES IDX 10 1 9 2 8 3 7 4 6 5 4 6 5 7 3 8 2 9 1 10 72 11 73 12 87 13
REMARK SMILES IDX 74 14 75 15 86 16 88 17 76 18 77 19 78 20 79 21 80 22 81 23
REMARK SMILES IDX 85 24 82 25 84 26 83 27 11 28 12 29 13 30 14 31 15 32 16 33
REMARK SMILES IDX 17 34 18 35 19 36 71 37 20 38 70 39 21 40 22 41 23 42 64 43
REMARK SMILES IDX 24 44 69 45 63 46 65 47 25 48 68 49 62 50 61 51 26 53 52 54
REMARK SMILES IDX 35 55 51 56 36 57 39 58 50 59 66 60 37 61 38 62 49 64 67 65
REMARK SMILES IDX 40 66 27 67 28 68 33 69 29 70 30 71 32 72 34 73 31 74 53 75
REMARK SMILES IDX 54 76 59 77 55 78 56 79 58 80 60 81 57 82 41 83 42 84 47 85
REMARK SMILES IDX 43 86 44 87 46 88 48 89 45 90
REMARK H PARENT 65 52 39 63
REMARK Flexibility Score: inf
ROOT
ATOM      1  C   UNL A   1      41.055  22.624  26.712  1.00  0.00     0.188 C 
ENDROOT
BRANCH   1   2
ATOM      2  O   UNL A   1      40.685  23.876  26.149  1.00  0.00    -0.376 OA
BRANCH   2   3
ATOM      3  C   UNL A   1      39.426  24.441  26.496  1.00  0.00     0.202 C 
BRANCH   3   4
ATOM      4  C   UNL A   1      38.333  23.458  26.904  1.00  0.00     0.261 C 
BRANCH   4   5
ATOM      5  O   UNL A   1      37.125  23.728  26.176  1.00  0.00    -0.462 OA
BRANCH   5   6
ATOM      6  C   UNL A   1      36.557  22.667  25.553  1.00  0.00     0.329 C 
ATOM      7  O   UNL A   1      37.115  21.973  24.713  1.00  0.00    -0.250 OA
BRANCH   6   8
ATOM      8  C   UNL A   1      35.108  22.446  26.009  1.00  0.00     0.201 C 
BRANCH   8   9
ATOM      9  C   UNL A   1      34.565  21.084  25.461  1.00  0.00     0.034 C 
ATOM     10  C   UNL A   1      33.659  21.115  24.236  1.00  0.00     0.007 C 
ENDBRANCH   8   9
BRANCH   8  11
ATOM     11  N   UNL A   1      34.125  23.557  25.752  1.00  0.00    -0.278 N 
ATOM     12  C   UNL A   1      34.266  24.253  24.554  1.00  0.00     0.266 C 
ATOM     13  C   UNL A   1      32.897  23.772  26.353  1.00  0.00     0.149 C 
ATOM     14  O   UNL A   1      35.126  24.062  23.702  1.00  0.00    -0.268 OA
ATOM     15  C   UNL A   1      33.144  25.206  24.340  1.00  0.00     0.080 C 
ATOM     16  S   UNL A   1      32.200  25.280  25.755  1.00  0.00    -0.054 SA
ATOM     17  S   UNL A   1      32.025  22.853  27.433  1.00  0.00    -0.052 S 
ATOM     18  C   UNL A   1      32.945  25.765  23.139  1.00  0.00     0.024 C 
BRANCH  18  19
ATOM     19  C   UNL A   1      31.884  26.633  22.643  1.00  0.00    -0.049 C 
ATOM     20  C   UNL A   1      31.386  26.279  21.257  1.00  0.00     0.044 C 
ATOM     21  C   UNL A   1      31.270  27.574  23.392  1.00  0.00     0.011 C 
BRANCH  21  22
ATOM     22  C   UNL A   1      30.130  28.360  22.913  1.00  0.00    -0.025 A 
ATOM     23  C   UNL A   1      28.819  27.990  23.230  1.00  0.00     0.008 A 
ATOM     24  C   UNL A   1      30.363  29.527  22.177  1.00  0.00     0.008 A 
ATOM     25  C   UNL A   1      27.756  28.809  22.856  1.00  0.00     0.001 A 
ATOM     26  C   UNL A   1      29.295  30.334  21.784  1.00  0.00     0.001 A 
ATOM     27  C   UNL A   1      27.994  29.980  22.135  1.00  0.00     0.000 A 
ENDBRANCH  21  22
ENDBRANCH  18  19
ENDBRANCH   8  11
ENDBRANCH   6   8
ENDBRANCH   5   6
ENDBRANCH   4   5
ENDBRANCH   3   4
ENDBRANCH   2   3
ENDBRANCH   1   2
BRANCH   1  28
ATOM     28  C   UNL A   1      42.021  21.693  25.952  1.00  0.00     0.188 C 
BRANCH  28  29
ATOM     29  O   UNL A   1      43.419  21.737  26.183  1.00  0.00    -0.376 OA
BRANCH  29  30
ATOM     30  C   UNL A   1      44.299  21.761  25.070  1.00  0.00     0.202 C 
BRANCH  30  31
ATOM     31  C   UNL A   1      44.864  23.118  24.653  1.00  0.00     0.261 C 
BRANCH  31  32
ATOM     32  O   UNL A   1      45.348  23.884  25.766  1.00  0.00    -0.460 OA
BRANCH  32  33
ATOM     33  C   UNL A   1      45.390  25.219  25.568  1.00  0.00     0.338 C 
ATOM     34  O   UNL A   1      46.078  25.830  24.752  1.00  0.00    -0.246 OA
BRANCH  33  35
ATOM     35  C   UNL A   1      44.345  25.883  26.366  1.00  0.00     0.060 A 
ATOM     36  C   UNL A   1      44.288  27.284  26.338  1.00  0.00     0.016 A 
ATOM     37  C   UNL A   1      43.482  25.154  27.188  1.00  0.00     0.016 A 
ATOM     38  C   UNL A   1      43.417  27.966  27.184  1.00  0.00     0.010 A 
ATOM     39  C   UNL A   1      42.622  25.839  28.051  1.00  0.00     0.010 A 
ATOM     40  C   UNL A   1      42.626  27.245  28.087  1.00  0.00    -0.014 A 
BRANCH  40  41
ATOM     41  C   UNL A   1      42.011  27.956  29.232  1.00  0.00     0.031 A 
ATOM     42  C   UNL A   1      42.662  27.806  30.580  1.00  0.00     0.074 A 
ATOM     43  C   UNL A   1      40.910  28.713  29.082  1.00  0.00     0.049 A 
ATOM     44  N   UNL A   1      42.362  28.378  31.716  1.00  0.00    -0.248 NA
ATOM     45  C   UNL A   1      43.816  26.891  30.654  1.00  0.00     0.031 C 
ATOM     46  C   UNL A   1      40.228  28.954  27.815  1.00  0.00     0.029 A 
ATOM     47  N   UNL A   1      40.169  29.412  30.004  1.00  0.00    -0.354 N 
ATOM     48  C   UNL A   1      43.279  27.888  32.636  1.00  0.00     0.074 A 
ATOM     49  C   UNL A   1      44.137  26.960  31.937  1.00  0.00     0.031 C 
ATOM     50  C   UNL A   1      39.160  29.738  28.041  1.00  0.00     0.029 A 
ATOM     51  C   UNL A   1      39.059  30.026  29.473  1.00  0.00     0.049 A 
ATOM     52  H   UNL A   1      40.412  29.468  30.957  1.00  0.00     0.167 HD
ATOM     53  C   UNL A   1      43.395  28.193  33.949  1.00  0.00     0.037 A 
ATOM     54  C   UNL A   1      38.080  30.735  30.081  1.00  0.00     0.037 A 
ATOM     55  C   UNL A   1      42.545  29.127  34.632  1.00  0.00     0.049 A 
ATOM     56  C   UNL A   1      38.225  31.006  31.564  1.00  0.00     0.074 A 
ATOM     57  C   UNL A   1      42.605  29.547  35.948  1.00  0.00     0.029 A 
ATOM     58  N   UNL A   1      41.466  29.773  34.048  1.00  0.00    -0.354 N 
ATOM     59  N   UNL A   1      39.226  30.723  32.367  1.00  0.00    -0.248 NA
ATOM     60  C   UNL A   1      37.130  31.731  32.221  1.00  0.00     0.031 C 
ATOM     61  C   UNL A   1      41.533  30.417  36.172  1.00  0.00     0.029 A 
ATOM     62  C   UNL A   1      40.827  30.562  34.987  1.00  0.00     0.049 A 
ATOM     63  H   UNL A   1      41.196  29.685  33.106  1.00  0.00     0.167 HD
ATOM     64  C   UNL A   1      38.929  31.333  33.583  1.00  0.00     0.074 A 
ATOM     65  C   UNL A   1      37.657  32.000  33.408  1.00  0.00     0.031 C 
ATOM     66  C   UNL A   1      39.636  31.336  34.742  1.00  0.00     0.037 A 
BRANCH  53  67
ATOM     67  C   UNL A   1      44.459  27.483  34.729  1.00  0.00     0.057 A 
ATOM     68  C   UNL A   1      45.757  27.993  34.851  1.00  0.00     0.134 A 
ATOM     69  C   UNL A   1      44.173  26.277  35.381  1.00  0.00     0.134 A 
ATOM     70  F   UNL A   1      46.099  29.134  34.232  1.00  0.00    -0.206 F 
ATOM     71  C   UNL A   1      46.738  27.320  35.581  1.00  0.00     0.040 A 
ATOM     72  C   UNL A   1      45.140  25.605  36.131  1.00  0.00     0.040 A 
ATOM     73  F   UNL A   1      42.949  25.733  35.299  1.00  0.00    -0.206 F 
ATOM     74  C   UNL A   1      46.428  26.126  36.229  1.00  0.00     0.006 A 
ENDBRANCH  53  67
BRANCH  54  75
ATOM     75  C   UNL A   1      36.944  31.305  29.285  1.00  0.00     0.057 A 
ATOM     76  C   UNL A   1      36.919  32.648  28.882  1.00  0.00     0.134 A 
ATOM     77  C   UNL A   1      35.850  30.526  28.884  1.00  0.00     0.134 A 
ATOM     78  F   UNL A   1      37.847  33.505  29.325  1.00  0.00    -0.206 F 
ATOM     79  C   UNL A   1      35.907  33.177  28.078  1.00  0.00     0.040 A 
ATOM     80  C   UNL A   1      34.835  31.033  28.064  1.00  0.00     0.040 A 
ATOM     81  F   UNL A   1      35.750  29.245  29.270  1.00  0.00    -0.206 F 
ATOM     82  C   UNL A   1      34.868  32.361  27.650  1.00  0.00     0.006 A 
ENDBRANCH  54  75
BRANCH  66  83
ATOM     83  C   UNL A   1      39.143  32.212  35.861  1.00  0.00     0.057 A 
ATOM     84  C   UNL A   1      38.279  31.744  36.858  1.00  0.00     0.134 A 
ATOM     85  C   UNL A   1      39.586  33.539  35.963  1.00  0.00     0.134 A 
ATOM     86  F   UNL A   1      37.819  30.485  36.821  1.00  0.00    -0.206 F 
ATOM     87  C   UNL A   1      37.840  32.573  37.891  1.00  0.00     0.040 A 
ATOM     88  C   UNL A   1      39.183  34.367  37.012  1.00  0.00     0.040 A 
ATOM     89  F   UNL A   1      40.435  34.048  35.057  1.00  0.00    -0.206 F 
ATOM     90  C   UNL A   1      38.297  33.887  37.973  1.00  0.00     0.006 A 
ENDBRANCH  66  83
ENDBRANCH  40  41
ENDBRANCH  33  35
ENDBRANCH  32  33
ENDBRANCH  31  32
ENDBRANCH  30  31
ENDBRANCH  29  30
ENDBRANCH  28  29
ENDBRANCH   1  28
TORSDOF 21
ENDMDL
