MODEL 1
REMARK VINA RESULT:     -10.5      0.000      0.000
REMARK SMILES CCOc1cc(N2CCOCC2)ccc1[C@H]([NH3+])C(=O)OCCOCCOCCOC(=O)c1ccc(-c2c3nc(c(-c4c(F)cccc4F)c4ccc([nH]4)c(-c4c(F)cccc4F)c4nc(c(-c5c(F)cccc5F)c5ccc2[nH]5)C=C4)C=C3)cc1
REMARK SMILES IDX 24 1 23 2 22 3 21 4 20 5 18 6 19 7 16 8 15 9 4 10 5 11 6 12
REMARK SMILES IDX 14 13 13 14 3 15 2 16 1 17 7 18 8 19 12 20 9 21 11 22 10 23
REMARK SMILES IDX 17 24 25 28 26 29 27 30 28 31 29 32 30 33 31 34 32 35 33 36
REMARK SMILES IDX 85 37 34 38 84 39 35 40 36 41 37 42 78 43 38 44 83 45 77 46
REMARK SMILES IDX 79 47 39 48 82 49 76 50 75 51 40 53 66 54 49 55 65 56 50 57
REMARK SMILES IDX 53 58 64 59 80 60 51 61 52 62 63 64 81 65 54 66 41 67 42 68
REMARK SMILES IDX 47 69 43 70 44 71 46 72 48 73 45 74 67 75 68 76 73 77 69 78
REMARK SMILES IDX 70 79 72 80 74 81 71 82 55 83 56 84 61 85 57 86 58 87 60 88
REMARK SMILES IDX 62 89 59 90
REMARK H PARENT 17 25 17 26 17 27 79 52 53 63
REMARK Flexibility Score: inf
ROOT
ATOM      1  C   UNL A   1      41.383  20.016  26.832  1.00  0.00     0.188 C 
ENDROOT
BRANCH   1   2
ATOM      2  O   UNL A   1      40.260  20.656  26.237  1.00  0.00    -0.376 OA
BRANCH   2   3
ATOM      3  C   UNL A   1      39.814  21.898  26.750  1.00  0.00     0.202 C 
BRANCH   3   4
ATOM      4  C   UNL A   1      38.766  22.652  25.925  1.00  0.00     0.261 C 
BRANCH   4   5
ATOM      5  O   UNL A   1      37.417  22.588  26.413  1.00  0.00    -0.459 OA
BRANCH   5   6
ATOM      6  C   UNL A   1      36.493  23.138  25.572  1.00  0.00     0.369 C 
ATOM      7  O   UNL A   1      36.763  23.678  24.503  1.00  0.00    -0.245 OA
BRANCH   6   8
ATOM      8  C   UNL A   1      35.075  23.150  26.171  1.00  0.00     0.326 C 
BRANCH   8   9
ATOM      9  C   UNL A   1      34.327  21.944  25.644  1.00  0.00     0.063 A 
ATOM     10  C   UNL A   1      32.935  21.811  25.550  1.00  0.00     0.131 A 
ATOM     11  C   UNL A   1      32.372  20.615  25.083  1.00  0.00     0.072 A 
ATOM     12  C   UNL A   1      33.188  19.542  24.686  1.00  0.00     0.040 A 
ATOM     13  C   UNL A   1      35.130  20.906  25.145  1.00  0.00     0.016 A 
ATOM     14  C   UNL A   1      34.569  19.733  24.664  1.00  0.00     0.027 A 
BRANCH  10  15
ATOM     15  O   UNL A   1      32.124  22.763  26.113  1.00  0.00    -0.493 OA
BRANCH  15  16
ATOM     16  C   UNL A   1      30.747  22.652  25.732  1.00  0.00     0.226 C 
ATOM     17  C   UNL A   1      29.910  22.878  26.985  1.00  0.00     0.049 C 
ENDBRANCH  15  16
ENDBRANCH  10  15
BRANCH  12  18
ATOM     18  N   UNL A   1      32.633  18.294  24.452  1.00  0.00    -0.367 N 
ATOM     19  C   UNL A   1      32.561  17.372  25.603  1.00  0.00     0.145 C 
ATOM     20  C   UNL A   1      32.849  17.641  23.155  1.00  0.00     0.145 C 
ATOM     21  C   UNL A   1      33.695  16.334  25.572  1.00  0.00     0.181 C 
ATOM     22  C   UNL A   1      33.977  16.597  23.242  1.00  0.00     0.181 C 
ATOM     23  O   UNL A   1      33.758  15.655  24.307  1.00  0.00    -0.378 OA
ENDBRANCH  12  18
ENDBRANCH   8   9
BRANCH   8  24
ATOM     24  N   UNL A   1      34.361  24.445  26.101  1.00  0.00    -0.342 N 
ATOM     25  H   UNL A   1      33.372  24.278  25.922  1.00  0.00     0.345 HD
ATOM     26  H   UNL A   1      34.753  25.009  25.346  1.00  0.00     0.345 HD
ATOM     27  H   UNL A   1      34.468  24.940  26.986  1.00  0.00     0.345 HD
ENDBRANCH   8  24
ENDBRANCH   6   8
ENDBRANCH   5   6
ENDBRANCH   4   5
ENDBRANCH   3   4
ENDBRANCH   2   3
ENDBRANCH   1   2
BRANCH   1  28
ATOM     28  C   UNL A   1      42.245  19.037  26.028  1.00  0.00     0.188 C 
BRANCH  28  29
ATOM     29  O   UNL A   1      43.624  19.368  26.018  1.00  0.00    -0.376 OA
BRANCH  29  30
ATOM     30  C   UNL A   1      43.969  20.326  25.019  1.00  0.00     0.202 C 
BRANCH  30  31
ATOM     31  C   UNL A   1      44.338  21.636  25.719  1.00  0.00     0.261 C 
BRANCH  31  32
ATOM     32  O   UNL A   1      43.413  22.710  25.442  1.00  0.00    -0.460 OA
BRANCH  32  33
ATOM     33  C   UNL A   1      43.945  23.940  25.251  1.00  0.00     0.338 C 
ATOM     34  O   UNL A   1      44.692  24.273  24.345  1.00  0.00    -0.246 OA
BRANCH  33  35
ATOM     35  C   UNL A   1      43.260  24.894  26.164  1.00  0.00     0.060 A 
ATOM     36  C   UNL A   1      43.615  26.252  26.107  1.00  0.00     0.016 A 
ATOM     37  C   UNL A   1      42.236  24.481  27.020  1.00  0.00     0.016 A 
ATOM     38  C   UNL A   1      42.978  27.186  26.933  1.00  0.00     0.010 A 
ATOM     39  C   UNL A   1      41.611  25.413  27.857  1.00  0.00     0.010 A 
ATOM     40  C   UNL A   1      42.002  26.764  27.845  1.00  0.00    -0.014 A 
BRANCH  40  41
ATOM     41  C   UNL A   1      41.559  27.661  28.946  1.00  0.00     0.031 A 
ATOM     42  C   UNL A   1      42.296  27.579  30.258  1.00  0.00     0.074 A 
ATOM     43  C   UNL A   1      40.535  28.524  28.816  1.00  0.00     0.049 A 
ATOM     44  N   UNL A   1      42.044  28.171  31.399  1.00  0.00    -0.248 NA
ATOM     45  C   UNL A   1      43.476  26.699  30.284  1.00  0.00     0.031 C 
ATOM     46  C   UNL A   1      39.757  28.747  27.600  1.00  0.00     0.029 A 
ATOM     47  N   UNL A   1      39.964  29.367  29.740  1.00  0.00    -0.354 N 
ATOM     48  C   UNL A   1      43.028  27.732  32.275  1.00  0.00     0.074 A 
ATOM     49  C   UNL A   1      43.860  26.797  31.547  1.00  0.00     0.031 C 
ATOM     50  C   UNL A   1      38.795  29.650  27.860  1.00  0.00     0.029 A 
ATOM     51  C   UNL A   1      38.866  30.046  29.267  1.00  0.00     0.049 A 
ATOM     52  H   UNL A   1      40.309  29.474  30.656  1.00  0.00     0.167 HD
ATOM     53  C   UNL A   1      43.234  28.080  33.566  1.00  0.00     0.037 A 
ATOM     54  C   UNL A   1      38.005  30.866  29.904  1.00  0.00     0.037 A 
ATOM     55  C   UNL A   1      42.412  29.001  34.304  1.00  0.00     0.049 A 
ATOM     56  C   UNL A   1      38.201  31.173  31.369  1.00  0.00     0.074 A 
ATOM     57  C   UNL A   1      42.546  29.413  35.618  1.00  0.00     0.029 A 
ATOM     58  N   UNL A   1      41.300  29.650  33.791  1.00  0.00    -0.354 N 
ATOM     59  N   UNL A   1      39.143  30.765  32.186  1.00  0.00    -0.248 NA
ATOM     60  C   UNL A   1      37.210  32.058  32.003  1.00  0.00     0.031 C 
ATOM     61  C   UNL A   1      41.485  30.275  35.916  1.00  0.00     0.029 A 
ATOM     62  C   UNL A   1      40.724  30.442  34.771  1.00  0.00     0.049 A 
ATOM     63  H   UNL A   1      40.968  29.560  32.869  1.00  0.00     0.167 HD
ATOM     64  C   UNL A   1      38.877  31.369  33.410  1.00  0.00     0.074 A 
ATOM     65  C   UNL A   1      37.692  32.179  33.231  1.00  0.00     0.031 C 
ATOM     66  C   UNL A   1      39.555  31.261  34.580  1.00  0.00     0.037 A 
BRANCH  53  67
ATOM     67  C   UNL A   1      44.394  27.440  34.271  1.00  0.00     0.057 A 
ATOM     68  C   UNL A   1      45.653  28.052  34.327  1.00  0.00     0.134 A 
ATOM     69  C   UNL A   1      44.243  26.209  34.920  1.00  0.00     0.134 A 
ATOM     70  F   UNL A   1      45.867  29.225  33.710  1.00  0.00    -0.206 F 
ATOM     71  C   UNL A   1      46.727  27.451  34.983  1.00  0.00     0.040 A 
ATOM     72  C   UNL A   1      45.302  25.611  35.603  1.00  0.00     0.040 A 
ATOM     73  F   UNL A   1      43.063  25.570  34.906  1.00  0.00    -0.206 F 
ATOM     74  C   UNL A   1      46.551  26.229  35.630  1.00  0.00     0.006 A 
ENDBRANCH  53  67
BRANCH  54  75
ATOM     75  C   UNL A   1      36.843  31.445  29.177  1.00  0.00     0.057 A 
ATOM     76  C   UNL A   1      35.738  30.660  28.826  1.00  0.00     0.134 A 
ATOM     77  C   UNL A   1      36.838  32.783  28.763  1.00  0.00     0.134 A 
ATOM     78  F   UNL A   1      35.698  29.362  29.162  1.00  0.00    -0.206 F 
ATOM     79  C   UNL A   1      34.682  31.177  28.071  1.00  0.00     0.040 A 
ATOM     80  C   UNL A   1      35.777  33.320  28.033  1.00  0.00     0.040 A 
ATOM     81  F   UNL A   1      37.870  33.586  29.058  1.00  0.00    -0.206 F 
ATOM     82  C   UNL A   1      34.699  32.512  27.676  1.00  0.00     0.006 A 
ENDBRANCH  54  75
BRANCH  66  83
ATOM     83  C   UNL A   1      39.069  32.072  35.748  1.00  0.00     0.057 A 
ATOM     84  C   UNL A   1      38.261  31.523  36.752  1.00  0.00     0.134 A 
ATOM     85  C   UNL A   1      39.460  33.411  35.896  1.00  0.00     0.134 A 
ATOM     86  F   UNL A   1      37.844  30.251  36.669  1.00  0.00    -0.206 F 
ATOM     87  C   UNL A   1      37.841  32.281  37.848  1.00  0.00     0.040 A 
ATOM     88  C   UNL A   1      39.068  34.170  36.999  1.00  0.00     0.040 A 
ATOM     89  F   UNL A   1      40.243  33.996  34.977  1.00  0.00    -0.206 F 
ATOM     90  C   UNL A   1      38.251  33.607  37.976  1.00  0.00     0.006 A 
ENDBRANCH  66  83
ENDBRANCH  40  41
ENDBRANCH  33  35
ENDBRANCH  32  33
ENDBRANCH  31  32
ENDBRANCH  30  31
ENDBRANCH  29  30
ENDBRANCH  28  29
ENDBRANCH   1  28
TORSDOF 22
ENDMDL
MODEL 2
REMARK VINA RESULT:     -10.2      2.660      8.259
REMARK SMILES CCOc1cc(N2CCOCC2)ccc1[C@H]([NH3+])C(=O)OCCOCCOCCOC(=O)c1ccc(-c2c3nc(c(-c4c(F)cccc4F)c4ccc([nH]4)c(-c4c(F)cccc4F)c4nc(c(-c5c(F)cccc5F)c5ccc2[nH]5)C=C4)C=C3)cc1
REMARK SMILES IDX 24 1 23 2 22 3 21 4 20 5 18 6 19 7 16 8 15 9 4 10 5 11 6 12
REMARK SMILES IDX 14 13 13 14 3 15 2 16 1 17 7 18 8 19 12 20 9 21 11 22 10 23
REMARK SMILES IDX 17 24 25 28 26 29 27 30 28 31 29 32 30 33 31 34 32 35 33 36
REMARK SMILES IDX 85 37 34 38 84 39 35 40 36 41 37 42 78 43 38 44 83 45 77 46
REMARK SMILES IDX 79 47 39 48 82 49 76 50 75 51 40 53 66 54 49 55 65 56 50 57
REMARK SMILES IDX 53 58 64 59 80 60 51 61 52 62 63 64 81 65 54 66 41 67 42 68
REMARK SMILES IDX 47 69 43 70 44 71 46 72 48 73 45 74 67 75 68 76 73 77 69 78
REMARK SMILES IDX 70 79 72 80 74 81 71 82 55 83 56 84 61 85 57 86 58 87 60 88
REMARK SMILES IDX 62 89 59 90
REMARK H PARENT 17 25 17 26 17 27 79 52 53 63
REMARK Flexibility Score: inf
ROOT
ATOM      1  C   UNL A   1      31.679  28.318  26.030  1.00  0.00     0.188 C 
ENDROOT
BRANCH   1   2
ATOM      2  O   UNL A   1      31.634  26.928  26.329  1.00  0.00    -0.376 OA
BRANCH   2   3
ATOM      3  C   UNL A   1      30.738  26.092  25.621  1.00  0.00     0.202 C 
BRANCH   3   4
ATOM      4  C   UNL A   1      30.693  24.617  26.034  1.00  0.00     0.261 C 
BRANCH   4   5
ATOM      5  O   UNL A   1      31.383  24.283  27.249  1.00  0.00    -0.459 OA
BRANCH   5   6
ATOM      6  C   UNL A   1      32.325  23.304  27.105  1.00  0.00     0.369 C 
ATOM      7  O   UNL A   1      32.739  22.601  28.021  1.00  0.00    -0.245 OA
BRANCH   6   8
ATOM      8  C   UNL A   1      32.934  23.268  25.692  1.00  0.00     0.326 C 
BRANCH   8   9
ATOM      9  C   UNL A   1      33.284  21.832  25.364  1.00  0.00     0.063 A 
ATOM     10  C   UNL A   1      34.569  21.273  25.367  1.00  0.00     0.131 A 
ATOM     11  C   UNL A   1      34.755  19.934  24.996  1.00  0.00     0.072 A 
ATOM     12  C   UNL A   1      33.661  19.129  24.633  1.00  0.00     0.040 A 
ATOM     13  C   UNL A   1      32.191  20.989  25.103  1.00  0.00     0.016 A 
ATOM     14  C   UNL A   1      32.378  19.660  24.756  1.00  0.00     0.027 A 
BRANCH  10  15
ATOM     15  O   UNL A   1      35.661  22.087  25.524  1.00  0.00    -0.493 OA
BRANCH  15  16
ATOM     16  C   UNL A   1      36.733  21.801  24.616  1.00  0.00     0.226 C 
ATOM     17  C   UNL A   1      36.643  22.810  23.476  1.00  0.00     0.049 C 
ENDBRANCH  15  16
ENDBRANCH  10  15
BRANCH  12  18
ATOM     18  N   UNL A   1      33.872  17.891  24.046  1.00  0.00    -0.367 N 
ATOM     19  C   UNL A   1      32.709  16.985  23.970  1.00  0.00     0.145 C 
ATOM     20  C   UNL A   1      35.163  17.218  24.227  1.00  0.00     0.145 C 
ATOM     21  C   UNL A   1      32.743  15.921  25.080  1.00  0.00     0.181 C 
ATOM     22  C   UNL A   1      35.081  16.149  25.332  1.00  0.00     0.181 C 
ATOM     23  O   UNL A   1      34.000  15.226  25.108  1.00  0.00    -0.378 OA
ENDBRANCH  12  18
ENDBRANCH   8   9
BRANCH   8  24
ATOM     24  N   UNL A   1      33.984  24.276  25.422  1.00  0.00    -0.342 N 
ATOM     25  H   UNL A   1      33.555  25.197  25.332  1.00  0.00     0.345 HD
ATOM     26  H   UNL A   1      34.465  24.040  24.554  1.00  0.00     0.345 HD
ATOM     27  H   UNL A   1      34.653  24.286  26.191  1.00  0.00     0.345 HD
ENDBRANCH   8  24
ENDBRANCH   6   8
ENDBRANCH   5   6
ENDBRANCH   4   5
ENDBRANCH   3   4
ENDBRANCH   2   3
ENDBRANCH   1   2
BRANCH   1  28
ATOM     28  C   UNL A   1      31.963  29.348  27.128  1.00  0.00     0.188 C 
BRANCH  28  29
ATOM     29  O   UNL A   1      31.418  30.631  26.861  1.00  0.00    -0.376 OA
BRANCH  29  30
ATOM     30  C   UNL A   1      32.404  31.607  26.529  1.00  0.00     0.202 C 
BRANCH  30  31
ATOM     31  C   UNL A   1      31.845  32.989  26.877  1.00  0.00     0.261 C 
BRANCH  31  32
ATOM     32  O   UNL A   1      32.142  33.399  28.229  1.00  0.00    -0.460 OA
BRANCH  32  33
ATOM     33  C   UNL A   1      33.116  34.327  28.385  1.00  0.00     0.338 C 
ATOM     34  O   UNL A   1      32.972  35.539  28.368  1.00  0.00    -0.246 OA
BRANCH  33  35
ATOM     35  C   UNL A   1      34.349  33.638  28.852  1.00  0.00     0.060 A 
ATOM     36  C   UNL A   1      34.233  32.349  29.399  1.00  0.00     0.016 A 
ATOM     37  C   UNL A   1      35.612  34.214  28.697  1.00  0.00     0.016 A 
ATOM     38  C   UNL A   1      35.372  31.657  29.829  1.00  0.00     0.010 A 
ATOM     39  C   UNL A   1      36.748  33.527  29.141  1.00  0.00     0.010 A 
ATOM     40  C   UNL A   1      36.633  32.261  29.743  1.00  0.00    -0.014 A 
BRANCH  40  41
ATOM     41  C   UNL A   1      37.793  31.697  30.485  1.00  0.00     0.031 A 
ATOM     42  C   UNL A   1      38.639  30.665  29.785  1.00  0.00     0.074 A 
ATOM     43  C   UNL A   1      38.102  32.065  31.742  1.00  0.00     0.049 A 
ATOM     44  N   UNL A   1      39.634  29.947  30.243  1.00  0.00    -0.248 NA
ATOM     45  C   UNL A   1      38.308  30.405  28.374  1.00  0.00     0.031 C 
ATOM     46  C   UNL A   1      37.406  33.077  32.530  1.00  0.00     0.029 A 
ATOM     47  N   UNL A   1      39.087  31.601  32.583  1.00  0.00    -0.354 N 
ATOM     48  C   UNL A   1      40.042  29.151  29.182  1.00  0.00     0.074 A 
ATOM     49  C   UNL A   1      39.165  29.445  28.068  1.00  0.00     0.031 C 
ATOM     50  C   UNL A   1      37.972  33.143  33.750  1.00  0.00     0.029 A 
ATOM     51  C   UNL A   1      39.048  32.156  33.840  1.00  0.00     0.049 A 
ATOM     52  H   UNL A   1      39.758  30.934  32.310  1.00  0.00     0.167 HD
ATOM     53  C   UNL A   1      41.060  28.261  29.127  1.00  0.00     0.037 A 
ATOM     54  C   UNL A   1      39.776  31.877  34.940  1.00  0.00     0.037 A 
ATOM     55  C   UNL A   1      41.934  27.954  30.228  1.00  0.00     0.049 A 
ATOM     56  C   UNL A   1      40.851  30.818  34.885  1.00  0.00     0.074 A 
ATOM     57  C   UNL A   1      42.992  27.064  30.264  1.00  0.00     0.029 A 
ATOM     58  N   UNL A   1      41.845  28.524  31.488  1.00  0.00    -0.354 N 
ATOM     59  N   UNL A   1      41.239  30.080  33.872  1.00  0.00    -0.248 NA
ATOM     60  C   UNL A   1      41.590  30.552  36.130  1.00  0.00     0.031 C 
ATOM     61  C   UNL A   1      43.516  27.060  31.562  1.00  0.00     0.029 A 
ATOM     62  C   UNL A   1      42.818  27.989  32.316  1.00  0.00     0.049 A 
ATOM     63  H   UNL A   1      41.189  29.207  31.755  1.00  0.00     0.167 HD
ATOM     64  C   UNL A   1      42.283  29.294  34.349  1.00  0.00     0.074 A 
ATOM     65  C   UNL A   1      42.477  29.650  35.737  1.00  0.00     0.031 C 
ATOM     66  C   UNL A   1      43.017  28.360  33.693  1.00  0.00     0.037 A 
BRANCH  53  67
ATOM     67  C   UNL A   1      41.271  27.539  27.829  1.00  0.00     0.057 A 
ATOM     68  C   UNL A   1      42.075  28.069  26.812  1.00  0.00     0.134 A 
ATOM     69  C   UNL A   1      40.680  26.290  27.603  1.00  0.00     0.134 A 
ATOM     70  F   UNL A   1      42.655  29.271  26.960  1.00  0.00    -0.206 F 
ATOM     71  C   UNL A   1      42.266  27.393  25.606  1.00  0.00     0.040 A 
ATOM     72  C   UNL A   1      40.886  25.592  26.413  1.00  0.00     0.040 A 
ATOM     73  F   UNL A   1      39.899  25.726  28.537  1.00  0.00    -0.206 F 
ATOM     74  C   UNL A   1      41.675  26.147  25.408  1.00  0.00     0.006 A 
ENDBRANCH  53  67
BRANCH  54  75
ATOM     75  C   UNL A   1      39.505  32.587  36.220  1.00  0.00     0.057 A 
ATOM     76  C   UNL A   1      38.525  32.134  37.111  1.00  0.00     0.134 A 
ATOM     77  C   UNL A   1      40.178  33.769  36.552  1.00  0.00     0.134 A 
ATOM     78  F   UNL A   1      37.820  31.027  36.834  1.00  0.00    -0.206 F 
ATOM     79  C   UNL A   1      38.207  32.842  38.273  1.00  0.00     0.040 A 
ATOM     80  C   UNL A   1      39.890  34.472  37.723  1.00  0.00     0.040 A 
ATOM     81  F   UNL A   1      41.121  34.263  35.737  1.00  0.00    -0.206 F 
ATOM     82  C   UNL A   1      38.894  34.013  38.583  1.00  0.00     0.006 A 
ENDBRANCH  54  75
BRANCH  66  83
ATOM     83  C   UNL A   1      44.131  27.690  34.447  1.00  0.00     0.057 A 
ATOM     84  C   UNL A   1      45.391  28.282  34.598  1.00  0.00     0.134 A 
ATOM     85  C   UNL A   1      43.920  26.454  35.076  1.00  0.00     0.134 A 
ATOM     86  F   UNL A   1      45.663  29.459  34.015  1.00  0.00    -0.206 F 
ATOM     87  C   UNL A   1      46.407  27.660  35.327  1.00  0.00     0.040 A 
ATOM     88  C   UNL A   1      44.919  25.837  35.829  1.00  0.00     0.040 A 
ATOM     89  F   UNL A   1      42.732  25.837  34.982  1.00  0.00    -0.206 F 
ATOM     90  C   UNL A   1      46.170  26.437  35.951  1.00  0.00     0.006 A 
ENDBRANCH  66  83
ENDBRANCH  40  41
ENDBRANCH  33  35
ENDBRANCH  32  33
ENDBRANCH  31  32
ENDBRANCH  30  31
ENDBRANCH  29  30
ENDBRANCH  28  29
ENDBRANCH   1  28
TORSDOF 22
ENDMDL
MODEL 3
REMARK VINA RESULT:     -10.1      2.596      8.159
REMARK SMILES CCOc1cc(N2CCOCC2)ccc1[C@H]([NH3+])C(=O)OCCOCCOCCOC(=O)c1ccc(-c2c3nc(c(-c4c(F)cccc4F)c4ccc([nH]4)c(-c4c(F)cccc4F)c4nc(c(-c5c(F)cccc5F)c5ccc2[nH]5)C=C4)C=C3)cc1
REMARK SMILES IDX 24 1 23 2 22 3 21 4 20 5 18 6 19 7 16 8 15 9 4 10 5 11 6 12
REMARK SMILES IDX 14 13 13 14 3 15 2 16 1 17 7 18 8 19 12 20 9 21 11 22 10 23
REMARK SMILES IDX 17 24 25 28 26 29 27 30 28 31 29 32 30 33 31 34 32 35 33 36
REMARK SMILES IDX 85 37 34 38 84 39 35 40 36 41 37 42 78 43 38 44 83 45 77 46
REMARK SMILES IDX 79 47 39 48 82 49 76 50 75 51 40 53 66 54 49 55 65 56 50 57
REMARK SMILES IDX 53 58 64 59 80 60 51 61 52 62 63 64 81 65 54 66 41 67 42 68
REMARK SMILES IDX 47 69 43 70 44 71 46 72 48 73 45 74 67 75 68 76 73 77 69 78
REMARK SMILES IDX 70 79 72 80 74 81 71 82 55 83 56 84 61 85 57 86 58 87 60 88
REMARK SMILES IDX 62 89 59 90
REMARK H PARENT 17 25 17 26 17 27 79 52 53 63
REMARK Flexibility Score: inf
ROOT
ATOM      1  C   UNL A   1      31.684  28.198  26.290  1.00  0.00     0.188 C 
ENDROOT
BRANCH   1   2
ATOM      2  O   UNL A   1      31.036  27.009  26.729  1.00  0.00    -0.376 OA
BRANCH   2   3
ATOM      3  C   UNL A   1      30.446  26.145  25.774  1.00  0.00     0.202 C 
BRANCH   3   4
ATOM      4  C   UNL A   1      30.674  24.642  25.967  1.00  0.00     0.261 C 
BRANCH   4   5
ATOM      5  O   UNL A   1      31.184  24.243  27.249  1.00  0.00    -0.459 OA
BRANCH   5   6
ATOM      6  C   UNL A   1      32.155  23.285  27.190  1.00  0.00     0.369 C 
ATOM      7  O   UNL A   1      32.495  22.582  28.137  1.00  0.00    -0.245 OA
BRANCH   6   8
ATOM      8  C   UNL A   1      32.897  23.272  25.841  1.00  0.00     0.326 C 
BRANCH   8   9
ATOM      9  C   UNL A   1      33.226  21.836  25.495  1.00  0.00     0.063 A 
ATOM     10  C   UNL A   1      34.453  21.194  25.710  1.00  0.00     0.131 A 
ATOM     11  C   UNL A   1      34.636  19.867  25.297  1.00  0.00     0.072 A 
ATOM     12  C   UNL A   1      33.593  19.156  24.678  1.00  0.00     0.040 A 
ATOM     13  C   UNL A   1      32.162  21.081  24.974  1.00  0.00     0.016 A 
ATOM     14  C   UNL A   1      32.341  19.763  24.585  1.00  0.00     0.027 A 
BRANCH  10  15
ATOM     15  O   UNL A   1      35.536  21.925  26.127  1.00  0.00    -0.493 OA
BRANCH  15  16
ATOM     16  C   UNL A   1      36.733  21.665  25.383  1.00  0.00     0.226 C 
ATOM     17  C   UNL A   1      37.489  22.983  25.266  1.00  0.00     0.049 C 
ENDBRANCH  15  16
ENDBRANCH  10  15
BRANCH  12  18
ATOM     18  N   UNL A   1      33.847  17.939  24.065  1.00  0.00    -0.367 N 
ATOM     19  C   UNL A   1      32.711  17.003  23.947  1.00  0.00     0.145 C 
ATOM     20  C   UNL A   1      35.153  17.297  24.251  1.00  0.00     0.145 C 
ATOM     21  C   UNL A   1      32.757  15.914  25.030  1.00  0.00     0.181 C 
ATOM     22  C   UNL A   1      35.083  16.199  25.327  1.00  0.00     0.181 C 
ATOM     23  O   UNL A   1      34.032  15.252  25.063  1.00  0.00    -0.378 OA
ENDBRANCH  12  18
ENDBRANCH   8   9
BRANCH   8  24
ATOM     24  N   UNL A   1      34.003  24.247  25.710  1.00  0.00    -0.342 N 
ATOM     25  H   UNL A   1      34.684  24.090  26.452  1.00  0.00     0.345 HD
ATOM     26  H   UNL A   1      33.631  25.194  25.785  1.00  0.00     0.345 HD
ATOM     27  H   UNL A   1      34.454  24.129  24.804  1.00  0.00     0.345 HD
ENDBRANCH   8  24
ENDBRANCH   6   8
ENDBRANCH   5   6
ENDBRANCH   4   5
ENDBRANCH   3   4
ENDBRANCH   2   3
ENDBRANCH   1   2
BRANCH   1  28
ATOM     28  C   UNL A   1      31.922  29.363  27.255  1.00  0.00     0.188 C 
BRANCH  28  29
ATOM     29  O   UNL A   1      31.407  30.601  26.792  1.00  0.00    -0.376 OA
BRANCH  29  30
ATOM     30  C   UNL A   1      32.421  31.557  26.486  1.00  0.00     0.202 C 
BRANCH  30  31
ATOM     31  C   UNL A   1      31.905  32.944  26.878  1.00  0.00     0.261 C 
BRANCH  31  32
ATOM     32  O   UNL A   1      32.383  33.386  28.167  1.00  0.00    -0.460 OA
BRANCH  32  33
ATOM     33  C   UNL A   1      33.494  34.158  28.175  1.00  0.00     0.338 C 
ATOM     34  O   UNL A   1      33.531  35.376  28.098  1.00  0.00    -0.246 OA
BRANCH  33  35
ATOM     35  C   UNL A   1      34.652  33.310  28.565  1.00  0.00     0.060 A 
ATOM     36  C   UNL A   1      34.405  32.006  29.027  1.00  0.00     0.016 A 
ATOM     37  C   UNL A   1      35.968  33.756  28.421  1.00  0.00     0.016 A 
ATOM     38  C   UNL A   1      35.468  31.167  29.383  1.00  0.00     0.010 A 
ATOM     39  C   UNL A   1      37.029  32.923  28.791  1.00  0.00     0.010 A 
ATOM     40  C   UNL A   1      36.786  31.637  29.308  1.00  0.00    -0.014 A 
BRANCH  40  41
ATOM     41  C   UNL A   1      37.889  30.901  29.983  1.00  0.00     0.031 A 
ATOM     42  C   UNL A   1      38.171  31.229  31.427  1.00  0.00     0.074 A 
ATOM     43  C   UNL A   1      38.638  29.975  29.357  1.00  0.00     0.049 A 
ATOM     44  N   UNL A   1      39.135  30.811  32.208  1.00  0.00    -0.248 NA
ATOM     45  C   UNL A   1      37.234  32.163  32.074  1.00  0.00     0.031 C 
ATOM     46  C   UNL A   1      38.459  29.523  27.980  1.00  0.00     0.029 A 
ATOM     47  N   UNL A   1      39.722  29.259  29.809  1.00  0.00    -0.354 N 
ATOM     48  C   UNL A   1      38.924  31.434  33.431  1.00  0.00     0.074 A 
ATOM     49  C   UNL A   1      37.763  32.285  33.280  1.00  0.00     0.031 C 
ATOM     50  C   UNL A   1      39.416  28.622  27.692  1.00  0.00     0.029 A 
ATOM     51  C   UNL A   1      40.293  28.457  28.851  1.00  0.00     0.049 A 
ATOM     52  H   UNL A   1      40.057  29.316  30.733  1.00  0.00     0.167 HD
ATOM     53  C   UNL A   1      39.621  31.304  34.583  1.00  0.00     0.037 A 
ATOM     54  C   UNL A   1      41.411  27.702  28.897  1.00  0.00     0.037 A 
ATOM     55  C   UNL A   1      40.780  30.468  34.746  1.00  0.00     0.049 A 
ATOM     56  C   UNL A   1      42.226  27.639  30.166  1.00  0.00     0.074 A 
ATOM     57  C   UNL A   1      41.553  30.276  35.878  1.00  0.00     0.029 A 
ATOM     58  N   UNL A   1      41.336  29.689  33.743  1.00  0.00    -0.354 N 
ATOM     59  N   UNL A   1      42.011  28.221  31.322  1.00  0.00    -0.248 NA
ATOM     60  C   UNL A   1      43.445  26.814  30.136  1.00  0.00     0.031 C 
ATOM     61  C   UNL A   1      42.605  29.416  35.548  1.00  0.00     0.029 A 
ATOM     62  C   UNL A   1      42.455  29.030  34.226  1.00  0.00     0.049 A 
ATOM     63  H   UNL A   1      40.989  29.614  32.826  1.00  0.00     0.167 HD
ATOM     64  C   UNL A   1      43.041  27.804  32.159  1.00  0.00     0.074 A 
ATOM     65  C   UNL A   1      43.877  26.914  31.384  1.00  0.00     0.031 C 
ATOM     66  C   UNL A   1      43.273  28.130  33.455  1.00  0.00     0.037 A 
BRANCH  53  67
ATOM     67  C   UNL A   1      39.154  32.108  35.761  1.00  0.00     0.057 A 
ATOM     68  C   UNL A   1      38.271  31.581  36.711  1.00  0.00     0.134 A 
ATOM     69  C   UNL A   1      39.611  33.417  35.959  1.00  0.00     0.134 A 
ATOM     70  F   UNL A   1      37.782  30.338  36.570  1.00  0.00    -0.206 F 
ATOM     71  C   UNL A   1      37.839  32.334  37.803  1.00  0.00     0.040 A 
ATOM     72  C   UNL A   1      39.209  34.170  37.061  1.00  0.00     0.040 A 
ATOM     73  F   UNL A   1      40.461  33.981  35.086  1.00  0.00    -0.206 F 
ATOM     74  C   UNL A   1      38.315  33.632  37.983  1.00  0.00     0.006 A 
ENDBRANCH  53  67
BRANCH  54  75
ATOM     75  C   UNL A   1      41.862  26.954  27.692  1.00  0.00     0.057 A 
ATOM     76  C   UNL A   1      42.627  27.572  26.695  1.00  0.00     0.134 A 
ATOM     77  C   UNL A   1      41.487  25.622  27.480  1.00  0.00     0.134 A 
ATOM     78  F   UNL A   1      42.990  28.857  26.821  1.00  0.00    -0.206 F 
ATOM     79  C   UNL A   1      42.983  26.901  25.523  1.00  0.00     0.040 A 
ATOM     80  C   UNL A   1      41.859  24.930  26.327  1.00  0.00     0.040 A 
ATOM     81  F   UNL A   1      40.745  24.975  28.391  1.00  0.00    -0.206 F 
ATOM     82  C   UNL A   1      42.601  25.574  25.339  1.00  0.00     0.006 A 
ENDBRANCH  54  75
BRANCH  66  83
ATOM     83  C   UNL A   1      44.447  27.488  34.138  1.00  0.00     0.057 A 
ATOM     84  C   UNL A   1      44.334  26.277  34.833  1.00  0.00     0.134 A 
ATOM     85  C   UNL A   1      45.722  28.065  34.055  1.00  0.00     0.134 A 
ATOM     86  F   UNL A   1      43.142  25.674  34.959  1.00  0.00    -0.206 F 
ATOM     87  C   UNL A   1      45.440  25.675  35.438  1.00  0.00     0.040 A 
ATOM     88  C   UNL A   1      46.839  27.460  34.633  1.00  0.00     0.040 A 
ATOM     89  F   UNL A   1      45.905  29.219  33.394  1.00  0.00    -0.206 F 
ATOM     90  C   UNL A   1      46.698  26.265  35.333  1.00  0.00     0.006 A 
ENDBRANCH  66  83
ENDBRANCH  40  41
ENDBRANCH  33  35
ENDBRANCH  32  33
ENDBRANCH  31  32
ENDBRANCH  30  31
ENDBRANCH  29  30
ENDBRANCH  28  29
ENDBRANCH   1  28
TORSDOF 22
ENDMDL
