MODEL 1
REMARK VINA RESULT:     -11.3      0.000      0.000
REMARK SMILES Cc1c(Cl)cc2c(c1C)O[C@H](C(F)(F)F)C(C(=O)OCCOCCOCCOC(=O)c1ccc(-c3c4nc(c(-c5c(F)cccc5F)c5ccc([nH]5)c(-c5c(F)cccc5F)c5nc(c(-c6c(F)cccc6F)c6ccc3[nH]6)C=C5)C=C4)cc1)=C2
REMARK SMILES IDX 24 1 23 2 22 3 21 4 20 5 19 6 17 7 18 8 16 9 1 10 2 11 3 12
REMARK SMILES IDX 8 13 4 14 5 15 7 16 9 17 6 18 10 19 85 20 11 21 12 22 13 23
REMARK SMILES IDX 14 24 15 25 25 26 26 27 27 28 28 29 29 30 30 31 31 32 32 33
REMARK SMILES IDX 84 34 33 35 83 36 34 37 35 38 36 39 77 40 37 41 82 42 76 43
REMARK SMILES IDX 78 44 38 45 81 46 75 47 74 48 39 50 65 51 48 52 64 53 49 54
REMARK SMILES IDX 52 55 63 56 79 57 50 58 51 59 62 61 80 62 53 63 40 64 41 65
REMARK SMILES IDX 46 66 42 67 43 68 45 69 47 70 44 71 66 72 67 73 72 74 68 75
REMARK SMILES IDX 69 76 71 77 73 78 70 79 54 80 55 81 60 82 56 83 57 84 59 85
REMARK SMILES IDX 61 86 58 87
REMARK H PARENT 78 49 52 60
REMARK Flexibility Score: inf
ROOT
ATOM      1  C   UNL A   1      40.892  19.850  26.441  1.00  0.00     0.188 C 
ENDROOT
BRANCH   1   2
ATOM      2  C   UNL A   1      40.263  21.227  26.737  1.00  0.00     0.188 C 
BRANCH   2   3
ATOM      3  O   UNL A   1      39.507  21.888  25.746  1.00  0.00    -0.376 OA
BRANCH   3   4
ATOM      4  C   UNL A   1      38.097  21.755  25.691  1.00  0.00     0.202 C 
BRANCH   4   5
ATOM      5  C   UNL A   1      37.203  22.486  24.675  1.00  0.00     0.261 C 
BRANCH   5   6
ATOM      6  O   UNL A   1      36.686  23.757  25.086  1.00  0.00    -0.460 OA
BRANCH   6   7
ATOM      7  C   UNL A   1      35.458  23.724  25.656  1.00  0.00     0.338 C 
ATOM      8  O   UNL A   1      35.118  23.067  26.626  1.00  0.00    -0.246 OA
BRANCH   7   9
ATOM      9  C   UNL A   1      34.594  24.742  25.023  1.00  0.00     0.087 C 
ATOM     10  C   UNL A   1      30.299  29.472  23.799  1.00  0.00     0.046 C 
ATOM     11  C   UNL A   1      31.436  28.591  24.255  1.00  0.00    -0.026 A 
ATOM     12  C   UNL A   1      32.127  28.846  25.455  1.00  0.00     0.045 A 
ATOM     13  C   UNL A   1      31.820  27.467  23.477  1.00  0.00    -0.004 A 
ATOM     14  Cl  UNL A   1      31.792  30.220  26.450  1.00  0.00    -0.084 Cl
ATOM     15  C   UNL A   1      33.117  27.973  25.913  1.00  0.00     0.032 A 
ATOM     16  C   UNL A   1      32.831  26.602  23.951  1.00  0.00     0.131 A 
ATOM     17  C   UNL A   1      31.165  27.134  22.158  1.00  0.00     0.049 C 
ATOM     18  C   UNL A   1      33.445  26.832  25.183  1.00  0.00     0.019 A 
ATOM     19  O   UNL A   1      33.161  25.544  23.149  1.00  0.00    -0.475 OA
ATOM     20  C   UNL A   1      34.361  25.851  25.737  1.00  0.00     0.027 C 
ATOM     21  C   UNL A   1      34.039  24.498  23.649  1.00  0.00     0.316 C 
BRANCH  21  22
ATOM     22  C   UNL A   1      33.294  23.160  23.548  1.00  0.00     0.430 C 
ATOM     23  F   UNL A   1      34.158  22.117  23.513  1.00  0.00    -0.167 F 
ATOM     24  F   UNL A   1      32.483  22.956  24.613  1.00  0.00    -0.167 F 
ATOM     25  F   UNL A   1      32.528  23.092  22.437  1.00  0.00    -0.167 F 
ENDBRANCH  21  22
ENDBRANCH   7   9
ENDBRANCH   6   7
ENDBRANCH   5   6
ENDBRANCH   4   5
ENDBRANCH   3   4
ENDBRANCH   2   3
ENDBRANCH   1   2
BRANCH   1  26
ATOM     26  O   UNL A   1      41.916  19.755  25.482  1.00  0.00    -0.376 OA
BRANCH  26  27
ATOM     27  C   UNL A   1      43.212  20.254  25.773  1.00  0.00     0.202 C 
BRANCH  27  28
ATOM     28  C   UNL A   1      43.849  21.514  25.150  1.00  0.00     0.261 C 
BRANCH  28  29
ATOM     29  O   UNL A   1      43.081  22.721  25.141  1.00  0.00    -0.460 OA
BRANCH  29  30
ATOM     30  C   UNL A   1      43.802  23.874  25.154  1.00  0.00     0.338 C 
ATOM     31  O   UNL A   1      44.715  24.185  24.416  1.00  0.00    -0.246 OA
BRANCH  30  32
ATOM     32  C   UNL A   1      43.170  24.810  26.105  1.00  0.00     0.060 A 
ATOM     33  C   UNL A   1      43.629  26.134  26.154  1.00  0.00     0.016 A 
ATOM     34  C   UNL A   1      42.147  24.381  26.948  1.00  0.00     0.016 A 
ATOM     35  C   UNL A   1      43.060  27.037  27.052  1.00  0.00     0.010 A 
ATOM     36  C   UNL A   1      41.599  25.279  27.869  1.00  0.00     0.010 A 
ATOM     37  C   UNL A   1      42.066  26.604  27.938  1.00  0.00    -0.014 A 
BRANCH  37  38
ATOM     38  C   UNL A   1      41.639  27.485  29.051  1.00  0.00     0.031 A 
ATOM     39  C   UNL A   1      42.413  27.440  30.339  1.00  0.00     0.074 A 
ATOM     40  C   UNL A   1      40.601  28.330  28.916  1.00  0.00     0.049 A 
ATOM     41  N   UNL A   1      42.201  28.084  31.457  1.00  0.00    -0.248 NA
ATOM     42  C   UNL A   1      43.581  26.545  30.369  1.00  0.00     0.031 C 
ATOM     43  C   UNL A   1      39.804  28.503  27.704  1.00  0.00     0.029 A 
ATOM     44  N   UNL A   1      40.038  29.198  29.818  1.00  0.00    -0.354 N 
ATOM     45  C   UNL A   1      43.211  27.678  32.320  1.00  0.00     0.074 A 
ATOM     46  C   UNL A   1      44.011  26.703  31.612  1.00  0.00     0.031 C 
ATOM     47  C   UNL A   1      38.851  29.421  27.938  1.00  0.00     0.029 A 
ATOM     48  C   UNL A   1      38.948  29.874  29.327  1.00  0.00     0.049 A 
ATOM     49  H   UNL A   1      40.383  29.325  30.732  1.00  0.00     0.167 HD
ATOM     50  C   UNL A   1      43.459  28.093  33.584  1.00  0.00     0.037 A 
ATOM     51  C   UNL A   1      38.116  30.743  29.934  1.00  0.00     0.037 A 
ATOM     52  C   UNL A   1      42.658  29.057  34.290  1.00  0.00     0.049 A 
ATOM     53  C   UNL A   1      38.351  31.113  31.376  1.00  0.00     0.074 A 
ATOM     54  C   UNL A   1      42.830  29.540  35.576  1.00  0.00     0.029 A 
ATOM     55  N   UNL A   1      41.530  29.679  33.775  1.00  0.00    -0.354 N 
ATOM     56  N   UNL A   1      39.316  30.736  32.180  1.00  0.00    -0.248 NA
ATOM     57  C   UNL A   1      37.382  32.030  31.997  1.00  0.00     0.031 C 
ATOM     58  C   UNL A   1      41.775  30.411  35.859  1.00  0.00     0.029 A 
ATOM     59  C   UNL A   1      40.981  30.520  34.729  1.00  0.00     0.049 A 
ATOM     60  H   UNL A   1      41.174  29.542  32.868  1.00  0.00     0.167 HD
ATOM     61  C   UNL A   1      39.089  31.390  33.386  1.00  0.00     0.074 A 
ATOM     62  C   UNL A   1      37.899  32.196  33.207  1.00  0.00     0.031 C 
ATOM     63  C   UNL A   1      39.803  31.328  34.537  1.00  0.00     0.037 A 
BRANCH  50  64
ATOM     64  C   UNL A   1      44.639  27.498  34.293  1.00  0.00     0.057 A 
ATOM     65  C   UNL A   1      45.919  28.059  34.192  1.00  0.00     0.134 A 
ATOM     66  C   UNL A   1      44.483  26.392  35.139  1.00  0.00     0.134 A 
ATOM     67  F   UNL A   1      46.139  29.110  33.387  1.00  0.00    -0.206 F 
ATOM     68  C   UNL A   1      47.003  27.534  34.896  1.00  0.00     0.040 A 
ATOM     69  C   UNL A   1      45.554  25.876  35.870  1.00  0.00     0.040 A 
ATOM     70  F   UNL A   1      43.283  25.810  35.284  1.00  0.00    -0.206 F 
ATOM     71  C   UNL A   1      46.819  26.445  35.747  1.00  0.00     0.006 A 
ENDBRANCH  50  64
BRANCH  51  72
ATOM     72  C   UNL A   1      36.982  31.335  29.177  1.00  0.00     0.057 A 
ATOM     73  C   UNL A   1      37.022  32.662  28.734  1.00  0.00     0.134 A 
ATOM     74  C   UNL A   1      35.832  30.592  28.880  1.00  0.00     0.134 A 
ATOM     75  F   UNL A   1      38.083  33.434  29.010  1.00  0.00    -0.206 F 
ATOM     76  C   UNL A   1      35.960  33.231  28.028  1.00  0.00     0.040 A 
ATOM     77  C   UNL A   1      34.774  31.139  28.152  1.00  0.00     0.040 A 
ATOM     78  F   UNL A   1      35.727  29.317  29.280  1.00  0.00    -0.206 F 
ATOM     79  C   UNL A   1      34.835  32.466  27.727  1.00  0.00     0.006 A 
ENDBRANCH  51  72
BRANCH  63  80
ATOM     80  C   UNL A   1      39.350  32.171  35.695  1.00  0.00     0.057 A 
ATOM     81  C   UNL A   1      39.763  33.499  35.851  1.00  0.00     0.134 A 
ATOM     82  C   UNL A   1      38.412  31.676  36.613  1.00  0.00     0.134 A 
ATOM     83  F   UNL A   1      40.663  34.033  35.011  1.00  0.00    -0.206 F 
ATOM     84  C   UNL A   1      39.270  34.302  36.881  1.00  0.00     0.040 A 
ATOM     85  C   UNL A   1      37.890  32.477  37.630  1.00  0.00     0.040 A 
ATOM     86  F   UNL A   1      37.962  30.415  36.515  1.00  0.00    -0.206 F 
ATOM     87  C   UNL A   1      38.321  33.794  37.767  1.00  0.00     0.006 A 
ENDBRANCH  63  80
ENDBRANCH  37  38
ENDBRANCH  30  32
ENDBRANCH  29  30
ENDBRANCH  28  29
ENDBRANCH  27  28
ENDBRANCH  26  27
ENDBRANCH   1  26
TORSDOF 18
ENDMDL
MODEL 2
REMARK VINA RESULT:     -10.5      2.987      8.268
REMARK SMILES Cc1c(Cl)cc2c(c1C)O[C@H](C(F)(F)F)C(C(=O)OCCOCCOCCOC(=O)c1ccc(-c3c4nc(c(-c5c(F)cccc5F)c5ccc([nH]5)c(-c5c(F)cccc5F)c5nc(c(-c6c(F)cccc6F)c6ccc3[nH]6)C=C5)C=C4)cc1)=C2
REMARK SMILES IDX 24 1 23 2 22 3 21 4 20 5 19 6 17 7 18 8 16 9 1 10 2 11 3 12
REMARK SMILES IDX 8 13 4 14 5 15 7 16 9 17 6 18 10 19 85 20 11 21 12 22 13 23
REMARK SMILES IDX 14 24 15 25 25 26 26 27 27 28 28 29 29 30 30 31 31 32 32 33
REMARK SMILES IDX 84 34 33 35 83 36 34 37 35 38 36 39 77 40 37 41 82 42 76 43
REMARK SMILES IDX 78 44 38 45 81 46 75 47 74 48 39 50 65 51 48 52 64 53 49 54
REMARK SMILES IDX 52 55 63 56 79 57 50 58 51 59 62 61 80 62 53 63 40 64 41 65
REMARK SMILES IDX 46 66 42 67 43 68 45 69 47 70 44 71 66 72 67 73 72 74 68 75
REMARK SMILES IDX 69 76 71 77 73 78 70 79 54 80 55 81 60 82 56 83 57 84 59 85
REMARK SMILES IDX 61 86 58 87
REMARK H PARENT 78 49 52 60
REMARK Flexibility Score: inf
ROOT
ATOM      1  C   UNL A   1      34.452  30.496  27.854  1.00  0.00     0.188 C 
ENDROOT
BRANCH   1   2
ATOM      2  C   UNL A   1      34.181  29.139  27.172  1.00  0.00     0.188 C 
BRANCH   2   3
ATOM      3  O   UNL A   1      32.880  28.593  27.172  1.00  0.00    -0.376 OA
BRANCH   3   4
ATOM      4  C   UNL A   1      31.988  28.828  26.096  1.00  0.00     0.202 C 
BRANCH   4   5
ATOM      5  C   UNL A   1      31.358  27.715  25.243  1.00  0.00     0.261 C 
BRANCH   5   6
ATOM      6  O   UNL A   1      31.971  26.424  25.332  1.00  0.00    -0.460 OA
BRANCH   6   7
ATOM      7  C   UNL A   1      32.991  26.206  24.467  1.00  0.00     0.338 C 
ATOM      8  O   UNL A   1      33.488  27.018  23.703  1.00  0.00    -0.246 OA
BRANCH   7   9
ATOM      9  C   UNL A   1      33.545  24.856  24.688  1.00  0.00     0.087 C 
ATOM     10  C   UNL A   1      37.346  19.585  25.003  1.00  0.00     0.046 C 
ATOM     11  C   UNL A   1      36.678  20.934  25.116  1.00  0.00    -0.026 A 
ATOM     12  C   UNL A   1      37.416  22.097  25.411  1.00  0.00     0.045 A 
ATOM     13  C   UNL A   1      35.279  21.053  24.907  1.00  0.00    -0.004 A 
ATOM     14  Cl  UNL A   1      39.112  22.064  25.747  1.00  0.00    -0.084 Cl
ATOM     15  C   UNL A   1      36.803  23.352  25.424  1.00  0.00     0.032 A 
ATOM     16  C   UNL A   1      34.675  22.330  24.936  1.00  0.00     0.131 A 
ATOM     17  C   UNL A   1      34.398  19.859  24.624  1.00  0.00     0.049 C 
ATOM     18  C   UNL A   1      35.441  23.475  25.150  1.00  0.00     0.019 A 
ATOM     19  O   UNL A   1      33.321  22.375  24.738  1.00  0.00    -0.475 OA
ATOM     20  C   UNL A   1      34.843  24.791  25.013  1.00  0.00     0.027 C 
ATOM     21  C   UNL A   1      32.656  23.653  24.549  1.00  0.00     0.316 C 
BRANCH  21  22
ATOM     22  C   UNL A   1      31.928  23.618  23.199  1.00  0.00     0.430 C 
ATOM     23  F   UNL A   1      30.794  24.358  23.231  1.00  0.00    -0.167 F 
ATOM     24  F   UNL A   1      32.693  24.124  22.202  1.00  0.00    -0.167 F 
ATOM     25  F   UNL A   1      31.582  22.360  22.845  1.00  0.00    -0.167 F 
ENDBRANCH  21  22
ENDBRANCH   7   9
ENDBRANCH   6   7
ENDBRANCH   5   6
ENDBRANCH   4   5
ENDBRANCH   3   4
ENDBRANCH   2   3
ENDBRANCH   1   2
BRANCH   1  26
ATOM     26  O   UNL A   1      34.081  31.682  27.194  1.00  0.00    -0.376 OA
BRANCH  26  27
ATOM     27  C   UNL A   1      32.841  32.303  27.492  1.00  0.00     0.202 C 
BRANCH  27  28
ATOM     28  C   UNL A   1      32.570  33.822  27.466  1.00  0.00     0.261 C 
BRANCH  28  29
ATOM     29  O   UNL A   1      32.477  34.510  28.718  1.00  0.00    -0.460 OA
BRANCH  29  30
ATOM     30  C   UNL A   1      33.587  35.201  29.090  1.00  0.00     0.338 C 
ATOM     31  O   UNL A   1      33.688  36.398  29.271  1.00  0.00    -0.246 OA
BRANCH  30  32
ATOM     32  C   UNL A   1      34.644  34.234  29.443  1.00  0.00     0.060 A 
ATOM     33  C   UNL A   1      34.398  33.310  30.469  1.00  0.00     0.016 A 
ATOM     34  C   UNL A   1      35.869  34.248  28.779  1.00  0.00     0.016 A 
ATOM     35  C   UNL A   1      35.383  32.392  30.833  1.00  0.00     0.010 A 
ATOM     36  C   UNL A   1      36.866  33.349  29.166  1.00  0.00     0.010 A 
ATOM     37  C   UNL A   1      36.635  32.430  30.207  1.00  0.00    -0.014 A 
BRANCH  37  38
ATOM     38  C   UNL A   1      37.756  31.632  30.757  1.00  0.00     0.031 A 
ATOM     39  C   UNL A   1      38.172  31.865  32.183  1.00  0.00     0.074 A 
ATOM     40  C   UNL A   1      38.380  30.699  30.016  1.00  0.00     0.049 A 
ATOM     41  N   UNL A   1      39.146  31.319  32.863  1.00  0.00    -0.248 NA
ATOM     42  C   UNL A   1      37.381  32.848  32.941  1.00  0.00     0.031 C 
ATOM     43  C   UNL A   1      38.039  30.345  28.640  1.00  0.00     0.029 A 
ATOM     44  N   UNL A   1      39.440  29.882  30.322  1.00  0.00    -0.354 N 
ATOM     45  C   UNL A   1      39.082  31.887  34.129  1.00  0.00     0.074 A 
ATOM     46  C   UNL A   1      38.001  32.847  34.113  1.00  0.00     0.031 C 
ATOM     47  C   UNL A   1      38.877  29.382  28.219  1.00  0.00     0.029 A 
ATOM     48  C   UNL A   1      39.835  29.077  29.282  1.00  0.00     0.049 A 
ATOM     49  H   UNL A   1      39.876  29.874  31.205  1.00  0.00     0.167 HD
ATOM     50  C   UNL A   1      39.846  31.619  35.214  1.00  0.00     0.037 A 
ATOM     51  C   UNL A   1      40.862  28.209  29.194  1.00  0.00     0.037 A 
ATOM     52  C   UNL A   1      40.926  30.669  35.227  1.00  0.00     0.049 A 
ATOM     53  C   UNL A   1      41.765  28.002  30.384  1.00  0.00     0.074 A 
ATOM     54  C   UNL A   1      41.759  30.329  36.279  1.00  0.00     0.029 A 
ATOM     55  N   UNL A   1      41.329  29.912  34.137  1.00  0.00    -0.354 N 
ATOM     56  N   UNL A   1      41.689  28.531  31.582  1.00  0.00    -0.248 NA
ATOM     57  C   UNL A   1      42.895  27.078  30.212  1.00  0.00     0.031 C 
ATOM     58  C   UNL A   1      42.700  29.410  35.811  1.00  0.00     0.029 A 
ATOM     59  C   UNL A   1      42.416  29.128  34.485  1.00  0.00     0.049 A 
ATOM     60  H   UNL A   1      40.905  29.930  33.249  1.00  0.00     0.167 HD
ATOM     61  C   UNL A   1      42.738  27.984  32.311  1.00  0.00     0.074 A 
ATOM     62  C   UNL A   1      43.432  27.073  31.425  1.00  0.00     0.031 C 
ATOM     63  C   UNL A   1      43.093  28.214  33.599  1.00  0.00     0.037 A 
BRANCH  50  64
ATOM     64  C   UNL A   1      39.550  32.372  36.477  1.00  0.00     0.057 A 
ATOM     65  C   UNL A   1      40.260  33.526  36.830  1.00  0.00     0.134 A 
ATOM     66  C   UNL A   1      38.501  31.975  37.317  1.00  0.00     0.134 A 
ATOM     67  F   UNL A   1      41.286  33.951  36.077  1.00  0.00    -0.206 F 
ATOM     68  C   UNL A   1      39.945  34.254  37.979  1.00  0.00     0.040 A 
ATOM     69  C   UNL A   1      38.159  32.710  38.453  1.00  0.00     0.040 A 
ATOM     70  F   UNL A   1      37.779  30.881  37.035  1.00  0.00    -0.206 F 
ATOM     71  C   UNL A   1      38.884  33.851  38.788  1.00  0.00     0.006 A 
ENDBRANCH  50  64
BRANCH  51  72
ATOM     72  C   UNL A   1      41.092  27.458  27.933  1.00  0.00     0.057 A 
ATOM     73  C   UNL A   1      41.921  27.969  26.928  1.00  0.00     0.134 A 
ATOM     74  C   UNL A   1      40.491  26.214  27.700  1.00  0.00     0.134 A 
ATOM     75  F   UNL A   1      42.504  29.168  27.078  1.00  0.00    -0.206 F 
ATOM     76  C   UNL A   1      42.139  27.276  25.735  1.00  0.00     0.040 A 
ATOM     77  C   UNL A   1      40.722  25.497  26.524  1.00  0.00     0.040 A 
ATOM     78  F   UNL A   1      39.682  25.670  28.620  1.00  0.00    -0.206 F 
ATOM     79  C   UNL A   1      41.546  26.032  25.535  1.00  0.00     0.006 A 
ENDBRANCH  51  72
BRANCH  63  80
ATOM     80  C   UNL A   1      44.265  27.456  34.155  1.00  0.00     0.057 A 
ATOM     81  C   UNL A   1      45.554  28.000  34.181  1.00  0.00     0.134 A 
ATOM     82  C   UNL A   1      44.081  26.205  34.761  1.00  0.00     0.134 A 
ATOM     83  F   UNL A   1      45.800  29.192  33.614  1.00  0.00    -0.206 F 
ATOM     84  C   UNL A   1      46.620  27.325  34.778  1.00  0.00     0.040 A 
ATOM     85  C   UNL A   1      45.133  25.533  35.387  1.00  0.00     0.040 A 
ATOM     86  F   UNL A   1      42.868  25.630  34.784  1.00  0.00    -0.206 F 
ATOM     87  C   UNL A   1      46.408  26.093  35.394  1.00  0.00     0.006 A 
ENDBRANCH  63  80
ENDBRANCH  37  38
ENDBRANCH  30  32
ENDBRANCH  29  30
ENDBRANCH  28  29
ENDBRANCH  27  28
ENDBRANCH  26  27
ENDBRANCH   1  26
TORSDOF 18
ENDMDL
MODEL 3
REMARK VINA RESULT:     -10.4      0.811      6.069
REMARK SMILES Cc1c(Cl)cc2c(c1C)O[C@H](C(F)(F)F)C(C(=O)OCCOCCOCCOC(=O)c1ccc(-c3c4nc(c(-c5c(F)cccc5F)c5ccc([nH]5)c(-c5c(F)cccc5F)c5nc(c(-c6c(F)cccc6F)c6ccc3[nH]6)C=C5)C=C4)cc1)=C2
REMARK SMILES IDX 24 1 23 2 22 3 21 4 20 5 19 6 17 7 18 8 16 9 1 10 2 11 3 12
REMARK SMILES IDX 8 13 4 14 5 15 7 16 9 17 6 18 10 19 85 20 11 21 12 22 13 23
REMARK SMILES IDX 14 24 15 25 25 26 26 27 27 28 28 29 29 30 30 31 31 32 32 33
REMARK SMILES IDX 84 34 33 35 83 36 34 37 35 38 36 39 77 40 37 41 82 42 76 43
REMARK SMILES IDX 78 44 38 45 81 46 75 47 74 48 39 50 65 51 48 52 64 53 49 54
REMARK SMILES IDX 52 55 63 56 79 57 50 58 51 59 62 61 80 62 53 63 40 64 41 65
REMARK SMILES IDX 46 66 42 67 43 68 45 69 47 70 44 71 66 72 67 73 72 74 68 75
REMARK SMILES IDX 69 76 71 77 73 78 70 79 54 80 55 81 60 82 56 83 57 84 59 85
REMARK SMILES IDX 61 86 58 87
REMARK H PARENT 78 49 52 60
REMARK Flexibility Score: inf
ROOT
ATOM      1  C   UNL A   1      41.247  21.610  27.392  1.00  0.00     0.188 C 
ENDROOT
BRANCH   1   2
ATOM      2  C   UNL A   1      40.246  21.793  26.232  1.00  0.00     0.188 C 
BRANCH   2   3
ATOM      3  O   UNL A   1      38.954  22.299  26.484  1.00  0.00    -0.376 OA
BRANCH   3   4
ATOM      4  C   UNL A   1      37.970  22.333  25.465  1.00  0.00     0.202 C 
BRANCH   4   5
ATOM      5  C   UNL A   1      36.530  21.822  25.643  1.00  0.00     0.261 C 
BRANCH   5   6
ATOM      6  O   UNL A   1      35.503  22.582  24.995  1.00  0.00    -0.460 OA
BRANCH   6   7
ATOM      7  C   UNL A   1      34.504  23.011  25.802  1.00  0.00     0.338 C 
ATOM      8  O   UNL A   1      34.259  22.622  26.933  1.00  0.00    -0.246 OA
BRANCH   7   9
ATOM      9  C   UNL A   1      33.821  24.159  25.174  1.00  0.00     0.087 C 
ATOM     10  C   UNL A   1      30.362  29.535  23.968  1.00  0.00     0.046 C 
ATOM     11  C   UNL A   1      31.338  28.478  24.422  1.00  0.00    -0.026 A 
ATOM     12  C   UNL A   1      32.056  28.608  25.627  1.00  0.00     0.045 A 
ATOM     13  C   UNL A   1      31.537  27.311  23.638  1.00  0.00    -0.004 A 
ATOM     14  Cl  UNL A   1      31.944  30.012  26.630  1.00  0.00    -0.084 Cl
ATOM     15  C   UNL A   1      32.888  27.582  26.082  1.00  0.00     0.032 A 
ATOM     16  C   UNL A   1      32.391  26.290  24.109  1.00  0.00     0.131 A 
ATOM     17  C   UNL A   1      30.842  27.098  22.314  1.00  0.00     0.049 C 
ATOM     18  C   UNL A   1      33.028  26.408  25.345  1.00  0.00     0.019 A 
ATOM     19  O   UNL A   1      32.547  25.196  23.301  1.00  0.00    -0.475 OA
ATOM     20  C   UNL A   1      33.768  25.287  25.895  1.00  0.00     0.027 C 
ATOM     21  C   UNL A   1      33.240  24.019  23.797  1.00  0.00     0.316 C 
BRANCH  21  22
ATOM     22  C   UNL A   1      32.288  22.821  23.683  1.00  0.00     0.430 C 
ATOM     23  F   UNL A   1      32.887  21.771  23.074  1.00  0.00    -0.167 F 
ATOM     24  F   UNL A   1      31.884  22.384  24.900  1.00  0.00    -0.167 F 
ATOM     25  F   UNL A   1      31.178  23.124  22.973  1.00  0.00    -0.167 F 
ENDBRANCH  21  22
ENDBRANCH   7   9
ENDBRANCH   6   7
ENDBRANCH   5   6
ENDBRANCH   4   5
ENDBRANCH   3   4
ENDBRANCH   2   3
ENDBRANCH   1   2
BRANCH   1  26
ATOM     26  O   UNL A   1      42.566  21.214  27.105  1.00  0.00    -0.376 OA
BRANCH  26  27
ATOM     27  C   UNL A   1      43.050  21.265  25.772  1.00  0.00     0.202 C 
BRANCH  27  28
ATOM     28  C   UNL A   1      43.860  22.424  25.155  1.00  0.00     0.261 C 
BRANCH  28  29
ATOM     29  O   UNL A   1      43.220  23.697  25.024  1.00  0.00    -0.460 OA
BRANCH  29  30
ATOM     30  C   UNL A   1      44.010  24.777  25.266  1.00  0.00     0.338 C 
ATOM     31  O   UNL A   1      44.990  25.133  24.643  1.00  0.00    -0.246 OA
BRANCH  30  32
ATOM     32  C   UNL A   1      43.373  25.596  26.316  1.00  0.00     0.060 A 
ATOM     33  C   UNL A   1      43.856  26.892  26.548  1.00  0.00     0.016 A 
ATOM     34  C   UNL A   1      42.320  25.085  27.073  1.00  0.00     0.016 A 
ATOM     35  C   UNL A   1      43.282  27.684  27.542  1.00  0.00     0.010 A 
ATOM     36  C   UNL A   1      41.767  25.868  28.090  1.00  0.00     0.010 A 
ATOM     37  C   UNL A   1      42.258  27.163  28.342  1.00  0.00    -0.014 A 
BRANCH  37  38
ATOM     38  C   UNL A   1      41.821  27.901  29.550  1.00  0.00     0.031 A 
ATOM     39  C   UNL A   1      40.604  28.780  29.454  1.00  0.00     0.074 A 
ATOM     40  C   UNL A   1      42.473  27.778  30.720  1.00  0.00     0.049 A 
ATOM     41  N   UNL A   1      40.061  29.549  30.361  1.00  0.00    -0.248 NA
ATOM     42  C   UNL A   1      39.908  28.791  28.157  1.00  0.00     0.031 C 
ATOM     43  C   UNL A   1      43.634  26.922  30.954  1.00  0.00     0.029 A 
ATOM     44  N   UNL A   1      42.250  28.385  31.931  1.00  0.00    -0.354 N 
ATOM     45  C   UNL A   1      38.959  30.130  29.749  1.00  0.00     0.074 A 
ATOM     46  C   UNL A   1      38.931  29.657  28.382  1.00  0.00     0.031 C 
ATOM     47  C   UNL A   1      44.023  27.060  32.233  1.00  0.00     0.029 A 
ATOM     48  C   UNL A   1      43.163  28.039  32.897  1.00  0.00     0.049 A 
ATOM     49  H   UNL A   1      41.505  29.009  32.092  1.00  0.00     0.167 HD
ATOM     50  C   UNL A   1      38.042  30.970  30.283  1.00  0.00     0.037 A 
ATOM     51  C   UNL A   1      43.297  28.477  34.165  1.00  0.00     0.037 A 
ATOM     52  C   UNL A   1      38.075  31.446  31.640  1.00  0.00     0.049 A 
ATOM     53  C   UNL A   1      42.323  29.493  34.707  1.00  0.00     0.074 A 
ATOM     54  C   UNL A   1      37.190  32.301  32.273  1.00  0.00     0.029 A 
ATOM     55  N   UNL A   1      39.047  31.114  32.572  1.00  0.00    -0.354 N 
ATOM     56  N   UNL A   1      41.276  30.027  34.127  1.00  0.00    -0.248 NA
ATOM     57  C   UNL A   1      42.550  29.967  36.081  1.00  0.00     0.031 C 
ATOM     58  C   UNL A   1      37.656  32.531  33.568  1.00  0.00     0.029 A 
ATOM     59  C   UNL A   1      38.797  31.771  33.765  1.00  0.00     0.049 A 
ATOM     60  H   UNL A   1      39.801  30.503  32.409  1.00  0.00     0.167 HD
ATOM     61  C   UNL A   1      40.703  30.873  35.070  1.00  0.00     0.074 A 
ATOM     62  C   UNL A   1      41.514  30.775  36.266  1.00  0.00     0.031 C 
ATOM     63  C   UNL A   1      39.604  31.658  34.955  1.00  0.00     0.037 A 
BRANCH  50  64
ATOM     64  C   UNL A   1      36.929  31.441  29.395  1.00  0.00     0.057 A 
ATOM     65  C   UNL A   1      36.904  32.739  28.869  1.00  0.00     0.134 A 
ATOM     66  C   UNL A   1      35.903  30.568  29.009  1.00  0.00     0.134 A 
ATOM     67  F   UNL A   1      37.848  33.629  29.211  1.00  0.00    -0.206 F 
ATOM     68  C   UNL A   1      35.895  33.155  28.000  1.00  0.00     0.040 A 
ATOM     69  C   UNL A   1      34.904  30.964  28.119  1.00  0.00     0.040 A 
ATOM     70  F   UNL A   1      35.869  29.310  29.474  1.00  0.00    -0.206 F 
ATOM     71  C   UNL A   1      34.896  32.262  27.615  1.00  0.00     0.006 A 
ENDBRANCH  50  64
BRANCH  51  72
ATOM     72  C   UNL A   1      44.395  27.953  35.018  1.00  0.00     0.057 A 
ATOM     73  C   UNL A   1      45.650  28.570  35.042  1.00  0.00     0.134 A 
ATOM     74  C   UNL A   1      44.217  26.824  35.829  1.00  0.00     0.134 A 
ATOM     75  F   UNL A   1      45.892  29.638  34.267  1.00  0.00    -0.206 F 
ATOM     76  C   UNL A   1      46.691  28.083  35.834  1.00  0.00     0.040 A 
ATOM     77  C   UNL A   1      45.241  26.342  36.647  1.00  0.00     0.040 A 
ATOM     78  F   UNL A   1      43.040  26.183  35.850  1.00  0.00    -0.206 F 
ATOM     79  C   UNL A   1      46.485  26.970  36.647  1.00  0.00     0.006 A 
ENDBRANCH  51  72
BRANCH  63  80
ATOM     80  C   UNL A   1      39.180  32.459  36.153  1.00  0.00     0.057 A 
ATOM     81  C   UNL A   1      38.355  31.923  37.149  1.00  0.00     0.134 A 
ATOM     82  C   UNL A   1      39.682  33.752  36.360  1.00  0.00     0.134 A 
ATOM     83  F   UNL A   1      37.836  30.693  37.011  1.00  0.00    -0.206 F 
ATOM     84  C   UNL A   1      38.037  32.644  38.301  1.00  0.00     0.040 A 
ATOM     85  C   UNL A   1      39.395  34.472  37.520  1.00  0.00     0.040 A 
ATOM     86  F   UNL A   1      40.490  34.323  35.452  1.00  0.00    -0.206 F 
ATOM     87  C   UNL A   1      38.568  33.919  38.494  1.00  0.00     0.006 A 
ENDBRANCH  63  80
ENDBRANCH  37  38
ENDBRANCH  30  32
ENDBRANCH  29  30
ENDBRANCH  28  29
ENDBRANCH  27  28
ENDBRANCH  26  27
ENDBRANCH   1  26
TORSDOF 18
ENDMDL
