MODEL 1
REMARK VINA RESULT:     -10.5      0.000      0.000
REMARK SMILES CCn1ncc(CNc2ccccc2C(=O)OCCOCCOCCOC(=O)c2ccc(-c3c4nc(c(-c5c(F)cccc5F)c5ccc([nH]5)c(-c5c(F)cccc5F)c5nc(c(-c6c(F)cccc6F)c6ccc3[nH]6)C=C5)C=C4)cc2)c1C
REMARK SMILES IDX 21 1 20 2 19 3 18 4 17 5 15 6 16 7 14 8 9 9 10 10 11 11
REMARK SMILES IDX 13 12 12 13 8 14 7 16 6 17 3 18 4 19 83 20 5 21 84 22 2 23
REMARK SMILES IDX 1 24 22 25 23 26 24 27 25 28 26 29 27 30 28 31 29 32 30 33
REMARK SMILES IDX 82 34 31 35 81 36 32 37 33 38 34 39 75 40 35 41 80 42 74 43
REMARK SMILES IDX 76 44 36 45 79 46 73 47 72 48 37 50 63 51 46 52 62 53 47 54
REMARK SMILES IDX 50 55 61 56 77 57 48 58 49 59 60 61 78 62 51 63 38 64 39 65
REMARK SMILES IDX 44 66 40 67 41 68 43 69 45 70 42 71 64 72 65 73 70 74 66 75
REMARK SMILES IDX 67 76 69 77 71 78 68 79 52 80 53 81 58 82 54 83 55 84 57 85
REMARK SMILES IDX 59 86 56 87
REMARK H PARENT 8 15 76 49 50 60
REMARK Flexibility Score: inf
ROOT
ATOM      1  C   UNL A   1      39.939  21.515  26.091  1.00  0.00     0.188 C 
ENDROOT
BRANCH   1   2
ATOM      2  O   UNL A   1      38.558  21.836  26.006  1.00  0.00    -0.376 OA
BRANCH   2   3
ATOM      3  C   UNL A   1      38.172  23.206  26.101  1.00  0.00     0.202 C 
BRANCH   3   4
ATOM      4  C   UNL A   1      36.817  23.661  25.541  1.00  0.00     0.261 C 
BRANCH   4   5
ATOM      5  O   UNL A   1      35.808  22.660  25.727  1.00  0.00    -0.460 OA
BRANCH   5   6
ATOM      6  C   UNL A   1      34.675  23.042  26.357  1.00  0.00     0.340 C 
ATOM      7  O   UNL A   1      34.433  22.902  27.545  1.00  0.00    -0.246 OA
BRANCH   6   8
ATOM      8  C   UNL A   1      33.840  23.861  25.441  1.00  0.00     0.083 A 
ATOM      9  C   UNL A   1      33.345  23.468  24.181  1.00  0.00     0.049 A 
ATOM     10  C   UNL A   1      32.605  24.442  23.467  1.00  0.00     0.026 A 
ATOM     11  C   UNL A   1      32.382  25.734  23.951  1.00  0.00     0.002 A 
ATOM     12  C   UNL A   1      33.616  25.172  25.923  1.00  0.00     0.018 A 
ATOM     13  C   UNL A   1      32.896  26.104  25.182  1.00  0.00     0.001 A 
BRANCH   9  14
ATOM     14  N   UNL A   1      33.444  22.241  23.557  1.00  0.00    -0.380 N 
ATOM     15  H   UNL A   1      34.347  22.006  23.241  1.00  0.00     0.160 HD
BRANCH  14  16
ATOM     16  C   UNL A   1      32.425  21.243  23.295  1.00  0.00     0.152 C 
BRANCH  16  17
ATOM     17  C   UNL A   1      32.606  19.976  24.054  1.00  0.00     0.012 A 
ATOM     18  N   UNL A   1      32.737  17.864  24.636  1.00  0.00    -0.270 N 
ATOM     19  N   UNL A   1      32.899  18.536  25.794  1.00  0.00    -0.181 NA
ATOM     20  C   UNL A   1      32.551  18.684  23.553  1.00  0.00     0.040 A 
ATOM     21  C   UNL A   1      32.816  19.816  25.436  1.00  0.00     0.141 A 
ATOM     22  C   UNL A   1      32.351  18.228  22.152  1.00  0.00     0.067 C 
BRANCH  18  23
ATOM     23  C   UNL A   1      32.813  16.417  24.649  1.00  0.00     0.141 C 
ATOM     24  C   UNL A   1      34.064  15.935  25.359  1.00  0.00     0.029 C 
ENDBRANCH  18  23
ENDBRANCH  16  17
ENDBRANCH  14  16
ENDBRANCH   9  14
ENDBRANCH   6   8
ENDBRANCH   5   6
ENDBRANCH   4   5
ENDBRANCH   3   4
ENDBRANCH   2   3
ENDBRANCH   1   2
BRANCH   1  25
ATOM     25  C   UNL A   1      40.589  21.236  27.468  1.00  0.00     0.188 C 
BRANCH  25  26
ATOM     26  O   UNL A   1      41.919  20.764  27.528  1.00  0.00    -0.376 OA
BRANCH  26  27
ATOM     27  C   UNL A   1      42.291  19.405  27.385  1.00  0.00     0.202 C 
BRANCH  27  28
ATOM     28  C   UNL A   1      42.472  18.654  26.068  1.00  0.00     0.261 C 
BRANCH  28  29
ATOM     29  O   UNL A   1      42.875  19.442  24.968  1.00  0.00    -0.460 OA
BRANCH  29  30
ATOM     30  C   UNL A   1      44.212  19.622  24.903  1.00  0.00     0.338 C 
ATOM     31  O   UNL A   1      45.072  18.761  24.850  1.00  0.00    -0.246 OA
BRANCH  30  32
ATOM     32  C   UNL A   1      44.507  21.058  24.906  1.00  0.00     0.060 A 
ATOM     33  C   UNL A   1      45.664  21.452  25.583  1.00  0.00     0.016 A 
ATOM     34  C   UNL A   1      43.546  21.979  24.472  1.00  0.00     0.016 A 
ATOM     35  C   UNL A   1      45.739  22.745  26.045  1.00  0.00     0.010 A 
ATOM     36  C   UNL A   1      43.619  23.271  24.938  1.00  0.00     0.010 A 
ATOM     37  C   UNL A   1      44.657  23.597  25.810  1.00  0.00    -0.014 A 
BRANCH  37  38
ATOM     38  C   UNL A   1      44.557  24.765  26.658  1.00  0.00     0.031 A 
ATOM     39  C   UNL A   1      45.695  25.702  26.640  1.00  0.00     0.074 A 
ATOM     40  C   UNL A   1      43.435  24.999  27.365  1.00  0.00     0.049 A 
ATOM     41  N   UNL A   1      46.419  26.092  27.637  1.00  0.00    -0.248 NA
ATOM     42  C   UNL A   1      46.104  26.240  25.336  1.00  0.00     0.031 C 
ATOM     43  C   UNL A   1      42.139  24.324  27.252  1.00  0.00     0.029 A 
ATOM     44  N   UNL A   1      43.195  25.990  28.263  1.00  0.00    -0.354 N 
ATOM     45  C   UNL A   1      47.272  27.058  27.121  1.00  0.00     0.074 A 
ATOM     46  C   UNL A   1      47.111  27.036  25.687  1.00  0.00     0.031 C 
ATOM     47  C   UNL A   1      41.202  25.070  27.876  1.00  0.00     0.029 A 
ATOM     48  C   UNL A   1      41.851  26.201  28.518  1.00  0.00     0.049 A 
ATOM     49  H   UNL A   1      43.912  26.512  28.692  1.00  0.00     0.167 HD
ATOM     50  C   UNL A   1      47.911  27.957  27.913  1.00  0.00     0.037 A 
ATOM     51  C   UNL A   1      41.314  27.284  29.126  1.00  0.00     0.037 A 
ATOM     52  C   UNL A   1      47.998  27.531  29.280  1.00  0.00     0.049 A 
ATOM     53  C   UNL A   1      42.397  27.968  29.880  1.00  0.00     0.074 A 
ATOM     54  C   UNL A   1      48.520  26.417  29.910  1.00  0.00     0.029 A 
ATOM     55  N   UNL A   1      47.205  28.142  30.221  1.00  0.00    -0.354 N 
ATOM     56  N   UNL A   1      42.955  27.501  30.962  1.00  0.00    -0.248 NA
ATOM     57  C   UNL A   1      43.151  29.006  29.190  1.00  0.00     0.031 C 
ATOM     58  C   UNL A   1      47.638  26.153  30.998  1.00  0.00     0.029 A 
ATOM     59  C   UNL A   1      46.647  27.135  30.969  1.00  0.00     0.049 A 
ATOM     60  H   UNL A   1      47.066  29.109  30.336  1.00  0.00     0.167 HD
ATOM     61  C   UNL A   1      44.288  27.876  30.865  1.00  0.00     0.074 A 
ATOM     62  C   UNL A   1      44.324  28.887  29.815  1.00  0.00     0.031 C 
ATOM     63  C   UNL A   1      45.283  27.140  31.443  1.00  0.00     0.037 A 
BRANCH  50  64
ATOM     64  C   UNL A   1      48.196  29.358  27.464  1.00  0.00     0.057 A 
ATOM     65  C   UNL A   1      49.495  29.876  27.533  1.00  0.00     0.134 A 
ATOM     66  C   UNL A   1      47.177  30.294  27.192  1.00  0.00     0.134 A 
ATOM     67  F   UNL A   1      50.534  29.085  27.842  1.00  0.00    -0.206 F 
ATOM     68  C   UNL A   1      49.761  31.237  27.349  1.00  0.00     0.040 A 
ATOM     69  C   UNL A   1      47.435  31.643  26.954  1.00  0.00     0.040 A 
ATOM     70  F   UNL A   1      45.879  29.958  27.232  1.00  0.00    -0.206 F 
ATOM     71  C   UNL A   1      48.731  32.124  27.052  1.00  0.00     0.006 A 
ENDBRANCH  50  64
BRANCH  51  72
ATOM     72  C   UNL A   1      39.999  27.912  28.861  1.00  0.00     0.057 A 
ATOM     73  C   UNL A   1      39.030  28.010  29.866  1.00  0.00     0.134 A 
ATOM     74  C   UNL A   1      39.741  28.641  27.685  1.00  0.00     0.134 A 
ATOM     75  F   UNL A   1      39.207  27.397  31.046  1.00  0.00    -0.206 F 
ATOM     76  C   UNL A   1      37.876  28.789  29.715  1.00  0.00     0.040 A 
ATOM     77  C   UNL A   1      38.585  29.407  27.513  1.00  0.00     0.040 A 
ATOM     78  F   UNL A   1      40.639  28.708  26.691  1.00  0.00    -0.206 F 
ATOM     79  C   UNL A   1      37.651  29.494  28.536  1.00  0.00     0.006 A 
ENDBRANCH  51  72
BRANCH  63  80
ATOM     80  C   UNL A   1      44.898  26.052  32.406  1.00  0.00     0.057 A 
ATOM     81  C   UNL A   1      44.566  24.748  32.010  1.00  0.00     0.134 A 
ATOM     82  C   UNL A   1      45.024  26.281  33.782  1.00  0.00     0.134 A 
ATOM     83  F   UNL A   1      44.536  24.403  30.716  1.00  0.00    -0.206 F 
ATOM     84  C   UNL A   1      44.321  23.734  32.940  1.00  0.00     0.040 A 
ATOM     85  C   UNL A   1      44.814  25.268  34.721  1.00  0.00     0.040 A 
ATOM     86  F   UNL A   1      45.402  27.487  34.237  1.00  0.00    -0.206 F 
ATOM     87  C   UNL A   1      44.449  23.991  34.301  1.00  0.00     0.006 A 
ENDBRANCH  63  80
ENDBRANCH  37  38
ENDBRANCH  30  32
ENDBRANCH  29  30
ENDBRANCH  28  29
ENDBRANCH  27  28
ENDBRANCH  26  27
ENDBRANCH  25  26
ENDBRANCH   1  25
TORSDOF 21
ENDMDL
MODEL 2
REMARK VINA RESULT:     -10.4      1.048      2.973
REMARK SMILES CCn1ncc(CNc2ccccc2C(=O)OCCOCCOCCOC(=O)c2ccc(-c3c4nc(c(-c5c(F)cccc5F)c5ccc([nH]5)c(-c5c(F)cccc5F)c5nc(c(-c6c(F)cccc6F)c6ccc3[nH]6)C=C5)C=C4)cc2)c1C
REMARK SMILES IDX 21 1 20 2 19 3 18 4 17 5 15 6 16 7 14 8 9 9 10 10 11 11
REMARK SMILES IDX 13 12 12 13 8 14 7 16 6 17 3 18 4 19 83 20 5 21 84 22 2 23
REMARK SMILES IDX 1 24 22 25 23 26 24 27 25 28 26 29 27 30 28 31 29 32 30 33
REMARK SMILES IDX 82 34 31 35 81 36 32 37 33 38 34 39 75 40 35 41 80 42 74 43
REMARK SMILES IDX 76 44 36 45 79 46 73 47 72 48 37 50 63 51 46 52 62 53 47 54
REMARK SMILES IDX 50 55 61 56 77 57 48 58 49 59 60 61 78 62 51 63 38 64 39 65
REMARK SMILES IDX 44 66 40 67 41 68 43 69 45 70 42 71 64 72 65 73 70 74 66 75
REMARK SMILES IDX 67 76 69 77 71 78 68 79 52 80 53 81 58 82 54 83 55 84 57 85
REMARK SMILES IDX 59 86 56 87
REMARK H PARENT 8 15 76 49 50 60
REMARK Flexibility Score: inf
ROOT
ATOM      1  C   UNL A   1      40.111  21.573  26.117  1.00  0.00     0.188 C 
ENDROOT
BRANCH   1   2
ATOM      2  O   UNL A   1      38.738  21.338  25.841  1.00  0.00    -0.376 OA
BRANCH   2   3
ATOM      3  C   UNL A   1      37.870  22.463  25.709  1.00  0.00     0.202 C 
BRANCH   3   4
ATOM      4  C   UNL A   1      36.729  22.434  24.681  1.00  0.00     0.261 C 
BRANCH   4   5
ATOM      5  O   UNL A   1      36.181  21.117  24.542  1.00  0.00    -0.460 OA
BRANCH   5   6
ATOM      6  C   UNL A   1      35.145  20.797  25.350  1.00  0.00     0.340 C 
ATOM      7  O   UNL A   1      34.800  21.407  26.349  1.00  0.00    -0.246 OA
BRANCH   6   8
ATOM      8  C   UNL A   1      34.340  19.714  24.731  1.00  0.00     0.083 A 
ATOM      9  C   UNL A   1      32.972  19.775  24.391  1.00  0.00     0.049 A 
ATOM     10  C   UNL A   1      32.408  18.594  23.849  1.00  0.00     0.026 A 
ATOM     11  C   UNL A   1      33.137  17.413  23.673  1.00  0.00     0.002 A 
ATOM     12  C   UNL A   1      35.070  18.515  24.555  1.00  0.00     0.018 A 
ATOM     13  C   UNL A   1      34.472  17.371  24.034  1.00  0.00     0.001 A 
BRANCH   9  14
ATOM     14  N   UNL A   1      32.109  20.847  24.472  1.00  0.00    -0.380 N 
ATOM     15  H   UNL A   1      31.381  20.748  25.128  1.00  0.00     0.160 HD
BRANCH  14  16
ATOM     16  C   UNL A   1      32.106  22.100  23.740  1.00  0.00     0.152 C 
BRANCH  16  17
ATOM     17  C   UNL A   1      31.878  23.300  24.592  1.00  0.00     0.012 A 
ATOM     18  N   UNL A   1      31.495  25.338  25.307  1.00  0.00    -0.270 N 
ATOM     19  N   UNL A   1      31.752  24.638  26.431  1.00  0.00    -0.181 NA
ATOM     20  C   UNL A   1      31.563  24.581  24.167  1.00  0.00     0.040 A 
ATOM     21  C   UNL A   1      31.986  23.402  25.991  1.00  0.00     0.141 A 
ATOM     22  C   UNL A   1      31.323  25.080  22.787  1.00  0.00     0.067 C 
BRANCH  18  23
ATOM     23  C   UNL A   1      31.150  26.742  25.421  1.00  0.00     0.141 C 
ATOM     24  C   UNL A   1      31.497  27.287  26.793  1.00  0.00     0.029 C 
ENDBRANCH  18  23
ENDBRANCH  16  17
ENDBRANCH  14  16
ENDBRANCH   9  14
ENDBRANCH   6   8
ENDBRANCH   5   6
ENDBRANCH   4   5
ENDBRANCH   3   4
ENDBRANCH   2   3
ENDBRANCH   1   2
BRANCH   1  25
ATOM     25  C   UNL A   1      40.701  21.199  27.499  1.00  0.00     0.188 C 
BRANCH  25  26
ATOM     26  O   UNL A   1      41.985  20.618  27.574  1.00  0.00    -0.376 OA
BRANCH  26  27
ATOM     27  C   UNL A   1      42.249  19.238  27.392  1.00  0.00     0.202 C 
BRANCH  27  28
ATOM     28  C   UNL A   1      42.605  18.555  26.074  1.00  0.00     0.261 C 
BRANCH  28  29
ATOM     29  O   UNL A   1      42.931  19.422  25.008  1.00  0.00    -0.460 OA
BRANCH  29  30
ATOM     30  C   UNL A   1      44.261  19.614  24.864  1.00  0.00     0.338 C 
ATOM     31  O   UNL A   1      45.122  18.760  24.746  1.00  0.00    -0.246 OA
BRANCH  30  32
ATOM     32  C   UNL A   1      44.545  21.052  24.870  1.00  0.00     0.060 A 
ATOM     33  C   UNL A   1      45.707  21.452  25.535  1.00  0.00     0.016 A 
ATOM     34  C   UNL A   1      43.572  21.967  24.451  1.00  0.00     0.016 A 
ATOM     35  C   UNL A   1      45.777  22.743  26.001  1.00  0.00     0.010 A 
ATOM     36  C   UNL A   1      43.640  23.258  24.921  1.00  0.00     0.010 A 
ATOM     37  C   UNL A   1      44.686  23.588  25.782  1.00  0.00    -0.014 A 
BRANCH  37  38
ATOM     38  C   UNL A   1      44.587  24.752  26.637  1.00  0.00     0.031 A 
ATOM     39  C   UNL A   1      45.727  25.687  26.626  1.00  0.00     0.074 A 
ATOM     40  C   UNL A   1      43.465  24.985  27.343  1.00  0.00     0.049 A 
ATOM     41  N   UNL A   1      46.450  26.070  27.626  1.00  0.00    -0.248 NA
ATOM     42  C   UNL A   1      46.139  26.230  25.325  1.00  0.00     0.031 C 
ATOM     43  C   UNL A   1      42.167  24.313  27.224  1.00  0.00     0.029 A 
ATOM     44  N   UNL A   1      43.225  25.972  28.246  1.00  0.00    -0.354 N 
ATOM     45  C   UNL A   1      47.306  27.037  27.116  1.00  0.00     0.074 A 
ATOM     46  C   UNL A   1      47.148  27.022  25.682  1.00  0.00     0.031 C 
ATOM     47  C   UNL A   1      41.230  25.057  27.851  1.00  0.00     0.029 A 
ATOM     48  C   UNL A   1      41.881  26.184  28.500  1.00  0.00     0.049 A 
ATOM     49  H   UNL A   1      43.942  26.490  28.679  1.00  0.00     0.167 HD
ATOM     50  C   UNL A   1      47.946  27.930  27.914  1.00  0.00     0.037 A 
ATOM     51  C   UNL A   1      41.346  27.265  29.113  1.00  0.00     0.037 A 
ATOM     52  C   UNL A   1      48.030  27.497  29.279  1.00  0.00     0.049 A 
ATOM     53  C   UNL A   1      42.428  27.942  29.872  1.00  0.00     0.074 A 
ATOM     54  C   UNL A   1      48.549  26.378  29.904  1.00  0.00     0.029 A 
ATOM     55  N   UNL A   1      47.237  28.104  30.222  1.00  0.00    -0.354 N 
ATOM     56  N   UNL A   1      42.984  27.468  30.952  1.00  0.00    -0.248 NA
ATOM     57  C   UNL A   1      43.186  28.982  29.189  1.00  0.00     0.031 C 
ATOM     58  C   UNL A   1      47.664  26.110  30.989  1.00  0.00     0.029 A 
ATOM     59  C   UNL A   1      46.675  27.094  30.963  1.00  0.00     0.049 A 
ATOM     60  H   UNL A   1      47.099  29.071  30.342  1.00  0.00     0.167 HD
ATOM     61  C   UNL A   1      44.318  27.841  30.860  1.00  0.00     0.074 A 
ATOM     62  C   UNL A   1      44.358  28.858  29.815  1.00  0.00     0.031 C 
ATOM     63  C   UNL A   1      45.311  27.100  31.436  1.00  0.00     0.037 A 
BRANCH  50  64
ATOM     64  C   UNL A   1      48.235  29.333  27.473  1.00  0.00     0.057 A 
ATOM     65  C   UNL A   1      49.536  29.846  27.541  1.00  0.00     0.134 A 
ATOM     66  C   UNL A   1      47.218  30.274  27.210  1.00  0.00     0.134 A 
ATOM     67  F   UNL A   1      50.573  29.049  27.842  1.00  0.00    -0.206 F 
ATOM     68  C   UNL A   1      49.806  31.207  27.365  1.00  0.00     0.040 A 
ATOM     69  C   UNL A   1      47.481  31.624  26.980  1.00  0.00     0.040 A 
ATOM     70  F   UNL A   1      45.919  29.943  27.252  1.00  0.00    -0.206 F 
ATOM     71  C   UNL A   1      48.779  32.100  27.077  1.00  0.00     0.006 A 
ENDBRANCH  50  64
BRANCH  51  72
ATOM     72  C   UNL A   1      40.032  27.897  28.849  1.00  0.00     0.057 A 
ATOM     73  C   UNL A   1      39.046  27.952  29.840  1.00  0.00     0.134 A 
ATOM     74  C   UNL A   1      39.792  28.670  27.698  1.00  0.00     0.134 A 
ATOM     75  F   UNL A   1      39.205  27.294  30.998  1.00  0.00    -0.206 F 
ATOM     76  C   UNL A   1      37.890  28.731  29.698  1.00  0.00     0.040 A 
ATOM     77  C   UNL A   1      38.635  29.438  27.535  1.00  0.00     0.040 A 
ATOM     78  F   UNL A   1      40.707  28.779  26.723  1.00  0.00    -0.206 F 
ATOM     79  C   UNL A   1      37.683  29.480  28.543  1.00  0.00     0.006 A 
ENDBRANCH  51  72
BRANCH  63  80
ATOM     80  C   UNL A   1      44.921  26.008  32.392  1.00  0.00     0.057 A 
ATOM     81  C   UNL A   1      44.582  24.708  31.988  1.00  0.00     0.134 A 
ATOM     82  C   UNL A   1      45.052  26.227  33.769  1.00  0.00     0.134 A 
ATOM     83  F   UNL A   1      44.546  24.373  30.692  1.00  0.00    -0.206 F 
ATOM     84  C   UNL A   1      44.333  23.689  32.912  1.00  0.00     0.040 A 
ATOM     85  C   UNL A   1      44.839  25.209  34.702  1.00  0.00     0.040 A 
ATOM     86  F   UNL A   1      45.438  27.428  34.231  1.00  0.00    -0.206 F 
ATOM     87  C   UNL A   1      44.466  23.936  34.275  1.00  0.00     0.006 A 
ENDBRANCH  63  80
ENDBRANCH  37  38
ENDBRANCH  30  32
ENDBRANCH  29  30
ENDBRANCH  28  29
ENDBRANCH  27  28
ENDBRANCH  26  27
ENDBRANCH  25  26
ENDBRANCH   1  25
TORSDOF 21
ENDMDL
MODEL 3
REMARK VINA RESULT:     -10.2      5.453     10.546
REMARK SMILES CCn1ncc(CNc2ccccc2C(=O)OCCOCCOCCOC(=O)c2ccc(-c3c4nc(c(-c5c(F)cccc5F)c5ccc([nH]5)c(-c5c(F)cccc5F)c5nc(c(-c6c(F)cccc6F)c6ccc3[nH]6)C=C5)C=C4)cc2)c1C
REMARK SMILES IDX 21 1 20 2 19 3 18 4 17 5 15 6 16 7 14 8 9 9 10 10 11 11
REMARK SMILES IDX 13 12 12 13 8 14 7 16 6 17 3 18 4 19 83 20 5 21 84 22 2 23
REMARK SMILES IDX 1 24 22 25 23 26 24 27 25 28 26 29 27 30 28 31 29 32 30 33
REMARK SMILES IDX 82 34 31 35 81 36 32 37 33 38 34 39 75 40 35 41 80 42 74 43
REMARK SMILES IDX 76 44 36 45 79 46 73 47 72 48 37 50 63 51 46 52 62 53 47 54
REMARK SMILES IDX 50 55 61 56 77 57 48 58 49 59 60 61 78 62 51 63 38 64 39 65
REMARK SMILES IDX 44 66 40 67 41 68 43 69 45 70 42 71 64 72 65 73 70 74 66 75
REMARK SMILES IDX 67 76 69 77 71 78 68 79 52 80 53 81 58 82 54 83 55 84 57 85
REMARK SMILES IDX 59 86 56 87
REMARK H PARENT 8 15 76 49 50 60
REMARK Flexibility Score: inf
ROOT
ATOM      1  C   UNL A   1      33.559  31.140  27.232  1.00  0.00     0.188 C 
ENDROOT
BRANCH   1   2
ATOM      2  O   UNL A   1      34.053  29.810  27.294  1.00  0.00    -0.376 OA
BRANCH   2   3
ATOM      3  C   UNL A   1      33.114  28.736  27.273  1.00  0.00     0.202 C 
BRANCH   3   4
ATOM      4  C   UNL A   1      32.893  27.936  25.980  1.00  0.00     0.261 C 
BRANCH   4   5
ATOM      5  O   UNL A   1      33.708  26.758  25.946  1.00  0.00    -0.460 OA
BRANCH   5   6
ATOM      6  C   UNL A   1      33.079  25.573  26.116  1.00  0.00     0.340 C 
ATOM      7  O   UNL A   1      32.023  25.401  26.704  1.00  0.00    -0.246 OA
BRANCH   6   8
ATOM      8  C   UNL A   1      33.742  24.528  25.297  1.00  0.00     0.083 A 
ATOM      9  C   UNL A   1      33.105  23.486  24.591  1.00  0.00     0.049 A 
ATOM     10  C   UNL A   1      33.955  22.579  23.913  1.00  0.00     0.026 A 
ATOM     11  C   UNL A   1      35.350  22.673  23.943  1.00  0.00     0.002 A 
ATOM     12  C   UNL A   1      35.153  24.616  25.328  1.00  0.00     0.018 A 
ATOM     13  C   UNL A   1      35.953  23.692  24.660  1.00  0.00     0.001 A 
BRANCH   9  14
ATOM     14  N   UNL A   1      31.756  23.249  24.431  1.00  0.00    -0.380 N 
ATOM     15  H   UNL A   1      31.349  22.675  25.120  1.00  0.00     0.160 HD
BRANCH  14  16
ATOM     16  C   UNL A   1      30.842  23.714  23.405  1.00  0.00     0.152 C 
BRANCH  16  17
ATOM     17  C   UNL A   1      30.975  25.161  23.083  1.00  0.00     0.012 A 
ATOM     18  N   UNL A   1      30.739  27.342  23.030  1.00  0.00    -0.270 N 
ATOM     19  N   UNL A   1      31.607  27.080  22.031  1.00  0.00    -0.181 NA
ATOM     20  C   UNL A   1      30.321  26.219  23.695  1.00  0.00     0.040 A 
ATOM     21  C   UNL A   1      31.746  25.756  22.066  1.00  0.00     0.141 A 
ATOM     22  C   UNL A   1      29.371  26.200  24.839  1.00  0.00     0.067 C 
BRANCH  18  23
ATOM     23  C   UNL A   1      30.386  28.720  23.307  1.00  0.00     0.141 C 
ATOM     24  C   UNL A   1      30.089  29.483  22.031  1.00  0.00     0.029 C 
ENDBRANCH  18  23
ENDBRANCH  16  17
ENDBRANCH  14  16
ENDBRANCH   9  14
ENDBRANCH   6   8
ENDBRANCH   5   6
ENDBRANCH   4   5
ENDBRANCH   3   4
ENDBRANCH   2   3
ENDBRANCH   1   2
BRANCH   1  25
ATOM     25  C   UNL A   1      34.141  32.230  28.166  1.00  0.00     0.188 C 
BRANCH  25  26
ATOM     26  O   UNL A   1      34.494  33.489  27.632  1.00  0.00    -0.376 OA
BRANCH  26  27
ATOM     27  C   UNL A   1      34.553  34.687  28.385  1.00  0.00     0.202 C 
BRANCH  27  28
ATOM     28  C   UNL A   1      33.361  35.472  28.926  1.00  0.00     0.261 C 
BRANCH  28  29
ATOM     29  O   UNL A   1      32.728  34.915  30.058  1.00  0.00    -0.460 OA
BRANCH  29  30
ATOM     30  C   UNL A   1      32.996  35.582  31.201  1.00  0.00     0.338 C 
ATOM     31  O   UNL A   1      32.488  36.619  31.587  1.00  0.00    -0.246 OA
BRANCH  30  32
ATOM     32  C   UNL A   1      34.028  34.861  31.952  1.00  0.00     0.060 A 
ATOM     33  C   UNL A   1      35.128  35.612  32.373  1.00  0.00     0.016 A 
ATOM     34  C   UNL A   1      34.013  33.462  32.009  1.00  0.00     0.016 A 
ATOM     35  C   UNL A   1      36.309  34.954  32.621  1.00  0.00     0.010 A 
ATOM     36  C   UNL A   1      35.197  32.803  32.252  1.00  0.00     0.010 A 
ATOM     37  C   UNL A   1      36.347  33.569  32.441  1.00  0.00    -0.014 A 
BRANCH  37  38
ATOM     38  C   UNL A   1      37.655  32.974  32.270  1.00  0.00     0.031 A 
ATOM     39  C   UNL A   1      38.558  33.001  33.434  1.00  0.00     0.074 A 
ATOM     40  C   UNL A   1      37.980  32.366  31.113  1.00  0.00     0.049 A 
ATOM     41  N   UNL A   1      39.741  33.515  33.510  1.00  0.00    -0.248 NA
ATOM     42  C   UNL A   1      38.060  32.417  34.686  1.00  0.00     0.031 C 
ATOM     43  C   UNL A   1      37.095  32.010  30.000  1.00  0.00     0.029 A 
ATOM     44  N   UNL A   1      39.173  31.828  30.749  1.00  0.00    -0.354 N 
ATOM     45  C   UNL A   1      40.214  33.174  34.770  1.00  0.00     0.074 A 
ATOM     46  C   UNL A   1      39.107  32.593  35.490  1.00  0.00     0.031 C 
ATOM     47  C   UNL A   1      37.730  31.124  29.203  1.00  0.00     0.029 A 
ATOM     48  C   UNL A   1      39.088  30.943  29.688  1.00  0.00     0.049 A 
ATOM     49  H   UNL A   1      40.022  32.047  31.199  1.00  0.00     0.167 HD
ATOM     50  C   UNL A   1      41.536  33.203  35.080  1.00  0.00     0.037 A 
ATOM     51  C   UNL A   1      40.038  30.057  29.310  1.00  0.00     0.037 A 
ATOM     52  C   UNL A   1      42.297  34.035  34.191  1.00  0.00     0.049 A 
ATOM     53  C   UNL A   1      41.332  30.498  29.891  1.00  0.00     0.074 A 
ATOM     54  C   UNL A   1      42.227  35.364  33.819  1.00  0.00     0.029 A 
ATOM     55  N   UNL A   1      43.123  33.442  33.267  1.00  0.00    -0.354 N 
ATOM     56  N   UNL A   1      42.000  31.548  29.502  1.00  0.00    -0.248 NA
ATOM     57  C   UNL A   1      41.693  29.985  31.206  1.00  0.00     0.031 C 
ATOM     58  C   UNL A   1      42.594  35.388  32.443  1.00  0.00     0.029 A 
ATOM     59  C   UNL A   1      42.882  34.074  32.072  1.00  0.00     0.049 A 
ATOM     60  H   UNL A   1      43.761  32.711  33.429  1.00  0.00     0.167 HD
ATOM     61  C   UNL A   1      42.559  32.066  30.662  1.00  0.00     0.074 A 
ATOM     62  C   UNL A   1      42.425  31.005  31.655  1.00  0.00     0.031 C 
ATOM     63  C   UNL A   1      42.824  33.399  30.797  1.00  0.00     0.037 A 
BRANCH  50  64
ATOM     64  C   UNL A   1      42.157  32.229  36.033  1.00  0.00     0.057 A 
ATOM     65  C   UNL A   1      42.861  32.683  37.156  1.00  0.00     0.134 A 
ATOM     66  C   UNL A   1      42.286  30.855  35.744  1.00  0.00     0.134 A 
ATOM     67  F   UNL A   1      42.855  33.982  37.490  1.00  0.00    -0.206 F 
ATOM     68  C   UNL A   1      43.646  31.826  37.934  1.00  0.00     0.040 A 
ATOM     69  C   UNL A   1      43.022  29.981  36.542  1.00  0.00     0.040 A 
ATOM     70  F   UNL A   1      41.776  30.317  34.625  1.00  0.00    -0.206 F 
ATOM     71  C   UNL A   1      43.724  30.470  37.633  1.00  0.00     0.006 A 
ENDBRANCH  50  64
BRANCH  51  72
ATOM     72  C   UNL A   1      39.839  28.713  28.719  1.00  0.00     0.057 A 
ATOM     73  C   UNL A   1      40.392  28.381  27.477  1.00  0.00     0.134 A 
ATOM     74  C   UNL A   1      39.300  27.643  29.459  1.00  0.00     0.134 A 
ATOM     75  F   UNL A   1      40.979  29.318  26.719  1.00  0.00    -0.206 F 
ATOM     76  C   UNL A   1      40.413  27.064  26.999  1.00  0.00     0.040 A 
ATOM     77  C   UNL A   1      39.297  26.328  28.986  1.00  0.00     0.040 A 
ATOM     78  F   UNL A   1      38.833  27.818  30.704  1.00  0.00    -0.206 F 
ATOM     79  C   UNL A   1      39.866  26.031  27.756  1.00  0.00     0.006 A 
ENDBRANCH  51  72
BRANCH  63  80
ATOM     80  C   UNL A   1      42.742  34.269  29.574  1.00  0.00     0.057 A 
ATOM     81  C   UNL A   1      43.781  34.392  28.639  1.00  0.00     0.134 A 
ATOM     82  C   UNL A   1      41.521  34.870  29.244  1.00  0.00     0.134 A 
ATOM     83  F   UNL A   1      44.947  33.757  28.811  1.00  0.00    -0.206 F 
ATOM     84  C   UNL A   1      43.628  35.124  27.457  1.00  0.00     0.040 A 
ATOM     85  C   UNL A   1      41.344  35.575  28.050  1.00  0.00     0.040 A 
ATOM     86  F   UNL A   1      40.459  34.740  30.057  1.00  0.00    -0.206 F 
ATOM     87  C   UNL A   1      42.404  35.714  27.157  1.00  0.00     0.006 A 
ENDBRANCH  63  80
ENDBRANCH  37  38
ENDBRANCH  30  32
ENDBRANCH  29  30
ENDBRANCH  28  29
ENDBRANCH  27  28
ENDBRANCH  26  27
ENDBRANCH  25  26
ENDBRANCH   1  25
TORSDOF 21
ENDMDL
