MODEL 1
REMARK VINA RESULT:     -10.7      0.000      0.000
REMARK SMILES O=C(OCCOCCOCCOC(=O)[C@@H]1CCCCN1c1ccccc1[N+](=O)[O-])c1ccc(-c2c3nc(c(-c4c(F)cccc4F)c4ccc([nH]4)c(-c4c(F)cccc4F)c4nc(c(-c5c(F)cccc5F)c5ccc2[nH]5)C=C4)C=C3)cc1
REMARK SMILES IDX 7 1 6 2 5 3 4 4 3 5 2 6 1 7 30 8 31 9 83 10 32 11 82 12
REMARK SMILES IDX 33 13 34 14 35 15 76 16 36 17 81 18 75 19 77 20 37 21 80 22
REMARK SMILES IDX 74 23 73 24 38 26 64 27 47 28 63 29 48 30 51 31 62 32 78 33
REMARK SMILES IDX 49 34 50 35 61 37 79 38 52 39 39 40 40 41 45 42 41 43 42 44
REMARK SMILES IDX 44 45 46 46 43 47 65 48 66 49 71 50 67 51 68 52 70 53 72 54
REMARK SMILES IDX 69 55 53 56 54 57 59 58 55 59 56 60 58 61 60 62 57 63 8 64
REMARK SMILES IDX 9 65 10 66 11 67 12 68 13 69 14 70 15 71 16 72 20 73 17 74
REMARK SMILES IDX 19 75 18 76 21 77 22 78 26 79 23 80 25 81 24 82 27 83 28 84
REMARK SMILES IDX 29 85
REMARK H PARENT 77 25 51 36
REMARK Flexibility Score: inf
ROOT
ATOM      1  C   UNL A   1      40.509  20.423  26.282  1.00  0.00     0.188 C 
ENDROOT
BRANCH   1   2
ATOM      2  O   UNL A   1      41.719  20.550  25.551  1.00  0.00    -0.376 OA
BRANCH   2   3
ATOM      3  C   UNL A   1      42.876  20.893  26.312  1.00  0.00     0.202 C 
BRANCH   3   4
ATOM      4  C   UNL A   1      44.133  21.207  25.488  1.00  0.00     0.261 C 
BRANCH   4   5
ATOM      5  O   UNL A   1      44.775  22.419  25.923  1.00  0.00    -0.460 OA
BRANCH   5   6
ATOM      6  C   UNL A   1      44.520  23.676  25.494  1.00  0.00     0.338 C 
ATOM      7  O   UNL A   1      44.712  23.984  24.323  1.00  0.00    -0.246 OA
BRANCH   6   8
ATOM      8  C   UNL A   1      43.978  24.722  26.384  1.00  0.00     0.060 A 
ATOM      9  C   UNL A   1      44.743  26.321  26.673  1.00  0.00     0.016 A 
ATOM     10  C   UNL A   1      42.450  24.389  27.243  1.00  0.00     0.016 A 
ATOM     11  C   UNL A   1      43.871  27.592  27.970  1.00  0.00     0.010 A 
ATOM     12  C   UNL A   1      41.674  25.560  28.373  1.00  0.00     0.010 A 
ATOM     13  C   UNL A   1      42.339  27.154  28.750  1.00  0.00    -0.014 A 
BRANCH  13  14
ATOM     14  C   UNL A   1      41.960  28.120  29.819  1.00  0.00     0.031 A 
ATOM     15  C   UNL A   1      40.738  28.950  29.633  1.00  0.00     0.074 A 
ATOM     16  C   UNL A   1      42.448  27.973  31.075  1.00  0.00     0.049 A 
ATOM     17  N   UNL A   1      40.180  29.774  30.475  1.00  0.00    -0.248 NA
ATOM     18  C   UNL A   1      39.996  28.779  28.376  1.00  0.00     0.031 C 
ATOM     19  C   UNL A   1      43.420  26.966  31.463  1.00  0.00     0.029 A 
ATOM     20  N   UNL A   1      42.166  28.562  32.285  1.00  0.00    -0.354 N 
ATOM     21  C   UNL A   1      39.030  30.221  29.851  1.00  0.00     0.074 A 
ATOM     22  C   UNL A   1      38.965  29.587  28.556  1.00  0.00     0.031 C 
ATOM     23  C   UNL A   1      43.614  26.936  32.779  1.00  0.00     0.029 A 
ATOM     24  C   UNL A   1      42.923  28.063  33.331  1.00  0.00     0.049 A 
ATOM     25  H   UNL A   1      41.491  29.271  32.396  1.00  0.00     0.167 HD
ATOM     26  C   UNL A   1      38.118  31.093  30.332  1.00  0.00     0.037 A 
ATOM     27  C   UNL A   1      43.131  28.495  34.585  1.00  0.00     0.037 A 
ATOM     28  C   UNL A   1      38.230  31.708  31.627  1.00  0.00     0.049 A 
ATOM     29  C   UNL A   1      42.291  29.643  35.004  1.00  0.00     0.074 A 
ATOM     30  C   UNL A   1      37.471  32.727  32.167  1.00  0.00     0.029 A 
ATOM     31  N   UNL A   1      39.173  31.354  32.589  1.00  0.00    -0.354 N 
ATOM     32  N   UNL A   1      41.319  30.211  34.333  1.00  0.00    -0.248 NA
ATOM     33  C   UNL A   1      42.544  30.209  36.327  1.00  0.00     0.031 C 
ATOM     34  C   UNL A   1      37.995  33.033  33.428  1.00  0.00     0.029 A 
ATOM     35  C   UNL A   1      39.033  32.157  33.708  1.00  0.00     0.049 A 
ATOM     36  H   UNL A   1      39.840  30.637  32.487  1.00  0.00     0.167 HD
ATOM     37  C   UNL A   1      40.820  31.191  35.159  1.00  0.00     0.074 A 
ATOM     38  C   UNL A   1      41.581  31.116  36.395  1.00  0.00     0.031 C 
ATOM     39  C   UNL A   1      39.819  32.068  34.914  1.00  0.00     0.037 A 
BRANCH  26  40
ATOM     40  C   UNL A   1      37.033  31.508  29.389  1.00  0.00     0.057 A 
ATOM     41  C   UNL A   1      37.026  32.751  28.741  1.00  0.00     0.134 A 
ATOM     42  C   UNL A   1      35.931  30.668  29.189  1.00  0.00     0.134 A 
ATOM     43  F   UNL A   1      38.025  33.627  28.934  1.00  0.00    -0.206 F 
ATOM     44  C   UNL A   1      35.951  33.148  27.942  1.00  0.00     0.040 A 
ATOM     45  C   UNL A   1      34.865  31.042  28.372  1.00  0.00     0.040 A 
ATOM     46  F   UNL A   1      35.865  29.478  29.804  1.00  0.00    -0.206 F 
ATOM     47  C   UNL A   1      34.869  32.288  27.751  1.00  0.00     0.006 A 
ENDBRANCH  26  40
BRANCH  27  48
ATOM     48  C   UNL A   1      44.232  27.943  35.428  1.00  0.00     0.057 A 
ATOM     49  C   UNL A   1      45.525  28.477  35.425  1.00  0.00     0.134 A 
ATOM     50  C   UNL A   1      44.018  26.810  36.235  1.00  0.00     0.134 A 
ATOM     51  F   UNL A   1      45.809  29.555  34.681  1.00  0.00    -0.206 F 
ATOM     52  C   UNL A   1      46.565  27.888  36.155  1.00  0.00     0.040 A 
ATOM     53  C   UNL A   1      45.038  26.234  36.994  1.00  0.00     0.040 A 
ATOM     54  F   UNL A   1      42.804  26.243  36.303  1.00  0.00    -0.206 F 
ATOM     55  C   UNL A   1      46.323  26.763  36.942  1.00  0.00     0.006 A 
ENDBRANCH  27  48
BRANCH  39  56
ATOM     56  C   UNL A   1      39.484  32.983  36.044  1.00  0.00     0.057 A 
ATOM     57  C   UNL A   1      40.171  34.185  36.251  1.00  0.00     0.134 A 
ATOM     58  C   UNL A   1      38.480  32.632  36.951  1.00  0.00     0.134 A 
ATOM     59  F   UNL A   1      41.165  34.553  35.427  1.00  0.00    -0.206 F 
ATOM     60  C   UNL A   1      39.899  34.988  37.355  1.00  0.00     0.040 A 
ATOM     61  C   UNL A   1      38.169  33.449  38.034  1.00  0.00     0.040 A 
ATOM     62  F   UNL A   1      37.790  31.491  36.802  1.00  0.00    -0.206 F 
ATOM     63  C   UNL A   1      38.891  34.623  38.246  1.00  0.00     0.006 A 
ENDBRANCH  39  56
ENDBRANCH  13  14
ENDBRANCH   6   8
ENDBRANCH   5   6
ENDBRANCH   4   5
ENDBRANCH   3   4
ENDBRANCH   2   3
ENDBRANCH   1   2
BRANCH   1  64
ATOM     64  C   UNL A   1      39.989  21.754  26.835  1.00  0.00     0.188 C 
BRANCH  64  65
ATOM     65  O   UNL A   1      39.044  22.478  26.056  1.00  0.00    -0.376 OA
BRANCH  65  66
ATOM     66  C   UNL A   1      38.070  21.743  25.320  1.00  0.00     0.202 C 
BRANCH  66  67
ATOM     67  C   UNL A   1      36.604  21.773  25.772  1.00  0.00     0.261 C 
BRANCH  67  68
ATOM     68  O   UNL A   1      35.806  22.861  25.267  1.00  0.00    -0.462 OA
BRANCH  68  69
ATOM     69  C   UNL A   1      34.626  23.054  25.893  1.00  0.00     0.328 C 
ATOM     70  O   UNL A   1      34.549  23.254  27.108  1.00  0.00    -0.250 OA
BRANCH  69  71
ATOM     71  C   UNL A   1      33.349  22.926  25.076  1.00  0.00     0.192 C 
ATOM     72  C   UNL A   1      33.678  22.024  23.870  1.00  0.00     0.037 C 
ATOM     73  N   UNL A   1      32.448  24.023  24.610  1.00  0.00    -0.353 N 
ATOM     74  C   UNL A   1      32.418  21.364  23.326  1.00  0.00     0.005 C 
ATOM     75  C   UNL A   1      31.169  23.466  24.066  1.00  0.00     0.118 C 
ATOM     76  C   UNL A   1      31.380  22.408  22.976  1.00  0.00     0.022 C 
BRANCH  73  77
ATOM     77  C   UNL A   1      32.595  25.417  24.740  1.00  0.00     0.116 A 
ATOM     78  C   UNL A   1      32.502  26.144  26.359  1.00  0.00     0.033 A 
ATOM     79  C   UNL A   1      33.260  26.463  23.405  1.00  0.00     0.292 A 
ATOM     80  C   UNL A   1      32.990  27.817  26.755  1.00  0.00     0.003 A 
ATOM     81  C   UNL A   1      33.850  28.349  23.880  1.00  0.00     0.088 A 
ATOM     82  C   UNL A   1      33.669  28.927  25.576  1.00  0.00     0.007 A 
BRANCH  79  83
ATOM     83  N   UNL A   1      32.939  25.715  22.089  1.00  0.00     0.064 N 
ATOM     84  O   UNL A   1      33.713  24.831  21.685  1.00  0.00    -0.258 OA
ATOM     85  O   UNL A   1      31.845  25.978  21.563  1.00  0.00    -0.258 OA
ENDBRANCH  79  83
ENDBRANCH  73  77
ENDBRANCH  69  71
ENDBRANCH  68  69
ENDBRANCH  67  68
ENDBRANCH  66  67
ENDBRANCH  65  66
ENDBRANCH  64  65
ENDBRANCH   1  64
TORSDOF 19
ENDMDL
MODEL 2
REMARK VINA RESULT:     -10.4      4.757     10.229
REMARK SMILES O=C(OCCOCCOCCOC(=O)[C@@H]1CCCCN1c1ccccc1[N+](=O)[O-])c1ccc(-c2c3nc(c(-c4c(F)cccc4F)c4ccc([nH]4)c(-c4c(F)cccc4F)c4nc(c(-c5c(F)cccc5F)c5ccc2[nH]5)C=C4)C=C3)cc1
REMARK SMILES IDX 7 1 6 2 5 3 4 4 3 5 2 6 1 7 30 8 31 9 83 10 32 11 82 12
REMARK SMILES IDX 33 13 34 14 35 15 76 16 36 17 81 18 75 19 77 20 37 21 80 22
REMARK SMILES IDX 74 23 73 24 38 26 64 27 47 28 63 29 48 30 51 31 62 32 78 33
REMARK SMILES IDX 49 34 50 35 61 37 79 38 52 39 39 40 40 41 45 42 41 43 42 44
REMARK SMILES IDX 44 45 46 46 43 47 65 48 66 49 71 50 67 51 68 52 70 53 72 54
REMARK SMILES IDX 69 55 53 56 54 57 59 58 55 59 56 60 58 61 60 62 57 63 8 64
REMARK SMILES IDX 9 65 10 66 11 67 12 68 13 69 14 70 15 71 16 72 20 73 17 74
REMARK SMILES IDX 19 75 18 76 21 77 22 78 26 79 23 80 25 81 24 82 27 83 28 84
REMARK SMILES IDX 29 85
REMARK H PARENT 77 25 51 36
REMARK Flexibility Score: inf
ROOT
ATOM      1  C   UNL A   1      34.659  32.032  27.974  1.00  0.00     0.188 C 
ENDROOT
BRANCH   1   2
ATOM      2  O   UNL A   1      35.031  33.360  27.637  1.00  0.00    -0.376 OA
BRANCH   2   3
ATOM      3  C   UNL A   1      35.343  34.218  28.732  1.00  0.00     0.202 C 
BRANCH   3   4
ATOM      4  C   UNL A   1      34.958  33.678  30.118  1.00  0.00     0.261 C 
BRANCH   4   5
ATOM      5  O   UNL A   1      36.103  33.201  30.848  1.00  0.00    -0.460 OA
BRANCH   5   6
ATOM      6  C   UNL A   1      36.337  31.933  31.256  1.00  0.00     0.338 C 
ATOM      7  O   UNL A   1      35.506  31.332  31.928  1.00  0.00    -0.246 OA
BRANCH   6   8
ATOM      8  C   UNL A   1      37.570  31.201  30.902  1.00  0.00     0.060 A 
ATOM      9  C   UNL A   1      38.807  30.642  32.078  1.00  0.00     0.016 A 
ATOM     10  C   UNL A   1      37.867  30.837  29.180  1.00  0.00     0.016 A 
ATOM     11  C   UNL A   1      40.450  29.706  31.384  1.00  0.00     0.010 A 
ATOM     12  C   UNL A   1      39.332  29.966  28.592  1.00  0.00     0.010 A 
ATOM     13  C   UNL A   1      40.623  29.383  29.648  1.00  0.00    -0.014 A 
BRANCH  13  14
ATOM     14  C   UNL A   1      41.981  28.873  29.308  1.00  0.00     0.031 A 
ATOM     15  C   UNL A   1      42.119  27.470  28.829  1.00  0.00     0.074 A 
ATOM     16  C   UNL A   1      42.989  29.741  29.046  1.00  0.00     0.049 A 
ATOM     17  N   UNL A   1      43.186  26.863  28.390  1.00  0.00    -0.248 NA
ATOM     18  C   UNL A   1      40.893  26.663  28.754  1.00  0.00     0.031 C 
ATOM     19  C   UNL A   1      42.877  31.184  29.160  1.00  0.00     0.029 A 
ATOM     20  N   UNL A   1      44.262  29.603  28.545  1.00  0.00    -0.354 N 
ATOM     21  C   UNL A   1      42.763  25.608  27.993  1.00  0.00     0.074 A 
ATOM     22  C   UNL A   1      41.344  25.529  28.246  1.00  0.00     0.031 C 
ATOM     23  C   UNL A   1      43.957  31.810  28.697  1.00  0.00     0.029 A 
ATOM     24  C   UNL A   1      44.940  30.803  28.425  1.00  0.00     0.049 A 
ATOM     25  H   UNL A   1      44.653  28.734  28.296  1.00  0.00     0.167 HD
ATOM     26  C   UNL A   1      43.512  24.615  27.468  1.00  0.00     0.037 A 
ATOM     27  C   UNL A   1      46.232  31.096  28.209  1.00  0.00     0.037 A 
ATOM     28  C   UNL A   1      44.927  24.736  27.243  1.00  0.00     0.049 A 
ATOM     29  C   UNL A   1      47.098  29.935  27.893  1.00  0.00     0.074 A 
ATOM     30  C   UNL A   1      45.829  23.758  26.876  1.00  0.00     0.029 A 
ATOM     31  N   UNL A   1      45.646  25.922  27.370  1.00  0.00    -0.354 N 
ATOM     32  N   UNL A   1      46.731  28.690  27.708  1.00  0.00    -0.248 NA
ATOM     33  C   UNL A   1      48.529  30.188  27.741  1.00  0.00     0.031 C 
ATOM     34  C   UNL A   1      47.103  24.338  26.842  1.00  0.00     0.029 A 
ATOM     35  C   UNL A   1      46.988  25.692  27.117  1.00  0.00     0.049 A 
ATOM     36  H   UNL A   1      45.256  26.795  27.604  1.00  0.00     0.167 HD
ATOM     37  C   UNL A   1      47.883  28.006  27.392  1.00  0.00     0.074 A 
ATOM     38  C   UNL A   1      48.956  28.987  27.381  1.00  0.00     0.031 C 
ATOM     39  C   UNL A   1      48.032  26.687  27.131  1.00  0.00     0.037 A 
BRANCH  26  40
ATOM     40  C   UNL A   1      42.821  23.305  27.252  1.00  0.00     0.057 A 
ATOM     41  C   UNL A   1      42.404  22.867  25.988  1.00  0.00     0.134 A 
ATOM     42  C   UNL A   1      42.499  22.503  28.354  1.00  0.00     0.134 A 
ATOM     43  F   UNL A   1      42.631  23.615  24.898  1.00  0.00    -0.206 F 
ATOM     44  C   UNL A   1      41.676  21.684  25.832  1.00  0.00     0.040 A 
ATOM     45  C   UNL A   1      41.797  21.308  28.208  1.00  0.00     0.040 A 
ATOM     46  F   UNL A   1      42.844  22.882  29.593  1.00  0.00    -0.206 F 
ATOM     47  C   UNL A   1      41.376  20.899  26.945  1.00  0.00     0.006 A 
ENDBRANCH  26  40
BRANCH  27  48
ATOM     48  C   UNL A   1      46.767  32.474  28.422  1.00  0.00     0.057 A 
ATOM     49  C   UNL A   1      47.193  32.934  29.672  1.00  0.00     0.134 A 
ATOM     50  C   UNL A   1      46.816  33.396  27.360  1.00  0.00     0.134 A 
ATOM     51  F   UNL A   1      47.175  32.116  30.734  1.00  0.00    -0.206 F 
ATOM     52  C   UNL A   1      47.605  34.258  29.868  1.00  0.00     0.040 A 
ATOM     53  C   UNL A   1      47.258  34.708  27.533  1.00  0.00     0.040 A 
ATOM     54  F   UNL A   1      46.436  33.032  26.126  1.00  0.00    -0.206 F 
ATOM     55  C   UNL A   1      47.638  35.149  28.797  1.00  0.00     0.006 A 
ENDBRANCH  27  48
BRANCH  39  56
ATOM     56  C   UNL A   1      49.417  26.262  26.774  1.00  0.00     0.057 A 
ATOM     57  C   UNL A   1      50.324  25.809  27.739  1.00  0.00     0.134 A 
ATOM     58  C   UNL A   1      49.850  26.340  25.447  1.00  0.00     0.134 A 
ATOM     59  F   UNL A   1      49.968  25.745  29.032  1.00  0.00    -0.206 F 
ATOM     60  C   UNL A   1      51.637  25.492  27.401  1.00  0.00     0.040 A 
ATOM     61  C   UNL A   1      51.146  25.984  25.089  1.00  0.00     0.040 A 
ATOM     62  F   UNL A   1      49.022  26.769  24.481  1.00  0.00    -0.206 F 
ATOM     63  C   UNL A   1      52.047  25.573  26.070  1.00  0.00     0.006 A 
ENDBRANCH  39  56
ENDBRANCH  13  14
ENDBRANCH   6   8
ENDBRANCH   5   6
ENDBRANCH   4   5
ENDBRANCH   3   4
ENDBRANCH   2   3
ENDBRANCH   1   2
BRANCH   1  64
ATOM     64  C   UNL A   1      33.227  31.677  27.563  1.00  0.00     0.188 C 
BRANCH  64  65
ATOM     65  O   UNL A   1      33.033  30.550  26.717  1.00  0.00    -0.376 OA
BRANCH  65  66
ATOM     66  C   UNL A   1      33.294  29.254  27.248  1.00  0.00     0.202 C 
BRANCH  66  67
ATOM     67  C   UNL A   1      34.398  28.392  26.622  1.00  0.00     0.261 C 
BRANCH  67  68
ATOM     68  O   UNL A   1      33.963  27.213  25.918  1.00  0.00    -0.462 OA
BRANCH  68  69
ATOM     69  C   UNL A   1      33.561  27.412  24.646  1.00  0.00     0.328 C 
ATOM     70  O   UNL A   1      34.085  28.254  23.911  1.00  0.00    -0.250 OA
BRANCH  69  71
ATOM     71  C   UNL A   1      32.357  26.631  24.141  1.00  0.00     0.192 C 
ATOM     72  C   UNL A   1      31.127  27.162  24.905  1.00  0.00     0.037 C 
ATOM     73  N   UNL A   1      32.220  25.150  24.005  1.00  0.00    -0.353 N 
ATOM     74  C   UNL A   1      29.848  26.903  24.121  1.00  0.00     0.005 C 
ATOM     75  C   UNL A   1      30.988  24.798  23.231  1.00  0.00     0.118 C 
ATOM     76  C   UNL A   1      29.711  25.432  23.797  1.00  0.00     0.022 C 
BRANCH  73  77
ATOM     77  C   UNL A   1      33.119  24.130  24.372  1.00  0.00     0.116 A 
ATOM     78  C   UNL A   1      34.549  23.839  23.357  1.00  0.00     0.033 A 
ATOM     79  C   UNL A   1      33.112  23.363  26.024  1.00  0.00     0.292 A 
ATOM     80  C   UNL A   1      35.951  22.839  23.834  1.00  0.00     0.003 A 
ATOM     81  C   UNL A   1      34.733  22.264  26.568  1.00  0.00     0.088 A 
ATOM     82  C   UNL A   1      36.090  22.061  25.403  1.00  0.00     0.007 A 
BRANCH  79  83
ATOM     83  N   UNL A   1      31.663  23.510  26.546  1.00  0.00     0.064 N 
ATOM     84  O   UNL A   1      31.360  24.497  27.239  1.00  0.00    -0.258 OA
ATOM     85  O   UNL A   1      30.847  22.666  26.141  1.00  0.00    -0.258 OA
ENDBRANCH  79  83
ENDBRANCH  73  77
ENDBRANCH  69  71
ENDBRANCH  68  69
ENDBRANCH  67  68
ENDBRANCH  66  67
ENDBRANCH  65  66
ENDBRANCH  64  65
ENDBRANCH   1  64
TORSDOF 19
ENDMDL
MODEL 3
REMARK VINA RESULT:     -10.3      4.786     10.053
REMARK SMILES O=C(OCCOCCOCCOC(=O)[C@@H]1CCCCN1c1ccccc1[N+](=O)[O-])c1ccc(-c2c3nc(c(-c4c(F)cccc4F)c4ccc([nH]4)c(-c4c(F)cccc4F)c4nc(c(-c5c(F)cccc5F)c5ccc2[nH]5)C=C4)C=C3)cc1
REMARK SMILES IDX 7 1 6 2 5 3 4 4 3 5 2 6 1 7 30 8 31 9 83 10 32 11 82 12
REMARK SMILES IDX 33 13 34 14 35 15 76 16 36 17 81 18 75 19 77 20 37 21 80 22
REMARK SMILES IDX 74 23 73 24 38 26 64 27 47 28 63 29 48 30 51 31 62 32 78 33
REMARK SMILES IDX 49 34 50 35 61 37 79 38 52 39 39 40 40 41 45 42 41 43 42 44
REMARK SMILES IDX 44 45 46 46 43 47 65 48 66 49 71 50 67 51 68 52 70 53 72 54
REMARK SMILES IDX 69 55 53 56 54 57 59 58 55 59 56 60 58 61 60 62 57 63 8 64
REMARK SMILES IDX 9 65 10 66 11 67 12 68 13 69 14 70 15 71 16 72 20 73 17 74
REMARK SMILES IDX 19 75 18 76 21 77 22 78 26 79 23 80 25 81 24 82 27 83 28 84
REMARK SMILES IDX 29 85
REMARK H PARENT 77 25 51 36
REMARK Flexibility Score: inf
ROOT
ATOM      1  C   UNL A   1      34.801  33.230  29.095  1.00  0.00     0.188 C 
ENDROOT
BRANCH   1   2
ATOM      2  O   UNL A   1      34.437  32.952  30.438  1.00  0.00    -0.376 OA
BRANCH   2   3
ATOM      3  C   UNL A   1      34.247  34.086  31.282  1.00  0.00     0.202 C 
BRANCH   3   4
ATOM      4  C   UNL A   1      34.476  33.836  32.779  1.00  0.00     0.261 C 
BRANCH   4   5
ATOM      5  O   UNL A   1      35.868  33.921  33.134  1.00  0.00    -0.460 OA
BRANCH   5   6
ATOM      6  C   UNL A   1      36.620  32.961  33.719  1.00  0.00     0.338 C 
ATOM      7  O   UNL A   1      36.424  32.643  34.887  1.00  0.00    -0.246 OA
BRANCH   6   8
ATOM      8  C   UNL A   1      37.681  32.233  32.993  1.00  0.00     0.060 A 
ATOM      9  C   UNL A   1      39.034  31.345  33.772  1.00  0.00     0.016 A 
ATOM     10  C   UNL A   1      37.627  32.225  31.210  1.00  0.00     0.016 A 
ATOM     11  C   UNL A   1      40.413  30.460  32.601  1.00  0.00     0.010 A 
ATOM     12  C   UNL A   1      38.858  31.394  30.187  1.00  0.00     0.010 A 
ATOM     13  C   UNL A   1      40.241  30.504  30.836  1.00  0.00    -0.014 A 
BRANCH  13  14
ATOM     14  C   UNL A   1      41.451  29.980  30.143  1.00  0.00     0.031 A 
ATOM     15  C   UNL A   1      41.408  28.607  29.569  1.00  0.00     0.074 A 
ATOM     16  C   UNL A   1      42.400  30.835  29.688  1.00  0.00     0.049 A 
ATOM     17  N   UNL A   1      42.309  28.000  28.847  1.00  0.00    -0.248 NA
ATOM     18  C   UNL A   1      40.168  27.841  29.755  1.00  0.00     0.031 C 
ATOM     19  C   UNL A   1      42.380  32.271  29.905  1.00  0.00     0.029 A 
ATOM     20  N   UNL A   1      43.504  30.694  28.881  1.00  0.00    -0.354 N 
ATOM     21  C   UNL A   1      41.749  26.785  28.499  1.00  0.00     0.074 A 
ATOM     22  C   UNL A   1      40.433  26.729  29.090  1.00  0.00     0.031 C 
ATOM     23  C   UNL A   1      43.339  32.895  29.224  1.00  0.00     0.029 A 
ATOM     24  C   UNL A   1      44.182  31.881  28.663  1.00  0.00     0.049 A 
ATOM     25  H   UNL A   1      43.786  29.832  28.496  1.00  0.00     0.167 HD
ATOM     26  C   UNL A   1      42.304  25.807  27.752  1.00  0.00     0.037 A 
ATOM     27  C   UNL A   1      45.394  32.151  28.152  1.00  0.00     0.037 A 
ATOM     28  C   UNL A   1      43.624  25.904  27.192  1.00  0.00     0.049 A 
ATOM     29  C   UNL A   1      46.106  30.989  27.568  1.00  0.00     0.074 A 
ATOM     30  C   UNL A   1      44.367  24.927  26.560  1.00  0.00     0.029 A 
ATOM     31  N   UNL A   1      44.402  27.059  27.201  1.00  0.00    -0.354 N 
ATOM     32  N   UNL A   1      45.653  29.769  27.412  1.00  0.00    -0.248 NA
ATOM     33  C   UNL A   1      47.465  31.212  27.082  1.00  0.00     0.031 C 
ATOM     34  C   UNL A   1      45.617  25.472  26.244  1.00  0.00     0.029 A 
ATOM     35  C   UNL A   1      45.630  26.809  26.612  1.00  0.00     0.049 A 
ATOM     36  H   UNL A   1      44.118  27.926  27.572  1.00  0.00     0.167 HD
ATOM     37  C   UNL A   1      46.661  29.076  26.784  1.00  0.00     0.074 A 
ATOM     38  C   UNL A   1      47.740  30.025  26.562  1.00  0.00     0.031 C 
ATOM     39  C   UNL A   1      46.687  27.772  26.423  1.00  0.00     0.037 A 
BRANCH  26  40
ATOM     40  C   UNL A   1      41.526  24.533  27.642  1.00  0.00     0.057 A 
ATOM     41  C   UNL A   1      41.804  23.404  28.425  1.00  0.00     0.134 A 
ATOM     42  C   UNL A   1      40.526  24.415  26.669  1.00  0.00     0.134 A 
ATOM     43  F   UNL A   1      42.789  23.433  29.337  1.00  0.00    -0.206 F 
ATOM     44  C   UNL A   1      41.124  22.199  28.231  1.00  0.00     0.040 A 
ATOM     45  C   UNL A   1      39.822  23.226  26.484  1.00  0.00     0.040 A 
ATOM     46  F   UNL A   1      40.234  25.449  25.867  1.00  0.00    -0.206 F 
ATOM     47  C   UNL A   1      40.126  22.111  27.262  1.00  0.00     0.006 A 
ENDBRANCH  26  40
BRANCH  27  48
ATOM     48  C   UNL A   1      46.022  33.497  28.301  1.00  0.00     0.057 A 
ATOM     49  C   UNL A   1      46.785  33.855  29.417  1.00  0.00     0.134 A 
ATOM     50  C   UNL A   1      45.822  34.493  27.327  1.00  0.00     0.134 A 
ATOM     51  F   UNL A   1      47.019  32.962  30.389  1.00  0.00    -0.206 F 
ATOM     52  C   UNL A   1      47.289  35.151  29.579  1.00  0.00     0.040 A 
ATOM     53  C   UNL A   1      46.348  35.780  27.459  1.00  0.00     0.040 A 
ATOM     54  F   UNL A   1      45.111  34.229  26.221  1.00  0.00    -0.206 F 
ATOM     55  C   UNL A   1      47.070  36.118  28.599  1.00  0.00     0.006 A 
ENDBRANCH  27  48
BRANCH  39  56
ATOM     56  C   UNL A   1      47.922  27.332  25.712  1.00  0.00     0.057 A 
ATOM     57  C   UNL A   1      49.040  26.847  26.402  1.00  0.00     0.134 A 
ATOM     58  C   UNL A   1      47.998  27.431  24.319  1.00  0.00     0.134 A 
ATOM     59  F   UNL A   1      49.030  26.762  27.741  1.00  0.00    -0.206 F 
ATOM     60  C   UNL A   1      50.213  26.516  25.729  1.00  0.00     0.040 A 
ATOM     61  C   UNL A   1      49.150  27.061  23.632  1.00  0.00     0.040 A 
ATOM     62  F   UNL A   1      46.958  27.891  23.608  1.00  0.00    -0.206 F 
ATOM     63  C   UNL A   1      50.266  26.617  24.339  1.00  0.00     0.006 A 
ENDBRANCH  39  56
ENDBRANCH  13  14
ENDBRANCH   6   8
ENDBRANCH   5   6
ENDBRANCH   4   5
ENDBRANCH   3   4
ENDBRANCH   2   3
ENDBRANCH   1   2
BRANCH   1  64
ATOM     64  C   UNL A   1      34.602  32.041  28.151  1.00  0.00     0.188 C 
BRANCH  64  65
ATOM     65  O   UNL A   1      33.271  31.653  27.834  1.00  0.00    -0.376 OA
BRANCH  65  66
ATOM     66  C   UNL A   1      33.080  30.559  26.943  1.00  0.00     0.202 C 
BRANCH  66  67
ATOM     67  C   UNL A   1      33.629  29.176  27.319  1.00  0.00     0.261 C 
BRANCH  67  68
ATOM     68  O   UNL A   1      33.464  28.137  26.336  1.00  0.00    -0.462 OA
BRANCH  68  69
ATOM     69  C   UNL A   1      32.498  27.233  26.602  1.00  0.00     0.328 C 
ATOM     70  O   UNL A   1      31.702  27.373  27.534  1.00  0.00    -0.250 OA
BRANCH  69  71
ATOM     71  C   UNL A   1      32.458  25.957  25.774  1.00  0.00     0.192 C 
ATOM     72  C   UNL A   1      33.917  25.489  25.604  1.00  0.00     0.037 C 
ATOM     73  N   UNL A   1      31.738  25.725  24.486  1.00  0.00    -0.353 N 
ATOM     74  C   UNL A   1      33.978  23.993  25.323  1.00  0.00     0.005 C 
ATOM     75  C   UNL A   1      31.736  24.271  24.132  1.00  0.00     0.118 C 
ATOM     76  C   UNL A   1      33.136  23.645  24.116  1.00  0.00     0.022 C 
BRANCH  73  77
ATOM     77  C   UNL A   1      31.000  26.629  23.698  1.00  0.00     0.116 A 
ATOM     78  C   UNL A   1      29.231  26.669  23.866  1.00  0.00     0.033 A 
ATOM     79  C   UNL A   1      31.775  28.020  22.813  1.00  0.00     0.292 A 
ATOM     80  C   UNL A   1      28.174  27.954  23.214  1.00  0.00     0.003 A 
ATOM     81  C   UNL A   1      30.563  29.494  22.114  1.00  0.00     0.088 A 
ATOM     82  C   UNL A   1      28.784  29.364  22.362  1.00  0.00     0.007 A 
BRANCH  79  83
ATOM     83  N   UNL A   1      33.234  27.582  22.544  1.00  0.00     0.064 N 
ATOM     84  O   UNL A   1      33.471  26.770  21.634  1.00  0.00    -0.258 OA
ATOM     85  O   UNL A   1      34.111  28.167  23.201  1.00  0.00    -0.258 OA
ENDBRANCH  79  83
ENDBRANCH  73  77
ENDBRANCH  69  71
ENDBRANCH  68  69
ENDBRANCH  67  68
ENDBRANCH  66  67
ENDBRANCH  65  66
ENDBRANCH  64  65
ENDBRANCH   1  64
TORSDOF 19
ENDMDL
