MODEL 1
REMARK VINA RESULT:     -11.6      0.000      0.000
REMARK SMILES C[C@H](CN(Cc1ccccc1)C(=O)c1cc2ccccc2oc1=O)C(=O)OCCOCCOCCOC(=O)c1ccc(-c2c3nc(c(-c4c(F)cccc4F)c4ccc([nH]4)c(-c4c(F)cccc4F)c4nc(c(-c5c(F)cccc5F)c5ccc2[nH]5)C=C4)C=C3)cc1
REMARK SMILES IDX 31 1 30 2 29 3 28 4 27 5 25 6 26 7 2 8 1 9 3 10 4 11 5 12
REMARK SMILES IDX 6 13 7 14 11 15 8 16 10 17 9 18 12 19 13 20 14 21 15 22
REMARK SMILES IDX 23 23 16 24 22 25 24 26 17 27 21 28 18 29 20 30 19 31 32 32
REMARK SMILES IDX 33 33 34 34 35 35 36 36 37 37 38 38 39 39 40 40 92 41 41 42
REMARK SMILES IDX 91 43 42 44 43 45 44 46 85 47 45 48 90 49 84 50 86 51 46 52
REMARK SMILES IDX 89 53 83 54 82 55 47 57 73 58 56 59 72 60 57 61 60 62 71 63
REMARK SMILES IDX 87 64 58 65 59 66 70 68 88 69 61 70 48 71 49 72 54 73 50 74
REMARK SMILES IDX 51 75 53 76 55 77 52 78 74 79 75 80 80 81 76 82 77 83 79 84
REMARK SMILES IDX 81 85 78 86 62 87 63 88 68 89 64 90 65 91 67 92 69 93 66 94
REMARK H PARENT 86 56 60 67
REMARK Flexibility Score: inf
ROOT
ATOM      1  C   UNL A   1      41.699  19.937  27.273  1.00  0.00     0.188 C 
ENDROOT
BRANCH   1   2
ATOM      2  O   UNL A   1      40.482  20.673  27.262  1.00  0.00    -0.376 OA
BRANCH   2   3
ATOM      3  C   UNL A   1      40.607  22.032  27.686  1.00  0.00     0.202 C 
BRANCH   3   4
ATOM      4  C   UNL A   1      39.561  22.942  27.035  1.00  0.00     0.261 C 
BRANCH   4   5
ATOM      5  O   UNL A   1      38.755  22.203  26.098  1.00  0.00    -0.463 OA
BRANCH   5   6
ATOM      6  C   UNL A   1      37.543  22.696  25.770  1.00  0.00     0.310 C 
ATOM      7  O   UNL A   1      37.222  23.875  25.869  1.00  0.00    -0.252 OA
BRANCH   6   8
ATOM      8  C   UNL A   1      36.577  21.634  25.259  1.00  0.00     0.115 C 
ATOM      9  C   UNL A   1      37.380  20.469  24.698  1.00  0.00     0.022 C 
BRANCH   8  10
ATOM     10  C   UNL A   1      35.413  22.110  24.358  1.00  0.00     0.135 C 
BRANCH  10  11
ATOM     11  N   UNL A   1      34.061  21.879  24.873  1.00  0.00    -0.333 N 
BRANCH  11  12
ATOM     12  C   UNL A   1      33.773  20.600  25.541  1.00  0.00     0.155 C 
BRANCH  12  13
ATOM     13  C   UNL A   1      33.604  19.466  24.550  1.00  0.00    -0.029 A 
ATOM     14  C   UNL A   1      32.538  19.478  23.638  1.00  0.00     0.005 A 
ATOM     15  C   UNL A   1      34.468  18.357  24.562  1.00  0.00     0.005 A 
ATOM     16  C   UNL A   1      32.314  18.390  22.793  1.00  0.00     0.000 A 
ATOM     17  C   UNL A   1      34.243  17.272  23.714  1.00  0.00     0.000 A 
ATOM     18  C   UNL A   1      33.161  17.284  22.835  1.00  0.00     0.000 A 
ENDBRANCH  12  13
ENDBRANCH  11  12
BRANCH  11  19
ATOM     19  C   UNL A   1      33.155  22.934  24.870  1.00  0.00     0.261 C 
ATOM     20  O   UNL A   1      32.338  23.102  23.970  1.00  0.00    -0.269 OA
BRANCH  19  21
ATOM     21  C   UNL A   1      33.194  23.859  26.048  1.00  0.00     0.126 A 
ATOM     22  C   UNL A   1      33.875  25.019  25.907  1.00  0.00     0.033 A 
ATOM     23  C   UNL A   1      31.855  24.115  26.648  1.00  0.00     0.349 A 
ATOM     24  C   UNL A   1      33.168  25.945  25.000  1.00  0.00     0.018 A 
ATOM     25  O   UNL A   1      31.121  25.136  26.030  1.00  0.00    -0.422 OA
ATOM     26  O   UNL A   1      31.416  23.455  27.583  1.00  0.00    -0.246 OA
ATOM     27  C   UNL A   1      33.815  26.722  24.046  1.00  0.00     0.012 A 
ATOM     28  C   UNL A   1      31.770  25.960  25.083  1.00  0.00     0.138 A 
ATOM     29  C   UNL A   1      33.051  27.502  23.173  1.00  0.00     0.001 A 
ATOM     30  C   UNL A   1      31.003  26.747  24.237  1.00  0.00     0.048 A 
ATOM     31  C   UNL A   1      31.652  27.515  23.269  1.00  0.00     0.004 A 
ENDBRANCH  19  21
ENDBRANCH  11  19
ENDBRANCH  10  11
ENDBRANCH   8  10
ENDBRANCH   6   8
ENDBRANCH   5   6
ENDBRANCH   4   5
ENDBRANCH   3   4
ENDBRANCH   2   3
ENDBRANCH   1   2
BRANCH   1  32
ATOM     32  C   UNL A   1      42.077  19.395  25.905  1.00  0.00     0.188 C 
BRANCH  32  33
ATOM     33  O   UNL A   1      43.144  20.077  25.252  1.00  0.00    -0.376 OA
BRANCH  33  34
ATOM     34  C   UNL A   1      43.427  21.373  25.786  1.00  0.00     0.202 C 
BRANCH  34  35
ATOM     35  C   UNL A   1      44.902  21.818  25.723  1.00  0.00     0.261 C 
BRANCH  35  36
ATOM     36  O   UNL A   1      45.143  23.007  26.491  1.00  0.00    -0.460 OA
BRANCH  36  37
ATOM     37  C   UNL A   1      44.896  24.173  25.840  1.00  0.00     0.338 C 
ATOM     38  O   UNL A   1      45.109  24.419  24.664  1.00  0.00    -0.246 OA
BRANCH  37  39
ATOM     39  C   UNL A   1      44.082  25.052  26.719  1.00  0.00     0.060 A 
ATOM     40  C   UNL A   1      44.289  26.437  26.612  1.00  0.00     0.016 A 
ATOM     41  C   UNL A   1      43.041  24.559  27.515  1.00  0.00     0.016 A 
ATOM     42  C   UNL A   1      43.477  27.328  27.314  1.00  0.00     0.010 A 
ATOM     43  C   UNL A   1      42.249  25.449  28.246  1.00  0.00     0.010 A 
ATOM     44  C   UNL A   1      42.490  26.833  28.177  1.00  0.00    -0.014 A 
BRANCH  44  45
ATOM     45  C   UNL A   1      41.961  27.717  29.240  1.00  0.00     0.031 A 
ATOM     46  C   UNL A   1      42.688  27.691  30.558  1.00  0.00     0.074 A 
ATOM     47  C   UNL A   1      40.894  28.515  29.067  1.00  0.00     0.049 A 
ATOM     48  N   UNL A   1      42.426  28.326  31.670  1.00  0.00    -0.248 NA
ATOM     49  C   UNL A   1      43.880  26.826  30.624  1.00  0.00     0.031 C 
ATOM     50  C   UNL A   1      40.130  28.667  27.831  1.00  0.00     0.029 A 
ATOM     51  N   UNL A   1      40.266  29.351  29.958  1.00  0.00    -0.354 N 
ATOM     52  C   UNL A   1      43.420  27.940  32.558  1.00  0.00     0.074 A 
ATOM     53  C   UNL A   1      44.276  27.002  31.872  1.00  0.00     0.031 C 
ATOM     54  C   UNL A   1      39.121  29.532  28.048  1.00  0.00     0.029 A 
ATOM     55  C   UNL A   1      39.156  29.974  29.442  1.00  0.00     0.049 A 
ATOM     56  H   UNL A   1      40.582  29.490  30.879  1.00  0.00     0.167 HD
ATOM     57  C   UNL A   1      43.610  28.331  33.839  1.00  0.00     0.037 A 
ATOM     58  C   UNL A   1      38.265  30.789  30.042  1.00  0.00     0.037 A 
ATOM     59  C   UNL A   1      42.745  29.233  34.540  1.00  0.00     0.049 A 
ATOM     60  C   UNL A   1      38.442  31.139  31.500  1.00  0.00     0.074 A 
ATOM     61  C   UNL A   1      42.839  29.680  35.845  1.00  0.00     0.029 A 
ATOM     62  N   UNL A   1      41.613  29.814  33.992  1.00  0.00    -0.354 N 
ATOM     63  N   UNL A   1      39.397  30.787  32.327  1.00  0.00    -0.248 NA
ATOM     64  C   UNL A   1      37.412  31.996  32.107  1.00  0.00     0.031 C 
ATOM     65  C   UNL A   1      41.738  30.503  36.100  1.00  0.00     0.029 A 
ATOM     66  C   UNL A   1      40.984  30.602  34.940  1.00  0.00     0.049 A 
ATOM     67  H   UNL A   1      41.302  29.686  33.067  1.00  0.00     0.167 HD
ATOM     68  C   UNL A   1      39.100  31.402  33.539  1.00  0.00     0.074 A 
ATOM     69  C   UNL A   1      37.879  32.154  33.338  1.00  0.00     0.031 C 
ATOM     70  C   UNL A   1      39.776  31.352  34.713  1.00  0.00     0.037 A 
BRANCH  57  71
ATOM     71  C   UNL A   1      44.781  27.738  34.557  1.00  0.00     0.057 A 
ATOM     72  C   UNL A   1      44.652  26.597  35.360  1.00  0.00     0.134 A 
ATOM     73  C   UNL A   1      46.045  28.333  34.469  1.00  0.00     0.134 A 
ATOM     74  F   UNL A   1      43.458  26.002  35.509  1.00  0.00    -0.206 F 
ATOM     75  C   UNL A   1      45.737  26.080  36.068  1.00  0.00     0.040 A 
ATOM     76  C   UNL A   1      47.142  27.812  35.154  1.00  0.00     0.040 A 
ATOM     77  F   UNL A   1      46.229  29.435  33.726  1.00  0.00    -0.206 F 
ATOM     78  C   UNL A   1      46.988  26.686  35.962  1.00  0.00     0.006 A 
ENDBRANCH  57  71
BRANCH  58  79
ATOM     79  C   UNL A   1      37.103  31.321  29.285  1.00  0.00     0.057 A 
ATOM     80  C   UNL A   1      35.976  30.530  29.033  1.00  0.00     0.134 A 
ATOM     81  C   UNL A   1      37.113  32.617  28.752  1.00  0.00     0.134 A 
ATOM     82  F   UNL A   1      35.922  29.270  29.489  1.00  0.00    -0.206 F 
ATOM     83  C   UNL A   1      34.907  31.000  28.267  1.00  0.00     0.040 A 
ATOM     84  C   UNL A   1      36.042  33.107  28.003  1.00  0.00     0.040 A 
ATOM     85  F   UNL A   1      38.167  33.421  28.948  1.00  0.00    -0.206 F 
ATOM     86  C   UNL A   1      34.938  32.294  27.753  1.00  0.00     0.006 A 
ENDBRANCH  58  79
BRANCH  70  87
ATOM     87  C   UNL A   1      39.241  32.157  35.858  1.00  0.00     0.057 A 
ATOM     88  C   UNL A   1      39.590  33.499  36.045  1.00  0.00     0.134 A 
ATOM     89  C   UNL A   1      38.308  31.599  36.742  1.00  0.00     0.134 A 
ATOM     90  F   UNL A   1      40.483  34.089  35.236  1.00  0.00    -0.206 F 
ATOM     91  C   UNL A   1      39.040  34.256  37.082  1.00  0.00     0.040 A 
ATOM     92  C   UNL A   1      37.735  32.351  37.768  1.00  0.00     0.040 A 
ATOM     93  F   UNL A   1      37.922  30.320  36.608  1.00  0.00    -0.206 F 
ATOM     94  C   UNL A   1      38.105  33.683  37.942  1.00  0.00     0.006 A 
ENDBRANCH  70  87
ENDBRANCH  44  45
ENDBRANCH  37  39
ENDBRANCH  36  37
ENDBRANCH  35  36
ENDBRANCH  34  35
ENDBRANCH  33  34
ENDBRANCH  32  33
ENDBRANCH   1  32
TORSDOF 23
ENDMDL
MODEL 2
REMARK VINA RESULT:     -11.3      1.083      2.260
REMARK SMILES C[C@H](CN(Cc1ccccc1)C(=O)c1cc2ccccc2oc1=O)C(=O)OCCOCCOCCOC(=O)c1ccc(-c2c3nc(c(-c4c(F)cccc4F)c4ccc([nH]4)c(-c4c(F)cccc4F)c4nc(c(-c5c(F)cccc5F)c5ccc2[nH]5)C=C4)C=C3)cc1
REMARK SMILES IDX 31 1 30 2 29 3 28 4 27 5 25 6 26 7 2 8 1 9 3 10 4 11 5 12
REMARK SMILES IDX 6 13 7 14 11 15 8 16 10 17 9 18 12 19 13 20 14 21 15 22
REMARK SMILES IDX 23 23 16 24 22 25 24 26 17 27 21 28 18 29 20 30 19 31 32 32
REMARK SMILES IDX 33 33 34 34 35 35 36 36 37 37 38 38 39 39 40 40 92 41 41 42
REMARK SMILES IDX 91 43 42 44 43 45 44 46 85 47 45 48 90 49 84 50 86 51 46 52
REMARK SMILES IDX 89 53 83 54 82 55 47 57 73 58 56 59 72 60 57 61 60 62 71 63
REMARK SMILES IDX 87 64 58 65 59 66 70 68 88 69 61 70 48 71 49 72 54 73 50 74
REMARK SMILES IDX 51 75 53 76 55 77 52 78 74 79 75 80 80 81 76 82 77 83 79 84
REMARK SMILES IDX 81 85 78 86 62 87 63 88 68 89 64 90 65 91 67 92 69 93 66 94
REMARK H PARENT 86 56 60 67
REMARK Flexibility Score: inf
ROOT
ATOM      1  C   UNL A   1      40.979  19.554  26.508  1.00  0.00     0.188 C 
ENDROOT
BRANCH   1   2
ATOM      2  O   UNL A   1      39.815  19.696  25.703  1.00  0.00    -0.376 OA
BRANCH   2   3
ATOM      3  C   UNL A   1      39.213  20.991  25.754  1.00  0.00     0.202 C 
BRANCH   3   4
ATOM      4  C   UNL A   1      37.868  21.035  25.022  1.00  0.00     0.261 C 
BRANCH   4   5
ATOM      5  O   UNL A   1      37.408  22.394  24.884  1.00  0.00    -0.463 OA
BRANCH   5   6
ATOM      6  C   UNL A   1      36.420  22.646  24.002  1.00  0.00     0.310 C 
ATOM      7  O   UNL A   1      36.593  22.870  22.808  1.00  0.00    -0.252 OA
BRANCH   6   8
ATOM      8  C   UNL A   1      35.032  22.639  24.630  1.00  0.00     0.115 C 
ATOM      9  C   UNL A   1      35.104  23.323  25.988  1.00  0.00     0.022 C 
BRANCH   8  10
ATOM     10  C   UNL A   1      34.257  21.299  24.622  1.00  0.00     0.135 C 
BRANCH  10  11
ATOM     11  N   UNL A   1      32.931  21.324  24.000  1.00  0.00    -0.333 N 
BRANCH  11  12
ATOM     12  C   UNL A   1      32.518  20.173  23.183  1.00  0.00     0.155 C 
BRANCH  12  13
ATOM     13  C   UNL A   1      32.857  18.853  23.848  1.00  0.00    -0.029 A 
ATOM     14  C   UNL A   1      33.463  17.826  23.109  1.00  0.00     0.005 A 
ATOM     15  C   UNL A   1      32.518  18.609  25.190  1.00  0.00     0.005 A 
ATOM     16  C   UNL A   1      33.684  16.573  23.684  1.00  0.00     0.000 A 
ATOM     17  C   UNL A   1      32.743  17.356  25.762  1.00  0.00     0.000 A 
ATOM     18  C   UNL A   1      33.318  16.335  25.007  1.00  0.00     0.000 A 
ENDBRANCH  12  13
ENDBRANCH  11  12
BRANCH  11  19
ATOM     19  C   UNL A   1      32.050  22.343  24.344  1.00  0.00     0.261 C 
ATOM     20  O   UNL A   1      31.624  22.493  25.485  1.00  0.00    -0.269 OA
BRANCH  19  21
ATOM     21  C   UNL A   1      31.658  23.292  23.253  1.00  0.00     0.126 A 
ATOM     22  C   UNL A   1      30.763  24.259  23.559  1.00  0.00     0.033 A 
ATOM     23  C   UNL A   1      32.820  23.874  22.524  1.00  0.00     0.349 A 
ATOM     24  C   UNL A   1      31.361  25.276  24.446  1.00  0.00     0.018 A 
ATOM     25  O   UNL A   1      33.385  25.004  23.130  1.00  0.00    -0.422 OA
ATOM     26  O   UNL A   1      33.269  23.377  21.498  1.00  0.00    -0.246 OA
ATOM     27  C   UNL A   1      30.688  25.838  25.525  1.00  0.00     0.012 A 
ATOM     28  C   UNL A   1      32.699  25.611  24.205  1.00  0.00     0.138 A 
ATOM     29  C   UNL A   1      31.368  26.728  26.361  1.00  0.00     0.001 A 
ATOM     30  C   UNL A   1      33.378  26.510  25.015  1.00  0.00     0.048 A 
ATOM     31  C   UNL A   1      32.706  27.062  26.107  1.00  0.00     0.004 A 
ENDBRANCH  19  21
ENDBRANCH  11  19
ENDBRANCH  10  11
ENDBRANCH   8  10
ENDBRANCH   6   8
ENDBRANCH   5   6
ENDBRANCH   4   5
ENDBRANCH   3   4
ENDBRANCH   2   3
ENDBRANCH   1   2
BRANCH   1  32
ATOM     32  C   UNL A   1      42.075  20.541  26.144  1.00  0.00     0.188 C 
BRANCH  32  33
ATOM     33  O   UNL A   1      42.956  20.120  25.106  1.00  0.00    -0.376 OA
BRANCH  33  34
ATOM     34  C   UNL A   1      44.338  20.368  25.370  1.00  0.00     0.202 C 
BRANCH  34  35
ATOM     35  C   UNL A   1      44.850  21.777  25.010  1.00  0.00     0.261 C 
BRANCH  35  36
ATOM     36  O   UNL A   1      44.355  22.780  25.911  1.00  0.00    -0.460 OA
BRANCH  36  37
ATOM     37  C   UNL A   1      44.492  24.060  25.478  1.00  0.00     0.338 C 
ATOM     38  O   UNL A   1      44.996  24.433  24.431  1.00  0.00    -0.246 OA
BRANCH  37  39
ATOM     39  C   UNL A   1      43.703  24.954  26.363  1.00  0.00     0.060 A 
ATOM     40  C   UNL A   1      44.003  26.326  26.323  1.00  0.00     0.016 A 
ATOM     41  C   UNL A   1      42.602  24.500  27.100  1.00  0.00     0.016 A 
ATOM     42  C   UNL A   1      43.223  27.240  27.033  1.00  0.00     0.010 A 
ATOM     43  C   UNL A   1      41.841  25.410  27.839  1.00  0.00     0.010 A 
ATOM     44  C   UNL A   1      42.173  26.776  27.837  1.00  0.00    -0.014 A 
BRANCH  44  45
ATOM     45  C   UNL A   1      41.662  27.650  28.918  1.00  0.00     0.031 A 
ATOM     46  C   UNL A   1      42.381  27.577  30.239  1.00  0.00     0.074 A 
ATOM     47  C   UNL A   1      40.616  28.478  28.758  1.00  0.00     0.049 A 
ATOM     48  N   UNL A   1      42.130  28.193  31.363  1.00  0.00    -0.248 NA
ATOM     49  C   UNL A   1      43.550  26.680  30.290  1.00  0.00     0.031 C 
ATOM     50  C   UNL A   1      39.862  28.676  27.523  1.00  0.00     0.029 A 
ATOM     51  N   UNL A   1      40.004  29.310  29.664  1.00  0.00    -0.354 N 
ATOM     52  C   UNL A   1      43.109  27.762  32.247  1.00  0.00     0.074 A 
ATOM     53  C   UNL A   1      43.945  26.818  31.543  1.00  0.00     0.031 C 
ATOM     54  C   UNL A   1      38.874  29.562  27.755  1.00  0.00     0.029 A 
ATOM     55  C   UNL A   1      38.914  29.972  29.158  1.00  0.00     0.049 A 
ATOM     56  H   UNL A   1      40.319  29.421  30.590  1.00  0.00     0.167 HD
ATOM     57  C   UNL A   1      43.303  28.120  33.536  1.00  0.00     0.037 A 
ATOM     58  C   UNL A   1      38.040  30.796  29.772  1.00  0.00     0.037 A 
ATOM     59  C   UNL A   1      42.457  29.029  34.254  1.00  0.00     0.049 A 
ATOM     60  C   UNL A   1      38.219  31.109  31.237  1.00  0.00     0.074 A 
ATOM     61  C   UNL A   1      42.555  29.444  35.568  1.00  0.00     0.029 A 
ATOM     62  N   UNL A   1      41.342  29.650  33.713  1.00  0.00    -0.354 N 
ATOM     63  N   UNL A   1      39.161  30.715  32.061  1.00  0.00    -0.248 NA
ATOM     64  C   UNL A   1      37.208  31.978  31.859  1.00  0.00     0.031 C 
ATOM     65  C   UNL A   1      41.474  30.288  35.837  1.00  0.00     0.029 A 
ATOM     66  C   UNL A   1      40.729  30.432  34.676  1.00  0.00     0.049 A 
ATOM     67  H   UNL A   1      41.033  29.550  32.784  1.00  0.00     0.167 HD
ATOM     68  C   UNL A   1      38.873  31.310  33.285  1.00  0.00     0.074 A 
ATOM     69  C   UNL A   1      37.672  32.097  33.095  1.00  0.00     0.031 C 
ATOM     70  C   UNL A   1      39.542  31.217  34.460  1.00  0.00     0.037 A 
BRANCH  57  71
ATOM     71  C   UNL A   1      44.455  27.483  34.246  1.00  0.00     0.057 A 
ATOM     72  C   UNL A   1      45.724  28.078  34.272  1.00  0.00     0.134 A 
ATOM     73  C   UNL A   1      44.304  26.246  34.883  1.00  0.00     0.134 A 
ATOM     74  F   UNL A   1      45.939  29.248  33.649  1.00  0.00    -0.206 F 
ATOM     75  C   UNL A   1      46.807  27.454  34.891  1.00  0.00     0.040 A 
ATOM     76  C   UNL A   1      45.374  25.623  35.524  1.00  0.00     0.040 A 
ATOM     77  F   UNL A   1      43.117  25.620  34.882  1.00  0.00    -0.206 F 
ATOM     78  C   UNL A   1      46.632  26.224  35.523  1.00  0.00     0.006 A 
ENDBRANCH  57  71
BRANCH  58  79
ATOM     79  C   UNL A   1      36.896  31.373  29.021  1.00  0.00     0.057 A 
ATOM     80  C   UNL A   1      36.891  32.716  28.624  1.00  0.00     0.134 A 
ATOM     81  C   UNL A   1      35.759  30.610  28.727  1.00  0.00     0.134 A 
ATOM     82  F   UNL A   1      37.938  33.506  28.907  1.00  0.00    -0.206 F 
ATOM     83  C   UNL A   1      35.793  33.284  27.976  1.00  0.00     0.040 A 
ATOM     84  C   UNL A   1      34.662  31.160  28.060  1.00  0.00     0.040 A 
ATOM     85  F   UNL A   1      35.696  29.322  29.090  1.00  0.00    -0.206 F 
ATOM     86  C   UNL A   1      34.675  32.503  27.688  1.00  0.00     0.006 A 
ENDBRANCH  58  79
BRANCH  70  87
ATOM     87  C   UNL A   1      39.021  32.009  35.621  1.00  0.00     0.057 A 
ATOM     88  C   UNL A   1      38.228  31.427  36.617  1.00  0.00     0.134 A 
ATOM     89  C   UNL A   1      39.379  33.355  35.779  1.00  0.00     0.134 A 
ATOM     90  F   UNL A   1      37.846  30.145  36.520  1.00  0.00    -0.206 F 
ATOM     91  C   UNL A   1      37.796  32.160  37.724  1.00  0.00     0.040 A 
ATOM     92  C   UNL A   1      38.972  34.092  36.892  1.00  0.00     0.040 A 
ATOM     93  F   UNL A   1      40.148  33.967  34.866  1.00  0.00    -0.206 F 
ATOM     94  C   UNL A   1      38.174  33.495  37.866  1.00  0.00     0.006 A 
ENDBRANCH  70  87
ENDBRANCH  44  45
ENDBRANCH  37  39
ENDBRANCH  36  37
ENDBRANCH  35  36
ENDBRANCH  34  35
ENDBRANCH  33  34
ENDBRANCH  32  33
ENDBRANCH   1  32
TORSDOF 23
ENDMDL
MODEL 3
REMARK VINA RESULT:     -10.9      1.432      3.337
REMARK SMILES C[C@H](CN(Cc1ccccc1)C(=O)c1cc2ccccc2oc1=O)C(=O)OCCOCCOCCOC(=O)c1ccc(-c2c3nc(c(-c4c(F)cccc4F)c4ccc([nH]4)c(-c4c(F)cccc4F)c4nc(c(-c5c(F)cccc5F)c5ccc2[nH]5)C=C4)C=C3)cc1
REMARK SMILES IDX 31 1 30 2 29 3 28 4 27 5 25 6 26 7 2 8 1 9 3 10 4 11 5 12
REMARK SMILES IDX 6 13 7 14 11 15 8 16 10 17 9 18 12 19 13 20 14 21 15 22
REMARK SMILES IDX 23 23 16 24 22 25 24 26 17 27 21 28 18 29 20 30 19 31 32 32
REMARK SMILES IDX 33 33 34 34 35 35 36 36 37 37 38 38 39 39 40 40 92 41 41 42
REMARK SMILES IDX 91 43 42 44 43 45 44 46 85 47 45 48 90 49 84 50 86 51 46 52
REMARK SMILES IDX 89 53 83 54 82 55 47 57 73 58 56 59 72 60 57 61 60 62 71 63
REMARK SMILES IDX 87 64 58 65 59 66 70 68 88 69 61 70 48 71 49 72 54 73 50 74
REMARK SMILES IDX 51 75 53 76 55 77 52 78 74 79 75 80 80 81 76 82 77 83 79 84
REMARK SMILES IDX 81 85 78 86 62 87 63 88 68 89 64 90 65 91 67 92 69 93 66 94
REMARK H PARENT 86 56 60 67
REMARK Flexibility Score: inf
ROOT
ATOM      1  C   UNL A   1      40.669  20.486  26.746  1.00  0.00     0.188 C 
ENDROOT
BRANCH   1   2
ATOM      2  O   UNL A   1      39.595  20.648  25.828  1.00  0.00    -0.376 OA
BRANCH   2   3
ATOM      3  C   UNL A   1      38.898  21.890  25.944  1.00  0.00     0.202 C 
BRANCH   3   4
ATOM      4  C   UNL A   1      37.560  21.877  25.197  1.00  0.00     0.261 C 
BRANCH   4   5
ATOM      5  O   UNL A   1      36.491  21.471  26.075  1.00  0.00    -0.463 OA
BRANCH   5   6
ATOM      6  C   UNL A   1      35.239  21.426  25.576  1.00  0.00     0.310 C 
ATOM      7  O   UNL A   1      34.884  20.704  24.650  1.00  0.00    -0.252 OA
BRANCH   6   8
ATOM      8  C   UNL A   1      34.276  22.378  26.274  1.00  0.00     0.115 C 
ATOM      9  C   UNL A   1      34.068  21.904  27.706  1.00  0.00     0.022 C 
BRANCH   8  10
ATOM     10  C   UNL A   1      32.976  22.750  25.522  1.00  0.00     0.135 C 
BRANCH  10  11
ATOM     11  N   UNL A   1      32.806  24.166  25.187  1.00  0.00    -0.333 N 
BRANCH  11  12
ATOM     12  C   UNL A   1      33.873  25.108  25.557  1.00  0.00     0.155 C 
BRANCH  12  13
ATOM     13  C   UNL A   1      33.320  26.410  26.102  1.00  0.00    -0.029 A 
ATOM     14  C   UNL A   1      32.109  26.420  26.811  1.00  0.00     0.005 A 
ATOM     15  C   UNL A   1      33.970  27.632  25.859  1.00  0.00     0.005 A 
ATOM     16  C   UNL A   1      31.540  27.626  27.226  1.00  0.00     0.000 A 
ATOM     17  C   UNL A   1      33.399  28.835  26.278  1.00  0.00     0.000 A 
ATOM     18  C   UNL A   1      32.180  28.833  26.954  1.00  0.00     0.000 A 
ENDBRANCH  12  13
ENDBRANCH  11  12
BRANCH  11  19
ATOM     19  C   UNL A   1      31.734  24.539  24.384  1.00  0.00     0.261 C 
ATOM     20  O   UNL A   1      30.676  24.959  24.844  1.00  0.00    -0.269 OA
BRANCH  19  21
ATOM     21  C   UNL A   1      31.934  24.436  22.902  1.00  0.00     0.126 A 
ATOM     22  C   UNL A   1      31.200  25.256  22.116  1.00  0.00     0.033 A 
ATOM     23  C   UNL A   1      33.366  24.470  22.492  1.00  0.00     0.349 A 
ATOM     24  C   UNL A   1      31.650  26.657  22.240  1.00  0.00     0.018 A 
ATOM     25  O   UNL A   1      33.904  25.755  22.348  1.00  0.00    -0.422 OA
ATOM     26  O   UNL A   1      34.029  23.451  22.333  1.00  0.00    -0.246 OA
ATOM     27  C   UNL A   1      30.776  27.736  22.304  1.00  0.00     0.012 A 
ATOM     28  C   UNL A   1      33.028  26.864  22.374  1.00  0.00     0.138 A 
ATOM     29  C   UNL A   1      31.293  29.018  22.511  1.00  0.00     0.001 A 
ATOM     30  C   UNL A   1      33.555  28.134  22.558  1.00  0.00     0.048 A 
ATOM     31  C   UNL A   1      32.675  29.215  22.637  1.00  0.00     0.004 A 
ENDBRANCH  19  21
ENDBRANCH  11  19
ENDBRANCH  10  11
ENDBRANCH   8  10
ENDBRANCH   6   8
ENDBRANCH   5   6
ENDBRANCH   4   5
ENDBRANCH   3   4
ENDBRANCH   2   3
ENDBRANCH   1   2
BRANCH   1  32
ATOM     32  C   UNL A   1      41.707  19.483  26.272  1.00  0.00     0.188 C 
BRANCH  32  33
ATOM     33  O   UNL A   1      42.711  20.007  25.407  1.00  0.00    -0.376 OA
BRANCH  33  34
ATOM     34  C   UNL A   1      43.034  21.379  25.643  1.00  0.00     0.202 C 
BRANCH  34  35
ATOM     35  C   UNL A   1      44.537  21.724  25.659  1.00  0.00     0.261 C 
BRANCH  35  36
ATOM     36  O   UNL A   1      44.810  22.924  26.399  1.00  0.00    -0.460 OA
BRANCH  36  37
ATOM     37  C   UNL A   1      44.563  24.080  25.732  1.00  0.00     0.338 C 
ATOM     38  O   UNL A   1      44.754  24.302  24.548  1.00  0.00    -0.246 OA
BRANCH  37  39
ATOM     39  C   UNL A   1      43.779  24.985  26.612  1.00  0.00     0.060 A 
ATOM     40  C   UNL A   1      44.074  26.357  26.549  1.00  0.00     0.016 A 
ATOM     41  C   UNL A   1      42.687  24.537  27.365  1.00  0.00     0.016 A 
ATOM     42  C   UNL A   1      43.298  27.278  27.253  1.00  0.00     0.010 A 
ATOM     43  C   UNL A   1      41.929  25.455  28.098  1.00  0.00     0.010 A 
ATOM     44  C   UNL A   1      42.257  26.823  28.073  1.00  0.00    -0.014 A 
BRANCH  44  45
ATOM     45  C   UNL A   1      41.752  27.710  29.145  1.00  0.00     0.031 A 
ATOM     46  C   UNL A   1      42.467  27.639  30.469  1.00  0.00     0.074 A 
ATOM     47  C   UNL A   1      40.716  28.549  28.976  1.00  0.00     0.049 A 
ATOM     48  N   UNL A   1      42.219  28.266  31.587  1.00  0.00    -0.248 NA
ATOM     49  C   UNL A   1      43.625  26.730  30.530  1.00  0.00     0.031 C 
ATOM     50  C   UNL A   1      39.967  28.746  27.737  1.00  0.00     0.029 A 
ATOM     51  N   UNL A   1      40.111  29.394  29.874  1.00  0.00    -0.354 N 
ATOM     52  C   UNL A   1      43.191  27.832  32.478  1.00  0.00     0.074 A 
ATOM     53  C   UNL A   1      44.019  26.873  31.784  1.00  0.00     0.031 C 
ATOM     54  C   UNL A   1      38.989  29.644  27.960  1.00  0.00     0.029 A 
ATOM     55  C   UNL A   1      39.029  30.065  29.360  1.00  0.00     0.049 A 
ATOM     56  H   UNL A   1      40.424  29.508  30.801  1.00  0.00     0.167 HD
ATOM     57  C   UNL A   1      43.385  28.197  33.765  1.00  0.00     0.037 A 
ATOM     58  C   UNL A   1      38.163  30.902  29.965  1.00  0.00     0.037 A 
ATOM     59  C   UNL A   1      42.547  29.121  34.473  1.00  0.00     0.049 A 
ATOM     60  C   UNL A   1      38.341  31.225  31.429  1.00  0.00     0.074 A 
ATOM     61  C   UNL A   1      42.647  29.545  35.785  1.00  0.00     0.029 A 
ATOM     62  N   UNL A   1      41.441  29.750  33.925  1.00  0.00    -0.354 N 
ATOM     63  N   UNL A   1      39.276  30.827  32.258  1.00  0.00    -0.248 NA
ATOM     64  C   UNL A   1      37.338  32.110  32.041  1.00  0.00     0.031 C 
ATOM     65  C   UNL A   1      41.574  30.403  36.044  1.00  0.00     0.029 A 
ATOM     66  C   UNL A   1      40.834  30.546  34.880  1.00  0.00     0.049 A 
ATOM     67  H   UNL A   1      41.134  29.647  32.996  1.00  0.00     0.167 HD
ATOM     68  C   UNL A   1      38.992  31.434  33.477  1.00  0.00     0.074 A 
ATOM     69  C   UNL A   1      37.800  32.233  33.278  1.00  0.00     0.031 C 
ATOM     70  C   UNL A   1      39.656  31.343  34.655  1.00  0.00     0.037 A 
BRANCH  57  71
ATOM     71  C   UNL A   1      44.528  27.552  34.483  1.00  0.00     0.057 A 
ATOM     72  C   UNL A   1      45.807  28.127  34.496  1.00  0.00     0.134 A 
ATOM     73  C   UNL A   1      44.358  26.329  35.141  1.00  0.00     0.134 A 
ATOM     74  F   UNL A   1      46.040  29.282  33.854  1.00  0.00    -0.206 F 
ATOM     75  C   UNL A   1      46.881  27.495  35.123  1.00  0.00     0.040 A 
ATOM     76  C   UNL A   1      45.418  25.699  35.790  1.00  0.00     0.040 A 
ATOM     77  F   UNL A   1      43.160  25.723  35.152  1.00  0.00    -0.206 F 
ATOM     78  C   UNL A   1      46.686  26.279  35.776  1.00  0.00     0.006 A 
ENDBRANCH  57  71
BRANCH  58  79
ATOM     79  C   UNL A   1      37.027  31.487  29.207  1.00  0.00     0.057 A 
ATOM     80  C   UNL A   1      37.068  32.806  28.741  1.00  0.00     0.134 A 
ATOM     81  C   UNL A   1      35.855  30.757  28.973  1.00  0.00     0.134 A 
ATOM     82  F   UNL A   1      38.150  33.567  28.963  1.00  0.00    -0.206 F 
ATOM     83  C   UNL A   1      35.980  33.385  28.085  1.00  0.00     0.040 A 
ATOM     84  C   UNL A   1      34.768  31.316  28.299  1.00  0.00     0.040 A 
ATOM     85  F   UNL A   1      35.749  29.492  29.403  1.00  0.00    -0.206 F 
ATOM     86  C   UNL A   1      34.826  32.637  27.859  1.00  0.00     0.006 A 
ENDBRANCH  58  79
BRANCH  70  87
ATOM     87  C   UNL A   1      39.141  32.150  35.808  1.00  0.00     0.057 A 
ATOM     88  C   UNL A   1      39.492  33.493  35.985  1.00  0.00     0.134 A 
ATOM     89  C   UNL A   1      38.225  31.593  36.710  1.00  0.00     0.134 A 
ATOM     90  F   UNL A   1      40.370  34.082  35.159  1.00  0.00    -0.206 F 
ATOM     91  C   UNL A   1      38.961  34.252  37.030  1.00  0.00     0.040 A 
ATOM     92  C   UNL A   1      37.670  32.347  37.745  1.00  0.00     0.040 A 
ATOM     93  F   UNL A   1      37.837  30.314  36.586  1.00  0.00    -0.206 F 
ATOM     94  C   UNL A   1      38.042  33.680  37.909  1.00  0.00     0.006 A 
ENDBRANCH  70  87
ENDBRANCH  44  45
ENDBRANCH  37  39
ENDBRANCH  36  37
ENDBRANCH  35  36
ENDBRANCH  34  35
ENDBRANCH  33  34
ENDBRANCH  32  33
ENDBRANCH   1  32
TORSDOF 23
ENDMDL
