MODEL 1
REMARK VINA RESULT:     -10.2      0.000      0.000
REMARK SMILES CC[C@](C)(C(=O)OCCOCCOCCOC(=O)c1ccc(-c2c3nc(c(-c4c(F)cccc4F)c4ccc([nH]4)c(-c4c(F)cccc4F)c4nc(c(-c5c(F)cccc5F)c5ccc2[nH]5)C=C4)C=C3)cc1)n1nnnc1-c1ccco1
REMARK SMILES IDX 11 1 10 2 9 3 8 4 7 5 5 6 6 7 3 8 4 9 2 10 1 11 73 12 74 13
REMARK SMILES IDX 77 14 75 15 76 16 78 17 79 18 82 19 80 20 81 21 12 22 13 23
REMARK SMILES IDX 14 24 15 25 16 26 17 27 18 28 19 29 20 30 72 31 21 32 71 33
REMARK SMILES IDX 22 34 23 35 24 36 65 37 25 38 70 39 64 40 66 41 26 42 69 43
REMARK SMILES IDX 63 44 62 45 27 47 53 48 36 49 52 50 37 51 40 52 51 53 67 54
REMARK SMILES IDX 38 55 39 56 50 58 68 59 41 60 28 61 29 62 34 63 30 64 31 65
REMARK SMILES IDX 33 66 35 67 32 68 54 69 55 70 60 71 56 72 57 73 59 74 61 75
REMARK SMILES IDX 58 76 42 77 43 78 48 79 44 80 45 81 47 82 49 83 46 84
REMARK H PARENT 66 46 40 57
REMARK Flexibility Score: inf
ROOT
ATOM      1  C   UNL A   1      38.535  21.815  25.518  1.00  0.00     0.188 C 
ENDROOT
BRANCH   1   2
ATOM      2  O   UNL A   1      37.258  21.510  26.035  1.00  0.00    -0.376 OA
BRANCH   2   3
ATOM      3  C   UNL A   1      36.247  20.998  25.184  1.00  0.00     0.202 C 
BRANCH   3   4
ATOM      4  C   UNL A   1      35.344  21.870  24.290  1.00  0.00     0.261 C 
BRANCH   4   5
ATOM      5  O   UNL A   1      34.333  22.617  24.976  1.00  0.00    -0.461 OA
BRANCH   5   6
ATOM      6  C   UNL A   1      34.575  23.931  25.235  1.00  0.00     0.334 C 
ATOM      7  O   UNL A   1      35.594  24.335  25.780  1.00  0.00    -0.249 OA
BRANCH   6   8
ATOM      8  C   UNL A   1      33.424  24.833  24.740  1.00  0.00     0.161 C 
ATOM      9  C   UNL A   1      33.969  26.290  24.620  1.00  0.00     0.050 C 
BRANCH   8  10
ATOM     10  C   UNL A   1      33.029  24.387  23.306  1.00  0.00     0.039 C 
ATOM     11  C   UNL A   1      33.215  25.451  22.233  1.00  0.00     0.007 C 
ENDBRANCH   8  10
BRANCH   8  12
ATOM     12  N   UNL A   1      32.296  24.705  25.670  1.00  0.00    -0.205 N 
ATOM     13  N   UNL A   1      32.328  23.809  26.684  1.00  0.00    -0.043 NA
ATOM     14  C   UNL A   1      31.079  25.346  25.703  1.00  0.00     0.218 A 
ATOM     15  N   UNL A   1      31.152  23.896  27.286  1.00  0.00    -0.023 NA
ATOM     16  N   UNL A   1      30.358  24.827  26.676  1.00  0.00    -0.105 NA
BRANCH  14  17
ATOM     17  C   UNL A   1      30.620  26.370  24.831  1.00  0.00     0.172 A 
ATOM     18  C   UNL A   1      29.779  26.248  23.739  1.00  0.00     0.054 A 
ATOM     19  O   UNL A   1      30.965  27.686  24.977  1.00  0.00    -0.461 OA
ATOM     20  C   UNL A   1      29.645  27.538  23.172  1.00  0.00     0.043 A 
ATOM     21  C   UNL A   1      30.378  28.381  23.971  1.00  0.00     0.196 A 
ENDBRANCH  14  17
ENDBRANCH   8  12
ENDBRANCH   6   8
ENDBRANCH   5   6
ENDBRANCH   4   5
ENDBRANCH   3   4
ENDBRANCH   2   3
ENDBRANCH   1   2
BRANCH   1  22
ATOM     22  C   UNL A   1      39.690  21.526  26.496  1.00  0.00     0.188 C 
BRANCH  22  23
ATOM     23  O   UNL A   1      40.711  20.605  26.133  1.00  0.00    -0.376 OA
BRANCH  23  24
ATOM     24  C   UNL A   1      42.032  20.839  26.612  1.00  0.00     0.202 C 
BRANCH  24  25
ATOM     25  C   UNL A   1      43.073  21.501  25.696  1.00  0.00     0.261 C 
BRANCH  25  26
ATOM     26  O   UNL A   1      42.635  22.721  25.075  1.00  0.00    -0.460 OA
BRANCH  26  27
ATOM     27  C   UNL A   1      43.474  23.775  25.214  1.00  0.00     0.338 C 
ATOM     28  O   UNL A   1      44.537  23.964  24.629  1.00  0.00    -0.246 OA
BRANCH  27  29
ATOM     29  C   UNL A   1      42.837  24.808  26.048  1.00  0.00     0.060 A 
ATOM     30  C   UNL A   1      43.444  26.070  26.126  1.00  0.00     0.016 A 
ATOM     31  C   UNL A   1      41.685  24.526  26.783  1.00  0.00     0.016 A 
ATOM     32  C   UNL A   1      42.913  27.053  26.956  1.00  0.00     0.010 A 
ATOM     33  C   UNL A   1      41.175  25.502  27.645  1.00  0.00     0.010 A 
ATOM     34  C   UNL A   1      41.805  26.755  27.757  1.00  0.00    -0.014 A 
BRANCH  34  35
ATOM     35  C   UNL A   1      41.435  27.669  28.861  1.00  0.00     0.031 A 
ATOM     36  C   UNL A   1      42.230  27.601  30.135  1.00  0.00     0.074 A 
ATOM     37  C   UNL A   1      40.421  28.542  28.739  1.00  0.00     0.049 A 
ATOM     38  N   UNL A   1      42.042  28.225  31.268  1.00  0.00    -0.248 NA
ATOM     39  C   UNL A   1      43.397  26.703  30.126  1.00  0.00     0.031 C 
ATOM     40  C   UNL A   1      39.624  28.753  27.533  1.00  0.00     0.029 A 
ATOM     41  N   UNL A   1      39.887  29.409  29.658  1.00  0.00    -0.354 N 
ATOM     42  C   UNL A   1      43.061  27.794  32.108  1.00  0.00     0.074 A 
ATOM     43  C   UNL A   1      43.851  26.839  31.363  1.00  0.00     0.031 C 
ATOM     44  C   UNL A   1      38.679  29.674  27.796  1.00  0.00     0.029 A 
ATOM     45  C   UNL A   1      38.791  30.092  29.193  1.00  0.00     0.049 A 
ATOM     46  H   UNL A   1      40.254  29.530  30.563  1.00  0.00     0.167 HD
ATOM     47  C   UNL A   1      43.316  28.163  33.384  1.00  0.00     0.037 A 
ATOM     48  C   UNL A   1      37.962  30.937  29.835  1.00  0.00     0.037 A 
ATOM     49  C   UNL A   1      42.528  29.110  34.124  1.00  0.00     0.049 A 
ATOM     50  C   UNL A   1      38.212  31.262  31.284  1.00  0.00     0.074 A 
ATOM     51  C   UNL A   1      42.709  29.556  35.421  1.00  0.00     0.029 A 
ATOM     52  N   UNL A   1      41.403  29.751  33.631  1.00  0.00    -0.354 N 
ATOM     53  N   UNL A   1      39.179  30.856  32.071  1.00  0.00    -0.248 NA
ATOM     54  C   UNL A   1      37.250  32.164  31.937  1.00  0.00     0.031 C 
ATOM     55  C   UNL A   1      41.665  30.436  35.729  1.00  0.00     0.029 A 
ATOM     56  C   UNL A   1      40.862  30.572  34.608  1.00  0.00     0.049 A 
ATOM     57  H   UNL A   1      41.042  29.641  32.722  1.00  0.00     0.167 HD
ATOM     58  C   UNL A   1      38.963  31.477  33.296  1.00  0.00     0.074 A 
ATOM     59  C   UNL A   1      37.774  32.290  33.148  1.00  0.00     0.031 C 
ATOM     60  C   UNL A   1      39.684  31.383  34.439  1.00  0.00     0.037 A 
BRANCH  47  61
ATOM     61  C   UNL A   1      44.481  27.511  34.066  1.00  0.00     0.057 A 
ATOM     62  C   UNL A   1      45.759  28.081  34.055  1.00  0.00     0.134 A 
ATOM     63  C   UNL A   1      44.314  26.304  34.756  1.00  0.00     0.134 A 
ATOM     64  F   UNL A   1      45.988  29.227  33.395  1.00  0.00    -0.206 F 
ATOM     65  C   UNL A   1      46.838  27.463  34.690  1.00  0.00     0.040 A 
ATOM     66  C   UNL A   1      45.380  25.688  35.414  1.00  0.00     0.040 A 
ATOM     67  F   UNL A   1      43.114  25.706  34.804  1.00  0.00    -0.206 F 
ATOM     68  C   UNL A   1      46.648  26.266  35.378  1.00  0.00     0.006 A 
ENDBRANCH  47  61
BRANCH  48  69
ATOM     69  C   UNL A   1      36.798  31.522  29.124  1.00  0.00     0.057 A 
ATOM     70  C   UNL A   1      35.667  30.752  28.830  1.00  0.00     0.134 A 
ATOM     71  C   UNL A   1      36.803  32.853  28.690  1.00  0.00     0.134 A 
ATOM     72  F   UNL A   1      35.616  29.462  29.193  1.00  0.00    -0.206 F 
ATOM     73  C   UNL A   1      34.590  31.280  28.115  1.00  0.00     0.040 A 
ATOM     74  C   UNL A   1      35.725  33.399  27.994  1.00  0.00     0.040 A 
ATOM     75  F   UNL A   1      37.860  33.642  28.936  1.00  0.00    -0.206 F 
ATOM     76  C   UNL A   1      34.616  32.609  27.698  1.00  0.00     0.006 A 
ENDBRANCH  48  69
BRANCH  60  77
ATOM     77  C   UNL A   1      39.237  32.211  35.608  1.00  0.00     0.057 A 
ATOM     78  C   UNL A   1      38.401  31.693  36.604  1.00  0.00     0.134 A 
ATOM     79  C   UNL A   1      39.689  33.528  35.762  1.00  0.00     0.134 A 
ATOM     80  F   UNL A   1      37.924  30.442  36.510  1.00  0.00    -0.206 F 
ATOM     81  C   UNL A   1      38.015  32.461  37.703  1.00  0.00     0.040 A 
ATOM     82  C   UNL A   1      39.331  34.298  36.869  1.00  0.00     0.040 A 
ATOM     83  F   UNL A   1      40.501  34.081  34.849  1.00  0.00    -0.206 F 
ATOM     84  C   UNL A   1      38.487  33.766  37.841  1.00  0.00     0.006 A 
ENDBRANCH  60  77
ENDBRANCH  34  35
ENDBRANCH  27  29
ENDBRANCH  26  27
ENDBRANCH  25  26
ENDBRANCH  24  25
ENDBRANCH  23  24
ENDBRANCH  22  23
ENDBRANCH   1  22
TORSDOF 20
ENDMDL
MODEL 2
REMARK VINA RESULT:     -10.1      4.128      9.424
REMARK SMILES CC[C@](C)(C(=O)OCCOCCOCCOC(=O)c1ccc(-c2c3nc(c(-c4c(F)cccc4F)c4ccc([nH]4)c(-c4c(F)cccc4F)c4nc(c(-c5c(F)cccc5F)c5ccc2[nH]5)C=C4)C=C3)cc1)n1nnnc1-c1ccco1
REMARK SMILES IDX 11 1 10 2 9 3 8 4 7 5 5 6 6 7 3 8 4 9 2 10 1 11 73 12 74 13
REMARK SMILES IDX 77 14 75 15 76 16 78 17 79 18 82 19 80 20 81 21 12 22 13 23
REMARK SMILES IDX 14 24 15 25 16 26 17 27 18 28 19 29 20 30 72 31 21 32 71 33
REMARK SMILES IDX 22 34 23 35 24 36 65 37 25 38 70 39 64 40 66 41 26 42 69 43
REMARK SMILES IDX 63 44 62 45 27 47 53 48 36 49 52 50 37 51 40 52 51 53 67 54
REMARK SMILES IDX 38 55 39 56 50 58 68 59 41 60 28 61 29 62 34 63 30 64 31 65
REMARK SMILES IDX 33 66 35 67 32 68 54 69 55 70 60 71 56 72 57 73 59 74 61 75
REMARK SMILES IDX 58 76 42 77 43 78 48 79 44 80 45 81 47 82 49 83 46 84
REMARK H PARENT 66 46 40 57
REMARK Flexibility Score: inf
ROOT
ATOM      1  C   UNL A   1      33.670  31.419  27.821  1.00  0.00     0.188 C 
ENDROOT
BRANCH   1   2
ATOM      2  O   UNL A   1      34.409  30.327  27.318  1.00  0.00    -0.376 OA
BRANCH   2   3
ATOM      3  C   UNL A   1      33.819  29.432  26.390  1.00  0.00     0.202 C 
BRANCH   3   4
ATOM      4  C   UNL A   1      34.050  27.909  26.388  1.00  0.00     0.261 C 
BRANCH   4   5
ATOM      5  O   UNL A   1      33.089  27.141  25.656  1.00  0.00    -0.461 OA
BRANCH   5   6
ATOM      6  C   UNL A   1      33.435  25.882  25.270  1.00  0.00     0.334 C 
ATOM      7  O   UNL A   1      34.533  25.387  25.491  1.00  0.00    -0.249 OA
BRANCH   6   8
ATOM      8  C   UNL A   1      32.274  25.165  24.549  1.00  0.00     0.161 C 
ATOM      9  C   UNL A   1      31.660  26.158  23.514  1.00  0.00     0.050 C 
BRANCH   8  10
ATOM     10  C   UNL A   1      32.860  23.980  23.733  1.00  0.00     0.039 C 
ATOM     11  C   UNL A   1      31.832  23.179  22.944  1.00  0.00     0.007 C 
ENDBRANCH   8  10
BRANCH   8  12
ATOM     12  N   UNL A   1      31.314  24.699  25.555  1.00  0.00    -0.205 N 
ATOM     13  N   UNL A   1      30.142  25.349  25.751  1.00  0.00    -0.043 NA
ATOM     14  C   UNL A   1      31.382  23.658  26.452  1.00  0.00     0.218 A 
ATOM     15  N   UNL A   1      29.543  24.728  26.756  1.00  0.00    -0.023 NA
ATOM     16  N   UNL A   1      30.309  23.694  27.216  1.00  0.00    -0.105 NA
BRANCH  14  17
ATOM     17  C   UNL A   1      32.430  22.710  26.594  1.00  0.00     0.172 A 
ATOM     18  C   UNL A   1      33.583  22.817  27.352  1.00  0.00     0.054 A 
ATOM     19  O   UNL A   1      32.426  21.493  25.967  1.00  0.00    -0.461 OA
ATOM     20  C   UNL A   1      34.330  21.634  27.140  1.00  0.00     0.043 A 
ATOM     21  C   UNL A   1      33.576  20.854  26.298  1.00  0.00     0.196 A 
ENDBRANCH  14  17
ENDBRANCH   8  12
ENDBRANCH   6   8
ENDBRANCH   5   6
ENDBRANCH   4   5
ENDBRANCH   3   4
ENDBRANCH   2   3
ENDBRANCH   1   2
BRANCH   1  22
ATOM     22  C   UNL A   1      34.485  32.721  27.939  1.00  0.00     0.188 C 
BRANCH  22  23
ATOM     23  O   UNL A   1      33.956  33.823  28.666  1.00  0.00    -0.376 OA
BRANCH  23  24
ATOM     24  C   UNL A   1      34.689  34.306  29.788  1.00  0.00     0.202 C 
BRANCH  24  25
ATOM     25  C   UNL A   1      34.304  33.855  31.206  1.00  0.00     0.261 C 
BRANCH  25  26
ATOM     26  O   UNL A   1      34.540  32.463  31.476  1.00  0.00    -0.460 OA
BRANCH  26  27
ATOM     27  C   UNL A   1      35.530  32.206  32.365  1.00  0.00     0.338 C 
ATOM     28  O   UNL A   1      35.531  32.445  33.569  1.00  0.00    -0.246 OA
BRANCH  27  29
ATOM     29  C   UNL A   1      36.575  31.394  31.720  1.00  0.00     0.060 A 
ATOM     30  C   UNL A   1      37.541  30.783  32.533  1.00  0.00     0.016 A 
ATOM     31  C   UNL A   1      36.636  31.275  30.331  1.00  0.00     0.016 A 
ATOM     32  C   UNL A   1      38.586  30.064  31.959  1.00  0.00     0.010 A 
ATOM     33  C   UNL A   1      37.707  30.585  29.756  1.00  0.00     0.010 A 
ATOM     34  C   UNL A   1      38.700  30.005  30.567  1.00  0.00    -0.014 A 
BRANCH  34  35
ATOM     35  C   UNL A   1      39.961  29.527  29.956  1.00  0.00     0.031 A 
ATOM     36  C   UNL A   1      41.093  30.504  29.809  1.00  0.00     0.074 A 
ATOM     37  C   UNL A   1      40.103  28.255  29.545  1.00  0.00     0.049 A 
ATOM     38  N   UNL A   1      42.254  30.352  29.226  1.00  0.00    -0.248 NA
ATOM     39  C   UNL A   1      40.885  31.836  30.403  1.00  0.00     0.031 C 
ATOM     40  C   UNL A   1      39.107  27.198  29.698  1.00  0.00     0.029 A 
ATOM     41  N   UNL A   1      41.151  27.648  28.901  1.00  0.00    -0.354 N 
ATOM     42  C   UNL A   1      42.911  31.567  29.377  1.00  0.00     0.074 A 
ATOM     43  C   UNL A   1      42.014  32.452  30.086  1.00  0.00     0.031 C 
ATOM     44  C   UNL A   1      39.582  26.072  29.135  1.00  0.00     0.029 A 
ATOM     45  C   UNL A   1      40.900  26.342  28.561  1.00  0.00     0.049 A 
ATOM     46  H   UNL A   1      42.001  28.104  28.702  1.00  0.00     0.167 HD
ATOM     47  C   UNL A   1      44.152  31.912  28.964  1.00  0.00     0.037 A 
ATOM     48  C   UNL A   1      41.643  25.477  27.845  1.00  0.00     0.037 A 
ATOM     49  C   UNL A   1      45.042  31.033  28.256  1.00  0.00     0.049 A 
ATOM     50  C   UNL A   1      42.984  25.914  27.314  1.00  0.00     0.074 A 
ATOM     51  C   UNL A   1      46.323  31.286  27.800  1.00  0.00     0.029 A 
ATOM     52  N   UNL A   1      44.737  29.730  27.896  1.00  0.00    -0.354 N 
ATOM     53  N   UNL A   1      43.602  27.060  27.465  1.00  0.00    -0.248 NA
ATOM     54  C   UNL A   1      43.731  24.933  26.511  1.00  0.00     0.031 C 
ATOM     55  C   UNL A   1      46.777  30.148  27.123  1.00  0.00     0.029 A 
ATOM     56  C   UNL A   1      45.796  29.173  27.199  1.00  0.00     0.049 A 
ATOM     57  H   UNL A   1      43.892  29.268  28.104  1.00  0.00     0.167 HD
ATOM     58  C   UNL A   1      44.820  26.928  26.807  1.00  0.00     0.074 A 
ATOM     59  C   UNL A   1      44.854  25.588  26.259  1.00  0.00     0.031 C 
ATOM     60  C   UNL A   1      45.818  27.833  26.671  1.00  0.00     0.037 A 
BRANCH  47  61
ATOM     61  C   UNL A   1      44.602  33.314  29.242  1.00  0.00     0.057 A 
ATOM     62  C   UNL A   1      45.340  33.642  30.386  1.00  0.00     0.134 A 
ATOM     63  C   UNL A   1      44.304  34.346  28.344  1.00  0.00     0.134 A 
ATOM     64  F   UNL A   1      45.641  32.701  31.294  1.00  0.00    -0.206 F 
ATOM     65  C   UNL A   1      45.750  34.952  30.637  1.00  0.00     0.040 A 
ATOM     66  C   UNL A   1      44.728  35.657  28.573  1.00  0.00     0.040 A 
ATOM     67  F   UNL A   1      43.600  34.099  27.230  1.00  0.00    -0.206 F 
ATOM     68  C   UNL A   1      45.450  35.963  29.725  1.00  0.00     0.006 A 
ENDBRANCH  47  61
BRANCH  48  69
ATOM     69  C   UNL A   1      41.132  24.113  27.561  1.00  0.00     0.057 A 
ATOM     70  C   UNL A   1      40.114  23.901  26.625  1.00  0.00     0.134 A 
ATOM     71  C   UNL A   1      41.623  22.994  28.245  1.00  0.00     0.134 A 
ATOM     72  F   UNL A   1      39.581  24.938  25.961  1.00  0.00    -0.206 F 
ATOM     73  C   UNL A   1      39.589  22.628  26.391  1.00  0.00     0.040 A 
ATOM     74  C   UNL A   1      41.124  21.713  28.005  1.00  0.00     0.040 A 
ATOM     75  F   UNL A   1      42.596  23.131  29.159  1.00  0.00    -0.206 F 
ATOM     76  C   UNL A   1      40.098  21.529  27.080  1.00  0.00     0.006 A 
ENDBRANCH  48  69
BRANCH  60  77
ATOM     77  C   UNL A   1      47.052  27.395  25.937  1.00  0.00     0.057 A 
ATOM     78  C   UNL A   1      47.193  27.570  24.555  1.00  0.00     0.134 A 
ATOM     79  C   UNL A   1      48.132  26.836  26.632  1.00  0.00     0.134 A 
ATOM     80  F   UNL A   1      46.190  28.089  23.830  1.00  0.00    -0.206 F 
ATOM     81  C   UNL A   1      48.356  27.187  23.887  1.00  0.00     0.040 A 
ATOM     82  C   UNL A   1      49.311  26.473  25.980  1.00  0.00     0.040 A 
ATOM     83  F   UNL A   1      48.067  26.652  27.959  1.00  0.00    -0.206 F 
ATOM     84  C   UNL A   1      49.423  26.644  24.601  1.00  0.00     0.006 A 
ENDBRANCH  60  77
ENDBRANCH  34  35
ENDBRANCH  27  29
ENDBRANCH  26  27
ENDBRANCH  25  26
ENDBRANCH  24  25
ENDBRANCH  23  24
ENDBRANCH  22  23
ENDBRANCH   1  22
TORSDOF 20
ENDMDL
MODEL 3
REMARK VINA RESULT:     -10.1      1.402      6.453
REMARK SMILES CC[C@](C)(C(=O)OCCOCCOCCOC(=O)c1ccc(-c2c3nc(c(-c4c(F)cccc4F)c4ccc([nH]4)c(-c4c(F)cccc4F)c4nc(c(-c5c(F)cccc5F)c5ccc2[nH]5)C=C4)C=C3)cc1)n1nnnc1-c1ccco1
REMARK SMILES IDX 11 1 10 2 9 3 8 4 7 5 5 6 6 7 3 8 4 9 2 10 1 11 73 12 74 13
REMARK SMILES IDX 77 14 75 15 76 16 78 17 79 18 82 19 80 20 81 21 12 22 13 23
REMARK SMILES IDX 14 24 15 25 16 26 17 27 18 28 19 29 20 30 72 31 21 32 71 33
REMARK SMILES IDX 22 34 23 35 24 36 65 37 25 38 70 39 64 40 66 41 26 42 69 43
REMARK SMILES IDX 63 44 62 45 27 47 53 48 36 49 52 50 37 51 40 52 51 53 67 54
REMARK SMILES IDX 38 55 39 56 50 58 68 59 41 60 28 61 29 62 34 63 30 64 31 65
REMARK SMILES IDX 33 66 35 67 32 68 54 69 55 70 60 71 56 72 57 73 59 74 61 75
REMARK SMILES IDX 58 76 42 77 43 78 48 79 44 80 45 81 47 82 49 83 46 84
REMARK H PARENT 66 46 40 57
REMARK Flexibility Score: inf
ROOT
ATOM      1  C   UNL A   1      39.830  21.411  26.084  1.00  0.00     0.188 C 
ENDROOT
BRANCH   1   2
ATOM      2  O   UNL A   1      38.548  21.997  26.025  1.00  0.00    -0.376 OA
BRANCH   2   3
ATOM      3  C   UNL A   1      37.595  21.537  25.083  1.00  0.00     0.202 C 
BRANCH   3   4
ATOM      4  C   UNL A   1      36.069  21.624  25.281  1.00  0.00     0.261 C 
BRANCH   4   5
ATOM      5  O   UNL A   1      35.499  22.927  25.113  1.00  0.00    -0.461 OA
BRANCH   5   6
ATOM      6  C   UNL A   1      34.636  23.374  26.065  1.00  0.00     0.334 C 
ATOM      7  O   UNL A   1      34.740  23.101  27.253  1.00  0.00    -0.249 OA
BRANCH   6   8
ATOM      8  C   UNL A   1      33.537  24.276  25.462  1.00  0.00     0.161 C 
ATOM      9  C   UNL A   1      33.837  25.749  25.881  1.00  0.00     0.050 C 
BRANCH   8  10
ATOM     10  C   UNL A   1      33.650  24.223  23.914  1.00  0.00     0.039 C 
ATOM     11  C   UNL A   1      33.666  25.583  23.228  1.00  0.00     0.007 C 
ENDBRANCH   8  10
BRANCH   8  12
ATOM     12  N   UNL A   1      32.230  23.792  25.920  1.00  0.00    -0.205 N 
ATOM     13  N   UNL A   1      31.374  24.611  26.575  1.00  0.00    -0.043 NA
ATOM     14  C   UNL A   1      31.655  22.543  25.847  1.00  0.00     0.218 A 
ATOM     15  N   UNL A   1      30.332  23.864  26.904  1.00  0.00    -0.023 NA
ATOM     16  N   UNL A   1      30.501  22.576  26.481  1.00  0.00    -0.105 NA
BRANCH  14  17
ATOM     17  C   UNL A   1      32.197  21.380  25.236  1.00  0.00     0.172 A 
ATOM     18  C   UNL A   1      32.199  21.042  23.895  1.00  0.00     0.054 A 
ATOM     19  O   UNL A   1      32.833  20.394  25.941  1.00  0.00    -0.461 OA
ATOM     20  C   UNL A   1      32.821  19.775  23.788  1.00  0.00     0.043 A 
ATOM     21  C   UNL A   1      33.201  19.430  25.062  1.00  0.00     0.196 A 
ENDBRANCH  14  17
ENDBRANCH   8  12
ENDBRANCH   6   8
ENDBRANCH   5   6
ENDBRANCH   4   5
ENDBRANCH   3   4
ENDBRANCH   2   3
ENDBRANCH   1   2
BRANCH   1  22
ATOM     22  C   UNL A   1      40.642  21.809  27.332  1.00  0.00     0.188 C 
BRANCH  22  23
ATOM     23  O   UNL A   1      42.057  21.675  27.328  1.00  0.00    -0.376 OA
BRANCH  23  24
ATOM     24  C   UNL A   1      42.692  21.245  26.127  1.00  0.00     0.202 C 
BRANCH  24  25
ATOM     25  C   UNL A   1      43.595  22.216  25.349  1.00  0.00     0.261 C 
BRANCH  25  26
ATOM     26  O   UNL A   1      42.982  23.475  25.024  1.00  0.00    -0.460 OA
BRANCH  26  27
ATOM     27  C   UNL A   1      43.752  24.567  25.243  1.00  0.00     0.338 C 
ATOM     28  O   UNL A   1      44.765  24.900  24.634  1.00  0.00    -0.246 OA
BRANCH  27  29
ATOM     29  C   UNL A   1      43.092  25.450  26.219  1.00  0.00     0.060 A 
ATOM     30  C   UNL A   1      43.740  26.638  26.588  1.00  0.00     0.016 A 
ATOM     31  C   UNL A   1      41.875  25.093  26.801  1.00  0.00     0.016 A 
ATOM     32  C   UNL A   1      43.183  27.467  27.559  1.00  0.00     0.010 A 
ATOM     33  C   UNL A   1      41.337  25.907  27.802  1.00  0.00     0.010 A 
ATOM     34  C   UNL A   1      42.005  27.079  28.204  1.00  0.00    -0.014 A 
BRANCH  34  35
ATOM     35  C   UNL A   1      41.584  27.777  29.440  1.00  0.00     0.031 A 
ATOM     36  C   UNL A   1      40.395  28.693  29.366  1.00  0.00     0.074 A 
ATOM     37  C   UNL A   1      42.235  27.601  30.602  1.00  0.00     0.049 A 
ATOM     38  N   UNL A   1      39.894  29.482  30.281  1.00  0.00    -0.248 NA
ATOM     39  C   UNL A   1      39.673  28.722  28.083  1.00  0.00     0.031 C 
ATOM     40  C   UNL A   1      43.354  26.687  30.817  1.00  0.00     0.029 A 
ATOM     41  N   UNL A   1      42.046  28.203  31.820  1.00  0.00    -0.354 N 
ATOM     42  C   UNL A   1      38.804  30.104  29.684  1.00  0.00     0.074 A 
ATOM     43  C   UNL A   1      38.729  29.619  28.323  1.00  0.00     0.031 C 
ATOM     44  C   UNL A   1      43.773  26.809  32.090  1.00  0.00     0.029 A 
ATOM     45  C   UNL A   1      42.968  27.828  32.764  1.00  0.00     0.049 A 
ATOM     46  H   UNL A   1      41.319  28.841  32.000  1.00  0.00     0.167 HD
ATOM     47  C   UNL A   1      37.943  30.997  30.222  1.00  0.00     0.037 A 
ATOM     48  C   UNL A   1      43.153  28.279  34.020  1.00  0.00     0.037 A 
ATOM     49  C   UNL A   1      38.020  31.481  31.574  1.00  0.00     0.049 A 
ATOM     50  C   UNL A   1      42.238  29.342  34.568  1.00  0.00     0.074 A 
ATOM     51  C   UNL A   1      37.190  32.382  32.217  1.00  0.00     0.029 A 
ATOM     52  N   UNL A   1      38.993  31.107  32.488  1.00  0.00    -0.354 N 
ATOM     53  N   UNL A   1      41.207  29.922  34.001  1.00  0.00    -0.248 NA
ATOM     54  C   UNL A   1      42.514  29.816  35.933  1.00  0.00     0.031 C 
ATOM     55  C   UNL A   1      37.687  32.587  33.509  1.00  0.00     0.029 A 
ATOM     56  C   UNL A   1      38.799  31.778  33.684  1.00  0.00     0.049 A 
ATOM     57  H   UNL A   1      39.714  30.459  32.313  1.00  0.00     0.167 HD
ATOM     58  C   UNL A   1      40.693  30.800  34.949  1.00  0.00     0.074 A 
ATOM     59  C   UNL A   1      41.524  30.674  36.128  1.00  0.00     0.031 C 
ATOM     60  C   UNL A   1      39.629  31.633  34.851  1.00  0.00     0.037 A 
BRANCH  47  61
ATOM     61  C   UNL A   1      36.862  31.530  29.332  1.00  0.00     0.057 A 
ATOM     62  C   UNL A   1      36.914  32.822  28.794  1.00  0.00     0.134 A 
ATOM     63  C   UNL A   1      35.761  30.733  28.998  1.00  0.00     0.134 A 
ATOM     64  F   UNL A   1      37.934  33.641  29.093  1.00  0.00    -0.206 F 
ATOM     65  C   UNL A   1      35.900  33.309  27.970  1.00  0.00     0.040 A 
ATOM     66  C   UNL A   1      34.750  31.201  28.156  1.00  0.00     0.040 A 
ATOM     67  F   UNL A   1      35.650  29.486  29.481  1.00  0.00    -0.206 F 
ATOM     68  C   UNL A   1      34.816  32.495  27.643  1.00  0.00     0.006 A 
ENDBRANCH  47  61
BRANCH  48  69
ATOM     69  C   UNL A   1      44.266  27.748  34.845  1.00  0.00     0.057 A 
ATOM     70  C   UNL A   1      44.092  26.622  35.659  1.00  0.00     0.134 A 
ATOM     71  C   UNL A   1      45.519  28.374  34.869  1.00  0.00     0.134 A 
ATOM     72  F   UNL A   1      42.906  25.999  35.703  1.00  0.00    -0.206 F 
ATOM     73  C   UNL A   1      45.118  26.149  36.480  1.00  0.00     0.040 A 
ATOM     74  C   UNL A   1      46.559  27.897  35.667  1.00  0.00     0.040 A 
ATOM     75  F   UNL A   1      45.748  29.460  34.116  1.00  0.00    -0.206 F 
ATOM     76  C   UNL A   1      46.357  26.785  36.482  1.00  0.00     0.006 A 
ENDBRANCH  48  69
BRANCH  60  77
ATOM     77  C   UNL A   1      39.274  32.444  36.063  1.00  0.00     0.057 A 
ATOM     78  C   UNL A   1      39.795  33.726  36.274  1.00  0.00     0.134 A 
ATOM     79  C   UNL A   1      38.360  31.953  37.004  1.00  0.00     0.134 A 
ATOM     80  F   UNL A   1      40.684  34.248  35.416  1.00  0.00    -0.206 F 
ATOM     81  C   UNL A   1      39.435  34.484  37.389  1.00  0.00     0.040 A 
ATOM     82  C   UNL A   1      37.972  32.711  38.109  1.00  0.00     0.040 A 
ATOM     83  F   UNL A   1      37.815  30.736  36.855  1.00  0.00    -0.206 F 
ATOM     84  C   UNL A   1      38.514  33.980  38.307  1.00  0.00     0.006 A 
ENDBRANCH  60  77
ENDBRANCH  34  35
ENDBRANCH  27  29
ENDBRANCH  26  27
ENDBRANCH  25  26
ENDBRANCH  24  25
ENDBRANCH  23  24
ENDBRANCH  22  23
ENDBRANCH   1  22
TORSDOF 20
ENDMDL
