MODEL 1
REMARK VINA RESULT:     -10.8      0.000      0.000
REMARK SMILES Cn1c(=O)[nH]c(=O)c2c1nc(NC1CCCC1)n2CC(=O)OCCOCCOCCOC(=O)c1ccc(-c2c3nc(c(-c4c(F)cccc4F)c4ccc([nH]4)c(-c4c(F)cccc4F)c4nc(c(-c5c(F)cccc5F)c5ccc2[nH]5)C=C4)C=C3)cc1
REMARK SMILES IDX 26 1 25 2 24 3 23 4 22 5 20 6 21 7 19 8 18 9 1 10 2 11 3 12
REMARK SMILES IDX 9 13 4 14 5 15 8 16 10 17 6 18 11 20 7 21 12 22 13 24 14 25
REMARK SMILES IDX 17 26 15 27 16 28 27 29 28 30 29 31 30 32 31 33 32 34 33 35
REMARK SMILES IDX 34 36 35 37 87 38 36 39 86 40 37 41 38 42 39 43 80 44 40 45
REMARK SMILES IDX 85 46 79 47 81 48 41 49 84 50 78 51 77 52 42 54 68 55 51 56
REMARK SMILES IDX 67 57 52 58 55 59 66 60 82 61 53 62 54 63 65 65 83 66 56 67
REMARK SMILES IDX 43 68 44 69 49 70 45 71 46 72 48 73 50 74 47 75 69 76 70 77
REMARK SMILES IDX 75 78 71 79 72 80 74 81 76 82 73 83 57 84 58 85 63 86 59 87
REMARK SMILES IDX 60 88 62 89 64 90 61 91
REMARK H PARENT 5 19 12 23 81 53 55 64
REMARK Flexibility Score: inf
ROOT
ATOM      1  C   UNL A   1      34.016  32.271  28.129  1.00  0.00     0.188 C 
ENDROOT
BRANCH   1   2
ATOM      2  O   UNL A   1      33.464  31.097  27.539  1.00  0.00    -0.376 OA
BRANCH   2   3
ATOM      3  C   UNL A   1      34.309  29.969  27.342  1.00  0.00     0.202 C 
BRANCH   3   4
ATOM      4  C   UNL A   1      33.744  28.761  26.558  1.00  0.00     0.261 C 
BRANCH   4   5
ATOM      5  O   UNL A   1      32.713  27.981  27.232  1.00  0.00    -0.462 OA
BRANCH   5   6
ATOM      6  C   UNL A   1      32.459  26.733  26.761  1.00  0.00     0.326 C 
ATOM      7  O   UNL A   1      31.334  26.233  26.787  1.00  0.00    -0.250 OA
BRANCH   6   8
ATOM      8  C   UNL A   1      33.579  26.047  25.983  1.00  0.00     0.248 C 
BRANCH   8   9
ATOM      9  N   UNL A   1      33.320  25.033  24.955  1.00  0.00    -0.293 N 
ATOM     10  C   UNL A   1      31.931  21.408  22.499  1.00  0.00     0.157 C 
ATOM     11  N   UNL A   1      32.304  21.868  23.827  1.00  0.00    -0.279 N 
ATOM     12  C   UNL A   1      32.312  21.032  24.929  1.00  0.00     0.329 A 
ATOM     13  C   UNL A   1      32.664  23.177  24.010  1.00  0.00     0.170 A 
ATOM     14  O   UNL A   1      31.993  19.844  24.890  1.00  0.00    -0.248 OA
ATOM     15  N   UNL A   1      32.708  21.595  26.136  1.00  0.00    -0.272 N 
ATOM     16  C   UNL A   1      33.072  23.697  25.202  1.00  0.00     0.154 A 
ATOM     17  N   UNL A   1      32.601  24.103  23.053  1.00  0.00    -0.194 NA
ATOM     18  C   UNL A   1      33.116  22.894  26.367  1.00  0.00     0.279 A 
ATOM     19  H   UNL A   1      32.696  20.997  26.918  1.00  0.00     0.175 HD
ATOM     20  C   UNL A   1      32.958  25.229  23.614  1.00  0.00     0.206 A 
ATOM     21  O   UNL A   1      33.466  23.295  27.477  1.00  0.00    -0.267 OA
BRANCH  20  22
ATOM     22  N   UNL A   1      32.985  26.392  22.937  1.00  0.00    -0.353 N 
ATOM     23  H   UNL A   1      33.847  26.753  22.627  1.00  0.00     0.163 HD
BRANCH  22  24
ATOM     24  C   UNL A   1      31.745  27.132  22.650  1.00  0.00     0.082 C 
ATOM     25  C   UNL A   1      30.542  26.958  23.581  1.00  0.00     0.025 C 
ATOM     26  C   UNL A   1      31.857  28.648  22.575  1.00  0.00     0.025 C 
ATOM     27  C   UNL A   1      29.536  27.951  23.002  1.00  0.00     0.002 C 
ATOM     28  C   UNL A   1      30.391  29.110  22.481  1.00  0.00     0.002 C 
ENDBRANCH  22  24
ENDBRANCH  20  22
ENDBRANCH   8   9
ENDBRANCH   6   8
ENDBRANCH   5   6
ENDBRANCH   4   5
ENDBRANCH   3   4
ENDBRANCH   2   3
ENDBRANCH   1   2
BRANCH   1  29
ATOM     29  C   UNL A   1      33.271  33.616  28.006  1.00  0.00     0.188 C 
BRANCH  29  30
ATOM     30  O   UNL A   1      34.117  34.736  28.106  1.00  0.00    -0.376 OA
BRANCH  30  31
ATOM     31  C   UNL A   1      33.694  35.856  28.841  1.00  0.00     0.202 C 
BRANCH  31  32
ATOM     32  C   UNL A   1      32.860  35.623  30.101  1.00  0.00     0.261 C 
BRANCH  32  33
ATOM     33  O   UNL A   1      33.513  35.858  31.348  1.00  0.00    -0.460 OA
BRANCH  33  34
ATOM     34  C   UNL A   1      32.971  35.121  32.333  1.00  0.00     0.338 C 
ATOM     35  O   UNL A   1      31.784  35.022  32.595  1.00  0.00    -0.246 OA
BRANCH  34  36
ATOM     36  C   UNL A   1      33.988  34.563  33.223  1.00  0.00     0.060 A 
ATOM     37  C   UNL A   1      35.079  35.411  33.440  1.00  0.00     0.016 A 
ATOM     38  C   UNL A   1      34.152  33.201  32.980  1.00  0.00     0.016 A 
ATOM     39  C   UNL A   1      36.313  34.997  33.001  1.00  0.00     0.010 A 
ATOM     40  C   UNL A   1      35.401  32.760  32.621  1.00  0.00     0.010 A 
ATOM     41  C   UNL A   1      36.445  33.685  32.531  1.00  0.00    -0.014 A 
BRANCH  41  42
ATOM     42  C   UNL A   1      37.783  33.213  32.219  1.00  0.00     0.031 A 
ATOM     43  C   UNL A   1      38.654  33.308  33.422  1.00  0.00     0.074 A 
ATOM     44  C   UNL A   1      38.075  32.596  31.056  1.00  0.00     0.049 A 
ATOM     45  N   UNL A   1      39.759  33.961  33.556  1.00  0.00    -0.248 NA
ATOM     46  C   UNL A   1      38.105  32.809  34.706  1.00  0.00     0.031 C 
ATOM     47  C   UNL A   1      37.144  32.295  29.961  1.00  0.00     0.029 A 
ATOM     48  N   UNL A   1      39.216  31.958  30.665  1.00  0.00    -0.354 N 
ATOM     49  C   UNL A   1      40.165  33.719  34.867  1.00  0.00     0.074 A 
ATOM     50  C   UNL A   1      39.020  33.230  35.578  1.00  0.00     0.031 C 
ATOM     51  C   UNL A   1      37.666  31.324  29.180  1.00  0.00     0.029 A 
ATOM     52  C   UNL A   1      39.014  31.039  29.631  1.00  0.00     0.049 A 
ATOM     53  H   UNL A   1      40.097  32.130  31.071  1.00  0.00     0.167 HD
ATOM     54  C   UNL A   1      41.486  33.586  35.156  1.00  0.00     0.037 A 
ATOM     55  C   UNL A   1      39.884  30.066  29.258  1.00  0.00     0.037 A 
ATOM     56  C   UNL A   1      42.294  34.135  34.104  1.00  0.00     0.049 A 
ATOM     57  C   UNL A   1      41.214  30.454  29.777  1.00  0.00     0.074 A 
ATOM     58  C   UNL A   1      42.667  35.392  33.686  1.00  0.00     0.029 A 
ATOM     59  N   UNL A   1      42.473  33.278  33.052  1.00  0.00    -0.354 N 
ATOM     60  N   UNL A   1      41.884  31.483  29.339  1.00  0.00    -0.248 NA
ATOM     61  C   UNL A   1      41.667  29.905  31.052  1.00  0.00     0.031 C 
ATOM     62  C   UNL A   1      42.959  35.279  32.296  1.00  0.00     0.029 A 
ATOM     63  C   UNL A   1      42.814  33.948  31.911  1.00  0.00     0.049 A 
ATOM     64  H   UNL A   1      42.369  32.301  33.110  1.00  0.00     0.167 HD
ATOM     65  C   UNL A   1      42.535  31.962  30.457  1.00  0.00     0.074 A 
ATOM     66  C   UNL A   1      42.514  30.868  31.421  1.00  0.00     0.031 C 
ATOM     67  C   UNL A   1      42.727  33.300  30.624  1.00  0.00     0.037 A 
BRANCH  54  68
ATOM     68  C   UNL A   1      42.026  32.522  36.086  1.00  0.00     0.057 A 
ATOM     69  C   UNL A   1      42.876  32.899  37.138  1.00  0.00     0.134 A 
ATOM     70  C   UNL A   1      41.989  31.136  35.817  1.00  0.00     0.134 A 
ATOM     71  F   UNL A   1      43.037  34.191  37.461  1.00  0.00    -0.206 F 
ATOM     72  C   UNL A   1      43.647  31.969  37.849  1.00  0.00     0.040 A 
ATOM     73  C   UNL A   1      42.710  30.195  36.555  1.00  0.00     0.040 A 
ATOM     74  F   UNL A   1      41.342  30.623  34.763  1.00  0.00    -0.206 F 
ATOM     75  C   UNL A   1      43.562  30.611  37.561  1.00  0.00     0.006 A 
ENDBRANCH  54  68
BRANCH  55  76
ATOM     76  C   UNL A   1      39.630  28.690  28.765  1.00  0.00     0.057 A 
ATOM     77  C   UNL A   1      40.121  28.283  27.512  1.00  0.00     0.134 A 
ATOM     78  C   UNL A   1      39.206  27.663  29.622  1.00  0.00     0.134 A 
ATOM     79  F   UNL A   1      40.565  29.187  26.628  1.00  0.00    -0.206 F 
ATOM     80  C   UNL A   1      40.250  26.932  27.163  1.00  0.00     0.040 A 
ATOM     81  C   UNL A   1      39.323  26.310  29.282  1.00  0.00     0.040 A 
ATOM     82  F   UNL A   1      38.757  27.932  30.857  1.00  0.00    -0.206 F 
ATOM     83  C   UNL A   1      39.871  25.940  28.060  1.00  0.00     0.006 A 
ENDBRANCH  55  76
BRANCH  67  84
ATOM     84  C   UNL A   1      42.689  34.168  29.406  1.00  0.00     0.057 A 
ATOM     85  C   UNL A   1      41.582  34.922  28.995  1.00  0.00     0.134 A 
ATOM     86  C   UNL A   1      43.875  34.324  28.683  1.00  0.00     0.134 A 
ATOM     87  F   UNL A   1      40.425  34.883  29.672  1.00  0.00    -0.206 F 
ATOM     88  C   UNL A   1      41.653  35.783  27.896  1.00  0.00     0.040 A 
ATOM     89  C   UNL A   1      43.970  35.204  27.607  1.00  0.00     0.040 A 
ATOM     90  F   UNL A   1      44.980  33.654  29.046  1.00  0.00    -0.206 F 
ATOM     91  C   UNL A   1      42.855  35.935  27.206  1.00  0.00     0.006 A 
ENDBRANCH  67  84
ENDBRANCH  41  42
ENDBRANCH  34  36
ENDBRANCH  33  34
ENDBRANCH  32  33
ENDBRANCH  31  32
ENDBRANCH  30  31
ENDBRANCH  29  30
ENDBRANCH   1  29
TORSDOF 20
ENDMDL
MODEL 2
REMARK VINA RESULT:     -10.8      1.497      2.823
REMARK SMILES Cn1c(=O)[nH]c(=O)c2c1nc(NC1CCCC1)n2CC(=O)OCCOCCOCCOC(=O)c1ccc(-c2c3nc(c(-c4c(F)cccc4F)c4ccc([nH]4)c(-c4c(F)cccc4F)c4nc(c(-c5c(F)cccc5F)c5ccc2[nH]5)C=C4)C=C3)cc1
REMARK SMILES IDX 26 1 25 2 24 3 23 4 22 5 20 6 21 7 19 8 18 9 1 10 2 11 3 12
REMARK SMILES IDX 9 13 4 14 5 15 8 16 10 17 6 18 11 20 7 21 12 22 13 24 14 25
REMARK SMILES IDX 17 26 15 27 16 28 27 29 28 30 29 31 30 32 31 33 32 34 33 35
REMARK SMILES IDX 34 36 35 37 87 38 36 39 86 40 37 41 38 42 39 43 80 44 40 45
REMARK SMILES IDX 85 46 79 47 81 48 41 49 84 50 78 51 77 52 42 54 68 55 51 56
REMARK SMILES IDX 67 57 52 58 55 59 66 60 82 61 53 62 54 63 65 65 83 66 56 67
REMARK SMILES IDX 43 68 44 69 49 70 45 71 46 72 48 73 50 74 47 75 69 76 70 77
REMARK SMILES IDX 75 78 71 79 72 80 74 81 76 82 73 83 57 84 58 85 63 86 59 87
REMARK SMILES IDX 60 88 62 89 64 90 61 91
REMARK H PARENT 5 19 12 23 81 53 55 64
REMARK Flexibility Score: inf
ROOT
ATOM      1  C   UNL A   1      33.777  31.453  27.641  1.00  0.00     0.188 C 
ENDROOT
BRANCH   1   2
ATOM      2  O   UNL A   1      32.430  31.232  27.234  1.00  0.00    -0.376 OA
BRANCH   2   3
ATOM      3  C   UNL A   1      32.175  30.287  26.201  1.00  0.00     0.202 C 
BRANCH   3   4
ATOM      4  C   UNL A   1      33.218  29.170  25.958  1.00  0.00     0.261 C 
BRANCH   4   5
ATOM      5  O   UNL A   1      33.335  28.684  24.589  1.00  0.00    -0.462 OA
BRANCH   5   6
ATOM      6  C   UNL A   1      33.607  27.366  24.410  1.00  0.00     0.326 C 
ATOM      7  O   UNL A   1      33.717  26.860  23.292  1.00  0.00    -0.250 OA
BRANCH   6   8
ATOM      8  C   UNL A   1      34.002  26.566  25.649  1.00  0.00     0.248 C 
BRANCH   8   9
ATOM      9  N   UNL A   1      33.739  25.130  25.779  1.00  0.00    -0.293 N 
ATOM     10  C   UNL A   1      31.953  20.897  25.833  1.00  0.00     0.157 C 
ATOM     11  N   UNL A   1      31.662  22.310  26.021  1.00  0.00    -0.279 N 
ATOM     12  C   UNL A   1      30.404  22.771  26.361  1.00  0.00     0.329 A 
ATOM     13  C   UNL A   1      32.664  23.231  25.861  1.00  0.00     0.170 A 
ATOM     14  O   UNL A   1      29.425  22.041  26.514  1.00  0.00    -0.248 OA
ATOM     15  N   UNL A   1      30.267  24.143  26.531  1.00  0.00    -0.272 N 
ATOM     16  C   UNL A   1      32.507  24.571  26.058  1.00  0.00     0.154 A 
ATOM     17  N   UNL A   1      33.891  22.925  25.441  1.00  0.00    -0.194 NA
ATOM     18  C   UNL A   1      31.248  25.109  26.420  1.00  0.00     0.279 A 
ATOM     19  H   UNL A   1      29.364  24.465  26.756  1.00  0.00     0.175 HD
ATOM     20  C   UNL A   1      34.537  24.059  25.352  1.00  0.00     0.206 A 
ATOM     21  O   UNL A   1      31.030  26.306  26.606  1.00  0.00    -0.267 OA
BRANCH  20  22
ATOM     22  N   UNL A   1      35.813  24.127  24.928  1.00  0.00    -0.353 N 
ATOM     23  H   UNL A   1      36.047  24.737  24.192  1.00  0.00     0.163 HD
BRANCH  22  24
ATOM     24  C   UNL A   1      36.863  23.305  25.550  1.00  0.00     0.082 C 
ATOM     25  C   UNL A   1      37.494  22.167  24.744  1.00  0.00     0.025 C 
ATOM     26  C   UNL A   1      38.096  24.040  26.057  1.00  0.00     0.025 C 
ATOM     27  C   UNL A   1      38.576  21.654  25.693  1.00  0.00     0.002 C 
ATOM     28  C   UNL A   1      39.060  22.901  26.439  1.00  0.00     0.002 C 
ENDBRANCH  22  24
ENDBRANCH  20  22
ENDBRANCH   8   9
ENDBRANCH   6   8
ENDBRANCH   5   6
ENDBRANCH   4   5
ENDBRANCH   3   4
ENDBRANCH   2   3
ENDBRANCH   1   2
BRANCH   1  29
ATOM     29  C   UNL A   1      34.153  32.754  28.380  1.00  0.00     0.188 C 
BRANCH  29  30
ATOM     30  O   UNL A   1      33.286  33.827  28.101  1.00  0.00    -0.376 OA
BRANCH  30  31
ATOM     31  C   UNL A   1      33.653  35.127  28.485  1.00  0.00     0.202 C 
BRANCH  31  32
ATOM     32  C   UNL A   1      33.105  35.676  29.802  1.00  0.00     0.261 C 
BRANCH  32  33
ATOM     33  O   UNL A   1      32.888  34.727  30.846  1.00  0.00    -0.460 OA
BRANCH  33  34
ATOM     34  C   UNL A   1      32.815  35.326  32.047  1.00  0.00     0.338 C 
ATOM     35  O   UNL A   1      32.145  36.306  32.329  1.00  0.00    -0.246 OA
BRANCH  34  36
ATOM     36  C   UNL A   1      33.795  34.787  32.988  1.00  0.00     0.060 A 
ATOM     37  C   UNL A   1      34.871  35.644  33.240  1.00  0.00     0.016 A 
ATOM     38  C   UNL A   1      33.977  33.422  32.772  1.00  0.00     0.016 A 
ATOM     39  C   UNL A   1      36.126  35.230  32.862  1.00  0.00     0.010 A 
ATOM     40  C   UNL A   1      35.243  32.983  32.475  1.00  0.00     0.010 A 
ATOM     41  C   UNL A   1      36.285  33.913  32.416  1.00  0.00    -0.014 A 
BRANCH  41  42
ATOM     42  C   UNL A   1      37.637  33.444  32.170  1.00  0.00     0.031 A 
ATOM     43  C   UNL A   1      38.461  33.585  33.402  1.00  0.00     0.074 A 
ATOM     44  C   UNL A   1      37.978  32.794  31.039  1.00  0.00     0.049 A 
ATOM     45  N   UNL A   1      39.554  34.252  33.556  1.00  0.00    -0.248 NA
ATOM     46  C   UNL A   1      37.868  33.120  34.678  1.00  0.00     0.031 C 
ATOM     47  C   UNL A   1      37.092  32.451  29.919  1.00  0.00     0.029 A 
ATOM     48  N   UNL A   1      39.139  32.156  30.711  1.00  0.00    -0.354 N 
ATOM     49  C   UNL A   1      39.913  34.054  34.888  1.00  0.00     0.074 A 
ATOM     50  C   UNL A   1      38.746  33.576  35.570  1.00  0.00     0.031 C 
ATOM     51  C   UNL A   1      37.651  31.461  29.189  1.00  0.00     0.029 A 
ATOM     52  C   UNL A   1      38.983  31.203  29.699  1.00  0.00     0.049 A 
ATOM     53  H   UNL A   1      40.002  32.349  31.144  1.00  0.00     0.167 HD
ATOM     54  C   UNL A   1      41.223  33.942  35.231  1.00  0.00     0.037 A 
ATOM     55  C   UNL A   1      39.875  30.228  29.390  1.00  0.00     0.037 A 
ATOM     56  C   UNL A   1      42.066  34.466  34.194  1.00  0.00     0.049 A 
ATOM     57  C   UNL A   1      41.181  30.644  29.945  1.00  0.00     0.074 A 
ATOM     58  C   UNL A   1      42.444  35.714  33.751  1.00  0.00     0.029 A 
ATOM     59  N   UNL A   1      42.292  33.579  33.176  1.00  0.00    -0.354 N 
ATOM     60  N   UNL A   1      41.858  31.665  29.501  1.00  0.00    -0.248 NA
ATOM     61  C   UNL A   1      41.590  30.138  31.253  1.00  0.00     0.031 C 
ATOM     62  C   UNL A   1      42.790  35.560  32.378  1.00  0.00     0.029 A 
ATOM     63  C   UNL A   1      42.670  34.217  32.029  1.00  0.00     0.049 A 
ATOM     64  H   UNL A   1      42.193  32.604  33.260  1.00  0.00     0.167 HD
ATOM     65  C   UNL A   1      42.463  32.184  30.628  1.00  0.00     0.074 A 
ATOM     66  C   UNL A   1      42.415  31.121  31.624  1.00  0.00     0.031 C 
ATOM     67  C   UNL A   1      42.637  33.529  30.760  1.00  0.00     0.037 A 
BRANCH  54  68
ATOM     68  C   UNL A   1      41.736  32.913  36.213  1.00  0.00     0.057 A 
ATOM     69  C   UNL A   1      42.468  33.339  37.333  1.00  0.00     0.134 A 
ATOM     70  C   UNL A   1      41.798  31.526  35.953  1.00  0.00     0.134 A 
ATOM     71  F   UNL A   1      42.529  34.639  37.659  1.00  0.00    -0.206 F 
ATOM     72  C   UNL A   1      43.223  32.455  38.117  1.00  0.00     0.040 A 
ATOM     73  C   UNL A   1      42.503  30.628  36.759  1.00  0.00     0.040 A 
ATOM     74  F   UNL A   1      41.277  30.975  34.851  1.00  0.00    -0.206 F 
ATOM     75  C   UNL A   1      43.238  31.094  37.833  1.00  0.00     0.006 A 
ENDBRANCH  54  68
BRANCH  55  76
ATOM     76  C   UNL A   1      39.651  28.835  28.930  1.00  0.00     0.057 A 
ATOM     77  C   UNL A   1      40.215  28.386  27.723  1.00  0.00     0.134 A 
ATOM     78  C   UNL A   1      39.178  27.837  29.796  1.00  0.00     0.134 A 
ATOM     79  F   UNL A   1      40.710  29.260  26.836  1.00  0.00    -0.206 F 
ATOM     80  C   UNL A   1      40.366  27.024  27.428  1.00  0.00     0.040 A 
ATOM     81  C   UNL A   1      39.316  26.474  29.510  1.00  0.00     0.040 A 
ATOM     82  F   UNL A   1      38.657  28.147  30.992  1.00  0.00    -0.206 F 
ATOM     83  C   UNL A   1      39.935  26.063  28.335  1.00  0.00     0.006 A 
ENDBRANCH  55  76
BRANCH  67  84
ATOM     84  C   UNL A   1      42.638  34.358  29.515  1.00  0.00     0.057 A 
ATOM     85  C   UNL A   1      43.711  34.457  28.620  1.00  0.00     0.134 A 
ATOM     86  C   UNL A   1      41.447  34.998  29.160  1.00  0.00     0.134 A 
ATOM     87  F   UNL A   1      44.868  33.821  28.851  1.00  0.00    -0.206 F 
ATOM     88  C   UNL A   1      43.603  35.181  27.429  1.00  0.00     0.040 A 
ATOM     89  C   UNL A   1      41.314  35.693  27.960  1.00  0.00     0.040 A 
ATOM     90  F   UNL A   1      40.371  34.913  29.959  1.00  0.00    -0.206 F 
ATOM     91  C   UNL A   1      42.396  35.791  27.090  1.00  0.00     0.006 A 
ENDBRANCH  67  84
ENDBRANCH  41  42
ENDBRANCH  34  36
ENDBRANCH  33  34
ENDBRANCH  32  33
ENDBRANCH  31  32
ENDBRANCH  30  31
ENDBRANCH  29  30
ENDBRANCH   1  29
TORSDOF 20
ENDMDL
MODEL 3
REMARK VINA RESULT:     -10.7      2.261      6.442
REMARK SMILES Cn1c(=O)[nH]c(=O)c2c1nc(NC1CCCC1)n2CC(=O)OCCOCCOCCOC(=O)c1ccc(-c2c3nc(c(-c4c(F)cccc4F)c4ccc([nH]4)c(-c4c(F)cccc4F)c4nc(c(-c5c(F)cccc5F)c5ccc2[nH]5)C=C4)C=C3)cc1
REMARK SMILES IDX 26 1 25 2 24 3 23 4 22 5 20 6 21 7 19 8 18 9 1 10 2 11 3 12
REMARK SMILES IDX 9 13 4 14 5 15 8 16 10 17 6 18 11 20 7 21 12 22 13 24 14 25
REMARK SMILES IDX 17 26 15 27 16 28 27 29 28 30 29 31 30 32 31 33 32 34 33 35
REMARK SMILES IDX 34 36 35 37 87 38 36 39 86 40 37 41 38 42 39 43 80 44 40 45
REMARK SMILES IDX 85 46 79 47 81 48 41 49 84 50 78 51 77 52 42 54 68 55 51 56
REMARK SMILES IDX 67 57 52 58 55 59 66 60 82 61 53 62 54 63 65 65 83 66 56 67
REMARK SMILES IDX 43 68 44 69 49 70 45 71 46 72 48 73 50 74 47 75 69 76 70 77
REMARK SMILES IDX 75 78 71 79 72 80 74 81 76 82 73 83 57 84 58 85 63 86 59 87
REMARK SMILES IDX 60 88 62 89 64 90 61 91
REMARK H PARENT 5 19 12 23 81 53 55 64
REMARK Flexibility Score: inf
ROOT
ATOM      1  C   UNL A   1      30.685  28.967  23.004  1.00  0.00     0.188 C 
ENDROOT
BRANCH   1   2
ATOM      2  O   UNL A   1      30.280  27.603  22.955  1.00  0.00    -0.376 OA
BRANCH   2   3
ATOM      3  C   UNL A   1      29.603  27.050  24.079  1.00  0.00     0.202 C 
BRANCH   3   4
ATOM      4  C   UNL A   1      29.950  25.603  24.502  1.00  0.00     0.261 C 
BRANCH   4   5
ATOM      5  O   UNL A   1      30.243  25.398  25.915  1.00  0.00    -0.462 OA
BRANCH   5   6
ATOM      6  C   UNL A   1      30.489  24.128  26.330  1.00  0.00     0.326 C 
ATOM      7  O   UNL A   1      29.874  23.606  27.261  1.00  0.00    -0.250 OA
BRANCH   6   8
ATOM      8  C   UNL A   1      31.402  23.278  25.450  1.00  0.00     0.248 C 
BRANCH   8   9
ATOM      9  N   UNL A   1      32.858  23.249  25.620  1.00  0.00    -0.293 N 
ATOM     10  C   UNL A   1      37.367  22.384  25.430  1.00  0.00     0.157 C 
ATOM     11  N   UNL A   1      36.040  21.793  25.345  1.00  0.00    -0.279 N 
ATOM     12  C   UNL A   1      35.842  20.441  25.127  1.00  0.00     0.329 A 
ATOM     13  C   UNL A   1      34.936  22.591  25.484  1.00  0.00     0.170 A 
ATOM     14  O   UNL A   1      36.755  19.631  24.971  1.00  0.00    -0.248 OA
ATOM     15  N   UNL A   1      34.524  20.003  25.088  1.00  0.00    -0.272 N 
ATOM     16  C   UNL A   1      33.654  22.131  25.465  1.00  0.00     0.154 A 
ATOM     17  N   UNL A   1      34.992  23.918  25.598  1.00  0.00    -0.194 NA
ATOM     18  C   UNL A   1      33.379  20.756  25.259  1.00  0.00     0.279 A 
ATOM     19  H   UNL A   1      34.391  19.043  24.917  1.00  0.00     0.175 HD
ATOM     20  C   UNL A   1      33.752  24.331  25.644  1.00  0.00     0.206 A 
ATOM     21  O   UNL A   1      32.249  20.270  25.222  1.00  0.00    -0.267 OA
BRANCH  20  22
ATOM     22  N   UNL A   1      33.431  25.635  25.735  1.00  0.00    -0.353 N 
ATOM     23  H   UNL A   1      33.258  26.031  26.619  1.00  0.00     0.163 HD
BRANCH  22  24
ATOM     24  C   UNL A   1      33.336  26.477  24.532  1.00  0.00     0.082 C 
ATOM     25  C   UNL A   1      34.184  27.750  24.444  1.00  0.00     0.025 C 
ATOM     26  C   UNL A   1      33.652  25.808  23.202  1.00  0.00     0.025 C 
ATOM     27  C   UNL A   1      33.873  28.253  23.036  1.00  0.00     0.002 C 
ATOM     28  C   UNL A   1      33.670  26.981  22.205  1.00  0.00     0.002 C 
ENDBRANCH  22  24
ENDBRANCH  20  22
ENDBRANCH   8   9
ENDBRANCH   6   8
ENDBRANCH   5   6
ENDBRANCH   4   5
ENDBRANCH   3   4
ENDBRANCH   2   3
ENDBRANCH   1   2
BRANCH   1  29
ATOM     29  C   UNL A   1      30.443  29.795  24.284  1.00  0.00     0.188 C 
BRANCH  29  30
ATOM     30  O   UNL A   1      31.615  30.032  25.027  1.00  0.00    -0.376 OA
BRANCH  30  31
ATOM     31  C   UNL A   1      31.513  30.565  26.322  1.00  0.00     0.202 C 
BRANCH  31  32
ATOM     32  C   UNL A   1      32.797  30.763  27.129  1.00  0.00     0.261 C 
BRANCH  32  33
ATOM     33  O   UNL A   1      33.510  31.978  26.901  1.00  0.00    -0.460 OA
BRANCH  33  34
ATOM     34  C   UNL A   1      32.967  33.001  27.583  1.00  0.00     0.338 C 
ATOM     35  O   UNL A   1      31.862  33.485  27.406  1.00  0.00    -0.246 OA
BRANCH  34  36
ATOM     36  C   UNL A   1      33.933  33.635  28.480  1.00  0.00     0.060 A 
ATOM     37  C   UNL A   1      35.037  34.188  27.824  1.00  0.00     0.016 A 
ATOM     38  C   UNL A   1      34.068  32.892  29.652  1.00  0.00     0.016 A 
ATOM     39  C   UNL A   1      36.276  33.656  28.090  1.00  0.00     0.010 A 
ATOM     40  C   UNL A   1      35.318  32.425  29.973  1.00  0.00     0.010 A 
ATOM     41  C   UNL A   1      36.390  32.722  29.126  1.00  0.00    -0.014 A 
BRANCH  41  42
ATOM     42  C   UNL A   1      37.725  32.288  29.498  1.00  0.00     0.031 A 
ATOM     43  C   UNL A   1      37.903  30.846  29.179  1.00  0.00     0.074 A 
ATOM     44  C   UNL A   1      38.684  33.158  29.875  1.00  0.00     0.049 A 
ATOM     45  N   UNL A   1      38.212  29.885  29.982  1.00  0.00    -0.248 NA
ATOM     46  C   UNL A   1      37.450  30.378  27.848  1.00  0.00     0.031 C 
ATOM     47  C   UNL A   1      38.564  34.620  29.963  1.00  0.00     0.029 A 
ATOM     48  N   UNL A   1      40.014  32.951  30.104  1.00  0.00    -0.354 N 
ATOM     49  C   UNL A   1      38.251  28.744  29.183  1.00  0.00     0.074 A 
ATOM     50  C   UNL A   1      37.550  29.056  27.973  1.00  0.00     0.031 C 
ATOM     51  C   UNL A   1      39.796  35.174  29.952  1.00  0.00     0.029 A 
ATOM     52  C   UNL A   1      40.784  34.114  30.002  1.00  0.00     0.049 A 
ATOM     53  H   UNL A   1      40.393  32.069  30.321  1.00  0.00     0.167 HD
ATOM     54  C   UNL A   1      39.171  27.774  29.426  1.00  0.00     0.037 A 
ATOM     55  C   UNL A   1      42.135  34.158  29.879  1.00  0.00     0.037 A 
ATOM     56  C   UNL A   1      39.703  27.899  30.753  1.00  0.00     0.049 A 
ATOM     57  C   UNL A   1      42.655  32.856  30.353  1.00  0.00     0.074 A 
ATOM     58  C   UNL A   1      39.278  27.605  32.030  1.00  0.00     0.029 A 
ATOM     59  N   UNL A   1      40.704  28.827  30.854  1.00  0.00    -0.354 N 
ATOM     60  N   UNL A   1      42.591  32.467  31.596  1.00  0.00    -0.248 NA
ATOM     61  C   UNL A   1      42.935  31.807  29.378  1.00  0.00     0.031 C 
ATOM     62  C   UNL A   1      39.982  28.491  32.897  1.00  0.00     0.029 A 
ATOM     63  C   UNL A   1      40.858  29.263  32.139  1.00  0.00     0.049 A 
ATOM     64  H   UNL A   1      41.245  29.141  30.094  1.00  0.00     0.167 HD
ATOM     65  C   UNL A   1      42.394  31.104  31.511  1.00  0.00     0.074 A 
ATOM     66  C   UNL A   1      42.791  30.733  30.159  1.00  0.00     0.031 C 
ATOM     67  C   UNL A   1      41.611  30.462  32.423  1.00  0.00     0.037 A 
BRANCH  54  68
ATOM     68  C   UNL A   1      39.952  27.082  28.331  1.00  0.00     0.057 A 
ATOM     69  C   UNL A   1      40.729  27.852  27.451  1.00  0.00     0.134 A 
ATOM     70  C   UNL A   1      39.742  25.745  27.927  1.00  0.00     0.134 A 
ATOM     71  F   UNL A   1      40.961  29.150  27.698  1.00  0.00    -0.206 F 
ATOM     72  C   UNL A   1      41.235  27.336  26.250  1.00  0.00     0.040 A 
ATOM     73  C   UNL A   1      40.286  25.206  26.759  1.00  0.00     0.040 A 
ATOM     74  F   UNL A   1      38.913  24.917  28.574  1.00  0.00    -0.206 F 
ATOM     75  C   UNL A   1      41.017  26.008  25.902  1.00  0.00     0.006 A 
ENDBRANCH  54  68
BRANCH  55  76
ATOM     76  C   UNL A   1      42.998  35.089  29.113  1.00  0.00     0.057 A 
ATOM     77  C   UNL A   1      44.312  35.354  29.539  1.00  0.00     0.134 A 
ATOM     78  C   UNL A   1      42.689  35.474  27.799  1.00  0.00     0.134 A 
ATOM     79  F   UNL A   1      44.710  35.010  30.771  1.00  0.00    -0.206 F 
ATOM     80  C   UNL A   1      45.280  35.898  28.685  1.00  0.00     0.040 A 
ATOM     81  C   UNL A   1      43.645  36.025  26.938  1.00  0.00     0.040 A 
ATOM     82  F   UNL A   1      41.479  35.235  27.273  1.00  0.00    -0.206 F 
ATOM     83  C   UNL A   1      44.953  36.215  27.371  1.00  0.00     0.006 A 
ENDBRANCH  55  76
BRANCH  67  84
ATOM     84  C   UNL A   1      41.396  31.124  33.747  1.00  0.00     0.057 A 
ATOM     85  C   UNL A   1      42.310  31.105  34.809  1.00  0.00     0.134 A 
ATOM     86  C   UNL A   1      40.250  31.909  33.903  1.00  0.00     0.134 A 
ATOM     87  F   UNL A   1      43.465  30.432  34.718  1.00  0.00    -0.206 F 
ATOM     88  C   UNL A   1      42.078  31.826  35.984  1.00  0.00     0.040 A 
ATOM     89  C   UNL A   1      40.022  32.660  35.054  1.00  0.00     0.040 A 
ATOM     90  F   UNL A   1      39.352  31.995  32.909  1.00  0.00    -0.206 F 
ATOM     91  C   UNL A   1      40.936  32.617  36.104  1.00  0.00     0.006 A 
ENDBRANCH  67  84
ENDBRANCH  41  42
ENDBRANCH  34  36
ENDBRANCH  33  34
ENDBRANCH  32  33
ENDBRANCH  31  32
ENDBRANCH  30  31
ENDBRANCH  29  30
ENDBRANCH   1  29
TORSDOF 20
ENDMDL
