MODEL 1
REMARK VINA RESULT:     -11.5      0.000      0.000
REMARK SMILES C[C@@H](C(=O)OCCOCCOCCOC(=O)c1ccc(-c2c3nc(c(-c4c(F)cccc4F)c4ccc([nH]4)c(-c4c(F)cccc4F)c4nc(c(-c5c(F)cccc5F)c5ccc2[nH]5)C=C4)C=C3)cc1)c1ccc(C[C@H]2CCC[C@H]2O)cc1-c1ccc(O)cc1
REMARK SMILES IDX 9 1 8 2 7 3 6 4 5 5 3 6 4 7 2 8 1 9 71 10 72 11 83 12 73 13
REMARK SMILES IDX 82 14 74 15 84 16 85 17 90 18 86 19 89 20 87 21 88 22 75 24
REMARK SMILES IDX 76 25 77 26 80 27 78 28 79 29 81 30 10 32 11 33 12 34 13 35
REMARK SMILES IDX 14 36 15 37 16 38 17 39 18 40 70 41 19 42 69 43 20 44 21 45
REMARK SMILES IDX 22 46 63 47 23 48 68 49 62 50 64 51 24 52 67 53 61 54 60 55
REMARK SMILES IDX 25 57 51 58 34 59 50 60 35 61 38 62 49 63 65 64 36 65 37 66
REMARK SMILES IDX 48 68 66 69 39 70 26 71 27 72 32 73 28 74 29 75 31 76 33 77
REMARK SMILES IDX 30 78 52 79 53 80 58 81 54 82 55 83 57 84 59 85 56 86 40 87
REMARK SMILES IDX 41 88 46 89 42 90 43 91 45 92 47 93 44 94
REMARK H PARENT 88 23 81 31 64 56 38 67
REMARK Flexibility Score: inf
ROOT
ATOM      1  C   UNL A   1      40.587  19.985  26.146  1.00  0.00     0.188 C 
ENDROOT
BRANCH   1   2
ATOM      2  O   UNL A   1      39.471  20.739  26.574  1.00  0.00    -0.376 OA
BRANCH   2   3
ATOM      3  C   UNL A   1      39.526  22.136  26.391  1.00  0.00     0.202 C 
BRANCH   3   4
ATOM      4  C   UNL A   1      38.334  22.869  25.744  1.00  0.00     0.261 C 
BRANCH   4   5
ATOM      5  O   UNL A   1      36.974  22.509  26.043  1.00  0.00    -0.463 OA
BRANCH   5   6
ATOM      6  C   UNL A   1      36.102  22.491  25.002  1.00  0.00     0.313 C 
ATOM      7  O   UNL A   1      36.473  22.243  23.861  1.00  0.00    -0.252 OA
BRANCH   6   8
ATOM      8  C   UNL A   1      34.655  22.882  25.405  1.00  0.00     0.127 C 
ATOM      9  C   UNL A   1      34.575  23.331  26.874  1.00  0.00     0.025 C 
BRANCH   8  10
ATOM     10  C   UNL A   1      33.668  21.757  25.033  1.00  0.00    -0.026 A 
ATOM     11  C   UNL A   1      33.672  20.533  25.731  1.00  0.00     0.005 A 
ATOM     12  C   UNL A   1      32.840  21.862  23.883  1.00  0.00    -0.014 A 
ATOM     13  C   UNL A   1      33.095  19.390  25.174  1.00  0.00     0.004 A 
ATOM     14  C   UNL A   1      32.316  20.692  23.318  1.00  0.00     0.012 A 
ATOM     15  C   UNL A   1      32.588  19.447  23.878  1.00  0.00    -0.047 A 
BRANCH  12  16
ATOM     16  C   UNL A   1      32.494  23.135  23.241  1.00  0.00    -0.018 A 
ATOM     17  C   UNL A   1      33.308  23.604  22.202  1.00  0.00     0.012 A 
ATOM     18  C   UNL A   1      31.414  23.933  23.649  1.00  0.00     0.012 A 
ATOM     19  C   UNL A   1      32.997  24.783  21.530  1.00  0.00     0.047 A 
ATOM     20  C   UNL A   1      31.063  25.082  22.943  1.00  0.00     0.047 A 
ATOM     21  C   UNL A   1      31.852  25.486  21.875  1.00  0.00     0.115 A 
BRANCH  21  22
ATOM     22  O   UNL A   1      31.529  26.583  21.135  1.00  0.00    -0.508 OA
ATOM     23  H   UNL A   1      31.027  26.487  20.349  1.00  0.00     0.293 HD
ENDBRANCH  21  22
ENDBRANCH  12  16
BRANCH  15  24
ATOM     24  C   UNL A   1      32.604  18.225  22.994  1.00  0.00     0.041 C 
BRANCH  24  25
ATOM     25  C   UNL A   1      33.500  17.080  23.535  1.00  0.00     0.022 C 
ATOM     26  C   UNL A   1      34.786  17.472  24.274  1.00  0.00     0.007 C 
ATOM     27  C   UNL A   1      32.862  16.023  24.453  1.00  0.00     0.117 C 
ATOM     28  C   UNL A   1      35.238  16.209  24.996  1.00  0.00     0.003 C 
ATOM     29  C   UNL A   1      33.960  15.488  25.367  1.00  0.00     0.032 C 
BRANCH  27  30
ATOM     30  O   UNL A   1      31.828  16.448  25.316  1.00  0.00    -0.393 OA
ATOM     31  H   UNL A   1      32.204  16.688  26.177  1.00  0.00     0.210 HD
ENDBRANCH  27  30
ENDBRANCH  24  25
ENDBRANCH  15  24
ENDBRANCH   8  10
ENDBRANCH   6   8
ENDBRANCH   5   6
ENDBRANCH   4   5
ENDBRANCH   3   4
ENDBRANCH   2   3
ENDBRANCH   1   2
BRANCH   1  32
ATOM     32  C   UNL A   1      41.899  20.781  26.175  1.00  0.00     0.188 C 
BRANCH  32  33
ATOM     33  O   UNL A   1      43.000  20.359  25.377  1.00  0.00    -0.376 OA
BRANCH  33  34
ATOM     34  C   UNL A   1      44.189  21.134  25.383  1.00  0.00     0.202 C 
BRANCH  34  35
ATOM     35  C   UNL A   1      44.335  22.300  24.387  1.00  0.00     0.261 C 
BRANCH  35  36
ATOM     36  O   UNL A   1      43.564  23.491  24.648  1.00  0.00    -0.460 OA
BRANCH  36  37
ATOM     37  C   UNL A   1      44.271  24.563  25.093  1.00  0.00     0.338 C 
ATOM     38  O   UNL A   1      45.323  24.975  24.639  1.00  0.00    -0.246 OA
BRANCH  37  39
ATOM     39  C   UNL A   1      43.519  25.292  26.151  1.00  0.00     0.060 A 
ATOM     40  C   UNL A   1      43.677  26.678  26.222  1.00  0.00     0.016 A 
ATOM     41  C   UNL A   1      42.729  24.648  27.112  1.00  0.00     0.016 A 
ATOM     42  C   UNL A   1      43.053  27.408  27.242  1.00  0.00     0.010 A 
ATOM     43  C   UNL A   1      42.114  25.388  28.150  1.00  0.00     0.010 A 
ATOM     44  C   UNL A   1      42.260  26.780  28.228  1.00  0.00    -0.014 A 
BRANCH  44  45
ATOM     45  C   UNL A   1      41.742  27.611  29.372  1.00  0.00     0.031 A 
ATOM     46  C   UNL A   1      42.626  27.770  30.571  1.00  0.00     0.074 A 
ATOM     47  C   UNL A   1      40.551  28.252  29.391  1.00  0.00     0.049 A 
ATOM     48  N   UNL A   1      42.410  28.449  31.667  1.00  0.00    -0.248 NA
ATOM     49  C   UNL A   1      43.869  26.986  30.572  1.00  0.00     0.031 C 
ATOM     50  C   UNL A   1      39.487  28.066  28.427  1.00  0.00     0.029 A 
ATOM     51  N   UNL A   1      40.045  29.240  30.216  1.00  0.00    -0.354 N 
ATOM     52  C   UNL A   1      43.438  28.099  32.525  1.00  0.00     0.074 A 
ATOM     53  C   UNL A   1      44.314  27.204  31.798  1.00  0.00     0.031 C 
ATOM     54  C   UNL A   1      38.573  29.040  28.558  1.00  0.00     0.029 A 
ATOM     55  C   UNL A   1      38.898  29.843  29.727  1.00  0.00     0.049 A 
ATOM     56  H   UNL A   1      40.461  29.491  31.073  1.00  0.00     0.167 HD
ATOM     57  C   UNL A   1      43.589  28.427  33.829  1.00  0.00     0.037 A 
ATOM     58  C   UNL A   1      38.168  30.887  30.180  1.00  0.00     0.037 A 
ATOM     59  C   UNL A   1      42.688  29.272  34.566  1.00  0.00     0.049 A 
ATOM     60  C   UNL A   1      38.443  31.361  31.581  1.00  0.00     0.074 A 
ATOM     61  C   UNL A   1      42.742  29.629  35.901  1.00  0.00     0.029 A 
ATOM     62  N   UNL A   1      41.563  29.886  34.033  1.00  0.00    -0.354 N 
ATOM     63  N   UNL A   1      39.398  30.990  32.397  1.00  0.00    -0.248 NA
ATOM     64  C   UNL A   1      37.479  32.302  32.172  1.00  0.00     0.031 C 
ATOM     65  C   UNL A   1      41.633  30.435  36.185  1.00  0.00     0.029 A 
ATOM     66  C   UNL A   1      40.919  30.627  35.013  1.00  0.00     0.049 A 
ATOM     67  H   UNL A   1      41.265  29.808  33.098  1.00  0.00     0.167 HD
ATOM     68  C   UNL A   1      39.117  31.595  33.612  1.00  0.00     0.074 A 
ATOM     69  C   UNL A   1      37.946  32.425  33.407  1.00  0.00     0.031 C 
ATOM     70  C   UNL A   1      39.746  31.435  34.802  1.00  0.00     0.037 A 
BRANCH  57  71
ATOM     71  C   UNL A   1      44.720  27.753  34.544  1.00  0.00     0.057 A 
ATOM     72  C   UNL A   1      44.546  26.562  35.259  1.00  0.00     0.134 A 
ATOM     73  C   UNL A   1      45.983  28.357  34.585  1.00  0.00     0.134 A 
ATOM     74  F   UNL A   1      43.348  25.958  35.291  1.00  0.00    -0.206 F 
ATOM     75  C   UNL A   1      45.577  26.017  36.025  1.00  0.00     0.040 A 
ATOM     76  C   UNL A   1      47.031  27.805  35.322  1.00  0.00     0.040 A 
ATOM     77  F   UNL A   1      46.212  29.508  33.933  1.00  0.00    -0.206 F 
ATOM     78  C   UNL A   1      46.824  26.640  36.056  1.00  0.00     0.006 A 
ENDBRANCH  57  71
BRANCH  58  79
ATOM     79  C   UNL A   1      37.066  31.514  29.380  1.00  0.00     0.057 A 
ATOM     80  C   UNL A   1      35.848  30.838  29.188  1.00  0.00     0.134 A 
ATOM     81  C   UNL A   1      37.185  32.764  28.760  1.00  0.00     0.134 A 
ATOM     82  F   UNL A   1      35.671  29.609  29.697  1.00  0.00    -0.206 F 
ATOM     83  C   UNL A   1      34.802  31.381  28.432  1.00  0.00     0.040 A 
ATOM     84  C   UNL A   1      36.131  33.342  28.042  1.00  0.00     0.040 A 
ATOM     85  F   UNL A   1      38.331  33.455  28.840  1.00  0.00    -0.206 F 
ATOM     86  C   UNL A   1      34.936  32.649  27.873  1.00  0.00     0.006 A 
ENDBRANCH  58  79
BRANCH  70  87
ATOM     87  C   UNL A   1      39.176  32.181  35.970  1.00  0.00     0.057 A 
ATOM     88  C   UNL A   1      38.235  31.601  36.831  1.00  0.00     0.134 A 
ATOM     89  C   UNL A   1      39.586  33.491  36.243  1.00  0.00     0.134 A 
ATOM     90  F   UNL A   1      37.790  30.354  36.614  1.00  0.00    -0.206 F 
ATOM     91  C   UNL A   1      37.703  32.308  37.911  1.00  0.00     0.040 A 
ATOM     92  C   UNL A   1      39.079  34.200  37.333  1.00  0.00     0.040 A 
ATOM     93  F   UNL A   1      40.487  34.099  35.458  1.00  0.00    -0.206 F 
ATOM     94  C   UNL A   1      38.130  33.611  38.166  1.00  0.00     0.006 A 
ENDBRANCH  70  87
ENDBRANCH  44  45
ENDBRANCH  37  39
ENDBRANCH  36  37
ENDBRANCH  35  36
ENDBRANCH  34  35
ENDBRANCH  33  34
ENDBRANCH  32  33
ENDBRANCH   1  32
TORSDOF 23
ENDMDL
MODEL 2
REMARK VINA RESULT:     -11.5      1.101      3.703
REMARK SMILES C[C@@H](C(=O)OCCOCCOCCOC(=O)c1ccc(-c2c3nc(c(-c4c(F)cccc4F)c4ccc([nH]4)c(-c4c(F)cccc4F)c4nc(c(-c5c(F)cccc5F)c5ccc2[nH]5)C=C4)C=C3)cc1)c1ccc(C[C@H]2CCC[C@H]2O)cc1-c1ccc(O)cc1
REMARK SMILES IDX 9 1 8 2 7 3 6 4 5 5 3 6 4 7 2 8 1 9 71 10 72 11 83 12 73 13
REMARK SMILES IDX 82 14 74 15 84 16 85 17 90 18 86 19 89 20 87 21 88 22 75 24
REMARK SMILES IDX 76 25 77 26 80 27 78 28 79 29 81 30 10 32 11 33 12 34 13 35
REMARK SMILES IDX 14 36 15 37 16 38 17 39 18 40 70 41 19 42 69 43 20 44 21 45
REMARK SMILES IDX 22 46 63 47 23 48 68 49 62 50 64 51 24 52 67 53 61 54 60 55
REMARK SMILES IDX 25 57 51 58 34 59 50 60 35 61 38 62 49 63 65 64 36 65 37 66
REMARK SMILES IDX 48 68 66 69 39 70 26 71 27 72 32 73 28 74 29 75 31 76 33 77
REMARK SMILES IDX 30 78 52 79 53 80 58 81 54 82 55 83 57 84 59 85 56 86 40 87
REMARK SMILES IDX 41 88 46 89 42 90 43 91 45 92 47 93 44 94
REMARK H PARENT 88 23 81 31 64 56 38 67
REMARK Flexibility Score: inf
ROOT
ATOM      1  C   UNL A   1      40.552  21.116  27.317  1.00  0.00     0.188 C 
ENDROOT
BRANCH   1   2
ATOM      2  O   UNL A   1      39.856  22.169  26.680  1.00  0.00    -0.376 OA
BRANCH   2   3
ATOM      3  C   UNL A   1      38.879  21.814  25.728  1.00  0.00     0.202 C 
BRANCH   3   4
ATOM      4  C   UNL A   1      37.391  22.085  26.024  1.00  0.00     0.261 C 
BRANCH   4   5
ATOM      5  O   UNL A   1      36.740  23.288  25.575  1.00  0.00    -0.463 OA
BRANCH   5   6
ATOM      6  C   UNL A   1      35.418  23.194  25.279  1.00  0.00     0.313 C 
ATOM      7  O   UNL A   1      34.556  23.457  26.109  1.00  0.00    -0.252 OA
BRANCH   6   8
ATOM      8  C   UNL A   1      35.145  22.661  23.847  1.00  0.00     0.127 C 
ATOM      9  C   UNL A   1      36.340  22.908  22.910  1.00  0.00     0.025 C 
BRANCH   8  10
ATOM     10  C   UNL A   1      33.803  23.205  23.315  1.00  0.00    -0.026 A 
ATOM     11  C   UNL A   1      33.714  24.499  22.768  1.00  0.00     0.005 A 
ATOM     12  C   UNL A   1      32.595  22.481  23.505  1.00  0.00    -0.014 A 
ATOM     13  C   UNL A   1      32.482  25.148  22.661  1.00  0.00     0.004 A 
ATOM     14  C   UNL A   1      31.377  23.169  23.440  1.00  0.00     0.012 A 
ATOM     15  C   UNL A   1      31.344  24.536  23.181  1.00  0.00    -0.047 A 
BRANCH  12  16
ATOM     16  C   UNL A   1      32.542  21.038  23.768  1.00  0.00    -0.018 A 
ATOM     17  C   UNL A   1      32.218  20.177  22.712  1.00  0.00     0.012 A 
ATOM     18  C   UNL A   1      32.752  20.480  25.039  1.00  0.00     0.012 A 
ATOM     19  C   UNL A   1      32.199  18.797  22.899  1.00  0.00     0.047 A 
ATOM     20  C   UNL A   1      32.794  19.099  25.219  1.00  0.00     0.047 A 
ATOM     21  C   UNL A   1      32.533  18.269  24.137  1.00  0.00     0.115 A 
BRANCH  21  22
ATOM     22  O   UNL A   1      32.595  16.913  24.257  1.00  0.00    -0.508 OA
ATOM     23  H   UNL A   1      33.421  16.475  24.193  1.00  0.00     0.293 HD
ENDBRANCH  21  22
ENDBRANCH  12  16
BRANCH  15  24
ATOM     24  C   UNL A   1      30.208  25.366  23.724  1.00  0.00     0.041 C 
BRANCH  24  25
ATOM     25  C   UNL A   1      30.594  26.209  24.968  1.00  0.00     0.022 C 
ATOM     26  C   UNL A   1      31.823  25.766  25.773  1.00  0.00     0.007 C 
ATOM     27  C   UNL A   1      30.803  27.723  24.790  1.00  0.00     0.117 C 
ATOM     28  C   UNL A   1      32.171  26.952  26.663  1.00  0.00     0.003 C 
ATOM     29  C   UNL A   1      31.797  28.176  25.855  1.00  0.00     0.032 C 
BRANCH  27  30
ATOM     30  O   UNL A   1      31.341  28.167  23.561  1.00  0.00    -0.393 OA
ATOM     31  H   UNL A   1      32.136  28.696  23.729  1.00  0.00     0.210 HD
ENDBRANCH  27  30
ENDBRANCH  24  25
ENDBRANCH  15  24
ENDBRANCH   8  10
ENDBRANCH   6   8
ENDBRANCH   5   6
ENDBRANCH   4   5
ENDBRANCH   3   4
ENDBRANCH   2   3
ENDBRANCH   1   2
BRANCH   1  32
ATOM     32  C   UNL A   1      41.658  20.509  26.444  1.00  0.00     0.188 C 
BRANCH  32  33
ATOM     33  O   UNL A   1      42.975  21.048  26.493  1.00  0.00    -0.376 OA
BRANCH  33  34
ATOM     34  C   UNL A   1      43.844  20.840  25.390  1.00  0.00     0.202 C 
BRANCH  34  35
ATOM     35  C   UNL A   1      44.283  22.045  24.537  1.00  0.00     0.261 C 
BRANCH  35  36
ATOM     36  O   UNL A   1      43.525  23.264  24.678  1.00  0.00    -0.460 OA
BRANCH  36  37
ATOM     37  C   UNL A   1      44.230  24.350  25.092  1.00  0.00     0.338 C 
ATOM     38  O   UNL A   1      45.274  24.759  24.619  1.00  0.00    -0.246 OA
BRANCH  37  39
ATOM     39  C   UNL A   1      43.484  25.097  26.143  1.00  0.00     0.060 A 
ATOM     40  C   UNL A   1      43.657  26.481  26.203  1.00  0.00     0.016 A 
ATOM     41  C   UNL A   1      42.683  24.469  27.108  1.00  0.00     0.016 A 
ATOM     42  C   UNL A   1      43.040  27.227  27.216  1.00  0.00     0.010 A 
ATOM     43  C   UNL A   1      42.076  25.224  28.138  1.00  0.00     0.010 A 
ATOM     44  C   UNL A   1      42.237  26.616  28.205  1.00  0.00    -0.014 A 
BRANCH  44  45
ATOM     45  C   UNL A   1      41.727  27.461  29.342  1.00  0.00     0.031 A 
ATOM     46  C   UNL A   1      42.616  27.632  30.535  1.00  0.00     0.074 A 
ATOM     47  C   UNL A   1      40.538  28.107  29.358  1.00  0.00     0.049 A 
ATOM     48  N   UNL A   1      42.406  28.324  31.624  1.00  0.00    -0.248 NA
ATOM     49  C   UNL A   1      43.856  26.844  30.540  1.00  0.00     0.031 C 
ATOM     50  C   UNL A   1      39.469  27.913  28.400  1.00  0.00     0.029 A 
ATOM     51  N   UNL A   1      40.038  29.106  30.173  1.00  0.00    -0.354 N 
ATOM     52  C   UNL A   1      43.437  27.981  32.482  1.00  0.00     0.074 A 
ATOM     53  C   UNL A   1      44.307  27.075  31.762  1.00  0.00     0.031 C 
ATOM     54  C   UNL A   1      38.559  28.892  28.523  1.00  0.00     0.029 A 
ATOM     55  C   UNL A   1      38.891  29.707  29.682  1.00  0.00     0.049 A 
ATOM     56  H   UNL A   1      40.458  29.366  31.025  1.00  0.00     0.167 HD
ATOM     57  C   UNL A   1      43.594  28.324  33.781  1.00  0.00     0.037 A 
ATOM     58  C   UNL A   1      38.167  30.759  30.124  1.00  0.00     0.037 A 
ATOM     59  C   UNL A   1      42.699  29.180  34.512  1.00  0.00     0.049 A 
ATOM     60  C   UNL A   1      38.449  31.248  31.519  1.00  0.00     0.074 A 
ATOM     61  C   UNL A   1      42.759  29.552  35.842  1.00  0.00     0.029 A 
ATOM     62  N   UNL A   1      41.573  29.792  33.976  1.00  0.00    -0.354 N 
ATOM     63  N   UNL A   1      39.406  30.883  32.336  1.00  0.00    -0.248 NA
ATOM     64  C   UNL A   1      37.490  32.199  32.103  1.00  0.00     0.031 C 
ATOM     65  C   UNL A   1      41.654  30.366  36.121  1.00  0.00     0.029 A 
ATOM     66  C   UNL A   1      40.936  30.547  34.950  1.00  0.00     0.049 A 
ATOM     67  H   UNL A   1      41.272  29.703  33.043  1.00  0.00     0.167 HD
ATOM     68  C   UNL A   1      39.131  31.504  33.544  1.00  0.00     0.074 A 
ATOM     69  C   UNL A   1      37.963  32.335  33.335  1.00  0.00     0.031 C 
ATOM     70  C   UNL A   1      39.764  31.356  34.733  1.00  0.00     0.037 A 
BRANCH  57  71
ATOM     71  C   UNL A   1      44.726  27.655  34.500  1.00  0.00     0.057 A 
ATOM     72  C   UNL A   1      44.574  26.419  35.140  1.00  0.00     0.134 A 
ATOM     73  C   UNL A   1      45.960  28.304  34.622  1.00  0.00     0.134 A 
ATOM     74  F   UNL A   1      43.402  25.768  35.093  1.00  0.00    -0.206 F 
ATOM     75  C   UNL A   1      45.599  25.871  35.913  1.00  0.00     0.040 A 
ATOM     76  C   UNL A   1      47.003  27.752  35.366  1.00  0.00     0.040 A 
ATOM     77  F   UNL A   1      46.165  29.498  34.044  1.00  0.00    -0.206 F 
ATOM     78  C   UNL A   1      46.818  26.539  36.025  1.00  0.00     0.006 A 
ENDBRANCH  57  71
BRANCH  58  79
ATOM     79  C   UNL A   1      37.063  31.380  29.321  1.00  0.00     0.057 A 
ATOM     80  C   UNL A   1      35.862  30.685  29.100  1.00  0.00     0.134 A 
ATOM     81  C   UNL A   1      37.167  32.643  28.727  1.00  0.00     0.134 A 
ATOM     82  F   UNL A   1      35.701  29.443  29.584  1.00  0.00    -0.206 F 
ATOM     83  C   UNL A   1      34.816  31.223  28.341  1.00  0.00     0.040 A 
ATOM     84  C   UNL A   1      36.112  33.215  28.005  1.00  0.00     0.040 A 
ATOM     85  F   UNL A   1      38.298  33.354  28.835  1.00  0.00    -0.206 F 
ATOM     86  C   UNL A   1      34.933  32.503  27.807  1.00  0.00     0.006 A 
ENDBRANCH  58  79
BRANCH  70  87
ATOM     87  C   UNL A   1      39.202  32.117  35.895  1.00  0.00     0.057 A 
ATOM     88  C   UNL A   1      38.263  31.550  36.767  1.00  0.00     0.134 A 
ATOM     89  C   UNL A   1      39.615  33.429  36.150  1.00  0.00     0.134 A 
ATOM     90  F   UNL A   1      37.814  30.301  36.567  1.00  0.00    -0.206 F 
ATOM     91  C   UNL A   1      37.738  32.272  37.841  1.00  0.00     0.040 A 
ATOM     92  C   UNL A   1      39.116  34.153  37.233  1.00  0.00     0.040 A 
ATOM     93  F   UNL A   1      40.514  34.026  35.353  1.00  0.00    -0.206 F 
ATOM     94  C   UNL A   1      38.169  33.576  38.078  1.00  0.00     0.006 A 
ENDBRANCH  70  87
ENDBRANCH  44  45
ENDBRANCH  37  39
ENDBRANCH  36  37
ENDBRANCH  35  36
ENDBRANCH  34  35
ENDBRANCH  33  34
ENDBRANCH  32  33
ENDBRANCH   1  32
TORSDOF 23
ENDMDL
MODEL 3
REMARK VINA RESULT:     -11.5      0.476      6.003
REMARK SMILES C[C@@H](C(=O)OCCOCCOCCOC(=O)c1ccc(-c2c3nc(c(-c4c(F)cccc4F)c4ccc([nH]4)c(-c4c(F)cccc4F)c4nc(c(-c5c(F)cccc5F)c5ccc2[nH]5)C=C4)C=C3)cc1)c1ccc(C[C@H]2CCC[C@H]2O)cc1-c1ccc(O)cc1
REMARK SMILES IDX 9 1 8 2 7 3 6 4 5 5 3 6 4 7 2 8 1 9 71 10 72 11 83 12 73 13
REMARK SMILES IDX 82 14 74 15 84 16 85 17 90 18 86 19 89 20 87 21 88 22 75 24
REMARK SMILES IDX 76 25 77 26 80 27 78 28 79 29 81 30 10 32 11 33 12 34 13 35
REMARK SMILES IDX 14 36 15 37 16 38 17 39 18 40 70 41 19 42 69 43 20 44 21 45
REMARK SMILES IDX 22 46 63 47 23 48 68 49 62 50 64 51 24 52 67 53 61 54 60 55
REMARK SMILES IDX 25 57 51 58 34 59 50 60 35 61 38 62 49 63 65 64 36 65 37 66
REMARK SMILES IDX 48 68 66 69 39 70 26 71 27 72 32 73 28 74 29 75 31 76 33 77
REMARK SMILES IDX 30 78 52 79 53 80 58 81 54 82 55 83 57 84 59 85 56 86 40 87
REMARK SMILES IDX 41 88 46 89 42 90 43 91 45 92 47 93 44 94
REMARK H PARENT 88 23 81 31 64 56 38 67
REMARK Flexibility Score: inf
ROOT
ATOM      1  C   UNL A   1      40.453  20.938  26.381  1.00  0.00     0.188 C 
ENDROOT
BRANCH   1   2
ATOM      2  O   UNL A   1      39.604  21.822  27.085  1.00  0.00    -0.376 OA
BRANCH   2   3
ATOM      3  C   UNL A   1      39.353  23.080  26.501  1.00  0.00     0.202 C 
BRANCH   3   4
ATOM      4  C   UNL A   1      37.957  23.390  25.926  1.00  0.00     0.261 C 
BRANCH   4   5
ATOM      5  O   UNL A   1      36.978  22.356  25.723  1.00  0.00    -0.463 OA
BRANCH   5   6
ATOM      6  C   UNL A   1      36.069  22.559  24.735  1.00  0.00     0.313 C 
ATOM      7  O   UNL A   1      36.389  22.521  23.553  1.00  0.00    -0.252 OA
BRANCH   6   8
ATOM      8  C   UNL A   1      34.651  22.906  25.265  1.00  0.00     0.127 C 
ATOM      9  C   UNL A   1      34.681  23.301  26.752  1.00  0.00     0.025 C 
BRANCH   8  10
ATOM     10  C   UNL A   1      33.657  21.775  24.931  1.00  0.00    -0.026 A 
ATOM     11  C   UNL A   1      33.654  20.576  25.670  1.00  0.00     0.005 A 
ATOM     12  C   UNL A   1      32.830  21.847  23.778  1.00  0.00    -0.014 A 
ATOM     13  C   UNL A   1      33.071  19.418  25.151  1.00  0.00     0.004 A 
ATOM     14  C   UNL A   1      32.299  20.661  23.253  1.00  0.00     0.012 A 
ATOM     15  C   UNL A   1      32.563  19.435  23.854  1.00  0.00    -0.047 A 
BRANCH  12  16
ATOM     16  C   UNL A   1      32.491  23.100  23.094  1.00  0.00    -0.018 A 
ATOM     17  C   UNL A   1      31.351  23.801  23.508  1.00  0.00     0.012 A 
ATOM     18  C   UNL A   1      33.226  23.608  22.012  1.00  0.00     0.012 A 
ATOM     19  C   UNL A   1      31.012  25.018  22.922  1.00  0.00     0.047 A 
ATOM     20  C   UNL A   1      32.928  24.853  21.462  1.00  0.00     0.047 A 
ATOM     21  C   UNL A   1      31.829  25.555  21.938  1.00  0.00     0.115 A 
BRANCH  21  22
ATOM     22  O   UNL A   1      31.518  26.790  21.455  1.00  0.00    -0.508 OA
ATOM     23  H   UNL A   1      32.179  27.453  21.403  1.00  0.00     0.293 HD
ENDBRANCH  21  22
ENDBRANCH  12  16
BRANCH  15  24
ATOM     24  C   UNL A   1      32.572  18.184  23.011  1.00  0.00     0.041 C 
BRANCH  24  25
ATOM     25  C   UNL A   1      33.533  17.086  23.540  1.00  0.00     0.022 C 
ATOM     26  C   UNL A   1      34.796  17.543  24.280  1.00  0.00     0.007 C 
ATOM     27  C   UNL A   1      32.957  15.986  24.449  1.00  0.00     0.117 C 
ATOM     28  C   UNL A   1      35.320  16.302  24.990  1.00  0.00     0.003 C 
ATOM     29  C   UNL A   1      34.086  15.506  25.356  1.00  0.00     0.032 C 
BRANCH  27  30
ATOM     30  O   UNL A   1      31.903  16.345  25.318  1.00  0.00    -0.393 OA
ATOM     31  H   UNL A   1      31.881  17.309  25.419  1.00  0.00     0.210 HD
ENDBRANCH  27  30
ENDBRANCH  24  25
ENDBRANCH  15  24
ENDBRANCH   8  10
ENDBRANCH   6   8
ENDBRANCH   5   6
ENDBRANCH   4   5
ENDBRANCH   3   4
ENDBRANCH   2   3
ENDBRANCH   1   2
BRANCH   1  32
ATOM     32  C   UNL A   1      41.918  21.391  26.369  1.00  0.00     0.188 C 
BRANCH  32  33
ATOM     33  O   UNL A   1      42.812  20.872  25.389  1.00  0.00    -0.376 OA
BRANCH  33  34
ATOM     34  C   UNL A   1      44.082  21.483  25.225  1.00  0.00     0.202 C 
BRANCH  34  35
ATOM     35  C   UNL A   1      44.220  22.697  24.287  1.00  0.00     0.261 C 
BRANCH  35  36
ATOM     36  O   UNL A   1      43.507  23.897  24.651  1.00  0.00    -0.460 OA
BRANCH  36  37
ATOM     37  C   UNL A   1      44.275  24.922  25.107  1.00  0.00     0.338 C 
ATOM     38  O   UNL A   1      45.326  25.307  24.628  1.00  0.00    -0.246 OA
BRANCH  37  39
ATOM     39  C   UNL A   1      43.595  25.640  26.220  1.00  0.00     0.060 A 
ATOM     40  C   UNL A   1      43.873  26.999  26.381  1.00  0.00     0.016 A 
ATOM     41  C   UNL A   1      42.756  25.003  27.145  1.00  0.00     0.016 A 
ATOM     42  C   UNL A   1      43.320  27.710  27.455  1.00  0.00     0.010 A 
ATOM     43  C   UNL A   1      42.214  25.721  28.236  1.00  0.00     0.010 A 
ATOM     44  C   UNL A   1      42.480  27.087  28.405  1.00  0.00    -0.014 A 
BRANCH  44  45
ATOM     45  C   UNL A   1      42.043  27.880  29.608  1.00  0.00     0.031 A 
ATOM     46  C   UNL A   1      40.702  28.544  29.553  1.00  0.00     0.074 A 
ATOM     47  C   UNL A   1      42.754  28.015  30.751  1.00  0.00     0.049 A 
ATOM     48  N   UNL A   1      40.101  29.261  30.467  1.00  0.00    -0.248 NA
ATOM     49  C   UNL A   1      39.991  28.468  28.269  1.00  0.00     0.031 C 
ATOM     50  C   UNL A   1      44.136  27.620  30.927  1.00  0.00     0.029 A 
ATOM     51  N   UNL A   1      42.405  28.468  32.011  1.00  0.00    -0.354 N 
ATOM     52  C   UNL A   1      38.992  29.801  29.839  1.00  0.00     0.074 A 
ATOM     53  C   UNL A   1      38.965  29.273  28.491  1.00  0.00     0.031 C 
ATOM     54  C   UNL A   1      44.452  27.622  32.231  1.00  0.00     0.029 A 
ATOM     55  C   UNL A   1      43.340  28.173  32.989  1.00  0.00     0.049 A 
ATOM     56  H   UNL A   1      41.569  28.954  32.195  1.00  0.00     0.167 HD
ATOM     57  C   UNL A   1      38.124  30.722  30.319  1.00  0.00     0.037 A 
ATOM     58  C   UNL A   1      43.328  28.358  34.328  1.00  0.00     0.037 A 
ATOM     59  C   UNL A   1      38.184  31.287  31.639  1.00  0.00     0.049 A 
ATOM     60  C   UNL A   1      42.262  29.260  34.888  1.00  0.00     0.074 A 
ATOM     61  C   UNL A   1      37.368  32.254  32.199  1.00  0.00     0.029 A 
ATOM     62  N   UNL A   1      39.118  30.944  32.607  1.00  0.00    -0.354 N 
ATOM     63  N   UNL A   1      41.239  29.798  34.271  1.00  0.00    -0.248 NA
ATOM     64  C   UNL A   1      42.408  29.683  36.290  1.00  0.00     0.031 C 
ATOM     65  C   UNL A   1      37.826  32.518  33.495  1.00  0.00     0.029 A 
ATOM     66  C   UNL A   1      38.893  31.676  33.764  1.00  0.00     0.049 A 
ATOM     67  H   UNL A   1      39.835  30.280  32.490  1.00  0.00     0.167 HD
ATOM     68  C   UNL A   1      40.660  30.667  35.182  1.00  0.00     0.074 A 
ATOM     69  C   UNL A   1      41.394  30.528  36.423  1.00  0.00     0.031 C 
ATOM     70  C   UNL A   1      39.641  31.540  34.987  1.00  0.00     0.037 A 
BRANCH  57  71
ATOM     71  C   UNL A   1      37.118  31.243  29.338  1.00  0.00     0.057 A 
ATOM     72  C   UNL A   1      37.216  32.523  28.779  1.00  0.00     0.134 A 
ATOM     73  C   UNL A   1      35.990  30.478  29.017  1.00  0.00     0.134 A 
ATOM     74  F   UNL A   1      38.253  33.319  29.081  1.00  0.00    -0.206 F 
ATOM     75  C   UNL A   1      36.204  33.041  27.969  1.00  0.00     0.040 A 
ATOM     76  C   UNL A   1      34.987  30.973  28.184  1.00  0.00     0.040 A 
ATOM     77  F   UNL A   1      35.829  29.248  29.531  1.00  0.00    -0.206 F 
ATOM     78  C   UNL A   1      35.087  32.263  27.669  1.00  0.00     0.006 A 
ENDBRANCH  57  71
BRANCH  58  79
ATOM     79  C   UNL A   1      44.369  27.775  35.237  1.00  0.00     0.057 A 
ATOM     80  C   UNL A   1      45.550  28.484  35.519  1.00  0.00     0.134 A 
ATOM     81  C   UNL A   1      44.253  26.509  35.821  1.00  0.00     0.134 A 
ATOM     82  F   UNL A   1      45.770  29.681  34.953  1.00  0.00    -0.206 F 
ATOM     83  C   UNL A   1      46.553  27.967  36.347  1.00  0.00     0.040 A 
ATOM     84  C   UNL A   1      45.224  25.998  36.690  1.00  0.00     0.040 A 
ATOM     85  F   UNL A   1      43.187  25.737  35.562  1.00  0.00    -0.206 F 
ATOM     86  C   UNL A   1      46.381  26.725  36.952  1.00  0.00     0.006 A 
ENDBRANCH  58  79
BRANCH  70  87
ATOM     87  C   UNL A   1      39.264  32.405  36.150  1.00  0.00     0.057 A 
ATOM     88  C   UNL A   1      39.813  33.681  36.334  1.00  0.00     0.134 A 
ATOM     89  C   UNL A   1      38.329  31.960  37.092  1.00  0.00     0.134 A 
ATOM     90  F   UNL A   1      40.726  34.159  35.475  1.00  0.00    -0.206 F 
ATOM     91  C   UNL A   1      39.462  34.475  37.427  1.00  0.00     0.040 A 
ATOM     92  C   UNL A   1      37.952  32.753  38.176  1.00  0.00     0.040 A 
ATOM     93  F   UNL A   1      37.765  30.749  36.969  1.00  0.00    -0.206 F 
ATOM     94  C   UNL A   1      38.525  34.012  38.350  1.00  0.00     0.006 A 
ENDBRANCH  70  87
ENDBRANCH  44  45
ENDBRANCH  37  39
ENDBRANCH  36  37
ENDBRANCH  35  36
ENDBRANCH  34  35
ENDBRANCH  33  34
ENDBRANCH  32  33
ENDBRANCH   1  32
TORSDOF 23
ENDMDL
