MODEL 1
REMARK VINA RESULT:     -12.9      0.000      0.000
REMARK SMILES CC(C)(C)C(=O)Nc1nc2c(s1)C[C@H]1[C@](C)(CO)[C@H](O)CC[C@]1(C)[C@@H]2CC(=O)OCCOCCOCCOC(=O)c1ccc(-c2c3nc(c(-c4c(F)cccc4F)c4ccc([nH]4)c(-c4c(F)cccc4F)c4nc(c(-c5c(F)cccc5F)c5ccc2[nH]5)C=C4)C=C3)cc1
REMARK SMILES IDX 33 1 32 2 31 3 30 4 29 5 27 6 28 7 26 8 25 9 8 10 9 11 12 12
REMARK SMILES IDX 10 13 11 14 13 15 23 16 14 17 22 18 24 19 15 20 21 21 19 22
REMARK SMILES IDX 16 23 7 24 5 25 6 26 2 28 1 29 3 30 4 31 17 32 18 33 20 35
REMARK SMILES IDX 34 37 35 38 36 39 37 40 38 41 39 42 40 43 41 44 42 45 94 46
REMARK SMILES IDX 43 47 93 48 44 49 45 50 46 51 87 52 47 53 92 54 86 55 88 56
REMARK SMILES IDX 48 57 91 58 85 59 84 60 49 62 75 63 58 64 74 65 59 66 62 67
REMARK SMILES IDX 73 68 89 69 60 70 61 71 72 73 90 74 63 75 50 76 51 77 56 78
REMARK SMILES IDX 52 79 53 80 55 81 57 82 54 83 76 84 77 85 82 86 78 87 79 88
REMARK SMILES IDX 81 89 83 90 80 91 64 92 65 93 70 94 66 95 67 96 69 97 71 98
REMARK SMILES IDX 68 99
REMARK H PARENT 7 27 18 34 20 36 88 61 62 72
REMARK Flexibility Score: inf
ROOT
ATOM      1  C   UNL A   1      40.776  20.610  27.316  1.00  0.00     0.188 C 
ENDROOT
BRANCH   1   2
ATOM      2  O   UNL A   1      39.999  21.775  27.162  1.00  0.00    -0.376 OA
BRANCH   2   3
ATOM      3  C   UNL A   1      39.379  22.005  25.908  1.00  0.00     0.202 C 
BRANCH   3   4
ATOM      4  C   UNL A   1      37.902  21.621  25.711  1.00  0.00     0.261 C 
BRANCH   4   5
ATOM      5  O   UNL A   1      37.394  21.701  24.357  1.00  0.00    -0.463 OA
BRANCH   5   6
ATOM      6  C   UNL A   1      36.603  22.748  24.011  1.00  0.00     0.306 C 
ATOM      7  O   UNL A   1      36.488  23.136  22.853  1.00  0.00    -0.252 OA
BRANCH   6   8
ATOM      8  C   UNL A   1      35.991  23.531  25.202  1.00  0.00     0.133 C 
BRANCH   8   9
ATOM      9  C   UNL A   1      34.493  23.381  25.569  1.00  0.00     0.057 C 
ATOM     10  C   UNL A   1      33.221  20.025  25.388  1.00  0.00     0.189 A 
ATOM     11  N   UNL A   1      34.047  20.947  25.806  1.00  0.00    -0.224 NA
ATOM     12  S   UNL A   1      32.367  20.383  23.950  1.00  0.00    -0.101 S 
ATOM     13  C   UNL A   1      33.868  22.100  25.058  1.00  0.00     0.061 A 
ATOM     14  C   UNL A   1      32.794  22.037  24.178  1.00  0.00     0.030 A 
ATOM     15  C   UNL A   1      31.965  23.174  23.626  1.00  0.00     0.053 C 
ATOM     16  C   UNL A   1      33.390  24.516  25.367  1.00  0.00    -0.020 C 
ATOM     17  C   UNL A   1      32.424  24.557  24.154  1.00  0.00     0.012 C 
ATOM     18  C   UNL A   1      34.106  25.889  25.183  1.00  0.00     0.010 C 
ATOM     19  C   UNL A   1      32.426  24.135  26.572  1.00  0.00     0.012 C 
ATOM     20  C   UNL A   1      31.378  25.865  24.402  1.00  0.00     0.020 C 
ATOM     21  C   UNL A   1      33.602  27.078  24.326  1.00  0.00     0.033 C 
ATOM     22  C   UNL A   1      32.167  27.055  23.808  1.00  0.00     0.123 C 
ATOM     23  C   UNL A   1      31.109  26.414  25.869  1.00  0.00     0.017 C 
BRANCH  10  24
ATOM     24  N   UNL A   1      32.924  18.836  25.979  1.00  0.00    -0.302 N 
ATOM     25  C   UNL A   1      33.149  17.588  25.468  1.00  0.00     0.231 C 
ATOM     26  O   UNL A   1      32.433  16.675  25.901  1.00  0.00    -0.274 OA
ATOM     27  H   UNL A   1      32.505  18.879  26.868  1.00  0.00     0.172 HD
BRANCH  25  28
ATOM     28  C   UNL A   1      34.365  17.267  24.540  1.00  0.00     0.041 C 
ATOM     29  C   UNL A   1      35.003  15.938  25.027  1.00  0.00     0.021 C 
ATOM     30  C   UNL A   1      35.466  18.335  24.680  1.00  0.00     0.021 C 
ATOM     31  C   UNL A   1      33.993  17.047  23.073  1.00  0.00     0.021 C 
ENDBRANCH  25  28
ENDBRANCH  10  24
BRANCH  20  32
ATOM     32  C   UNL A   1      29.962  25.692  23.809  1.00  0.00     0.165 C 
BRANCH  32  33
ATOM     33  O   UNL A   1      29.390  26.942  23.421  1.00  0.00    -0.396 OA
ATOM     34  H   UNL A   1      30.035  27.446  22.902  1.00  0.00     0.210 HD
ENDBRANCH  32  33
ENDBRANCH  20  32
BRANCH  22  35
ATOM     35  O   UNL A   1      32.177  26.995  22.386  1.00  0.00    -0.392 OA
ATOM     36  H   UNL A   1      31.428  27.501  22.035  1.00  0.00     0.210 HD
ENDBRANCH  22  35
ENDBRANCH   8   9
ENDBRANCH   6   8
ENDBRANCH   5   6
ENDBRANCH   4   5
ENDBRANCH   3   4
ENDBRANCH   2   3
ENDBRANCH   1   2
BRANCH   1  37
ATOM     37  C   UNL A   1      40.936  19.632  26.153  1.00  0.00     0.188 C 
BRANCH  37  38
ATOM     38  O   UNL A   1      42.103  19.582  25.355  1.00  0.00    -0.376 OA
BRANCH  38  39
ATOM     39  C   UNL A   1      43.250  18.815  25.666  1.00  0.00     0.202 C 
BRANCH  39  40
ATOM     40  C   UNL A   1      44.340  18.801  24.603  1.00  0.00     0.261 C 
BRANCH  40  41
ATOM     41  O   UNL A   1      44.463  20.116  24.101  1.00  0.00    -0.460 OA
BRANCH  41  42
ATOM     42  C   UNL A   1      45.549  20.818  24.489  1.00  0.00     0.338 C 
ATOM     43  O   UNL A   1      46.598  20.405  24.927  1.00  0.00    -0.246 OA
BRANCH  42  44
ATOM     44  C   UNL A   1      45.195  22.232  24.277  1.00  0.00     0.060 A 
ATOM     45  C   UNL A   1      46.231  23.149  24.406  1.00  0.00     0.016 A 
ATOM     46  C   UNL A   1      43.841  22.602  24.320  1.00  0.00     0.016 A 
ATOM     47  C   UNL A   1      45.917  24.350  24.984  1.00  0.00     0.010 A 
ATOM     48  C   UNL A   1      43.533  23.769  24.950  1.00  0.00     0.010 A 
ATOM     49  C   UNL A   1      44.592  24.557  25.379  1.00  0.00    -0.014 A 
BRANCH  49  50
ATOM     50  C   UNL A   1      44.320  25.633  26.289  1.00  0.00     0.031 A 
ATOM     51  C   UNL A   1      45.348  26.677  26.243  1.00  0.00     0.074 A 
ATOM     52  C   UNL A   1      43.185  25.688  27.005  1.00  0.00     0.049 A 
ATOM     53  N   UNL A   1      46.313  26.855  27.077  1.00  0.00    -0.248 NA
ATOM     54  C   UNL A   1      45.448  27.468  25.008  1.00  0.00     0.031 C 
ATOM     55  C   UNL A   1      41.967  24.887  26.859  1.00  0.00     0.029 A 
ATOM     56  N   UNL A   1      42.860  26.571  27.980  1.00  0.00    -0.354 N 
ATOM     57  C   UNL A   1      47.008  27.946  26.579  1.00  0.00     0.074 A 
ATOM     58  C   UNL A   1      46.604  28.099  25.207  1.00  0.00     0.031 C 
ATOM     59  C   UNL A   1      40.970  25.469  27.567  1.00  0.00     0.029 A 
ATOM     60  C   UNL A   1      41.515  26.595  28.308  1.00  0.00     0.049 A 
ATOM     61  H   UNL A   1      43.526  27.148  28.419  1.00  0.00     0.167 HD
ATOM     62  C   UNL A   1      47.600  28.833  27.418  1.00  0.00     0.037 A 
ATOM     63  C   UNL A   1      40.917  27.551  29.060  1.00  0.00     0.037 A 
ATOM     64  C   UNL A   1      47.721  28.297  28.751  1.00  0.00     0.049 A 
ATOM     65  C   UNL A   1      41.989  28.258  29.813  1.00  0.00     0.074 A 
ATOM     66  C   UNL A   1      48.350  27.202  29.309  1.00  0.00     0.029 A 
ATOM     67  N   UNL A   1      46.802  28.723  29.679  1.00  0.00    -0.354 N 
ATOM     68  N   UNL A   1      42.694  27.717  30.768  1.00  0.00    -0.248 NA
ATOM     69  C   UNL A   1      42.581  29.442  29.206  1.00  0.00     0.031 C 
ATOM     70  C   UNL A   1      47.486  26.766  30.357  1.00  0.00     0.029 A 
ATOM     71  C   UNL A   1      46.397  27.638  30.411  1.00  0.00     0.049 A 
ATOM     72  H   UNL A   1      46.489  29.648  29.798  1.00  0.00     0.167 HD
ATOM     73  C   UNL A   1      43.978  28.219  30.598  1.00  0.00     0.074 A 
ATOM     74  C   UNL A   1      43.822  29.354  29.695  1.00  0.00     0.031 C 
ATOM     75  C   UNL A   1      45.071  27.489  30.971  1.00  0.00     0.037 A 
BRANCH  62  76
ATOM     76  C   UNL A   1      47.678  30.309  27.132  1.00  0.00     0.057 A 
ATOM     77  C   UNL A   1      48.916  30.953  27.247  1.00  0.00     0.134 A 
ATOM     78  C   UNL A   1      46.559  31.164  27.020  1.00  0.00     0.134 A 
ATOM     79  F   UNL A   1      50.048  30.246  27.391  1.00  0.00    -0.206 F 
ATOM     80  C   UNL A   1      49.030  32.346  27.303  1.00  0.00     0.040 A 
ATOM     81  C   UNL A   1      46.668  32.555  27.010  1.00  0.00     0.040 A 
ATOM     82  F   UNL A   1      45.299  30.716  27.022  1.00  0.00    -0.206 F 
ATOM     83  C   UNL A   1      47.903  33.151  27.185  1.00  0.00     0.006 A 
ENDBRANCH  62  76
BRANCH  63  84
ATOM     84  C   UNL A   1      39.560  28.120  28.903  1.00  0.00     0.057 A 
ATOM     85  C   UNL A   1      38.649  28.107  29.967  1.00  0.00     0.134 A 
ATOM     86  C   UNL A   1      39.221  28.937  27.809  1.00  0.00     0.134 A 
ATOM     87  F   UNL A   1      38.903  27.390  31.071  1.00  0.00    -0.206 F 
ATOM     88  C   UNL A   1      37.482  28.883  29.959  1.00  0.00     0.040 A 
ATOM     89  C   UNL A   1      38.057  29.710  27.784  1.00  0.00     0.040 A 
ATOM     90  F   UNL A   1      40.052  29.085  26.768  1.00  0.00    -0.206 F 
ATOM     91  C   UNL A   1      37.190  29.698  28.869  1.00  0.00     0.006 A 
ENDBRANCH  63  84
BRANCH  75  92
ATOM     92  C   UNL A   1      44.839  26.290  31.848  1.00  0.00     0.057 A 
ATOM     93  C   UNL A   1      44.575  24.999  31.366  1.00  0.00     0.134 A 
ATOM     94  C   UNL A   1      45.025  26.424  33.229  1.00  0.00     0.134 A 
ATOM     95  F   UNL A   1      44.481  24.755  30.052  1.00  0.00    -0.206 F 
ATOM     96  C   UNL A   1      44.455  23.901  32.225  1.00  0.00     0.040 A 
ATOM     97  C   UNL A   1      44.943  25.331  34.094  1.00  0.00     0.040 A 
ATOM     98  F   UNL A   1      45.336  27.619  33.756  1.00  0.00    -0.206 F 
ATOM     99  C   UNL A   1      44.647  24.065  33.594  1.00  0.00     0.006 A 
ENDBRANCH  75  92
ENDBRANCH  49  50
ENDBRANCH  42  44
ENDBRANCH  41  42
ENDBRANCH  40  41
ENDBRANCH  39  40
ENDBRANCH  38  39
ENDBRANCH  37  38
ENDBRANCH   1  37
TORSDOF 23
ENDMDL
MODEL 2
REMARK VINA RESULT:     -12.4      3.423      7.182
REMARK SMILES CC(C)(C)C(=O)Nc1nc2c(s1)C[C@H]1[C@](C)(CO)[C@H](O)CC[C@]1(C)[C@@H]2CC(=O)OCCOCCOCCOC(=O)c1ccc(-c2c3nc(c(-c4c(F)cccc4F)c4ccc([nH]4)c(-c4c(F)cccc4F)c4nc(c(-c5c(F)cccc5F)c5ccc2[nH]5)C=C4)C=C3)cc1
REMARK SMILES IDX 33 1 32 2 31 3 30 4 29 5 27 6 28 7 26 8 25 9 8 10 9 11 12 12
REMARK SMILES IDX 10 13 11 14 13 15 23 16 14 17 22 18 24 19 15 20 21 21 19 22
REMARK SMILES IDX 16 23 7 24 5 25 6 26 2 28 1 29 3 30 4 31 17 32 18 33 20 35
REMARK SMILES IDX 34 37 35 38 36 39 37 40 38 41 39 42 40 43 41 44 42 45 94 46
REMARK SMILES IDX 43 47 93 48 44 49 45 50 46 51 87 52 47 53 92 54 86 55 88 56
REMARK SMILES IDX 48 57 91 58 85 59 84 60 49 62 75 63 58 64 74 65 59 66 62 67
REMARK SMILES IDX 73 68 89 69 60 70 61 71 72 73 90 74 63 75 50 76 51 77 56 78
REMARK SMILES IDX 52 79 53 80 55 81 57 82 54 83 76 84 77 85 82 86 78 87 79 88
REMARK SMILES IDX 81 89 83 90 80 91 64 92 65 93 70 94 66 95 67 96 69 97 71 98
REMARK SMILES IDX 68 99
REMARK H PARENT 7 27 18 34 20 36 88 61 62 72
REMARK Flexibility Score: inf
ROOT
ATOM      1  C   UNL A   1      41.171  20.600  27.308  1.00  0.00     0.188 C 
ENDROOT
BRANCH   1   2
ATOM      2  O   UNL A   1      39.977  21.336  27.161  1.00  0.00    -0.376 OA
BRANCH   2   3
ATOM      3  C   UNL A   1      39.450  21.500  25.855  1.00  0.00     0.202 C 
BRANCH   3   4
ATOM      4  C   UNL A   1      37.960  21.843  25.677  1.00  0.00     0.261 C 
BRANCH   4   5
ATOM      5  O   UNL A   1      37.447  21.785  24.324  1.00  0.00    -0.463 OA
BRANCH   5   6
ATOM      6  C   UNL A   1      36.656  22.793  23.876  1.00  0.00     0.306 C 
ATOM      7  O   UNL A   1      36.540  23.063  22.685  1.00  0.00    -0.252 OA
BRANCH   6   8
ATOM      8  C   UNL A   1      36.047  23.693  24.983  1.00  0.00     0.133 C 
BRANCH   8   9
ATOM      9  C   UNL A   1      34.552  23.574  25.373  1.00  0.00     0.057 C 
ATOM     10  C   UNL A   1      33.239  20.229  25.332  1.00  0.00     0.189 A 
ATOM     11  N   UNL A   1      34.081  21.156  25.706  1.00  0.00    -0.224 NA
ATOM     12  S   UNL A   1      32.372  20.544  23.892  1.00  0.00    -0.101 S 
ATOM     13  C   UNL A   1      33.906  22.282  24.918  1.00  0.00     0.061 A 
ATOM     14  C   UNL A   1      32.821  22.200  24.054  1.00  0.00     0.030 A 
ATOM     15  C   UNL A   1      31.998  23.325  23.469  1.00  0.00     0.053 C 
ATOM     16  C   UNL A   1      33.460  24.714  25.142  1.00  0.00    -0.020 C 
ATOM     17  C   UNL A   1      32.480  24.721  23.940  1.00  0.00     0.012 C 
ATOM     18  C   UNL A   1      34.190  26.071  24.898  1.00  0.00     0.010 C 
ATOM     19  C   UNL A   1      32.506  24.390  26.371  1.00  0.00     0.012 C 
ATOM     20  C   UNL A   1      31.452  26.050  24.150  1.00  0.00     0.020 C 
ATOM     21  C   UNL A   1      33.689  27.233  24.003  1.00  0.00     0.033 C 
ATOM     22  C   UNL A   1      32.248  27.208  23.503  1.00  0.00     0.123 C 
ATOM     23  C   UNL A   1      31.208  26.657  25.599  1.00  0.00     0.017 C 
BRANCH  10  24
ATOM     24  N   UNL A   1      32.936  19.067  25.971  1.00  0.00    -0.302 N 
ATOM     25  C   UNL A   1      33.114  17.799  25.493  1.00  0.00     0.231 C 
ATOM     26  O   UNL A   1      32.393  16.917  25.978  1.00  0.00    -0.274 OA
ATOM     27  H   UNL A   1      32.548  19.147  26.872  1.00  0.00     0.172 HD
BRANCH  25  28
ATOM     28  C   UNL A   1      34.291  17.420  24.536  1.00  0.00     0.041 C 
ATOM     29  C   UNL A   1      34.869  16.056  25.002  1.00  0.00     0.021 C 
ATOM     30  C   UNL A   1      35.449  18.427  24.656  1.00  0.00     0.021 C 
ATOM     31  C   UNL A   1      33.875  17.228  23.077  1.00  0.00     0.021 C 
ENDBRANCH  25  28
ENDBRANCH  10  24
BRANCH  20  32
ATOM     32  C   UNL A   1      30.027  25.872  23.581  1.00  0.00     0.165 C 
BRANCH  32  33
ATOM     33  O   UNL A   1      29.071  25.612  24.609  1.00  0.00    -0.396 OA
ATOM     34  H   UNL A   1      28.468  24.909  24.320  1.00  0.00     0.210 HD
ENDBRANCH  32  33
ENDBRANCH  20  32
BRANCH  22  35
ATOM     35  O   UNL A   1      32.240  27.095  22.084  1.00  0.00    -0.392 OA
ATOM     36  H   UNL A   1      32.564  26.218  21.828  1.00  0.00     0.210 HD
ENDBRANCH  22  35
ENDBRANCH   8   9
ENDBRANCH   6   8
ENDBRANCH   5   6
ENDBRANCH   4   5
ENDBRANCH   3   4
ENDBRANCH   2   3
ENDBRANCH   1   2
BRANCH   1  37
ATOM     37  C   UNL A   1      42.210  20.588  26.188  1.00  0.00     0.188 C 
BRANCH  37  38
ATOM     38  O   UNL A   1      43.119  21.652  25.981  1.00  0.00    -0.376 OA
BRANCH  38  39
ATOM     39  C   UNL A   1      42.759  22.921  25.472  1.00  0.00     0.202 C 
BRANCH  39  40
ATOM     40  C   UNL A   1      42.828  24.071  26.467  1.00  0.00     0.261 C 
BRANCH  40  41
ATOM     41  O   UNL A   1      41.634  24.816  26.341  1.00  0.00    -0.460 OA
BRANCH  41  42
ATOM     42  C   UNL A   1      41.730  26.028  25.754  1.00  0.00     0.338 C 
ATOM     43  O   UNL A   1      42.478  26.383  24.872  1.00  0.00    -0.246 OA
BRANCH  42  44
ATOM     44  C   UNL A   1      40.719  26.866  26.422  1.00  0.00     0.060 A 
ATOM     45  C   UNL A   1      40.816  28.235  26.202  1.00  0.00     0.016 A 
ATOM     46  C   UNL A   1      39.981  26.315  27.483  1.00  0.00     0.016 A 
ATOM     47  C   UNL A   1      40.523  29.048  27.264  1.00  0.00     0.010 A 
ATOM     48  C   UNL A   1      39.747  27.113  28.561  1.00  0.00     0.010 A 
ATOM     49  C   UNL A   1      40.143  28.440  28.465  1.00  0.00    -0.014 A 
BRANCH  49  50
ATOM     50  C   UNL A   1      40.181  29.232  29.662  1.00  0.00     0.031 A 
ATOM     51  C   UNL A   1      38.983  30.060  29.822  1.00  0.00     0.074 A 
ATOM     52  C   UNL A   1      41.172  29.114  30.560  1.00  0.00     0.049 A 
ATOM     53  N   UNL A   1      38.867  31.318  29.569  1.00  0.00    -0.248 NA
ATOM     54  C   UNL A   1      37.711  29.364  30.071  1.00  0.00     0.031 C 
ATOM     55  C   UNL A   1      42.209  28.083  30.655  1.00  0.00     0.029 A 
ATOM     56  N   UNL A   1      41.393  29.877  31.657  1.00  0.00    -0.354 N 
ATOM     57  C   UNL A   1      37.545  31.613  29.860  1.00  0.00     0.074 A 
ATOM     58  C   UNL A   1      36.842  30.358  29.898  1.00  0.00     0.031 C 
ATOM     59  C   UNL A   1      42.805  28.168  31.868  1.00  0.00     0.029 A 
ATOM     60  C   UNL A   1      42.282  29.330  32.568  1.00  0.00     0.049 A 
ATOM     61  H   UNL A   1      40.958  30.749  31.796  1.00  0.00     0.167 HD
ATOM     62  C   UNL A   1      37.200  32.821  30.373  1.00  0.00     0.037 A 
ATOM     63  C   UNL A   1      42.468  29.777  33.834  1.00  0.00     0.037 A 
ATOM     64  C   UNL A   1      38.259  33.785  30.206  1.00  0.00     0.049 A 
ATOM     65  C   UNL A   1      41.929  31.163  33.900  1.00  0.00     0.074 A 
ATOM     66  C   UNL A   1      38.926  34.326  29.125  1.00  0.00     0.029 A 
ATOM     67  N   UNL A   1      39.040  34.048  31.305  1.00  0.00    -0.354 N 
ATOM     68  N   UNL A   1      42.459  32.186  33.286  1.00  0.00    -0.248 NA
ATOM     69  C   UNL A   1      40.539  31.336  34.298  1.00  0.00     0.031 C 
ATOM     70  C   UNL A   1      40.270  34.507  29.564  1.00  0.00     0.029 A 
ATOM     71  C   UNL A   1      40.347  34.106  30.899  1.00  0.00     0.049 A 
ATOM     72  H   UNL A   1      38.717  34.173  32.226  1.00  0.00     0.167 HD
ATOM     73  C   UNL A   1      41.379  32.943  32.850  1.00  0.00     0.074 A 
ATOM     74  C   UNL A   1      40.233  32.430  33.594  1.00  0.00     0.031 C 
ATOM     75  C   UNL A   1      41.469  33.707  31.721  1.00  0.00     0.037 A 
BRANCH  62  76
ATOM     76  C   UNL A   1      36.096  33.001  31.380  1.00  0.00     0.057 A 
ATOM     77  C   UNL A   1      35.077  33.923  31.105  1.00  0.00     0.134 A 
ATOM     78  C   UNL A   1      36.135  32.522  32.708  1.00  0.00     0.134 A 
ATOM     79  F   UNL A   1      34.959  34.472  29.886  1.00  0.00    -0.206 F 
ATOM     80  C   UNL A   1      34.196  34.377  32.091  1.00  0.00     0.040 A 
ATOM     81  C   UNL A   1      35.221  32.920  33.684  1.00  0.00     0.040 A 
ATOM     82  F   UNL A   1      37.112  31.732  33.167  1.00  0.00    -0.206 F 
ATOM     83  C   UNL A   1      34.267  33.875  33.386  1.00  0.00     0.006 A 
ENDBRANCH  62  76
BRANCH  63  84
ATOM     84  C   UNL A   1      42.743  28.981  35.052  1.00  0.00     0.057 A 
ATOM     85  C   UNL A   1      42.055  27.786  35.299  1.00  0.00     0.134 A 
ATOM     86  C   UNL A   1      43.874  29.220  35.853  1.00  0.00     0.134 A 
ATOM     87  F   UNL A   1      40.987  27.451  34.559  1.00  0.00    -0.206 F 
ATOM     88  C   UNL A   1      42.482  26.866  36.265  1.00  0.00     0.040 A 
ATOM     89  C   UNL A   1      44.307  28.315  36.827  1.00  0.00     0.040 A 
ATOM     90  F   UNL A   1      44.652  30.293  35.656  1.00  0.00    -0.206 F 
ATOM     91  C   UNL A   1      43.619  27.124  37.025  1.00  0.00     0.006 A 
ENDBRANCH  63  84
BRANCH  75  92
ATOM     92  C   UNL A   1      42.841  33.953  31.157  1.00  0.00     0.057 A 
ATOM     93  C   UNL A   1      43.465  33.125  30.211  1.00  0.00     0.134 A 
ATOM     94  C   UNL A   1      43.496  35.146  31.483  1.00  0.00     0.134 A 
ATOM     95  F   UNL A   1      42.870  32.013  29.763  1.00  0.00    -0.206 F 
ATOM     96  C   UNL A   1      44.707  33.449  29.654  1.00  0.00     0.040 A 
ATOM     97  C   UNL A   1      44.718  35.499  30.907  1.00  0.00     0.040 A 
ATOM     98  F   UNL A   1      42.932  36.014  32.338  1.00  0.00    -0.206 F 
ATOM     99  C   UNL A   1      45.334  34.644  29.997  1.00  0.00     0.006 A 
ENDBRANCH  75  92
ENDBRANCH  49  50
ENDBRANCH  42  44
ENDBRANCH  41  42
ENDBRANCH  40  41
ENDBRANCH  39  40
ENDBRANCH  38  39
ENDBRANCH  37  38
ENDBRANCH   1  37
TORSDOF 23
ENDMDL
MODEL 3
REMARK VINA RESULT:     -12.0      4.829     10.352
REMARK SMILES CC(C)(C)C(=O)Nc1nc2c(s1)C[C@H]1[C@](C)(CO)[C@H](O)CC[C@]1(C)[C@@H]2CC(=O)OCCOCCOCCOC(=O)c1ccc(-c2c3nc(c(-c4c(F)cccc4F)c4ccc([nH]4)c(-c4c(F)cccc4F)c4nc(c(-c5c(F)cccc5F)c5ccc2[nH]5)C=C4)C=C3)cc1
REMARK SMILES IDX 33 1 32 2 31 3 30 4 29 5 27 6 28 7 26 8 25 9 8 10 9 11 12 12
REMARK SMILES IDX 10 13 11 14 13 15 23 16 14 17 22 18 24 19 15 20 21 21 19 22
REMARK SMILES IDX 16 23 7 24 5 25 6 26 2 28 1 29 3 30 4 31 17 32 18 33 20 35
REMARK SMILES IDX 34 37 35 38 36 39 37 40 38 41 39 42 40 43 41 44 42 45 94 46
REMARK SMILES IDX 43 47 93 48 44 49 45 50 46 51 87 52 47 53 92 54 86 55 88 56
REMARK SMILES IDX 48 57 91 58 85 59 84 60 49 62 75 63 58 64 74 65 59 66 62 67
REMARK SMILES IDX 73 68 89 69 60 70 61 71 72 73 90 74 63 75 50 76 51 77 56 78
REMARK SMILES IDX 52 79 53 80 55 81 57 82 54 83 76 84 77 85 82 86 78 87 79 88
REMARK SMILES IDX 81 89 83 90 80 91 64 92 65 93 70 94 66 95 67 96 69 97 71 98
REMARK SMILES IDX 68 99
REMARK H PARENT 7 27 18 34 20 36 88 61 62 72
REMARK Flexibility Score: inf
ROOT
ATOM      1  C   UNL A   1      32.921  31.009  27.100  1.00  0.00     0.188 C 
ENDROOT
BRANCH   1   2
ATOM      2  O   UNL A   1      32.420  29.705  27.282  1.00  0.00    -0.376 OA
BRANCH   2   3
ATOM      3  C   UNL A   1      32.868  28.687  26.402  1.00  0.00     0.202 C 
BRANCH   3   4
ATOM      4  C   UNL A   1      33.679  29.070  25.151  1.00  0.00     0.261 C 
BRANCH   4   5
ATOM      5  O   UNL A   1      34.144  27.973  24.329  1.00  0.00    -0.463 OA
BRANCH   5   6
ATOM      6  C   UNL A   1      33.816  27.952  23.013  1.00  0.00     0.306 C 
ATOM      7  O   UNL A   1      33.427  28.948  22.412  1.00  0.00    -0.252 OA
BRANCH   6   8
ATOM      8  C   UNL A   1      33.798  26.544  22.362  1.00  0.00     0.133 C 
BRANCH   8   9
ATOM      9  C   UNL A   1      32.752  25.483  22.788  1.00  0.00     0.057 C 
ATOM     10  C   UNL A   1      29.545  26.809  23.724  1.00  0.00     0.189 A 
ATOM     11  N   UNL A   1      30.555  26.640  22.911  1.00  0.00    -0.224 NA
ATOM     12  S   UNL A   1      29.859  26.508  25.378  1.00  0.00    -0.101 S 
ATOM     13  C   UNL A   1      31.605  26.051  23.598  1.00  0.00     0.061 A 
ATOM     14  C   UNL A   1      31.284  25.668  24.895  1.00  0.00     0.030 A 
ATOM     15  C   UNL A   1      31.905  24.574  25.733  1.00  0.00     0.053 C 
ATOM     16  C   UNL A   1      33.105  24.077  23.457  1.00  0.00    -0.020 C 
ATOM     17  C   UNL A   1      33.036  23.821  24.985  1.00  0.00     0.012 C 
ATOM     18  C   UNL A   1      34.611  23.761  23.202  1.00  0.00     0.010 C 
ATOM     19  C   UNL A   1      31.879  23.230  22.902  1.00  0.00     0.012 C 
ATOM     20  C   UNL A   1      33.398  22.185  25.227  1.00  0.00     0.020 C 
ATOM     21  C   UNL A   1      35.551  22.965  24.141  1.00  0.00     0.033 C 
ATOM     22  C   UNL A   1      34.942  22.181  25.300  1.00  0.00     0.123 C 
ATOM     23  C   UNL A   1      33.172  21.130  24.060  1.00  0.00     0.017 C 
BRANCH  10  24
ATOM     24  N   UNL A   1      28.267  27.151  23.410  1.00  0.00    -0.302 N 
ATOM     25  C   UNL A   1      27.731  28.409  23.414  1.00  0.00     0.231 C 
ATOM     26  O   UNL A   1      26.503  28.487  23.552  1.00  0.00    -0.274 OA
ATOM     27  H   UNL A   1      27.665  26.416  23.152  1.00  0.00     0.172 HD
BRANCH  25  28
ATOM     28  C   UNL A   1      28.569  29.680  23.063  1.00  0.00     0.041 C 
ATOM     29  C   UNL A   1      27.722  30.930  23.425  1.00  0.00     0.021 C 
ATOM     30  C   UNL A   1      28.826  29.774  21.547  1.00  0.00     0.021 C 
ATOM     31  C   UNL A   1      29.873  29.808  23.853  1.00  0.00     0.021 C 
ENDBRANCH  25  28
ENDBRANCH  10  24
BRANCH  20  32
ATOM     32  C   UNL A   1      32.709  21.536  26.448  1.00  0.00     0.165 C 
BRANCH  32  33
ATOM     33  O   UNL A   1      33.528  20.534  27.052  1.00  0.00    -0.396 OA
ATOM     34  H   UNL A   1      33.001  20.022  27.683  1.00  0.00     0.210 HD
ENDBRANCH  32  33
ENDBRANCH  20  32
BRANCH  22  35
ATOM     35  O   UNL A   1      35.391  22.732  26.533  1.00  0.00    -0.392 OA
ATOM     36  H   UNL A   1      34.626  23.002  27.064  1.00  0.00     0.210 HD
ENDBRANCH  22  35
ENDBRANCH   8   9
ENDBRANCH   6   8
ENDBRANCH   5   6
ENDBRANCH   4   5
ENDBRANCH   3   4
ENDBRANCH   2   3
ENDBRANCH   1   2
BRANCH   1  37
ATOM     37  C   UNL A   1      34.089  31.511  27.947  1.00  0.00     0.188 C 
BRANCH  37  38
ATOM     38  O   UNL A   1      33.982  32.630  28.806  1.00  0.00    -0.376 OA
BRANCH  38  39
ATOM     39  C   UNL A   1      34.282  33.958  28.426  1.00  0.00     0.202 C 
BRANCH  39  40
ATOM     40  C   UNL A   1      33.574  35.045  29.223  1.00  0.00     0.261 C 
BRANCH  40  41
ATOM     41  O   UNL A   1      33.203  34.489  30.468  1.00  0.00    -0.460 OA
BRANCH  41  42
ATOM     42  C   UNL A   1      33.412  35.250  31.563  1.00  0.00     0.338 C 
ATOM     43  O   UNL A   1      32.949  36.336  31.827  1.00  0.00    -0.246 OA
BRANCH  42  44
ATOM     44  C   UNL A   1      34.349  34.481  32.400  1.00  0.00     0.060 A 
ATOM     45  C   UNL A   1      35.468  35.168  32.855  1.00  0.00     0.016 A 
ATOM     46  C   UNL A   1      34.267  33.079  32.390  1.00  0.00     0.016 A 
ATOM     47  C   UNL A   1      36.640  34.461  32.909  1.00  0.00     0.010 A 
ATOM     48  C   UNL A   1      35.439  32.385  32.383  1.00  0.00     0.010 A 
ATOM     49  C   UNL A   1      36.610  33.118  32.519  1.00  0.00    -0.014 A 
BRANCH  49  50
ATOM     50  C   UNL A   1      37.859  32.472  32.229  1.00  0.00     0.031 A 
ATOM     51  C   UNL A   1      38.732  32.392  33.404  1.00  0.00     0.074 A 
ATOM     52  C   UNL A   1      38.113  31.923  31.031  1.00  0.00     0.049 A 
ATOM     53  N   UNL A   1      39.738  33.149  33.678  1.00  0.00    -0.248 NA
ATOM     54  C   UNL A   1      38.298  31.523  34.507  1.00  0.00     0.031 C 
ATOM     55  C   UNL A   1      37.186  31.652  29.929  1.00  0.00     0.029 A 
ATOM     56  N   UNL A   1      39.281  31.399  30.589  1.00  0.00    -0.354 N 
ATOM     57  C   UNL A   1      40.204  32.682  34.896  1.00  0.00     0.074 A 
ATOM     58  C   UNL A   1      39.146  31.889  35.465  1.00  0.00     0.031 C 
ATOM     59  C   UNL A   1      37.786  30.820  29.044  1.00  0.00     0.029 A 
ATOM     60  C   UNL A   1      39.166  30.615  29.453  1.00  0.00     0.049 A 
ATOM     61  H   UNL A   1      40.142  31.561  31.038  1.00  0.00     0.167 HD
ATOM     62  C   UNL A   1      41.530  32.704  35.186  1.00  0.00     0.037 A 
ATOM     63  C   UNL A   1      40.133  29.794  28.975  1.00  0.00     0.037 A 
ATOM     64  C   UNL A   1      42.251  33.569  34.287  1.00  0.00     0.049 A 
ATOM     65  C   UNL A   1      41.422  30.224  29.583  1.00  0.00     0.074 A 
ATOM     66  C   UNL A   1      42.199  34.912  33.971  1.00  0.00     0.029 A 
ATOM     67  N   UNL A   1      42.946  32.965  33.267  1.00  0.00    -0.354 N 
ATOM     68  N   UNL A   1      42.019  31.353  29.315  1.00  0.00    -0.248 NA
ATOM     69  C   UNL A   1      41.833  29.592  30.830  1.00  0.00     0.031 C 
ATOM     70  C   UNL A   1      42.488  34.983  32.577  1.00  0.00     0.029 A 
ATOM     71  C   UNL A   1      42.741  33.688  32.121  1.00  0.00     0.049 A 
ATOM     72  H   UNL A   1      43.497  32.154  33.346  1.00  0.00     0.167 HD
ATOM     73  C   UNL A   1      42.548  31.778  30.526  1.00  0.00     0.074 A 
ATOM     74  C   UNL A   1      42.497  30.606  31.393  1.00  0.00     0.031 C 
ATOM     75  C   UNL A   1      42.703  33.109  30.796  1.00  0.00     0.037 A 
BRANCH  62  76
ATOM     76  C   UNL A   1      42.211  31.635  35.998  1.00  0.00     0.057 A 
ATOM     77  C   UNL A   1      43.020  32.019  37.076  1.00  0.00     0.134 A 
ATOM     78  C   UNL A   1      42.329  30.283  35.606  1.00  0.00     0.134 A 
ATOM     79  F   UNL A   1      43.017  33.287  37.518  1.00  0.00    -0.206 F 
ATOM     80  C   UNL A   1      43.921  31.139  37.683  1.00  0.00     0.040 A 
ATOM     81  C   UNL A   1      43.178  29.380  36.247  1.00  0.00     0.040 A 
ATOM     82  F   UNL A   1      41.720  29.784  34.525  1.00  0.00    -0.206 F 
ATOM     83  C   UNL A   1      44.002  29.815  37.269  1.00  0.00     0.006 A 
ENDBRANCH  62  76
BRANCH  63  84
ATOM     84  C   UNL A   1      39.971  28.472  28.330  1.00  0.00     0.057 A 
ATOM     85  C   UNL A   1      40.611  28.182  27.117  1.00  0.00     0.134 A 
ATOM     86  C   UNL A   1      39.423  27.374  29.016  1.00  0.00     0.134 A 
ATOM     87  F   UNL A   1      41.201  29.156  26.409  1.00  0.00    -0.206 F 
ATOM     88  C   UNL A   1      40.727  26.873  26.630  1.00  0.00     0.040 A 
ATOM     89  C   UNL A   1      39.523  26.064  28.538  1.00  0.00     0.040 A 
ATOM     90  F   UNL A   1      38.852  27.521  30.220  1.00  0.00    -0.206 F 
ATOM     91  C   UNL A   1      40.191  25.808  27.348  1.00  0.00     0.006 A 
ENDBRANCH  63  84
BRANCH  75  92
ATOM     92  C   UNL A   1      42.588  34.068  29.643  1.00  0.00     0.057 A 
ATOM     93  C   UNL A   1      41.399  34.711  29.267  1.00  0.00     0.134 A 
ATOM     94  C   UNL A   1      43.756  34.458  28.976  1.00  0.00     0.134 A 
ATOM     95  F   UNL A   1      40.250  34.477  29.913  1.00  0.00    -0.206 F 
ATOM     96  C   UNL A   1      41.368  35.662  28.241  1.00  0.00     0.040 A 
ATOM     97  C   UNL A   1      43.744  35.431  27.976  1.00  0.00     0.040 A 
ATOM     98  F   UNL A   1      44.940  33.926  29.322  1.00  0.00    -0.206 F 
ATOM     99  C   UNL A   1      42.545  36.030  27.597  1.00  0.00     0.006 A 
ENDBRANCH  75  92
ENDBRANCH  49  50
ENDBRANCH  42  44
ENDBRANCH  41  42
ENDBRANCH  40  41
ENDBRANCH  39  40
ENDBRANCH  38  39
ENDBRANCH  37  38
ENDBRANCH   1  37
TORSDOF 23
ENDMDL
