MODEL 1
REMARK VINA RESULT:     -12.1      0.000      0.000
REMARK SMILES O=C(OCCOCCOCCOC(=O)c1nnn(-c2cccc(C(F)(F)F)c2)c1[C@@H]1COc2ccccc2O1)c1ccc(-c2c3nc(c(-c4c(F)cccc4F)c4ccc([nH]4)c(-c4c(F)cccc4F)c4nc(c(-c5c(F)cccc5F)c5ccc2[nH]5)C=C4)C=C3)cc1
REMARK SMILES IDX 7 1 6 2 5 3 4 4 3 5 2 6 1 7 40 8 41 9 93 10 42 11 92 12
REMARK SMILES IDX 43 13 44 14 45 15 86 16 46 17 91 18 85 19 87 20 47 21 90 22
REMARK SMILES IDX 84 23 83 24 48 26 74 27 57 28 73 29 58 30 61 31 72 32 88 33
REMARK SMILES IDX 59 34 60 35 71 37 89 38 62 39 49 40 50 41 55 42 51 43 52 44
REMARK SMILES IDX 54 45 56 46 53 47 75 48 76 49 81 50 77 51 78 52 80 53 82 54
REMARK SMILES IDX 79 55 63 56 64 57 69 58 65 59 66 60 68 61 70 62 67 63 8 64
REMARK SMILES IDX 9 65 10 66 11 67 12 68 13 69 14 70 15 71 16 72 29 73 17 74
REMARK SMILES IDX 18 75 30 76 31 77 39 78 32 79 38 80 33 81 37 82 34 83 36 84
REMARK SMILES IDX 35 85 19 86 20 87 28 88 21 89 23 90 22 91 24 92 25 93 26 94
REMARK SMILES IDX 27 95
REMARK H PARENT 87 25 61 36
REMARK Flexibility Score: inf
ROOT
ATOM      1  C   UNL A   1      41.390  20.309  26.609  1.00  0.00     0.188 C 
ENDROOT
BRANCH   1   2
ATOM      2  O   UNL A   1      41.918  19.560  25.520  1.00  0.00    -0.376 OA
BRANCH   2   3
ATOM      3  C   UNL A   1      43.089  18.797  25.776  1.00  0.00     0.202 C 
BRANCH   3   4
ATOM      4  C   UNL A   1      44.144  18.810  24.666  1.00  0.00     0.261 C 
BRANCH   4   5
ATOM      5  O   UNL A   1      44.468  20.111  24.156  1.00  0.00    -0.460 OA
BRANCH   5   6
ATOM      6  C   UNL A   1      45.159  21.125  24.705  1.00  0.00     0.338 C 
ATOM      7  O   UNL A   1      46.384  21.059  24.770  1.00  0.00    -0.246 OA
BRANCH   6   8
ATOM      8  C   UNL A   1      44.487  22.215  25.452  1.00  0.00     0.060 A 
ATOM      9  C   UNL A   1      43.410  22.957  24.973  1.00  0.00     0.016 A 
ATOM     10  C   UNL A   1      45.089  22.584  26.671  1.00  0.00     0.016 A 
ATOM     11  C   UNL A   1      43.008  24.106  25.649  1.00  0.00     0.010 A 
ATOM     12  C   UNL A   1      44.688  23.730  27.348  1.00  0.00     0.010 A 
ATOM     13  C   UNL A   1      43.691  24.529  26.795  1.00  0.00    -0.014 A 
BRANCH  13  14
ATOM     14  C   UNL A   1      43.384  25.864  27.304  1.00  0.00     0.031 A 
ATOM     15  C   UNL A   1      44.362  26.952  27.028  1.00  0.00     0.074 A 
ATOM     16  C   UNL A   1      42.253  26.140  27.985  1.00  0.00     0.049 A 
ATOM     17  N   UNL A   1      45.048  27.650  27.877  1.00  0.00    -0.248 NA
ATOM     18  C   UNL A   1      44.631  27.282  25.623  1.00  0.00     0.031 C 
ATOM     19  C   UNL A   1      41.052  25.311  28.129  1.00  0.00     0.029 A 
ATOM     20  N   UNL A   1      41.919  27.290  28.639  1.00  0.00    -0.354 N 
ATOM     21  C   UNL A   1      45.720  28.619  27.132  1.00  0.00     0.074 A 
ATOM     22  C   UNL A   1      45.495  28.292  25.745  1.00  0.00     0.031 C 
ATOM     23  C   UNL A   1      40.054  26.063  28.643  1.00  0.00     0.029 A 
ATOM     24  C   UNL A   1      40.583  27.368  28.995  1.00  0.00     0.049 A 
ATOM     25  H   UNL A   1      42.570  28.000  28.841  1.00  0.00     0.167 HD
ATOM     26  C   UNL A   1      46.293  29.716  27.700  1.00  0.00     0.037 A 
ATOM     27  C   UNL A   1      39.939  28.450  29.491  1.00  0.00     0.037 A 
ATOM     28  C   UNL A   1      46.495  29.556  29.113  1.00  0.00     0.049 A 
ATOM     29  C   UNL A   1      40.949  29.366  30.070  1.00  0.00     0.074 A 
ATOM     30  C   UNL A   1      47.233  28.697  29.905  1.00  0.00     0.029 A 
ATOM     31  N   UNL A   1      45.658  30.218  29.973  1.00  0.00    -0.354 N 
ATOM     32  N   UNL A   1      41.631  29.125  31.154  1.00  0.00    -0.248 NA
ATOM     33  C   UNL A   1      41.480  30.423  29.222  1.00  0.00     0.031 C 
ATOM     34  C   UNL A   1      46.469  28.544  31.098  1.00  0.00     0.029 A 
ATOM     35  C   UNL A   1      45.323  29.327  30.957  1.00  0.00     0.049 A 
ATOM     36  H   UNL A   1      45.357  31.153  29.898  1.00  0.00     0.167 HD
ATOM     37  C   UNL A   1      42.872  29.701  30.930  1.00  0.00     0.074 A 
ATOM     38  C   UNL A   1      42.681  30.580  29.783  1.00  0.00     0.031 C 
ATOM     39  C   UNL A   1      44.000  29.206  31.520  1.00  0.00     0.037 A 
BRANCH  26  40
ATOM     40  C   UNL A   1      46.427  31.059  27.030  1.00  0.00     0.057 A 
ATOM     41  C   UNL A   1      47.683  31.690  26.963  1.00  0.00     0.134 A 
ATOM     42  C   UNL A   1      45.326  31.876  26.706  1.00  0.00     0.134 A 
ATOM     43  F   UNL A   1      48.807  31.025  27.275  1.00  0.00    -0.206 F 
ATOM     44  C   UNL A   1      47.827  33.047  26.649  1.00  0.00     0.040 A 
ATOM     45  C   UNL A   1      45.463  33.219  26.344  1.00  0.00     0.040 A 
ATOM     46  F   UNL A   1      44.065  31.441  26.818  1.00  0.00    -0.206 F 
ATOM     47  C   UNL A   1      46.714  33.819  26.342  1.00  0.00     0.006 A 
ENDBRANCH  26  40
BRANCH  27  48
ATOM     48  C   UNL A   1      38.540  28.855  29.244  1.00  0.00     0.057 A 
ATOM     49  C   UNL A   1      37.613  28.962  30.286  1.00  0.00     0.134 A 
ATOM     50  C   UNL A   1      38.145  29.392  28.004  1.00  0.00     0.134 A 
ATOM     51  F   UNL A   1      37.916  28.524  31.516  1.00  0.00    -0.206 F 
ATOM     52  C   UNL A   1      36.367  29.579  30.110  1.00  0.00     0.040 A 
ATOM     53  C   UNL A   1      36.903  30.000  27.812  1.00  0.00     0.040 A 
ATOM     54  F   UNL A   1      38.989  29.422  26.962  1.00  0.00    -0.206 F 
ATOM     55  C   UNL A   1      36.012  30.105  28.871  1.00  0.00     0.006 A 
ENDBRANCH  27  48
BRANCH  39  56
ATOM     56  C   UNL A   1      43.837  28.217  32.637  1.00  0.00     0.057 A 
ATOM     57  C   UNL A   1      43.780  26.832  32.437  1.00  0.00     0.134 A 
ATOM     58  C   UNL A   1      43.919  28.668  33.960  1.00  0.00     0.134 A 
ATOM     59  F   UNL A   1      43.805  26.309  31.204  1.00  0.00    -0.206 F 
ATOM     60  C   UNL A   1      43.766  25.934  33.509  1.00  0.00     0.040 A 
ATOM     61  C   UNL A   1      43.939  27.781  35.038  1.00  0.00     0.040 A 
ATOM     62  F   UNL A   1      44.042  29.979  34.222  1.00  0.00    -0.206 F 
ATOM     63  C   UNL A   1      43.853  26.409  34.815  1.00  0.00     0.006 A 
ENDBRANCH  39  56
ENDBRANCH  13  14
ENDBRANCH   6   8
ENDBRANCH   5   6
ENDBRANCH   4   5
ENDBRANCH   3   4
ENDBRANCH   2   3
ENDBRANCH   1   2
BRANCH   1  64
ATOM     64  C   UNL A   1      40.105  21.106  26.293  1.00  0.00     0.188 C 
BRANCH  64  65
ATOM     65  O   UNL A   1      38.967  20.501  25.682  1.00  0.00    -0.376 OA
BRANCH  65  66
ATOM     66  C   UNL A   1      37.996  21.307  25.043  1.00  0.00     0.202 C 
BRANCH  66  67
ATOM     67  C   UNL A   1      36.613  20.645  25.047  1.00  0.00     0.261 C 
BRANCH  67  68
ATOM     68  O   UNL A   1      35.522  21.581  25.079  1.00  0.00    -0.458 OA
BRANCH  68  69
ATOM     69  C   UNL A   1      34.307  21.074  24.683  1.00  0.00     0.361 C 
ATOM     70  O   UNL A   1      34.000  19.900  24.728  1.00  0.00    -0.244 OA
BRANCH  69  71
ATOM     71  C   UNL A   1      33.399  22.117  24.207  1.00  0.00     0.198 A 
ATOM     72  N   UNL A   1      32.614  21.913  23.098  1.00  0.00    -0.122 NA
ATOM     73  C   UNL A   1      33.112  23.374  24.730  1.00  0.00     0.123 A 
ATOM     74  N   UNL A   1      31.874  22.994  22.906  1.00  0.00    -0.061 NA
ATOM     75  N   UNL A   1      32.327  23.953  23.742  1.00  0.00    -0.213 N 
BRANCH  73  76
ATOM     76  C   UNL A   1      33.418  23.995  26.061  1.00  0.00     0.262 C 
ATOM     77  C   UNL A   1      32.209  24.027  27.006  1.00  0.00     0.281 C 
ATOM     78  O   UNL A   1      34.055  25.266  25.893  1.00  0.00    -0.477 OA
ATOM     79  O   UNL A   1      31.269  25.043  26.649  1.00  0.00    -0.485 OA
ATOM     80  C   UNL A   1      33.270  26.343  26.214  1.00  0.00     0.162 A 
ATOM     81  C   UNL A   1      31.914  26.245  26.535  1.00  0.00     0.161 A 
ATOM     82  C   UNL A   1      33.871  27.597  26.123  1.00  0.00     0.050 A 
ATOM     83  C   UNL A   1      31.143  27.394  26.690  1.00  0.00     0.050 A 
ATOM     84  C   UNL A   1      33.107  28.750  26.308  1.00  0.00     0.004 A 
ATOM     85  C   UNL A   1      31.740  28.649  26.576  1.00  0.00     0.004 A 
ENDBRANCH  73  76
BRANCH  75  86
ATOM     86  C   UNL A   1      32.324  25.282  23.277  1.00  0.00     0.067 A 
ATOM     87  C   UNL A   1      33.513  25.866  22.838  1.00  0.00     0.028 A 
ATOM     88  C   UNL A   1      31.135  26.020  23.343  1.00  0.00     0.041 A 
ATOM     89  C   UNL A   1      33.488  27.180  22.373  1.00  0.00     0.003 A 
ATOM     90  C   UNL A   1      31.123  27.361  22.936  1.00  0.00     0.058 A 
ATOM     91  C   UNL A   1      32.303  27.922  22.419  1.00  0.00     0.013 A 
BRANCH  90  92
ATOM     92  C   UNL A   1      29.866  28.188  23.043  1.00  0.00     0.416 C 
ATOM     93  F   UNL A   1      29.546  28.808  21.873  1.00  0.00    -0.166 F 
ATOM     94  F   UNL A   1      28.778  27.444  23.383  1.00  0.00    -0.166 F 
ATOM     95  F   UNL A   1      29.947  29.179  23.975  1.00  0.00    -0.166 F 
ENDBRANCH  90  92
ENDBRANCH  75  86
ENDBRANCH  69  71
ENDBRANCH  68  69
ENDBRANCH  67  68
ENDBRANCH  66  67
ENDBRANCH  65  66
ENDBRANCH  64  65
ENDBRANCH   1  64
TORSDOF 20
ENDMDL
MODEL 2
REMARK VINA RESULT:     -11.4      4.951      8.864
REMARK SMILES O=C(OCCOCCOCCOC(=O)c1nnn(-c2cccc(C(F)(F)F)c2)c1[C@@H]1COc2ccccc2O1)c1ccc(-c2c3nc(c(-c4c(F)cccc4F)c4ccc([nH]4)c(-c4c(F)cccc4F)c4nc(c(-c5c(F)cccc5F)c5ccc2[nH]5)C=C4)C=C3)cc1
REMARK SMILES IDX 7 1 6 2 5 3 4 4 3 5 2 6 1 7 40 8 41 9 93 10 42 11 92 12
REMARK SMILES IDX 43 13 44 14 45 15 86 16 46 17 91 18 85 19 87 20 47 21 90 22
REMARK SMILES IDX 84 23 83 24 48 26 74 27 57 28 73 29 58 30 61 31 72 32 88 33
REMARK SMILES IDX 59 34 60 35 71 37 89 38 62 39 49 40 50 41 55 42 51 43 52 44
REMARK SMILES IDX 54 45 56 46 53 47 75 48 76 49 81 50 77 51 78 52 80 53 82 54
REMARK SMILES IDX 79 55 63 56 64 57 69 58 65 59 66 60 68 61 70 62 67 63 8 64
REMARK SMILES IDX 9 65 10 66 11 67 12 68 13 69 14 70 15 71 16 72 29 73 17 74
REMARK SMILES IDX 18 75 30 76 31 77 39 78 32 79 38 80 33 81 37 82 34 83 36 84
REMARK SMILES IDX 35 85 19 86 20 87 28 88 21 89 23 90 22 91 24 92 25 93 26 94
REMARK SMILES IDX 27 95
REMARK H PARENT 87 25 61 36
REMARK Flexibility Score: inf
ROOT
ATOM      1  C   UNL A   1      42.836  18.315  26.540  1.00  0.00     0.188 C 
ENDROOT
BRANCH   1   2
ATOM      2  O   UNL A   1      41.767  18.644  25.660  1.00  0.00    -0.376 OA
BRANCH   2   3
ATOM      3  C   UNL A   1      40.820  19.593  26.131  1.00  0.00     0.202 C 
BRANCH   3   4
ATOM      4  C   UNL A   1      41.080  20.148  27.534  1.00  0.00     0.261 C 
BRANCH   4   5
ATOM      5  O   UNL A   1      41.250  21.571  27.598  1.00  0.00    -0.460 OA
BRANCH   5   6
ATOM      6  C   UNL A   1      40.399  22.573  27.312  1.00  0.00     0.338 C 
ATOM      7  O   UNL A   1      39.375  22.337  26.677  1.00  0.00    -0.246 OA
BRANCH   6   8
ATOM      8  C   UNL A   1      40.765  23.994  27.527  1.00  0.00     0.060 A 
ATOM      9  C   UNL A   1      41.707  24.439  28.451  1.00  0.00     0.016 A 
ATOM     10  C   UNL A   1      39.992  24.938  26.823  1.00  0.00     0.016 A 
ATOM     11  C   UNL A   1      41.803  25.797  28.739  1.00  0.00     0.010 A 
ATOM     12  C   UNL A   1      40.087  26.296  27.109  1.00  0.00     0.010 A 
ATOM     13  C   UNL A   1      40.947  26.715  28.120  1.00  0.00    -0.014 A 
BRANCH  13  14
ATOM     14  C   UNL A   1      40.927  28.078  28.650  1.00  0.00     0.031 A 
ATOM     15  C   UNL A   1      42.052  28.980  28.280  1.00  0.00     0.074 A 
ATOM     16  C   UNL A   1      39.930  28.538  29.432  1.00  0.00     0.049 A 
ATOM     17  N   UNL A   1      42.924  29.537  29.059  1.00  0.00    -0.248 NA
ATOM     18  C   UNL A   1      42.243  29.276  26.855  1.00  0.00     0.031 C 
ATOM     19  C   UNL A   1      38.621  27.931  29.691  1.00  0.00     0.029 A 
ATOM     20  N   UNL A   1      39.865  29.720  30.111  1.00  0.00    -0.354 N 
ATOM     21  C   UNL A   1      43.685  30.382  28.251  1.00  0.00     0.074 A 
ATOM     22  C   UNL A   1      43.278  30.118  26.892  1.00  0.00     0.031 C 
ATOM     23  C   UNL A   1      37.822  28.839  30.292  1.00  0.00     0.029 A 
ATOM     24  C   UNL A   1      38.603  30.027  30.589  1.00  0.00     0.049 A 
ATOM     25  H   UNL A   1      40.646  30.303  30.248  1.00  0.00     0.167 HD
ATOM     26  C   UNL A   1      44.492  31.354  28.759  1.00  0.00     0.037 A 
ATOM     27  C   UNL A   1      38.208  31.199  31.139  1.00  0.00     0.037 A 
ATOM     28  C   UNL A   1      44.792  31.143  30.147  1.00  0.00     0.049 A 
ATOM     29  C   UNL A   1      39.412  31.916  31.618  1.00  0.00     0.074 A 
ATOM     30  C   UNL A   1      45.437  30.158  30.870  1.00  0.00     0.029 A 
ATOM     31  N   UNL A   1      44.168  31.931  31.079  1.00  0.00    -0.354 N 
ATOM     32  N   UNL A   1      40.137  31.545  32.635  1.00  0.00    -0.248 NA
ATOM     33  C   UNL A   1      40.039  32.874  30.721  1.00  0.00     0.031 C 
ATOM     34  C   UNL A   1      44.772  30.126  32.130  1.00  0.00     0.029 A 
ATOM     35  C   UNL A   1      43.774  31.100  32.094  1.00  0.00     0.049 A 
ATOM     36  H   UNL A   1      44.030  32.905  31.029  1.00  0.00     0.167 HD
ATOM     37  C   UNL A   1      41.434  31.897  32.294  1.00  0.00     0.074 A 
ATOM     38  C   UNL A   1      41.296  32.811  31.166  1.00  0.00     0.031 C 
ATOM     39  C   UNL A   1      42.507  31.206  32.778  1.00  0.00     0.037 A 
BRANCH  26  40
ATOM     40  C   UNL A   1      44.797  32.662  28.075  1.00  0.00     0.057 A 
ATOM     41  C   UNL A   1      43.814  33.666  28.006  1.00  0.00     0.134 A 
ATOM     42  C   UNL A   1      45.914  32.856  27.240  1.00  0.00     0.134 A 
ATOM     43  F   UNL A   1      42.690  33.582  28.734  1.00  0.00    -0.206 F 
ATOM     44  C   UNL A   1      43.912  34.755  27.131  1.00  0.00     0.040 A 
ATOM     45  C   UNL A   1      46.045  33.965  26.398  1.00  0.00     0.040 A 
ATOM     46  F   UNL A   1      46.883  31.938  27.128  1.00  0.00    -0.206 F 
ATOM     47  C   UNL A   1      45.028  34.905  26.319  1.00  0.00     0.006 A 
ENDBRANCH  26  40
BRANCH  27  48
ATOM     48  C   UNL A   1      36.884  31.846  31.022  1.00  0.00     0.057 A 
ATOM     49  C   UNL A   1      36.076  32.070  32.142  1.00  0.00     0.134 A 
ATOM     50  C   UNL A   1      36.491  32.489  29.834  1.00  0.00     0.134 A 
ATOM     51  F   UNL A   1      36.397  31.540  33.331  1.00  0.00    -0.206 F 
ATOM     52  C   UNL A   1      34.946  32.897  32.087  1.00  0.00     0.040 A 
ATOM     53  C   UNL A   1      35.361  33.307  29.763  1.00  0.00     0.040 A 
ATOM     54  F   UNL A   1      37.241  32.414  28.724  1.00  0.00    -0.206 F 
ATOM     55  C   UNL A   1      34.589  33.523  30.896  1.00  0.00     0.006 A 
ENDBRANCH  27  48
BRANCH  39  56
ATOM     56  C   UNL A   1      42.277  30.246  33.909  1.00  0.00     0.057 A 
ATOM     57  C   UNL A   1      41.858  28.922  33.723  1.00  0.00     0.134 A 
ATOM     58  C   UNL A   1      42.661  30.617  35.203  1.00  0.00     0.134 A 
ATOM     59  F   UNL A   1      41.573  28.451  32.501  1.00  0.00    -0.206 F 
ATOM     60  C   UNL A   1      41.787  28.017  34.786  1.00  0.00     0.040 A 
ATOM     61  C   UNL A   1      42.625  29.715  36.268  1.00  0.00     0.040 A 
ATOM     62  F   UNL A   1      43.134  31.851  35.441  1.00  0.00    -0.206 F 
ATOM     63  C   UNL A   1      42.178  28.412  36.063  1.00  0.00     0.006 A 
ENDBRANCH  39  56
ENDBRANCH  13  14
ENDBRANCH   6   8
ENDBRANCH   5   6
ENDBRANCH   4   5
ENDBRANCH   3   4
ENDBRANCH   2   3
ENDBRANCH   1   2
BRANCH   1  64
ATOM     64  C   UNL A   1      44.250  18.455  25.932  1.00  0.00     0.188 C 
BRANCH  64  65
ATOM     65  O   UNL A   1      44.480  18.415  24.525  1.00  0.00    -0.376 OA
BRANCH  65  66
ATOM     66  C   UNL A   1      44.929  19.575  23.850  1.00  0.00     0.202 C 
BRANCH  66  67
ATOM     67  C   UNL A   1      45.096  20.762  24.806  1.00  0.00     0.261 C 
BRANCH  67  68
ATOM     68  O   UNL A   1      44.792  22.034  24.209  1.00  0.00    -0.458 OA
BRANCH  68  69
ATOM     69  C   UNL A   1      43.718  22.694  24.757  1.00  0.00     0.361 C 
ATOM     70  O   UNL A   1      42.597  22.237  24.845  1.00  0.00    -0.244 OA
BRANCH  69  71
ATOM     71  C   UNL A   1      44.076  24.025  25.246  1.00  0.00     0.198 A 
ATOM     72  N   UNL A   1      43.397  25.139  24.813  1.00  0.00    -0.122 NA
ATOM     73  C   UNL A   1      45.024  24.419  26.185  1.00  0.00     0.123 A 
ATOM     74  N   UNL A   1      43.898  26.199  25.428  1.00  0.00    -0.061 NA
ATOM     75  N   UNL A   1      45.015  25.803  26.079  1.00  0.00    -0.213 N 
BRANCH  73  76
ATOM     76  C   UNL A   1      45.816  23.638  27.192  1.00  0.00     0.262 C 
ATOM     77  C   UNL A   1      45.226  23.702  28.608  1.00  0.00     0.281 C 
ATOM     78  O   UNL A   1      47.202  23.987  27.127  1.00  0.00    -0.477 OA
ATOM     79  O   UNL A   1      45.482  24.954  29.246  1.00  0.00    -0.485 OA
ATOM     80  C   UNL A   1      47.655  24.723  28.192  1.00  0.00     0.162 A 
ATOM     81  C   UNL A   1      46.822  25.231  29.193  1.00  0.00     0.161 A 
ATOM     82  C   UNL A   1      49.013  25.033  28.198  1.00  0.00     0.050 A 
ATOM     83  C   UNL A   1      47.327  26.104  30.152  1.00  0.00     0.050 A 
ATOM     84  C   UNL A   1      49.528  25.884  29.178  1.00  0.00     0.004 A 
ATOM     85  C   UNL A   1      48.683  26.431  30.145  1.00  0.00     0.004 A 
ENDBRANCH  73  76
BRANCH  75  86
ATOM     86  C   UNL A   1      46.096  26.703  26.130  1.00  0.00     0.067 A 
ATOM     87  C   UNL A   1      46.028  27.822  26.961  1.00  0.00     0.028 A 
ATOM     88  C   UNL A   1      47.189  26.499  25.278  1.00  0.00     0.041 A 
ATOM     89  C   UNL A   1      47.113  28.698  27.004  1.00  0.00     0.003 A 
ATOM     90  C   UNL A   1      48.251  27.413  25.273  1.00  0.00     0.058 A 
ATOM     91  C   UNL A   1      48.216  28.495  26.170  1.00  0.00     0.013 A 
BRANCH  90  92
ATOM     92  C   UNL A   1      49.415  27.238  24.331  1.00  0.00     0.416 C 
ATOM     93  F   UNL A   1      50.295  28.277  24.387  1.00  0.00    -0.166 F 
ATOM     94  F   UNL A   1      50.141  26.118  24.599  1.00  0.00    -0.166 F 
ATOM     95  F   UNL A   1      49.045  27.139  23.024  1.00  0.00    -0.166 F 
ENDBRANCH  90  92
ENDBRANCH  75  86
ENDBRANCH  69  71
ENDBRANCH  68  69
ENDBRANCH  67  68
ENDBRANCH  66  67
ENDBRANCH  65  66
ENDBRANCH  64  65
ENDBRANCH   1  64
TORSDOF 20
ENDMDL
MODEL 3
REMARK VINA RESULT:     -11.2      6.140     11.723
REMARK SMILES O=C(OCCOCCOCCOC(=O)c1nnn(-c2cccc(C(F)(F)F)c2)c1[C@@H]1COc2ccccc2O1)c1ccc(-c2c3nc(c(-c4c(F)cccc4F)c4ccc([nH]4)c(-c4c(F)cccc4F)c4nc(c(-c5c(F)cccc5F)c5ccc2[nH]5)C=C4)C=C3)cc1
REMARK SMILES IDX 7 1 6 2 5 3 4 4 3 5 2 6 1 7 40 8 41 9 93 10 42 11 92 12
REMARK SMILES IDX 43 13 44 14 45 15 86 16 46 17 91 18 85 19 87 20 47 21 90 22
REMARK SMILES IDX 84 23 83 24 48 26 74 27 57 28 73 29 58 30 61 31 72 32 88 33
REMARK SMILES IDX 59 34 60 35 71 37 89 38 62 39 49 40 50 41 55 42 51 43 52 44
REMARK SMILES IDX 54 45 56 46 53 47 75 48 76 49 81 50 77 51 78 52 80 53 82 54
REMARK SMILES IDX 79 55 63 56 64 57 69 58 65 59 66 60 68 61 70 62 67 63 8 64
REMARK SMILES IDX 9 65 10 66 11 67 12 68 13 69 14 70 15 71 16 72 29 73 17 74
REMARK SMILES IDX 18 75 30 76 31 77 39 78 32 79 38 80 33 81 37 82 34 83 36 84
REMARK SMILES IDX 35 85 19 86 20 87 28 88 21 89 23 90 22 91 24 92 25 93 26 94
REMARK SMILES IDX 27 95
REMARK H PARENT 87 25 61 36
REMARK Flexibility Score: inf
ROOT
ATOM      1  C   UNL A   1      33.098  35.850  28.931  1.00  0.00     0.188 C 
ENDROOT
BRANCH   1   2
ATOM      2  O   UNL A   1      32.723  34.477  28.970  1.00  0.00    -0.376 OA
BRANCH   2   3
ATOM      3  C   UNL A   1      32.778  33.763  27.743  1.00  0.00     0.202 C 
BRANCH   3   4
ATOM      4  C   UNL A   1      33.081  32.267  27.860  1.00  0.00     0.261 C 
BRANCH   4   5
ATOM      5  O   UNL A   1      34.436  31.900  27.562  1.00  0.00    -0.460 OA
BRANCH   5   6
ATOM      6  C   UNL A   1      35.602  32.437  27.962  1.00  0.00     0.338 C 
ATOM      7  O   UNL A   1      35.914  33.561  27.581  1.00  0.00    -0.246 OA
BRANCH   6   8
ATOM      8  C   UNL A   1      36.636  31.631  28.655  1.00  0.00     0.060 A 
ATOM      9  C   UNL A   1      37.837  32.137  29.148  1.00  0.00     0.016 A 
ATOM     10  C   UNL A   1      36.411  30.241  28.684  1.00  0.00     0.016 A 
ATOM     11  C   UNL A   1      38.835  31.262  29.566  1.00  0.00     0.010 A 
ATOM     12  C   UNL A   1      37.407  29.364  29.103  1.00  0.00     0.010 A 
ATOM     13  C   UNL A   1      38.645  29.877  29.478  1.00  0.00    -0.014 A 
BRANCH  13  14
ATOM     14  C   UNL A   1      39.814  29.026  29.691  1.00  0.00     0.031 A 
ATOM     15  C   UNL A   1      40.250  28.787  31.094  1.00  0.00     0.074 A 
ATOM     16  C   UNL A   1      40.483  28.444  28.675  1.00  0.00     0.049 A 
ATOM     17  N   UNL A   1      41.373  29.113  31.652  1.00  0.00    -0.248 NA
ATOM     18  C   UNL A   1      39.300  28.127  31.997  1.00  0.00     0.031 C 
ATOM     19  C   UNL A   1      40.079  28.318  27.272  1.00  0.00     0.029 A 
ATOM     20  N   UNL A   1      41.664  27.762  28.722  1.00  0.00    -0.354 N 
ATOM     21  C   UNL A   1      41.345  28.563  32.934  1.00  0.00     0.074 A 
ATOM     22  C   UNL A   1      40.013  28.041  33.122  1.00  0.00     0.031 C 
ATOM     23  C   UNL A   1      40.889  27.430  26.654  1.00  0.00     0.029 A 
ATOM     24  C   UNL A   1      41.947  27.044  27.572  1.00  0.00     0.049 A 
ATOM     25  H   UNL A   1      42.262  27.779  29.503  1.00  0.00     0.167 HD
ATOM     26  C   UNL A   1      42.461  28.435  33.703  1.00  0.00     0.037 A 
ATOM     27  C   UNL A   1      42.947  26.148  27.401  1.00  0.00     0.037 A 
ATOM     28  C   UNL A   1      43.534  29.275  33.251  1.00  0.00     0.049 A 
ATOM     29  C   UNL A   1      43.986  26.412  28.423  1.00  0.00     0.074 A 
ATOM     30  C   UNL A   1      43.721  30.637  33.117  1.00  0.00     0.029 A 
ATOM     31  N   UNL A   1      44.584  28.695  32.587  1.00  0.00    -0.354 N 
ATOM     32  N   UNL A   1      44.763  27.458  28.434  1.00  0.00    -0.248 NA
ATOM     33  C   UNL A   1      43.919  25.673  29.674  1.00  0.00     0.031 C 
ATOM     34  C   UNL A   1      44.579  30.786  31.990  1.00  0.00     0.029 A 
ATOM     35  C   UNL A   1      44.866  29.504  31.519  1.00  0.00     0.049 A 
ATOM     36  H   UNL A   1      45.046  27.860  32.831  1.00  0.00     0.167 HD
ATOM     37  C   UNL A   1      44.959  27.742  29.777  1.00  0.00     0.074 A 
ATOM     38  C   UNL A   1      44.516  26.548  30.486  1.00  0.00     0.031 C 
ATOM     39  C   UNL A   1      45.205  29.016  30.204  1.00  0.00     0.037 A 
BRANCH  26  40
ATOM     40  C   UNL A   1      42.687  27.340  34.713  1.00  0.00     0.057 A 
ATOM     41  C   UNL A   1      43.125  26.072  34.290  1.00  0.00     0.134 A 
ATOM     42  C   UNL A   1      42.219  27.402  36.040  1.00  0.00     0.134 A 
ATOM     43  F   UNL A   1      43.569  25.877  33.038  1.00  0.00    -0.206 F 
ATOM     44  C   UNL A   1      43.052  24.938  35.109  1.00  0.00     0.040 A 
ATOM     45  C   UNL A   1      42.188  26.286  36.883  1.00  0.00     0.040 A 
ATOM     46  F   UNL A   1      41.683  28.518  36.551  1.00  0.00    -0.206 F 
ATOM     47  C   UNL A   1      42.577  25.042  36.410  1.00  0.00     0.006 A 
ENDBRANCH  26  40
BRANCH  27  48
ATOM     48  C   UNL A   1      42.920  24.916  26.587  1.00  0.00     0.057 A 
ATOM     49  C   UNL A   1      43.675  24.794  25.416  1.00  0.00     0.134 A 
ATOM     50  C   UNL A   1      42.343  23.730  27.080  1.00  0.00     0.134 A 
ATOM     51  F   UNL A   1      44.304  25.858  24.897  1.00  0.00    -0.206 F 
ATOM     52  C   UNL A   1      43.857  23.561  24.775  1.00  0.00     0.040 A 
ATOM     53  C   UNL A   1      42.507  22.497  26.445  1.00  0.00     0.040 A 
ATOM     54  F   UNL A   1      41.673  23.716  28.242  1.00  0.00    -0.206 F 
ATOM     55  C   UNL A   1      43.276  22.406  25.294  1.00  0.00     0.006 A 
ENDBRANCH  27  48
BRANCH  39  56
ATOM     56  C   UNL A   1      45.546  30.052  29.174  1.00  0.00     0.057 A 
ATOM     57  C   UNL A   1      44.582  30.778  28.462  1.00  0.00     0.134 A 
ATOM     58  C   UNL A   1      46.880  30.451  29.029  1.00  0.00     0.134 A 
ATOM     59  F   UNL A   1      43.275  30.534  28.621  1.00  0.00    -0.206 F 
ATOM     60  C   UNL A   1      44.934  31.831  27.612  1.00  0.00     0.040 A 
ATOM     61  C   UNL A   1      47.243  31.521  28.208  1.00  0.00     0.040 A 
ATOM     62  F   UNL A   1      47.849  29.842  29.731  1.00  0.00    -0.206 F 
ATOM     63  C   UNL A   1      46.269  32.209  27.488  1.00  0.00     0.006 A 
ENDBRANCH  39  56
ENDBRANCH  13  14
ENDBRANCH   6   8
ENDBRANCH   5   6
ENDBRANCH   4   5
ENDBRANCH   3   4
ENDBRANCH   2   3
ENDBRANCH   1   2
BRANCH   1  64
ATOM     64  C   UNL A   1      33.018  36.588  30.286  1.00  0.00     0.188 C 
BRANCH  64  65
ATOM     65  O   UNL A   1      32.576  35.943  31.478  1.00  0.00    -0.376 OA
BRANCH  65  66
ATOM     66  C   UNL A   1      33.261  36.165  32.697  1.00  0.00     0.202 C 
BRANCH  66  67
ATOM     67  C   UNL A   1      34.245  35.032  33.011  1.00  0.00     0.261 C 
BRANCH  67  68
ATOM     68  O   UNL A   1      34.953  34.542  31.859  1.00  0.00    -0.458 OA
BRANCH  68  69
ATOM     69  C   UNL A   1      34.950  33.176  31.709  1.00  0.00     0.361 C 
ATOM     70  O   UNL A   1      34.066  32.542  31.171  1.00  0.00    -0.244 OA
BRANCH  69  71
ATOM     71  C   UNL A   1      36.152  32.555  32.264  1.00  0.00     0.198 A 
ATOM     72  N   UNL A   1      36.258  31.187  32.357  1.00  0.00    -0.122 NA
ATOM     73  C   UNL A   1      37.338  33.124  32.715  1.00  0.00     0.123 A 
ATOM     74  N   UNL A   1      37.446  30.894  32.862  1.00  0.00    -0.061 NA
ATOM     75  N   UNL A   1      38.006  32.048  33.285  1.00  0.00    -0.213 N 
BRANCH  73  76
ATOM     76  C   UNL A   1      37.903  34.505  32.564  1.00  0.00     0.262 C 
ATOM     77  C   UNL A   1      38.965  34.608  31.460  1.00  0.00     0.281 C 
ATOM     78  O   UNL A   1      38.333  35.018  33.829  1.00  0.00    -0.477 OA
ATOM     79  O   UNL A   1      40.217  34.044  31.858  1.00  0.00    -0.485 OA
ATOM     80  C   UNL A   1      39.693  35.099  33.980  1.00  0.00     0.162 A 
ATOM     81  C   UNL A   1      40.606  34.589  33.053  1.00  0.00     0.161 A 
ATOM     82  C   UNL A   1      40.153  35.649  35.174  1.00  0.00     0.050 A 
ATOM     83  C   UNL A   1      41.967  34.560  33.348  1.00  0.00     0.050 A 
ATOM     84  C   UNL A   1      41.520  35.650  35.458  1.00  0.00     0.004 A 
ATOM     85  C   UNL A   1      42.424  35.092  34.554  1.00  0.00     0.004 A 
ENDBRANCH  73  76
BRANCH  75  86
ATOM     86  C   UNL A   1      38.783  32.007  34.458  1.00  0.00     0.067 A 
ATOM     87  C   UNL A   1      40.093  31.528  34.406  1.00  0.00     0.028 A 
ATOM     88  C   UNL A   1      38.193  32.374  35.675  1.00  0.00     0.041 A 
ATOM     89  C   UNL A   1      40.849  31.503  35.577  1.00  0.00     0.003 A 
ATOM     90  C   UNL A   1      38.932  32.288  36.862  1.00  0.00     0.058 A 
ATOM     91  C   UNL A   1      40.275  31.882  36.795  1.00  0.00     0.013 A 
BRANCH  90  92
ATOM     92  C   UNL A   1      38.302  32.632  38.189  1.00  0.00     0.416 C 
ATOM     93  F   UNL A   1      37.364  31.723  38.575  1.00  0.00    -0.166 F 
ATOM     94  F   UNL A   1      39.212  32.684  39.201  1.00  0.00    -0.166 F 
ATOM     95  F   UNL A   1      37.670  33.839  38.193  1.00  0.00    -0.166 F 
ENDBRANCH  90  92
ENDBRANCH  75  86
ENDBRANCH  69  71
ENDBRANCH  68  69
ENDBRANCH  67  68
ENDBRANCH  66  67
ENDBRANCH  65  66
ENDBRANCH  64  65
ENDBRANCH   1  64
TORSDOF 20
ENDMDL
