MODEL 1
REMARK VINA RESULT:     -10.5      0.000      0.000
REMARK SMILES Cc1cscc1C(=O)N1CC[C@H](C(=O)OCCOCCOCCOC(=O)c2ccc(-c3c4nc(c(-c5c(F)cccc5F)c5ccc([nH]5)c(-c5c(F)cccc5F)c5nc(c(-c6c(F)cccc6F)c6ccc3[nH]6)C=C5)C=C4)cc2)[C@H]1C
REMARK SMILES IDX 19 1 18 2 17 3 16 4 15 5 13 6 14 7 12 8 9 9 10 10 81 11
REMARK SMILES IDX 11 12 82 13 7 14 8 15 6 16 1 17 2 18 3 19 4 20 5 21 20 22
REMARK SMILES IDX 21 23 22 24 23 25 24 26 25 27 26 28 27 29 28 30 80 31 29 32
REMARK SMILES IDX 79 33 30 34 31 35 32 36 73 37 33 38 78 39 72 40 74 41 34 42
REMARK SMILES IDX 77 43 71 44 70 45 35 47 61 48 44 49 60 50 45 51 48 52 59 53
REMARK SMILES IDX 75 54 46 55 47 56 58 58 76 59 49 60 36 61 37 62 42 63 38 64
REMARK SMILES IDX 39 65 41 66 43 67 40 68 62 69 63 70 68 71 64 72 65 73 67 74
REMARK SMILES IDX 69 75 66 76 50 77 51 78 56 79 52 80 53 81 55 82 57 83 54 84
REMARK H PARENT 74 46 48 57
REMARK Flexibility Score: inf
ROOT
ATOM      1  C   UNL A   1      39.843  21.230  25.959  1.00  0.00     0.188 C 
ENDROOT
BRANCH   1   2
ATOM      2  O   UNL A   1      39.398  22.196  26.881  1.00  0.00    -0.376 OA
BRANCH   2   3
ATOM      3  C   UNL A   1      38.840  23.419  26.425  1.00  0.00     0.202 C 
BRANCH   3   4
ATOM      4  C   UNL A   1      37.508  23.564  25.661  1.00  0.00     0.261 C 
BRANCH   4   5
ATOM      5  O   UNL A   1      36.422  22.740  26.092  1.00  0.00    -0.463 OA
BRANCH   5   6
ATOM      6  C   UNL A   1      35.338  22.670  25.270  1.00  0.00     0.311 C 
ATOM      7  O   UNL A   1      35.174  23.357  24.273  1.00  0.00    -0.252 OA
BRANCH   6   8
ATOM      8  C   UNL A   1      34.385  21.583  25.740  1.00  0.00     0.123 C 
ATOM      9  N   UNL A   1      32.351  22.490  26.632  1.00  0.00    -0.335 N 
ATOM     10  C   UNL A   1      33.354  22.482  27.686  1.00  0.00     0.121 C 
ATOM     11  C   UNL A   1      32.932  21.953  25.394  1.00  0.00     0.096 C 
ATOM     12  C   UNL A   1      34.383  21.454  27.257  1.00  0.00     0.039 C 
ATOM     13  C   UNL A   1      32.130  20.745  24.908  1.00  0.00     0.032 C 
BRANCH   9  14
ATOM     14  C   UNL A   1      31.603  23.659  26.519  1.00  0.00     0.255 C 
ATOM     15  O   UNL A   1      30.637  23.868  27.250  1.00  0.00    -0.269 OA
BRANCH  14  16
ATOM     16  C   UNL A   1      32.044  24.645  25.522  1.00  0.00     0.053 A 
ATOM     17  C   UNL A   1      30.649  24.055  23.362  1.00  0.00     0.046 C 
ATOM     18  C   UNL A   1      31.664  24.834  24.132  1.00  0.00    -0.028 A 
ATOM     19  C   UNL A   1      32.381  25.870  23.555  1.00  0.00     0.069 A 
ATOM     20  S   UNL A   1      33.437  26.649  24.639  1.00  0.00    -0.151 S 
ATOM     21  C   UNL A   1      32.976  25.604  25.898  1.00  0.00     0.079 A 
ENDBRANCH  14  16
ENDBRANCH   9  14
ENDBRANCH   6   8
ENDBRANCH   5   6
ENDBRANCH   4   5
ENDBRANCH   3   4
ENDBRANCH   2   3
ENDBRANCH   1   2
BRANCH   1  22
ATOM     22  C   UNL A   1      40.750  20.129  26.548  1.00  0.00     0.188 C 
BRANCH  22  23
ATOM     23  O   UNL A   1      42.109  20.387  26.842  1.00  0.00    -0.376 OA
BRANCH  23  24
ATOM     24  C   UNL A   1      43.082  20.228  25.821  1.00  0.00     0.202 C 
BRANCH  24  25
ATOM     25  C   UNL A   1      43.808  21.437  25.203  1.00  0.00     0.261 C 
BRANCH  25  26
ATOM     26  O   UNL A   1      43.036  22.639  25.056  1.00  0.00    -0.460 OA
BRANCH  26  27
ATOM     27  C   UNL A   1      43.746  23.794  25.084  1.00  0.00     0.338 C 
ATOM     28  O   UNL A   1      44.708  24.091  24.398  1.00  0.00    -0.246 OA
BRANCH  27  29
ATOM     29  C   UNL A   1      43.070  24.765  25.966  1.00  0.00     0.060 A 
ATOM     30  C   UNL A   1      43.415  26.122  25.864  1.00  0.00     0.016 A 
ATOM     31  C   UNL A   1      42.157  24.337  26.928  1.00  0.00     0.016 A 
ATOM     32  C   UNL A   1      42.860  27.054  26.740  1.00  0.00     0.010 A 
ATOM     33  C   UNL A   1      41.625  25.268  27.823  1.00  0.00     0.010 A 
ATOM     34  C   UNL A   1      41.995  26.624  27.753  1.00  0.00    -0.014 A 
BRANCH  34  35
ATOM     35  C   UNL A   1      41.622  27.541  28.857  1.00  0.00     0.031 A 
ATOM     36  C   UNL A   1      42.379  27.442  30.153  1.00  0.00     0.074 A 
ATOM     37  C   UNL A   1      40.625  28.432  28.724  1.00  0.00     0.049 A 
ATOM     38  N   UNL A   1      42.151  28.033  31.298  1.00  0.00    -0.248 NA
ATOM     39  C   UNL A   1      43.549  26.549  30.157  1.00  0.00     0.031 C 
ATOM     40  C   UNL A   1      39.857  28.667  27.504  1.00  0.00     0.029 A 
ATOM     41  N   UNL A   1      40.074  29.289  29.643  1.00  0.00    -0.354 N 
ATOM     42  C   UNL A   1      43.136  27.572  32.162  1.00  0.00     0.074 A 
ATOM     43  C   UNL A   1      43.952  26.639  31.415  1.00  0.00     0.031 C 
ATOM     44  C   UNL A   1      38.911  29.590  27.758  1.00  0.00     0.029 A 
ATOM     45  C   UNL A   1      38.984  29.975  29.168  1.00  0.00     0.049 A 
ATOM     46  H   UNL A   1      40.428  29.401  30.556  1.00  0.00     0.167 HD
ATOM     47  C   UNL A   1      43.340  27.897  33.459  1.00  0.00     0.037 A 
ATOM     48  C   UNL A   1      38.121  30.789  29.809  1.00  0.00     0.037 A 
ATOM     49  C   UNL A   1      42.524  28.822  34.199  1.00  0.00     0.049 A 
ATOM     50  C   UNL A   1      38.317  31.069  31.278  1.00  0.00     0.074 A 
ATOM     51  C   UNL A   1      42.656  29.225  35.517  1.00  0.00     0.029 A 
ATOM     52  N   UNL A   1      41.418  29.482  33.687  1.00  0.00    -0.354 N 
ATOM     53  N   UNL A   1      39.254  30.637  32.087  1.00  0.00    -0.248 NA
ATOM     54  C   UNL A   1      37.332  31.950  31.923  1.00  0.00     0.031 C 
ATOM     55  C   UNL A   1      41.598  30.089  35.817  1.00  0.00     0.029 A 
ATOM     56  C   UNL A   1      40.844  30.272  34.669  1.00  0.00     0.049 A 
ATOM     57  H   UNL A   1      41.089  29.402  32.763  1.00  0.00     0.167 HD
ATOM     58  C   UNL A   1      38.996  31.225  33.320  1.00  0.00     0.074 A 
ATOM     59  C   UNL A   1      37.816  32.045  33.154  1.00  0.00     0.031 C 
ATOM     60  C   UNL A   1      39.681  31.102  34.484  1.00  0.00     0.037 A 
BRANCH  47  61
ATOM     61  C   UNL A   1      44.473  27.220  34.172  1.00  0.00     0.057 A 
ATOM     62  C   UNL A   1      44.313  25.988  34.820  1.00  0.00     0.134 A 
ATOM     63  C   UNL A   1      45.752  27.792  34.179  1.00  0.00     0.134 A 
ATOM     64  F   UNL A   1      43.110  25.393  34.863  1.00  0.00    -0.206 F 
ATOM     65  C   UNL A   1      45.378  25.360  35.467  1.00  0.00     0.040 A 
ATOM     66  C   UNL A   1      46.830  27.161  34.800  1.00  0.00     0.040 A 
ATOM     67  F   UNL A   1      45.975  28.969  33.575  1.00  0.00    -0.206 F 
ATOM     68  C   UNL A   1      46.644  25.944  35.451  1.00  0.00     0.006 A 
ENDBRANCH  47  61
BRANCH  48  69
ATOM     69  C   UNL A   1      36.971  31.380  29.079  1.00  0.00     0.057 A 
ATOM     70  C   UNL A   1      36.996  32.709  28.640  1.00  0.00     0.134 A 
ATOM     71  C   UNL A   1      35.805  30.644  28.836  1.00  0.00     0.134 A 
ATOM     72  F   UNL A   1      38.072  33.476  28.870  1.00  0.00    -0.206 F 
ATOM     73  C   UNL A   1      35.898  33.289  28.002  1.00  0.00     0.040 A 
ATOM     74  C   UNL A   1      34.710  31.202  28.176  1.00  0.00     0.040 A 
ATOM     75  F   UNL A   1      35.715  29.367  29.237  1.00  0.00    -0.206 F 
ATOM     76  C   UNL A   1      34.751  32.532  27.764  1.00  0.00     0.006 A 
ENDBRANCH  48  69
BRANCH  60  77
ATOM     77  C   UNL A   1      39.217  31.918  35.657  1.00  0.00     0.057 A 
ATOM     78  C   UNL A   1      39.650  33.232  35.871  1.00  0.00     0.134 A 
ATOM     79  C   UNL A   1      38.269  31.397  36.549  1.00  0.00     0.134 A 
ATOM     80  F   UNL A   1      40.563  33.788  35.061  1.00  0.00    -0.206 F 
ATOM     81  C   UNL A   1      39.173  33.991  36.942  1.00  0.00     0.040 A 
ATOM     82  C   UNL A   1      37.765  32.155  37.606  1.00  0.00     0.040 A 
ATOM     83  F   UNL A   1      37.803  30.148  36.394  1.00  0.00    -0.206 F 
ATOM     84  C   UNL A   1      38.220  33.456  37.808  1.00  0.00     0.006 A 
ENDBRANCH  60  77
ENDBRANCH  34  35
ENDBRANCH  27  29
ENDBRANCH  26  27
ENDBRANCH  25  26
ENDBRANCH  24  25
ENDBRANCH  23  24
ENDBRANCH  22  23
ENDBRANCH   1  22
TORSDOF 19
ENDMDL
MODEL 2
REMARK VINA RESULT:     -10.4      1.115      1.777
REMARK SMILES Cc1cscc1C(=O)N1CC[C@H](C(=O)OCCOCCOCCOC(=O)c2ccc(-c3c4nc(c(-c5c(F)cccc5F)c5ccc([nH]5)c(-c5c(F)cccc5F)c5nc(c(-c6c(F)cccc6F)c6ccc3[nH]6)C=C5)C=C4)cc2)[C@H]1C
REMARK SMILES IDX 19 1 18 2 17 3 16 4 15 5 13 6 14 7 12 8 9 9 10 10 81 11
REMARK SMILES IDX 11 12 82 13 7 14 8 15 6 16 1 17 2 18 3 19 4 20 5 21 20 22
REMARK SMILES IDX 21 23 22 24 23 25 24 26 25 27 26 28 27 29 28 30 80 31 29 32
REMARK SMILES IDX 79 33 30 34 31 35 32 36 73 37 33 38 78 39 72 40 74 41 34 42
REMARK SMILES IDX 77 43 71 44 70 45 35 47 61 48 44 49 60 50 45 51 48 52 59 53
REMARK SMILES IDX 75 54 46 55 47 56 58 58 76 59 49 60 36 61 37 62 42 63 38 64
REMARK SMILES IDX 39 65 41 66 43 67 40 68 62 69 63 70 68 71 64 72 65 73 67 74
REMARK SMILES IDX 69 75 66 76 50 77 51 78 56 79 52 80 53 81 55 82 57 83 54 84
REMARK H PARENT 74 46 48 57
REMARK Flexibility Score: inf
ROOT
ATOM      1  C   UNL A   1      39.441  20.137  25.800  1.00  0.00     0.188 C 
ENDROOT
BRANCH   1   2
ATOM      2  O   UNL A   1      38.921  21.443  25.870  1.00  0.00    -0.376 OA
BRANCH   2   3
ATOM      3  C   UNL A   1      37.768  21.796  25.121  1.00  0.00     0.202 C 
BRANCH   3   4
ATOM      4  C   UNL A   1      36.309  21.554  25.560  1.00  0.00     0.261 C 
BRANCH   4   5
ATOM      5  O   UNL A   1      35.308  21.626  24.542  1.00  0.00    -0.463 OA
BRANCH   5   6
ATOM      6  C   UNL A   1      34.041  21.273  24.899  1.00  0.00     0.311 C 
ATOM      7  O   UNL A   1      33.762  20.516  25.816  1.00  0.00    -0.252 OA
BRANCH   6   8
ATOM      8  C   UNL A   1      33.025  21.989  24.025  1.00  0.00     0.123 C 
ATOM      9  N   UNL A   1      32.978  24.351  24.443  1.00  0.00    -0.335 N 
ATOM     10  C   UNL A   1      32.121  23.693  25.417  1.00  0.00     0.121 C 
ATOM     11  C   UNL A   1      33.577  23.346  23.555  1.00  0.00     0.096 C 
ATOM     12  C   UNL A   1      31.768  22.351  24.804  1.00  0.00     0.039 C 
ATOM     13  C   UNL A   1      33.220  23.640  22.098  1.00  0.00     0.032 C 
BRANCH   9  14
ATOM     14  C   UNL A   1      33.831  25.327  24.952  1.00  0.00     0.255 C 
ATOM     15  O   UNL A   1      34.949  25.036  25.373  1.00  0.00    -0.269 OA
BRANCH  14  16
ATOM     16  C   UNL A   1      33.355  26.717  24.923  1.00  0.00     0.053 A 
ATOM     17  C   UNL A   1      33.660  27.459  22.411  1.00  0.00     0.046 C 
ATOM     18  C   UNL A   1      33.284  27.682  23.838  1.00  0.00    -0.028 A 
ATOM     19  C   UNL A   1      32.808  28.904  24.287  1.00  0.00     0.069 A 
ATOM     20  S   UNL A   1      32.392  28.903  25.937  1.00  0.00    -0.151 S 
ATOM     21  C   UNL A   1      32.861  27.277  26.094  1.00  0.00     0.079 A 
ENDBRANCH  14  16
ENDBRANCH   9  14
ENDBRANCH   6   8
ENDBRANCH   5   6
ENDBRANCH   4   5
ENDBRANCH   3   4
ENDBRANCH   2   3
ENDBRANCH   1   2
BRANCH   1  22
ATOM     22  C   UNL A   1      40.897  19.982  26.289  1.00  0.00     0.188 C 
BRANCH  22  23
ATOM     23  O   UNL A   1      41.942  19.691  25.381  1.00  0.00    -0.376 OA
BRANCH  23  24
ATOM     24  C   UNL A   1      43.277  20.017  25.733  1.00  0.00     0.202 C 
BRANCH  24  25
ATOM     25  C   UNL A   1      43.929  21.341  25.294  1.00  0.00     0.261 C 
BRANCH  25  26
ATOM     26  O   UNL A   1      43.052  22.473  25.173  1.00  0.00    -0.460 OA
BRANCH  26  27
ATOM     27  C   UNL A   1      43.669  23.673  25.031  1.00  0.00     0.338 C 
ATOM     28  O   UNL A   1      44.526  23.977  24.220  1.00  0.00    -0.246 OA
BRANCH  27  29
ATOM     29  C   UNL A   1      43.015  24.666  25.906  1.00  0.00     0.060 A 
ATOM     30  C   UNL A   1      43.423  26.007  25.825  1.00  0.00     0.016 A 
ATOM     31  C   UNL A   1      42.063  24.271  26.844  1.00  0.00     0.016 A 
ATOM     32  C   UNL A   1      42.889  26.956  26.696  1.00  0.00     0.010 A 
ATOM     33  C   UNL A   1      41.552  25.217  27.735  1.00  0.00     0.010 A 
ATOM     34  C   UNL A   1      41.983  26.556  27.685  1.00  0.00    -0.014 A 
BRANCH  34  35
ATOM     35  C   UNL A   1      41.626  27.480  28.789  1.00  0.00     0.031 A 
ATOM     36  C   UNL A   1      42.394  27.383  30.078  1.00  0.00     0.074 A 
ATOM     37  C   UNL A   1      40.631  28.375  28.662  1.00  0.00     0.049 A 
ATOM     38  N   UNL A   1      42.181  27.980  31.222  1.00  0.00    -0.248 NA
ATOM     39  C   UNL A   1      43.560  26.484  30.074  1.00  0.00     0.031 C 
ATOM     40  C   UNL A   1      39.852  28.609  27.448  1.00  0.00     0.029 A 
ATOM     41  N   UNL A   1      40.093  29.239  29.583  1.00  0.00    -0.354 N 
ATOM     42  C   UNL A   1      43.172  27.518  32.078  1.00  0.00     0.074 A 
ATOM     43  C   UNL A   1      43.977  26.578  31.328  1.00  0.00     0.031 C 
ATOM     44  C   UNL A   1      38.914  29.537  27.708  1.00  0.00     0.029 A 
ATOM     45  C   UNL A   1      39.002  29.928  29.115  1.00  0.00     0.049 A 
ATOM     46  H   UNL A   1      40.457  29.353  30.491  1.00  0.00     0.167 HD
ATOM     47  C   UNL A   1      43.391  27.848  33.372  1.00  0.00     0.037 A 
ATOM     48  C   UNL A   1      38.150  30.749  29.761  1.00  0.00     0.037 A 
ATOM     49  C   UNL A   1      42.586  28.780  34.116  1.00  0.00     0.049 A 
ATOM     50  C   UNL A   1      38.361  31.034  31.227  1.00  0.00     0.074 A 
ATOM     51  C   UNL A   1      42.733  29.188  35.431  1.00  0.00     0.029 A 
ATOM     52  N   UNL A   1      41.478  29.443  33.612  1.00  0.00    -0.354 N 
ATOM     53  N   UNL A   1      39.305  30.601  32.028  1.00  0.00    -0.248 NA
ATOM     54  C   UNL A   1      37.387  31.923  31.878  1.00  0.00     0.031 C 
ATOM     55  C   UNL A   1      41.683  30.058  35.737  1.00  0.00     0.029 A 
ATOM     56  C   UNL A   1      40.918  30.240  34.596  1.00  0.00     0.049 A 
ATOM     57  H   UNL A   1      41.140  29.361  32.691  1.00  0.00     0.167 HD
ATOM     58  C   UNL A   1      39.062  31.196  33.262  1.00  0.00     0.074 A 
ATOM     59  C   UNL A   1      37.884  32.021  33.104  1.00  0.00     0.031 C 
ATOM     60  C   UNL A   1      39.758  31.075  34.419  1.00  0.00     0.037 A 
BRANCH  47  61
ATOM     61  C   UNL A   1      44.527  27.168  34.077  1.00  0.00     0.057 A 
ATOM     62  C   UNL A   1      45.805  27.738  34.148  1.00  0.00     0.134 A 
ATOM     63  C   UNL A   1      44.330  25.942  34.725  1.00  0.00     0.134 A 
ATOM     64  F   UNL A   1      46.065  28.904  33.537  1.00  0.00    -0.206 F 
ATOM     65  C   UNL A   1      46.851  27.103  34.821  1.00  0.00     0.040 A 
ATOM     66  C   UNL A   1      45.360  25.310  35.422  1.00  0.00     0.040 A 
ATOM     67  F   UNL A   1      43.130  25.342  34.698  1.00  0.00    -0.206 F 
ATOM     68  C   UNL A   1      46.627  25.889  35.467  1.00  0.00     0.006 A 
ENDBRANCH  47  61
BRANCH  48  69
ATOM     69  C   UNL A   1      36.995  31.343  29.040  1.00  0.00     0.057 A 
ATOM     70  C   UNL A   1      37.004  32.682  28.634  1.00  0.00     0.134 A 
ATOM     71  C   UNL A   1      35.840  30.597  28.773  1.00  0.00     0.134 A 
ATOM     72  F   UNL A   1      38.068  33.458  28.889  1.00  0.00    -0.206 F 
ATOM     73  C   UNL A   1      35.901  33.263  28.005  1.00  0.00     0.040 A 
ATOM     74  C   UNL A   1      34.741  31.156  28.121  1.00  0.00     0.040 A 
ATOM     75  F   UNL A   1      35.766  29.309  29.142  1.00  0.00    -0.206 F 
ATOM     76  C   UNL A   1      34.766  32.497  27.743  1.00  0.00     0.006 A 
ENDBRANCH  48  69
BRANCH  60  77
ATOM     77  C   UNL A   1      39.309  31.899  35.593  1.00  0.00     0.057 A 
ATOM     78  C   UNL A   1      39.744  33.214  35.792  1.00  0.00     0.134 A 
ATOM     79  C   UNL A   1      38.375  31.382  36.502  1.00  0.00     0.134 A 
ATOM     80  F   UNL A   1      40.645  33.766  34.965  1.00  0.00    -0.206 F 
ATOM     81  C   UNL A   1      39.281  33.980  36.864  1.00  0.00     0.040 A 
ATOM     82  C   UNL A   1      37.884  32.147  37.560  1.00  0.00     0.040 A 
ATOM     83  F   UNL A   1      37.907  30.132  36.362  1.00  0.00    -0.206 F 
ATOM     84  C   UNL A   1      38.341  33.450  37.747  1.00  0.00     0.006 A 
ENDBRANCH  60  77
ENDBRANCH  34  35
ENDBRANCH  27  29
ENDBRANCH  26  27
ENDBRANCH  25  26
ENDBRANCH  24  25
ENDBRANCH  23  24
ENDBRANCH  22  23
ENDBRANCH   1  22
TORSDOF 19
ENDMDL
MODEL 3
REMARK VINA RESULT:     -10.2      1.026      2.257
REMARK SMILES Cc1cscc1C(=O)N1CC[C@H](C(=O)OCCOCCOCCOC(=O)c2ccc(-c3c4nc(c(-c5c(F)cccc5F)c5ccc([nH]5)c(-c5c(F)cccc5F)c5nc(c(-c6c(F)cccc6F)c6ccc3[nH]6)C=C5)C=C4)cc2)[C@H]1C
REMARK SMILES IDX 19 1 18 2 17 3 16 4 15 5 13 6 14 7 12 8 9 9 10 10 81 11
REMARK SMILES IDX 11 12 82 13 7 14 8 15 6 16 1 17 2 18 3 19 4 20 5 21 20 22
REMARK SMILES IDX 21 23 22 24 23 25 24 26 25 27 26 28 27 29 28 30 80 31 29 32
REMARK SMILES IDX 79 33 30 34 31 35 32 36 73 37 33 38 78 39 72 40 74 41 34 42
REMARK SMILES IDX 77 43 71 44 70 45 35 47 61 48 44 49 60 50 45 51 48 52 59 53
REMARK SMILES IDX 75 54 46 55 47 56 58 58 76 59 49 60 36 61 37 62 42 63 38 64
REMARK SMILES IDX 39 65 41 66 43 67 40 68 62 69 63 70 68 71 64 72 65 73 67 74
REMARK SMILES IDX 69 75 66 76 50 77 51 78 56 79 52 80 53 81 55 82 57 83 54 84
REMARK H PARENT 74 46 48 57
REMARK Flexibility Score: inf
ROOT
ATOM      1  C   UNL A   1      39.071  20.296  25.354  1.00  0.00     0.188 C 
ENDROOT
BRANCH   1   2
ATOM      2  O   UNL A   1      38.451  21.512  25.697  1.00  0.00    -0.376 OA
BRANCH   2   3
ATOM      3  C   UNL A   1      37.322  21.970  24.970  1.00  0.00     0.202 C 
BRANCH   3   4
ATOM      4  C   UNL A   1      36.963  23.449  24.715  1.00  0.00     0.261 C 
BRANCH   4   5
ATOM      5  O   UNL A   1      35.575  23.789  24.726  1.00  0.00    -0.463 OA
BRANCH   5   6
ATOM      6  C   UNL A   1      35.002  24.079  23.525  1.00  0.00     0.311 C 
ATOM      7  O   UNL A   1      35.118  23.400  22.516  1.00  0.00    -0.252 OA
BRANCH   6   8
ATOM      8  C   UNL A   1      34.161  25.340  23.629  1.00  0.00     0.123 C 
ATOM      9  N   UNL A   1      32.062  24.940  24.719  1.00  0.00    -0.335 N 
ATOM     10  C   UNL A   1      31.922  24.605  23.310  1.00  0.00     0.121 C 
ATOM     11  C   UNL A   1      33.433  25.394  24.984  1.00  0.00     0.096 C 
ATOM     12  C   UNL A   1      33.036  25.354  22.604  1.00  0.00     0.039 C 
ATOM     13  C   UNL A   1      33.424  26.803  25.578  1.00  0.00     0.032 C 
BRANCH   9  14
ATOM     14  C   UNL A   1      31.521  24.021  25.615  1.00  0.00     0.255 C 
ATOM     15  O   UNL A   1      30.370  24.141  26.030  1.00  0.00    -0.269 OA
BRANCH  14  16
ATOM     16  C   UNL A   1      32.367  22.884  26.005  1.00  0.00     0.053 A 
ATOM     17  C   UNL A   1      32.371  21.316  23.885  1.00  0.00     0.046 C 
ATOM     18  C   UNL A   1      32.742  21.679  25.284  1.00  0.00    -0.028 A 
ATOM     19  C   UNL A   1      33.525  20.850  26.072  1.00  0.00     0.069 A 
ATOM     20  S   UNL A   1      33.865  21.499  27.608  1.00  0.00    -0.151 S 
ATOM     21  C   UNL A   1      32.956  22.892  27.263  1.00  0.00     0.079 A 
ENDBRANCH  14  16
ENDBRANCH   9  14
ENDBRANCH   6   8
ENDBRANCH   5   6
ENDBRANCH   4   5
ENDBRANCH   3   4
ENDBRANCH   2   3
ENDBRANCH   1   2
BRANCH   1  22
ATOM     22  C   UNL A   1      40.356  19.969  26.144  1.00  0.00     0.188 C 
BRANCH  22  23
ATOM     23  O   UNL A   1      41.541  19.578  25.477  1.00  0.00    -0.376 OA
BRANCH  23  24
ATOM     24  C   UNL A   1      42.797  19.991  25.994  1.00  0.00     0.202 C 
BRANCH  24  25
ATOM     25  C   UNL A   1      43.543  21.212  25.425  1.00  0.00     0.261 C 
BRANCH  25  26
ATOM     26  O   UNL A   1      42.752  22.386  25.182  1.00  0.00    -0.460 OA
BRANCH  26  27
ATOM     27  C   UNL A   1      43.452  23.541  25.050  1.00  0.00     0.338 C 
ATOM     28  O   UNL A   1      44.351  23.779  24.263  1.00  0.00    -0.246 OA
BRANCH  27  29
ATOM     29  C   UNL A   1      42.840  24.584  25.897  1.00  0.00     0.060 A 
ATOM     30  C   UNL A   1      43.383  25.878  25.868  1.00  0.00     0.016 A 
ATOM     31  C   UNL A   1      41.791  24.275  26.760  1.00  0.00     0.016 A 
ATOM     32  C   UNL A   1      42.887  26.866  26.719  1.00  0.00     0.010 A 
ATOM     33  C   UNL A   1      41.315  25.257  27.632  1.00  0.00     0.010 A 
ATOM     34  C   UNL A   1      41.879  26.547  27.636  1.00  0.00    -0.014 A 
BRANCH  34  35
ATOM     35  C   UNL A   1      41.539  27.488  28.731  1.00  0.00     0.031 A 
ATOM     36  C   UNL A   1      42.327  27.411  30.010  1.00  0.00     0.074 A 
ATOM     37  C   UNL A   1      40.544  28.382  28.604  1.00  0.00     0.049 A 
ATOM     38  N   UNL A   1      42.131  28.026  31.147  1.00  0.00    -0.248 NA
ATOM     39  C   UNL A   1      43.492  26.511  30.003  1.00  0.00     0.031 C 
ATOM     40  C   UNL A   1      39.747  28.598  27.398  1.00  0.00     0.029 A 
ATOM     41  N   UNL A   1      40.021  29.262  29.519  1.00  0.00    -0.354 N 
ATOM     42  C   UNL A   1      43.134  27.577  31.996  1.00  0.00     0.074 A 
ATOM     43  C   UNL A   1      43.927  26.624  31.249  1.00  0.00     0.031 C 
ATOM     44  C   UNL A   1      38.814  29.532  27.657  1.00  0.00     0.029 A 
ATOM     45  C   UNL A   1      38.923  29.945  29.056  1.00  0.00     0.049 A 
ATOM     46  H   UNL A   1      40.398  29.390  30.420  1.00  0.00     0.167 HD
ATOM     47  C   UNL A   1      43.373  27.927  33.281  1.00  0.00     0.037 A 
ATOM     48  C   UNL A   1      38.082  30.777  29.701  1.00  0.00     0.037 A 
ATOM     49  C   UNL A   1      42.580  28.872  34.021  1.00  0.00     0.049 A 
ATOM     50  C   UNL A   1      38.315  31.085  31.159  1.00  0.00     0.074 A 
ATOM     51  C   UNL A   1      42.747  29.301  35.327  1.00  0.00     0.029 A 
ATOM     52  N   UNL A   1      41.465  29.529  33.523  1.00  0.00    -0.354 N 
ATOM     53  N   UNL A   1      39.270  30.664  31.954  1.00  0.00    -0.248 NA
ATOM     54  C   UNL A   1      37.352  31.986  31.810  1.00  0.00     0.031 C 
ATOM     55  C   UNL A   1      41.702  30.177  35.635  1.00  0.00     0.029 A 
ATOM     56  C   UNL A   1      40.921  30.342  34.503  1.00  0.00     0.049 A 
ATOM     57  H   UNL A   1      41.113  29.432  32.609  1.00  0.00     0.167 HD
ATOM     58  C   UNL A   1      39.046  31.279  33.181  1.00  0.00     0.074 A 
ATOM     59  C   UNL A   1      37.866  32.102  33.027  1.00  0.00     0.031 C 
ATOM     60  C   UNL A   1      39.759  31.176  34.330  1.00  0.00     0.037 A 
BRANCH  47  61
ATOM     61  C   UNL A   1      44.519  27.257  33.979  1.00  0.00     0.057 A 
ATOM     62  C   UNL A   1      45.803  27.816  34.004  1.00  0.00     0.134 A 
ATOM     63  C   UNL A   1      44.325  26.053  34.668  1.00  0.00     0.134 A 
ATOM     64  F   UNL A   1      46.060  28.961  33.352  1.00  0.00    -0.206 F 
ATOM     65  C   UNL A   1      46.858  27.191  34.671  1.00  0.00     0.040 A 
ATOM     66  C   UNL A   1      45.365  25.432  35.360  1.00  0.00     0.040 A 
ATOM     67  F   UNL A   1      43.119  25.465  34.687  1.00  0.00    -0.206 F 
ATOM     68  C   UNL A   1      46.637  25.999  35.359  1.00  0.00     0.006 A 
ENDBRANCH  47  61
BRANCH  48  69
ATOM     69  C   UNL A   1      36.917  31.361  28.988  1.00  0.00     0.057 A 
ATOM     70  C   UNL A   1      36.912  32.700  28.581  1.00  0.00     0.134 A 
ATOM     71  C   UNL A   1      35.766  30.605  28.730  1.00  0.00     0.134 A 
ATOM     72  F   UNL A   1      37.972  33.484  28.827  1.00  0.00    -0.206 F 
ATOM     73  C   UNL A   1      35.800  33.271  27.959  1.00  0.00     0.040 A 
ATOM     74  C   UNL A   1      34.658  31.155  28.086  1.00  0.00     0.040 A 
ATOM     75  F   UNL A   1      35.705  29.317  29.101  1.00  0.00    -0.206 F 
ATOM     76  C   UNL A   1      34.670  32.496  27.706  1.00  0.00     0.006 A 
ENDBRANCH  48  69
BRANCH  60  77
ATOM     77  C   UNL A   1      39.328  32.019  35.497  1.00  0.00     0.057 A 
ATOM     78  C   UNL A   1      38.487  31.528  36.502  1.00  0.00     0.134 A 
ATOM     79  C   UNL A   1      39.820  33.323  35.645  1.00  0.00     0.134 A 
ATOM     80  F   UNL A   1      37.974  30.291  36.417  1.00  0.00    -0.206 F 
ATOM     81  C   UNL A   1      38.135  32.312  37.603  1.00  0.00     0.040 A 
ATOM     82  C   UNL A   1      39.497  34.105  36.753  1.00  0.00     0.040 A 
ATOM     83  F   UNL A   1      40.641  33.851  34.723  1.00  0.00    -0.206 F 
ATOM     84  C   UNL A   1      38.647  33.601  37.736  1.00  0.00     0.006 A 
ENDBRANCH  60  77
ENDBRANCH  34  35
ENDBRANCH  27  29
ENDBRANCH  26  27
ENDBRANCH  25  26
ENDBRANCH  24  25
ENDBRANCH  23  24
ENDBRANCH  22  23
ENDBRANCH   1  22
TORSDOF 19
ENDMDL
