MODEL 1
REMARK VINA RESULT:     -10.6      0.000      0.000
REMARK SMILES CC(C)CCc1cc2c(cc1Cl)C=C(C(=O)OCCOCCOCCOC(=O)c1ccc(-c3c4nc(c(-c5c(F)cccc5F)c5ccc([nH]5)c(-c5c(F)cccc5F)c5nc(c(-c6c(F)cccc6F)c6ccc3[nH]6)C=C5)C=C4)cc1)[C@H](C(F)(F)F)O2
REMARK SMILES IDX 21 1 20 2 19 3 18 4 17 5 15 6 16 7 14 8 6 9 7 10 11 11 8 12
REMARK SMILES IDX 10 13 12 14 9 15 88 16 13 17 83 18 5 19 4 20 2 21 1 22 3 23
REMARK SMILES IDX 84 24 85 25 86 26 87 27 22 28 23 29 24 30 25 31 26 32 27 33
REMARK SMILES IDX 28 34 29 35 30 36 82 37 31 38 81 39 32 40 33 41 34 42 75 43
REMARK SMILES IDX 35 44 80 45 74 46 76 47 36 48 79 49 73 50 72 51 37 53 63 54
REMARK SMILES IDX 46 55 62 56 47 57 50 58 61 59 77 60 48 61 49 62 60 64 78 65
REMARK SMILES IDX 51 66 38 67 39 68 44 69 40 70 41 71 43 72 45 73 42 74 64 75
REMARK SMILES IDX 65 76 70 77 66 78 67 79 69 80 71 81 68 82 52 83 53 84 58 85
REMARK SMILES IDX 54 86 55 87 57 88 59 89 56 90
REMARK H PARENT 76 52 50 63
REMARK Flexibility Score: inf
ROOT
ATOM      1  C   UNL A   1      38.575  21.579  25.620  1.00  0.00     0.188 C 
ENDROOT
BRANCH   1   2
ATOM      2  O   UNL A   1      37.715  20.641  24.983  1.00  0.00    -0.376 OA
BRANCH   2   3
ATOM      3  C   UNL A   1      36.312  20.893  24.937  1.00  0.00     0.202 C 
BRANCH   3   4
ATOM      4  C   UNL A   1      35.649  21.666  26.090  1.00  0.00     0.261 C 
BRANCH   4   5
ATOM      5  O   UNL A   1      34.311  21.229  26.401  1.00  0.00    -0.460 OA
BRANCH   5   6
ATOM      6  C   UNL A   1      33.470  22.182  26.856  1.00  0.00     0.338 C 
ATOM      7  O   UNL A   1      33.103  22.332  28.011  1.00  0.00    -0.246 OA
BRANCH   6   8
ATOM      8  C   UNL A   1      33.160  23.163  25.798  1.00  0.00     0.087 C 
ATOM      9  C   UNL A   1      31.914  27.614  23.777  1.00  0.00    -0.026 A 
ATOM     10  C   UNL A   1      31.545  26.270  23.542  1.00  0.00     0.052 A 
ATOM     11  C   UNL A   1      32.898  27.857  24.749  1.00  0.00     0.045 A 
ATOM     12  C   UNL A   1      32.118  25.217  24.261  1.00  0.00     0.128 A 
ATOM     13  C   UNL A   1      33.505  26.798  25.435  1.00  0.00     0.032 A 
ATOM     14  Cl  UNL A   1      33.364  29.443  25.247  1.00  0.00    -0.084 Cl
ATOM     15  C   UNL A   1      33.101  25.481  25.209  1.00  0.00     0.019 A 
ATOM     16  O   UNL A   1      31.590  23.973  24.051  1.00  0.00    -0.475 OA
ATOM     17  C   UNL A   1      33.580  24.409  26.062  1.00  0.00     0.027 C 
ATOM     18  C   UNL A   1      32.267  22.818  24.636  1.00  0.00     0.316 C 
BRANCH   9  19
ATOM     19  C   UNL A   1      31.130  28.692  23.054  1.00  0.00     0.037 C 
BRANCH  19  20
ATOM     20  C   UNL A   1      30.064  29.481  23.828  1.00  0.00     0.008 C 
BRANCH  20  21
ATOM     21  C   UNL A   1      29.009  30.192  22.965  1.00  0.00    -0.017 C 
ATOM     22  C   UNL A   1      27.751  29.342  22.797  1.00  0.00     0.007 C 
ATOM     23  C   UNL A   1      28.649  31.539  23.599  1.00  0.00     0.007 C 
ENDBRANCH  20  21
ENDBRANCH  19  20
ENDBRANCH   9  19
BRANCH  18  24
ATOM     24  C   UNL A   1      32.929  22.030  23.491  1.00  0.00     0.430 C 
ATOM     25  F   UNL A   1      34.140  22.531  23.155  1.00  0.00    -0.167 F 
ATOM     26  F   UNL A   1      33.079  20.723  23.790  1.00  0.00    -0.167 F 
ATOM     27  F   UNL A   1      32.160  22.075  22.372  1.00  0.00    -0.167 F 
ENDBRANCH  18  24
ENDBRANCH   6   8
ENDBRANCH   5   6
ENDBRANCH   4   5
ENDBRANCH   3   4
ENDBRANCH   2   3
ENDBRANCH   1   2
BRANCH   1  28
ATOM     28  C   UNL A   1      39.765  21.072  26.455  1.00  0.00     0.188 C 
BRANCH  28  29
ATOM     29  O   UNL A   1      40.830  21.988  26.539  1.00  0.00    -0.376 OA
BRANCH  29  30
ATOM     30  C   UNL A   1      42.124  21.594  26.121  1.00  0.00     0.202 C 
BRANCH  30  31
ATOM     31  C   UNL A   1      43.040  22.513  25.291  1.00  0.00     0.261 C 
BRANCH  31  32
ATOM     32  O   UNL A   1      42.689  23.897  25.204  1.00  0.00    -0.460 OA
BRANCH  32  33
ATOM     33  C   UNL A   1      43.680  24.805  25.361  1.00  0.00     0.338 C 
ATOM     34  O   UNL A   1      44.615  25.017  24.610  1.00  0.00    -0.246 OA
BRANCH  33  35
ATOM     35  C   UNL A   1      43.309  25.643  26.522  1.00  0.00     0.060 A 
ATOM     36  C   UNL A   1      43.880  26.907  26.677  1.00  0.00     0.016 A 
ATOM     37  C   UNL A   1      42.420  25.142  27.483  1.00  0.00     0.016 A 
ATOM     38  C   UNL A   1      43.546  27.679  27.788  1.00  0.00     0.010 A 
ATOM     39  C   UNL A   1      42.088  25.917  28.598  1.00  0.00     0.010 A 
ATOM     40  C   UNL A   1      42.636  27.200  28.747  1.00  0.00    -0.014 A 
BRANCH  40  41
ATOM     41  C   UNL A   1      42.161  28.123  29.806  1.00  0.00     0.031 A 
ATOM     42  C   UNL A   1      40.924  28.952  29.646  1.00  0.00     0.074 A 
ATOM     43  C   UNL A   1      42.858  28.168  30.957  1.00  0.00     0.049 A 
ATOM     44  N   UNL A   1      40.294  29.667  30.544  1.00  0.00    -0.248 NA
ATOM     45  C   UNL A   1      40.319  28.991  28.309  1.00  0.00     0.031 C 
ATOM     46  C   UNL A   1      44.101  27.436  31.213  1.00  0.00     0.029 A 
ATOM     47  N   UNL A   1      42.612  28.831  32.131  1.00  0.00    -0.354 N 
ATOM     48  C   UNL A   1      39.200  30.219  29.892  1.00  0.00     0.074 A 
ATOM     49  C   UNL A   1      39.287  29.803  28.506  1.00  0.00     0.031 C 
ATOM     50  C   UNL A   1      44.485  27.657  32.479  1.00  0.00     0.029 A 
ATOM     51  C   UNL A   1      43.530  28.559  33.115  1.00  0.00     0.049 A 
ATOM     52  H   UNL A   1      41.852  29.444  32.256  1.00  0.00     0.167 HD
ATOM     53  C   UNL A   1      38.205  30.984  30.409  1.00  0.00     0.037 A 
ATOM     54  C   UNL A   1      43.587  28.975  34.393  1.00  0.00     0.037 A 
ATOM     55  C   UNL A   1      38.144  31.422  31.783  1.00  0.00     0.049 A 
ATOM     56  C   UNL A   1      42.497  29.862  34.924  1.00  0.00     0.074 A 
ATOM     57  C   UNL A   1      37.161  32.172  32.408  1.00  0.00     0.029 A 
ATOM     58  N   UNL A   1      39.117  31.170  32.740  1.00  0.00    -0.354 N 
ATOM     59  N   UNL A   1      41.414  30.294  34.325  1.00  0.00    -0.248 NA
ATOM     60  C   UNL A   1      42.635  30.310  36.316  1.00  0.00     0.031 C 
ATOM     61  C   UNL A   1      37.566  32.419  33.726  1.00  0.00     0.029 A 
ATOM     62  C   UNL A   1      38.773  31.775  33.941  1.00  0.00     0.049 A 
ATOM     63  H   UNL A   1      39.931  30.639  32.589  1.00  0.00     0.167 HD
ATOM     64  C   UNL A   1      40.727  31.040  35.275  1.00  0.00     0.074 A 
ATOM     65  C   UNL A   1      41.506  30.980  36.495  1.00  0.00     0.031 C 
ATOM     66  C   UNL A   1      39.559  31.715  35.148  1.00  0.00     0.037 A 
BRANCH  53  67
ATOM     67  C   UNL A   1      37.099  31.396  29.479  1.00  0.00     0.057 A 
ATOM     68  C   UNL A   1      36.070  30.508  29.142  1.00  0.00     0.134 A 
ATOM     69  C   UNL A   1      37.075  32.666  28.884  1.00  0.00     0.134 A 
ATOM     70  F   UNL A   1      36.038  29.273  29.662  1.00  0.00    -0.206 F 
ATOM     71  C   UNL A   1      35.054  30.870  28.254  1.00  0.00     0.040 A 
ATOM     72  C   UNL A   1      36.050  33.048  28.015  1.00  0.00     0.040 A 
ATOM     73  F   UNL A   1      38.029  33.566  29.165  1.00  0.00    -0.206 F 
ATOM     74  C   UNL A   1      35.038  32.146  27.694  1.00  0.00     0.006 A 
ENDBRANCH  53  67
BRANCH  54  75
ATOM     75  C   UNL A   1      44.700  28.538  35.271  1.00  0.00     0.057 A 
ATOM     76  C   UNL A   1      44.626  27.346  36.000  1.00  0.00     0.134 A 
ATOM     77  C   UNL A   1      45.879  29.286  35.373  1.00  0.00     0.134 A 
ATOM     78  F   UNL A   1      43.519  26.590  35.952  1.00  0.00    -0.206 F 
ATOM     79  C   UNL A   1      45.684  26.910  36.798  1.00  0.00     0.040 A 
ATOM     80  C   UNL A   1      46.957  28.848  36.143  1.00  0.00     0.040 A 
ATOM     81  F   UNL A   1      46.015  30.429  34.687  1.00  0.00    -0.206 F 
ATOM     82  C   UNL A   1      46.860  27.656  36.859  1.00  0.00     0.006 A 
ENDBRANCH  54  75
BRANCH  66  83
ATOM     83  C   UNL A   1      39.043  32.418  36.374  1.00  0.00     0.057 A 
ATOM     84  C   UNL A   1      39.448  33.725  36.669  1.00  0.00     0.134 A 
ATOM     85  C   UNL A   1      38.145  31.806  37.258  1.00  0.00     0.134 A 
ATOM     86  F   UNL A   1      40.311  34.371  35.870  1.00  0.00    -0.206 F 
ATOM     87  C   UNL A   1      38.975  34.400  37.797  1.00  0.00     0.040 A 
ATOM     88  C   UNL A   1      37.640  32.481  38.371  1.00  0.00     0.040 A 
ATOM     89  F   UNL A   1      37.702  30.560  37.025  1.00  0.00    -0.206 F 
ATOM     90  C   UNL A   1      38.060  33.781  38.645  1.00  0.00     0.006 A 
ENDBRANCH  66  83
ENDBRANCH  40  41
ENDBRANCH  33  35
ENDBRANCH  32  33
ENDBRANCH  31  32
ENDBRANCH  30  31
ENDBRANCH  29  30
ENDBRANCH  28  29
ENDBRANCH   1  28
TORSDOF 21
ENDMDL
MODEL 2
REMARK VINA RESULT:     -10.6      3.174      8.889
REMARK SMILES CC(C)CCc1cc2c(cc1Cl)C=C(C(=O)OCCOCCOCCOC(=O)c1ccc(-c3c4nc(c(-c5c(F)cccc5F)c5ccc([nH]5)c(-c5c(F)cccc5F)c5nc(c(-c6c(F)cccc6F)c6ccc3[nH]6)C=C5)C=C4)cc1)[C@H](C(F)(F)F)O2
REMARK SMILES IDX 21 1 20 2 19 3 18 4 17 5 15 6 16 7 14 8 6 9 7 10 11 11 8 12
REMARK SMILES IDX 10 13 12 14 9 15 88 16 13 17 83 18 5 19 4 20 2 21 1 22 3 23
REMARK SMILES IDX 84 24 85 25 86 26 87 27 22 28 23 29 24 30 25 31 26 32 27 33
REMARK SMILES IDX 28 34 29 35 30 36 82 37 31 38 81 39 32 40 33 41 34 42 75 43
REMARK SMILES IDX 35 44 80 45 74 46 76 47 36 48 79 49 73 50 72 51 37 53 63 54
REMARK SMILES IDX 46 55 62 56 47 57 50 58 61 59 77 60 48 61 49 62 60 64 78 65
REMARK SMILES IDX 51 66 38 67 39 68 44 69 40 70 41 71 43 72 45 73 42 74 64 75
REMARK SMILES IDX 65 76 70 77 66 78 67 79 69 80 71 81 68 82 52 83 53 84 58 85
REMARK SMILES IDX 54 86 55 87 57 88 59 89 56 90
REMARK H PARENT 76 52 50 63
REMARK Flexibility Score: inf
ROOT
ATOM      1  C   UNL A   1      31.965  29.329  25.192  1.00  0.00     0.188 C 
ENDROOT
BRANCH   1   2
ATOM      2  O   UNL A   1      30.681  29.173  24.598  1.00  0.00    -0.376 OA
BRANCH   2   3
ATOM      3  C   UNL A   1      30.580  28.960  23.191  1.00  0.00     0.202 C 
BRANCH   3   4
ATOM      4  C   UNL A   1      31.774  28.352  22.435  1.00  0.00     0.261 C 
BRANCH   4   5
ATOM      5  O   UNL A   1      31.726  26.917  22.311  1.00  0.00    -0.460 OA
BRANCH   5   6
ATOM      6  C   UNL A   1      32.904  26.273  22.453  1.00  0.00     0.338 C 
ATOM      7  O   UNL A   1      34.000  26.685  22.105  1.00  0.00    -0.246 OA
BRANCH   6   8
ATOM      8  C   UNL A   1      32.742  25.045  23.253  1.00  0.00     0.087 C 
ATOM      9  C   UNL A   1      33.683  20.353  24.850  1.00  0.00    -0.026 A 
ATOM     10  C   UNL A   1      32.517  21.095  24.560  1.00  0.00     0.052 A 
ATOM     11  C   UNL A   1      34.918  21.016  24.750  1.00  0.00     0.045 A 
ATOM     12  C   UNL A   1      32.581  22.436  24.168  1.00  0.00     0.128 A 
ATOM     13  C   UNL A   1      34.977  22.371  24.404  1.00  0.00     0.032 A 
ATOM     14  Cl  UNL A   1      36.438  20.220  24.941  1.00  0.00    -0.084 Cl
ATOM     15  C   UNL A   1      33.813  23.076  24.091  1.00  0.00     0.019 A 
ATOM     16  O   UNL A   1      31.405  23.017  23.780  1.00  0.00    -0.475 OA
ATOM     17  C   UNL A   1      33.892  24.414  23.535  1.00  0.00     0.027 C 
ATOM     18  C   UNL A   1      31.385  24.458  23.536  1.00  0.00     0.316 C 
BRANCH   9  19
ATOM     19  C   UNL A   1      33.520  18.869  25.120  1.00  0.00     0.037 C 
BRANCH  19  20
ATOM     20  C   UNL A   1      33.911  17.867  24.024  1.00  0.00     0.008 C 
BRANCH  20  21
ATOM     21  C   UNL A   1      33.824  16.384  24.421  1.00  0.00    -0.017 C 
ATOM     22  C   UNL A   1      35.124  15.893  25.055  1.00  0.00     0.007 C 
ATOM     23  C   UNL A   1      32.658  16.179  25.392  1.00  0.00     0.007 C 
ENDBRANCH  20  21
ENDBRANCH  19  20
ENDBRANCH   9  19
BRANCH  18  24
ATOM     24  C   UNL A   1      30.592  25.117  24.680  1.00  0.00     0.430 C 
ATOM     25  F   UNL A   1      29.558  25.862  24.226  1.00  0.00    -0.167 F 
ATOM     26  F   UNL A   1      30.109  24.210  25.555  1.00  0.00    -0.167 F 
ATOM     27  F   UNL A   1      31.390  25.948  25.399  1.00  0.00    -0.167 F 
ENDBRANCH  18  24
ENDBRANCH   6   8
ENDBRANCH   5   6
ENDBRANCH   4   5
ENDBRANCH   3   4
ENDBRANCH   2   3
ENDBRANCH   1   2
BRANCH   1  28
ATOM     28  C   UNL A   1      32.191  28.862  26.642  1.00  0.00     0.188 C 
BRANCH  28  29
ATOM     29  O   UNL A   1      32.427  29.915  27.545  1.00  0.00    -0.376 OA
BRANCH  29  30
ATOM     30  C   UNL A   1      32.982  31.128  27.073  1.00  0.00     0.202 C 
BRANCH  30  31
ATOM     31  C   UNL A   1      32.310  32.493  27.313  1.00  0.00     0.261 C 
BRANCH  31  32
ATOM     32  O   UNL A   1      33.146  33.654  27.314  1.00  0.00    -0.460 OA
BRANCH  32  33
ATOM     33  C   UNL A   1      33.300  34.314  28.485  1.00  0.00     0.338 C 
ATOM     34  O   UNL A   1      32.516  35.086  29.007  1.00  0.00    -0.246 OA
BRANCH  33  35
ATOM     35  C   UNL A   1      34.517  33.770  29.124  1.00  0.00     0.060 A 
ATOM     36  C   UNL A   1      34.402  32.847  30.164  1.00  0.00     0.016 A 
ATOM     37  C   UNL A   1      35.778  34.219  28.709  1.00  0.00     0.016 A 
ATOM     38  C   UNL A   1      35.553  32.358  30.779  1.00  0.00     0.010 A 
ATOM     39  C   UNL A   1      36.932  33.730  29.329  1.00  0.00     0.010 A 
ATOM     40  C   UNL A   1      36.827  32.781  30.357  1.00  0.00    -0.014 A 
BRANCH  40  41
ATOM     41  C   UNL A   1      38.024  32.097  30.901  1.00  0.00     0.031 A 
ATOM     42  C   UNL A   1      38.555  32.386  32.271  1.00  0.00     0.074 A 
ATOM     43  C   UNL A   1      38.612  31.158  30.135  1.00  0.00     0.049 A 
ATOM     44  N   UNL A   1      39.480  31.749  32.944  1.00  0.00    -0.248 NA
ATOM     45  C   UNL A   1      37.981  33.540  32.975  1.00  0.00     0.031 C 
ATOM     46  C   UNL A   1      38.208  30.819  28.769  1.00  0.00     0.029 A 
ATOM     47  N   UNL A   1      39.649  30.303  30.400  1.00  0.00    -0.354 N 
ATOM     48  C   UNL A   1      39.582  32.403  34.164  1.00  0.00     0.074 A 
ATOM     49  C   UNL A   1      38.665  33.525  34.113  1.00  0.00     0.031 C 
ATOM     50  C   UNL A   1      38.961  29.799  28.331  1.00  0.00     0.029 A 
ATOM     51  C   UNL A   1      39.910  29.427  29.375  1.00  0.00     0.049 A 
ATOM     52  H   UNL A   1      40.158  30.315  31.243  1.00  0.00     0.167 HD
ATOM     53  C   UNL A   1      40.354  32.083  35.233  1.00  0.00     0.037 A 
ATOM     54  C   UNL A   1      40.803  28.425  29.293  1.00  0.00     0.037 A 
ATOM     55  C   UNL A   1      41.290  30.984  35.262  1.00  0.00     0.049 A 
ATOM     56  C   UNL A   1      41.680  28.124  30.475  1.00  0.00     0.074 A 
ATOM     57  C   UNL A   1      42.094  30.561  36.309  1.00  0.00     0.029 A 
ATOM     58  N   UNL A   1      41.567  30.148  34.190  1.00  0.00    -0.354 N 
ATOM     59  N   UNL A   1      41.695  28.686  31.660  1.00  0.00    -0.248 NA
ATOM     60  C   UNL A   1      42.658  27.040  30.310  1.00  0.00     0.031 C 
ATOM     61  C   UNL A   1      42.894  29.506  35.852  1.00  0.00     0.029 A 
ATOM     62  C   UNL A   1      42.549  29.232  34.538  1.00  0.00     0.049 A 
ATOM     63  H   UNL A   1      41.128  30.198  33.310  1.00  0.00     0.167 HD
ATOM     64  C   UNL A   1      42.662  28.005  32.390  1.00  0.00     0.074 A 
ATOM     65  C   UNL A   1      43.192  26.974  31.519  1.00  0.00     0.031 C 
ATOM     66  C   UNL A   1      43.075  28.214  33.663  1.00  0.00     0.037 A 
BRANCH  53  67
ATOM     67  C   UNL A   1      40.218  32.936  36.462  1.00  0.00     0.057 A 
ATOM     68  C   UNL A   1      39.198  32.703  37.393  1.00  0.00     0.134 A 
ATOM     69  C   UNL A   1      41.077  34.018  36.704  1.00  0.00     0.134 A 
ATOM     70  F   UNL A   1      38.331  31.696  37.218  1.00  0.00    -0.206 F 
ATOM     71  C   UNL A   1      39.041  33.510  38.523  1.00  0.00     0.040 A 
ATOM     72  C   UNL A   1      40.946  34.815  37.844  1.00  0.00     0.040 A 
ATOM     73  F   UNL A   1      42.077  34.296  35.854  1.00  0.00    -0.206 F 
ATOM     74  C   UNL A   1      39.922  34.564  38.755  1.00  0.00     0.006 A 
ENDBRANCH  53  67
BRANCH  54  75
ATOM     75  C   UNL A   1      40.898  27.610  28.056  1.00  0.00     0.057 A 
ATOM     76  C   UNL A   1      41.720  27.996  26.991  1.00  0.00     0.134 A 
ATOM     77  C   UNL A   1      40.195  26.407  27.926  1.00  0.00     0.134 A 
ATOM     78  F   UNL A   1      42.412  29.144  27.051  1.00  0.00    -0.206 F 
ATOM     79  C   UNL A   1      41.843  27.215  25.842  1.00  0.00     0.040 A 
ATOM     80  C   UNL A   1      40.331  25.600  26.795  1.00  0.00     0.040 A 
ATOM     81  F   UNL A   1      39.403  25.976  28.918  1.00  0.00    -0.206 F 
ATOM     82  C   UNL A   1      41.157  26.006  25.748  1.00  0.00     0.006 A 
ENDBRANCH  54  75
BRANCH  66  83
ATOM     83  C   UNL A   1      44.133  27.289  34.196  1.00  0.00     0.057 A 
ATOM     84  C   UNL A   1      45.487  27.643  34.133  1.00  0.00     0.134 A 
ATOM     85  C   UNL A   1      43.817  26.052  34.774  1.00  0.00     0.134 A 
ATOM     86  F   UNL A   1      45.864  28.808  33.587  1.00  0.00    -0.206 F 
ATOM     87  C   UNL A   1      46.486  26.803  34.630  1.00  0.00     0.040 A 
ATOM     88  C   UNL A   1      44.804  25.219  35.304  1.00  0.00     0.040 A 
ATOM     89  F   UNL A   1      42.538  25.659  34.883  1.00  0.00    -0.206 F 
ATOM     90  C   UNL A   1      46.144  25.592  35.226  1.00  0.00     0.006 A 
ENDBRANCH  66  83
ENDBRANCH  40  41
ENDBRANCH  33  35
ENDBRANCH  32  33
ENDBRANCH  31  32
ENDBRANCH  30  31
ENDBRANCH  29  30
ENDBRANCH  28  29
ENDBRANCH   1  28
TORSDOF 21
ENDMDL
MODEL 3
REMARK VINA RESULT:     -10.6      4.825     10.294
REMARK SMILES CC(C)CCc1cc2c(cc1Cl)C=C(C(=O)OCCOCCOCCOC(=O)c1ccc(-c3c4nc(c(-c5c(F)cccc5F)c5ccc([nH]5)c(-c5c(F)cccc5F)c5nc(c(-c6c(F)cccc6F)c6ccc3[nH]6)C=C5)C=C4)cc1)[C@H](C(F)(F)F)O2
REMARK SMILES IDX 21 1 20 2 19 3 18 4 17 5 15 6 16 7 14 8 6 9 7 10 11 11 8 12
REMARK SMILES IDX 10 13 12 14 9 15 88 16 13 17 83 18 5 19 4 20 2 21 1 22 3 23
REMARK SMILES IDX 84 24 85 25 86 26 87 27 22 28 23 29 24 30 25 31 26 32 27 33
REMARK SMILES IDX 28 34 29 35 30 36 82 37 31 38 81 39 32 40 33 41 34 42 75 43
REMARK SMILES IDX 35 44 80 45 74 46 76 47 36 48 79 49 73 50 72 51 37 53 63 54
REMARK SMILES IDX 46 55 62 56 47 57 50 58 61 59 77 60 48 61 49 62 60 64 78 65
REMARK SMILES IDX 51 66 38 67 39 68 44 69 40 70 41 71 43 72 45 73 42 74 64 75
REMARK SMILES IDX 65 76 70 77 66 78 67 79 69 80 71 81 68 82 52 83 53 84 58 85
REMARK SMILES IDX 54 86 55 87 57 88 59 89 56 90
REMARK H PARENT 76 52 50 63
REMARK Flexibility Score: inf
ROOT
ATOM      1  C   UNL A   1      33.022  35.061  29.769  1.00  0.00     0.188 C 
ENDROOT
BRANCH   1   2
ATOM      2  O   UNL A   1      34.273  34.592  29.279  1.00  0.00    -0.376 OA
BRANCH   2   3
ATOM      3  C   UNL A   1      34.304  33.743  28.133  1.00  0.00     0.202 C 
BRANCH   3   4
ATOM      4  C   UNL A   1      32.981  33.205  27.560  1.00  0.00     0.261 C 
BRANCH   4   5
ATOM      5  O   UNL A   1      32.801  31.784  27.724  1.00  0.00    -0.460 OA
BRANCH   5   6
ATOM      6  C   UNL A   1      32.158  31.152  26.720  1.00  0.00     0.338 C 
ATOM      7  O   UNL A   1      31.158  31.545  26.139  1.00  0.00    -0.246 OA
BRANCH   6   8
ATOM      8  C   UNL A   1      32.916  29.969  26.268  1.00  0.00     0.087 C 
ATOM      9  C   UNL A   1      33.846  25.701  23.744  1.00  0.00    -0.026 A 
ATOM     10  C   UNL A   1      34.077  26.154  25.063  1.00  0.00     0.052 A 
ATOM     11  C   UNL A   1      33.277  26.609  22.835  1.00  0.00     0.045 A 
ATOM     12  C   UNL A   1      33.735  27.450  25.462  1.00  0.00     0.128 A 
ATOM     13  C   UNL A   1      32.979  27.921  23.225  1.00  0.00     0.032 A 
ATOM     14  Cl  UNL A   1      32.812  26.175  21.231  1.00  0.00    -0.084 Cl
ATOM     15  C   UNL A   1      33.186  28.335  24.541  1.00  0.00     0.019 A 
ATOM     16  O   UNL A   1      33.874  27.736  26.793  1.00  0.00    -0.475 OA
ATOM     17  C   UNL A   1      32.689  29.621  24.993  1.00  0.00     0.027 C 
ATOM     18  C   UNL A   1      33.705  29.121  27.230  1.00  0.00     0.316 C 
BRANCH   9  19
ATOM     19  C   UNL A   1      34.112  24.238  23.450  1.00  0.00     0.037 C 
BRANCH  19  20
ATOM     20  C   UNL A   1      35.391  23.590  24.000  1.00  0.00     0.008 C 
BRANCH  20  21
ATOM     21  C   UNL A   1      35.179  22.527  25.092  1.00  0.00    -0.017 C 
ATOM     22  C   UNL A   1      35.994  21.265  24.815  1.00  0.00     0.007 C 
ATOM     23  C   UNL A   1      35.561  23.108  26.456  1.00  0.00     0.007 C 
ENDBRANCH  20  21
ENDBRANCH  19  20
ENDBRANCH   9  19
BRANCH  18  24
ATOM     24  C   UNL A   1      35.092  29.662  27.623  1.00  0.00     0.430 C 
ATOM     25  F   UNL A   1      35.632  30.441  26.658  1.00  0.00    -0.167 F 
ATOM     26  F   UNL A   1      35.056  30.373  28.770  1.00  0.00    -0.167 F 
ATOM     27  F   UNL A   1      35.961  28.641  27.838  1.00  0.00    -0.167 F 
ENDBRANCH  18  24
ENDBRANCH   6   8
ENDBRANCH   5   6
ENDBRANCH   4   5
ENDBRANCH   3   4
ENDBRANCH   2   3
ENDBRANCH   1   2
BRANCH   1  28
ATOM     28  C   UNL A   1      32.969  35.819  31.109  1.00  0.00     0.188 C 
BRANCH  28  29
ATOM     29  O   UNL A   1      33.338  35.036  32.218  1.00  0.00    -0.376 OA
BRANCH  29  30
ATOM     30  C   UNL A   1      34.662  35.108  32.714  1.00  0.00     0.202 C 
BRANCH  30  31
ATOM     31  C   UNL A   1      35.301  33.971  33.533  1.00  0.00     0.261 C 
BRANCH  31  32
ATOM     32  O   UNL A   1      36.268  33.144  32.879  1.00  0.00    -0.460 OA
BRANCH  32  33
ATOM     33  C   UNL A   1      35.821  32.286  31.933  1.00  0.00     0.338 C 
ATOM     34  O   UNL A   1      34.688  32.191  31.498  1.00  0.00    -0.246 OA
BRANCH  33  35
ATOM     35  C   UNL A   1      37.012  31.615  31.370  1.00  0.00     0.060 A 
ATOM     36  C   UNL A   1      37.252  31.663  29.997  1.00  0.00     0.016 A 
ATOM     37  C   UNL A   1      37.868  30.896  32.217  1.00  0.00     0.016 A 
ATOM     38  C   UNL A   1      38.363  31.005  29.470  1.00  0.00     0.010 A 
ATOM     39  C   UNL A   1      38.980  30.235  31.687  1.00  0.00     0.010 A 
ATOM     40  C   UNL A   1      39.244  30.301  30.310  1.00  0.00    -0.014 A 
BRANCH  40  41
ATOM     41  C   UNL A   1      40.511  29.781  29.743  1.00  0.00     0.031 A 
ATOM     42  C   UNL A   1      40.639  28.382  29.225  1.00  0.00     0.074 A 
ATOM     43  C   UNL A   1      41.556  30.627  29.662  1.00  0.00     0.049 A 
ATOM     44  N   UNL A   1      41.622  27.844  28.548  1.00  0.00    -0.248 NA
ATOM     45  C   UNL A   1      39.527  27.466  29.508  1.00  0.00     0.031 C 
ATOM     46  C   UNL A   1      41.562  32.001  30.170  1.00  0.00     0.029 A 
ATOM     47  N   UNL A   1      42.797  30.471  29.104  1.00  0.00    -0.354 N 
ATOM     48  C   UNL A   1      41.238  26.534  28.294  1.00  0.00     0.074 A 
ATOM     49  C   UNL A   1      39.956  26.342  28.945  1.00  0.00     0.031 C 
ATOM     50  C   UNL A   1      42.734  32.575  29.862  1.00  0.00     0.029 A 
ATOM     51  C   UNL A   1      43.566  31.607  29.155  1.00  0.00     0.049 A 
ATOM     52  H   UNL A   1      43.108  29.626  28.705  1.00  0.00     0.167 HD
ATOM     53  C   UNL A   1      41.887  25.589  27.569  1.00  0.00     0.037 A 
ATOM     54  C   UNL A   1      44.798  31.848  28.672  1.00  0.00     0.037 A 
ATOM     55  C   UNL A   1      43.179  25.777  26.954  1.00  0.00     0.049 A 
ATOM     56  C   UNL A   1      45.513  30.765  27.914  1.00  0.00     0.074 A 
ATOM     57  C   UNL A   1      43.902  24.890  26.173  1.00  0.00     0.029 A 
ATOM     58  N   UNL A   1      43.952  26.924  27.068  1.00  0.00    -0.354 N 
ATOM     59  N   UNL A   1      45.097  29.563  27.594  1.00  0.00    -0.248 NA
ATOM     60  C   UNL A   1      46.868  31.079  27.441  1.00  0.00     0.031 C 
ATOM     61  C   UNL A   1      45.135  25.480  25.862  1.00  0.00     0.029 A 
ATOM     62  C   UNL A   1      45.157  26.756  26.400  1.00  0.00     0.049 A 
ATOM     63  H   UNL A   1      43.685  27.737  27.552  1.00  0.00     0.167 HD
ATOM     64  C   UNL A   1      46.126  28.989  26.858  1.00  0.00     0.074 A 
ATOM     65  C   UNL A   1      47.175  29.985  26.761  1.00  0.00     0.031 C 
ATOM     66  C   UNL A   1      46.197  27.751  26.314  1.00  0.00     0.037 A 
BRANCH  53  67
ATOM     67  C   UNL A   1      41.205  24.260  27.402  1.00  0.00     0.057 A 
ATOM     68  C   UNL A   1      40.097  24.117  26.557  1.00  0.00     0.134 A 
ATOM     69  C   UNL A   1      41.624  23.126  28.113  1.00  0.00     0.134 A 
ATOM     70  F   UNL A   1      39.634  25.164  25.859  1.00  0.00    -0.206 F 
ATOM     71  C   UNL A   1      39.436  22.895  26.419  1.00  0.00     0.040 A 
ATOM     72  C   UNL A   1      40.986  21.892  27.962  1.00  0.00     0.040 A 
ATOM     73  F   UNL A   1      42.679  23.191  28.938  1.00  0.00    -0.206 F 
ATOM     74  C   UNL A   1      39.885  21.776  27.116  1.00  0.00     0.006 A 
ENDBRANCH  53  67
BRANCH  54  75
ATOM     75  C   UNL A   1      45.428  33.178  28.862  1.00  0.00     0.057 A 
ATOM     76  C   UNL A   1      45.371  34.159  27.864  1.00  0.00     0.134 A 
ATOM     77  C   UNL A   1      46.069  33.511  30.060  1.00  0.00     0.134 A 
ATOM     78  F   UNL A   1      44.779  33.897  26.690  1.00  0.00    -0.206 F 
ATOM     79  C   UNL A   1      45.928  35.424  28.052  1.00  0.00     0.040 A 
ATOM     80  C   UNL A   1      46.604  34.782  30.273  1.00  0.00     0.040 A 
ATOM     81  F   UNL A   1      46.142  32.619  31.058  1.00  0.00    -0.206 F 
ATOM     82  C   UNL A   1      46.535  35.743  29.266  1.00  0.00     0.006 A 
ENDBRANCH  54  75
BRANCH  66  83
ATOM     83  C   UNL A   1      47.444  27.418  25.541  1.00  0.00     0.057 A 
ATOM     84  C   UNL A   1      48.552  26.853  26.185  1.00  0.00     0.134 A 
ATOM     85  C   UNL A   1      47.548  27.651  24.163  1.00  0.00     0.134 A 
ATOM     86  F   UNL A   1      48.526  26.608  27.503  1.00  0.00    -0.206 F 
ATOM     87  C   UNL A   1      49.717  26.528  25.485  1.00  0.00     0.040 A 
ATOM     88  C   UNL A   1      48.694  27.300  23.447  1.00  0.00     0.040 A 
ATOM     89  F   UNL A   1      46.516  28.173  23.481  1.00  0.00    -0.206 F 
ATOM     90  C   UNL A   1      49.785  26.742  24.110  1.00  0.00     0.006 A 
ENDBRANCH  66  83
ENDBRANCH  40  41
ENDBRANCH  33  35
ENDBRANCH  32  33
ENDBRANCH  31  32
ENDBRANCH  30  31
ENDBRANCH  29  30
ENDBRANCH  28  29
ENDBRANCH   1  28
TORSDOF 21
ENDMDL
