MODEL 1
REMARK VINA RESULT:     -10.7      0.000      0.000
REMARK SMILES O=C(OCCOCCOCCOC(=O)c1cn(-c2ccccc2)c2c1N=C(O)C[C@@H]2c1cccs1)c1ccc(-c2c3nc(c(-c4c(F)cccc4F)c4ccc([nH]4)c(-c4c(F)cccc4F)c4nc(c(-c5c(F)cccc5F)c5ccc2[nH]5)C=C4)C=C3)cc1
REMARK SMILES IDX 7 1 6 2 5 3 4 4 3 5 2 6 1 7 36 8 37 9 89 10 38 11 88 12
REMARK SMILES IDX 39 13 40 14 41 15 82 16 42 17 87 18 81 19 83 20 43 21 86 22
REMARK SMILES IDX 80 23 79 24 44 26 70 27 53 28 69 29 54 30 57 31 68 32 84 33
REMARK SMILES IDX 55 34 56 35 67 37 85 38 58 39 45 40 46 41 51 42 47 43 48 44
REMARK SMILES IDX 50 45 52 46 49 47 71 48 72 49 77 50 73 51 74 52 76 53 78 54
REMARK SMILES IDX 75 55 59 56 60 57 65 58 61 59 62 60 64 61 66 62 63 63 8 64
REMARK SMILES IDX 9 65 10 66 11 67 12 68 13 69 14 70 15 71 16 72 25 73 17 74
REMARK SMILES IDX 24 75 26 76 30 77 27 78 29 79 18 80 19 81 23 82 20 83 22 84
REMARK SMILES IDX 21 85 31 86 32 87 35 88 33 89 34 90 28 91
REMARK H PARENT 83 25 57 36 28 92
REMARK Flexibility Score: inf
ROOT
ATOM      1  C   UNL A   1      36.984  21.795  25.706  1.00  0.00     0.188 C 
ENDROOT
BRANCH   1   2
ATOM      2  O   UNL A   1      38.276  21.743  25.149  1.00  0.00    -0.376 OA
BRANCH   2   3
ATOM      3  C   UNL A   1      39.343  21.083  25.793  1.00  0.00     0.202 C 
BRANCH   3   4
ATOM      4  C   UNL A   1      39.524  19.562  25.718  1.00  0.00     0.261 C 
BRANCH   4   5
ATOM      5  O   UNL A   1      40.868  19.076  25.676  1.00  0.00    -0.460 OA
BRANCH   5   6
ATOM      6  C   UNL A   1      42.046  19.723  25.642  1.00  0.00     0.338 C 
ATOM      7  O   UNL A   1      42.928  19.294  24.900  1.00  0.00    -0.246 OA
BRANCH   6   8
ATOM      8  C   UNL A   1      42.406  20.856  26.540  1.00  0.00     0.060 A 
ATOM      9  C   UNL A   1      42.299  20.879  27.932  1.00  0.00     0.016 A 
ATOM     10  C   UNL A   1      42.858  22.014  25.877  1.00  0.00     0.016 A 
ATOM     11  C   UNL A   1      42.426  22.078  28.616  1.00  0.00     0.010 A 
ATOM     12  C   UNL A   1      43.014  23.206  26.556  1.00  0.00     0.010 A 
ATOM     13  C   UNL A   1      42.693  23.246  27.905  1.00  0.00    -0.014 A 
BRANCH  13  14
ATOM     14  C   UNL A   1      42.615  24.507  28.619  1.00  0.00     0.031 A 
ATOM     15  C   UNL A   1      41.409  25.321  28.324  1.00  0.00     0.074 A 
ATOM     16  C   UNL A   1      43.547  24.843  29.533  1.00  0.00     0.049 A 
ATOM     17  N   UNL A   1      41.343  26.510  27.822  1.00  0.00    -0.248 NA
ATOM     18  C   UNL A   1      40.100  24.672  28.500  1.00  0.00     0.031 C 
ATOM     19  C   UNL A   1      44.627  24.008  30.074  1.00  0.00     0.029 A 
ATOM     20  N   UNL A   1      43.669  25.991  30.251  1.00  0.00    -0.354 N 
ATOM     21  C   UNL A   1      39.989  26.838  27.808  1.00  0.00     0.074 A 
ATOM     22  C   UNL A   1      39.267  25.626  28.089  1.00  0.00     0.031 C 
ATOM     23  C   UNL A   1      45.128  24.590  31.186  1.00  0.00     0.029 A 
ATOM     24  C   UNL A   1      44.508  25.891  31.353  1.00  0.00     0.049 A 
ATOM     25  H   UNL A   1      43.201  26.823  30.010  1.00  0.00     0.167 HD
ATOM     26  C   UNL A   1      39.573  28.134  27.803  1.00  0.00     0.037 A 
ATOM     27  C   UNL A   1      44.614  26.790  32.363  1.00  0.00     0.037 A 
ATOM     28  C   UNL A   1      40.598  29.018  27.315  1.00  0.00     0.049 A 
ATOM     29  C   UNL A   1      44.053  28.075  31.874  1.00  0.00     0.074 A 
ATOM     30  C   UNL A   1      41.289  29.128  26.125  1.00  0.00     0.029 A 
ATOM     31  N   UNL A   1      41.320  29.744  28.230  1.00  0.00    -0.354 N 
ATOM     32  N   UNL A   1      44.609  28.803  30.948  1.00  0.00    -0.248 NA
ATOM     33  C   UNL A   1      42.630  28.307  32.081  1.00  0.00     0.031 C 
ATOM     34  C   UNL A   1      42.620  29.470  26.503  1.00  0.00     0.029 A 
ATOM     35  C   UNL A   1      42.643  29.616  27.890  1.00  0.00     0.049 A 
ATOM     36  H   UNL A   1      40.957  30.259  28.987  1.00  0.00     0.167 HD
ATOM     37  C   UNL A   1      43.553  29.264  30.175  1.00  0.00     0.074 A 
ATOM     38  C   UNL A   1      42.354  28.987  30.964  1.00  0.00     0.031 C 
ATOM     39  C   UNL A   1      43.718  29.560  28.853  1.00  0.00     0.037 A 
BRANCH  26  40
ATOM     40  C   UNL A   1      38.377  28.618  28.580  1.00  0.00     0.057 A 
ATOM     41  C   UNL A   1      37.483  29.529  27.990  1.00  0.00     0.134 A 
ATOM     42  C   UNL A   1      38.230  28.451  29.973  1.00  0.00     0.134 A 
ATOM     43  F   UNL A   1      37.541  29.796  26.676  1.00  0.00    -0.206 F 
ATOM     44  C   UNL A   1      36.554  30.259  28.741  1.00  0.00     0.040 A 
ATOM     45  C   UNL A   1      37.273  29.137  30.724  1.00  0.00     0.040 A 
ATOM     46  F   UNL A   1      39.067  27.697  30.696  1.00  0.00    -0.206 F 
ATOM     47  C   UNL A   1      36.449  30.067  30.114  1.00  0.00     0.006 A 
ENDBRANCH  26  40
BRANCH  27  48
ATOM     48  C   UNL A   1      44.834  26.514  33.801  1.00  0.00     0.057 A 
ATOM     49  C   UNL A   1      45.626  27.359  34.591  1.00  0.00     0.134 A 
ATOM     50  C   UNL A   1      44.056  25.571  34.498  1.00  0.00     0.134 A 
ATOM     51  F   UNL A   1      46.368  28.322  34.024  1.00  0.00    -0.206 F 
ATOM     52  C   UNL A   1      45.631  27.284  35.991  1.00  0.00     0.040 A 
ATOM     53  C   UNL A   1      44.057  25.479  35.893  1.00  0.00     0.040 A 
ATOM     54  F   UNL A   1      43.199  24.767  33.854  1.00  0.00    -0.206 F 
ATOM     55  C   UNL A   1      44.837  26.347  36.647  1.00  0.00     0.006 A 
ENDBRANCH  27  48
BRANCH  39  56
ATOM     56  C   UNL A   1      45.120  29.583  28.307  1.00  0.00     0.057 A 
ATOM     57  C   UNL A   1      45.779  28.456  27.788  1.00  0.00     0.134 A 
ATOM     58  C   UNL A   1      45.768  30.813  28.159  1.00  0.00     0.134 A 
ATOM     59  F   UNL A   1      45.196  27.252  27.785  1.00  0.00    -0.206 F 
ATOM     60  C   UNL A   1      47.042  28.546  27.194  1.00  0.00     0.040 A 
ATOM     61  C   UNL A   1      47.014  30.922  27.536  1.00  0.00     0.040 A 
ATOM     62  F   UNL A   1      45.175  31.943  28.575  1.00  0.00    -0.206 F 
ATOM     63  C   UNL A   1      47.661  29.785  27.061  1.00  0.00     0.006 A 
ENDBRANCH  39  56
ENDBRANCH  13  14
ENDBRANCH   6   8
ENDBRANCH   5   6
ENDBRANCH   4   5
ENDBRANCH   3   4
ENDBRANCH   2   3
ENDBRANCH   1   2
BRANCH   1  64
ATOM     64  C   UNL A   1      36.007  20.705  25.201  1.00  0.00     0.188 C 
BRANCH  64  65
ATOM     65  O   UNL A   1      34.618  20.710  25.519  1.00  0.00    -0.376 OA
BRANCH  65  66
ATOM     66  C   UNL A   1      33.636  20.798  24.504  1.00  0.00     0.202 C 
BRANCH  66  67
ATOM     67  C   UNL A   1      32.168  20.723  24.937  1.00  0.00     0.261 C 
BRANCH  67  68
ATOM     68  O   UNL A   1      31.406  21.921  24.770  1.00  0.00    -0.460 OA
BRANCH  68  69
ATOM     69  C   UNL A   1      31.401  22.473  23.520  1.00  0.00     0.342 C 
ATOM     70  O   UNL A   1      31.408  21.856  22.470  1.00  0.00    -0.246 OA
BRANCH  69  71
ATOM     71  C   UNL A   1      31.351  23.923  23.586  1.00  0.00     0.104 A 
ATOM     72  C   UNL A   1      30.319  24.773  23.208  1.00  0.00     0.109 A 
ATOM     73  C   UNL A   1      32.365  24.756  24.065  1.00  0.00     0.103 A 
ATOM     74  N   UNL A   1      30.727  26.087  23.384  1.00  0.00    -0.317 N 
ATOM     75  C   UNL A   1      32.007  26.069  23.911  1.00  0.00     0.058 A 
ATOM     76  N   UNL A   1      33.553  24.311  24.631  1.00  0.00    -0.215 NA
ATOM     77  C   UNL A   1      32.853  27.213  24.348  1.00  0.00     0.088 C 
ATOM     78  C   UNL A   1      34.410  25.245  24.861  1.00  0.00     0.187 C 
ATOM     79  C   UNL A   1      34.307  26.709  24.503  1.00  0.00     0.112 C 
BRANCH  74  80
ATOM     80  C   UNL A   1      29.940  27.229  23.096  1.00  0.00     0.045 A 
ATOM     81  C   UNL A   1      28.596  27.258  23.480  1.00  0.00     0.026 A 
ATOM     82  C   UNL A   1      30.503  28.308  22.404  1.00  0.00     0.026 A 
ATOM     83  C   UNL A   1      27.807  28.362  23.155  1.00  0.00     0.002 A 
ATOM     84  C   UNL A   1      29.692  29.391  22.049  1.00  0.00     0.002 A 
ATOM     85  C   UNL A   1      28.348  29.419  22.426  1.00  0.00     0.000 A 
ENDBRANCH  74  80
BRANCH  77  86
ATOM     86  C   UNL A   1      32.405  27.954  25.602  1.00  0.00     0.014 A 
ATOM     87  C   UNL A   1      32.172  27.381  26.842  1.00  0.00     0.016 A 
ATOM     88  S   UNL A   1      32.127  29.648  25.662  1.00  0.00    -0.148 S 
ATOM     89  C   UNL A   1      31.787  28.328  27.832  1.00  0.00     0.012 A 
ATOM     90  C   UNL A   1      31.758  29.607  27.329  1.00  0.00     0.065 A 
ENDBRANCH  77  86
BRANCH  78  91
ATOM     91  O   UNL A   1      35.592  24.887  25.403  1.00  0.00    -0.496 OA
ATOM     92  H   UNL A   1      35.720  24.950  26.329  1.00  0.00     0.294 HD
ENDBRANCH  78  91
ENDBRANCH  69  71
ENDBRANCH  68  69
ENDBRANCH  67  68
ENDBRANCH  66  67
ENDBRANCH  65  66
ENDBRANCH  64  65
ENDBRANCH   1  64
TORSDOF 20
ENDMDL
MODEL 2
REMARK VINA RESULT:     -10.6      5.311      9.951
REMARK SMILES O=C(OCCOCCOCCOC(=O)c1cn(-c2ccccc2)c2c1N=C(O)C[C@@H]2c1cccs1)c1ccc(-c2c3nc(c(-c4c(F)cccc4F)c4ccc([nH]4)c(-c4c(F)cccc4F)c4nc(c(-c5c(F)cccc5F)c5ccc2[nH]5)C=C4)C=C3)cc1
REMARK SMILES IDX 7 1 6 2 5 3 4 4 3 5 2 6 1 7 36 8 37 9 89 10 38 11 88 12
REMARK SMILES IDX 39 13 40 14 41 15 82 16 42 17 87 18 81 19 83 20 43 21 86 22
REMARK SMILES IDX 80 23 79 24 44 26 70 27 53 28 69 29 54 30 57 31 68 32 84 33
REMARK SMILES IDX 55 34 56 35 67 37 85 38 58 39 45 40 46 41 51 42 47 43 48 44
REMARK SMILES IDX 50 45 52 46 49 47 71 48 72 49 77 50 73 51 74 52 76 53 78 54
REMARK SMILES IDX 75 55 59 56 60 57 65 58 61 59 62 60 64 61 66 62 63 63 8 64
REMARK SMILES IDX 9 65 10 66 11 67 12 68 13 69 14 70 15 71 16 72 25 73 17 74
REMARK SMILES IDX 24 75 26 76 30 77 27 78 29 79 18 80 19 81 23 82 20 83 22 84
REMARK SMILES IDX 21 85 31 86 32 87 35 88 33 89 34 90 28 91
REMARK H PARENT 83 25 57 36 28 92
REMARK Flexibility Score: inf
ROOT
ATOM      1  C   UNL A   1      34.754  33.804  33.776  1.00  0.00     0.188 C 
ENDROOT
BRANCH   1   2
ATOM      2  O   UNL A   1      35.904  33.192  34.308  1.00  0.00    -0.376 OA
BRANCH   2   3
ATOM      3  C   UNL A   1      36.998  33.942  34.785  1.00  0.00     0.202 C 
BRANCH   3   4
ATOM      4  C   UNL A   1      37.649  33.659  36.145  1.00  0.00     0.261 C 
BRANCH   4   5
ATOM      5  O   UNL A   1      37.472  32.346  36.683  1.00  0.00    -0.460 OA
BRANCH   5   6
ATOM      6  C   UNL A   1      38.095  31.184  36.413  1.00  0.00     0.338 C 
ATOM      7  O   UNL A   1      37.783  30.189  37.066  1.00  0.00    -0.246 OA
BRANCH   6   8
ATOM      8  C   UNL A   1      39.233  31.045  35.462  1.00  0.00     0.060 A 
ATOM      9  C   UNL A   1      39.147  30.950  34.072  1.00  0.00     0.016 A 
ATOM     10  C   UNL A   1      40.503  30.968  36.069  1.00  0.00     0.016 A 
ATOM     11  C   UNL A   1      40.258  30.571  33.335  1.00  0.00     0.010 A 
ATOM     12  C   UNL A   1      41.619  30.617  35.337  1.00  0.00     0.010 A 
ATOM     13  C   UNL A   1      41.461  30.320  33.990  1.00  0.00    -0.014 A 
BRANCH  13  14
ATOM     14  C   UNL A   1      42.541  29.729  33.222  1.00  0.00     0.031 A 
ATOM     15  C   UNL A   1      43.385  30.698  32.478  1.00  0.00     0.074 A 
ATOM     16  C   UNL A   1      42.778  28.403  33.270  1.00  0.00     0.049 A 
ATOM     17  N   UNL A   1      43.584  30.779  31.203  1.00  0.00    -0.248 NA
ATOM     18  C   UNL A   1      43.987  31.796  33.249  1.00  0.00     0.031 C 
ATOM     19  C   UNL A   1      42.170  27.406  34.160  1.00  0.00     0.029 A 
ATOM     20  N   UNL A   1      43.697  27.672  32.585  1.00  0.00    -0.354 N 
ATOM     21  C   UNL A   1      44.500  31.814  31.030  1.00  0.00     0.074 A 
ATOM     22  C   UNL A   1      44.594  32.498  32.293  1.00  0.00     0.031 C 
ATOM     23  C   UNL A   1      42.899  26.269  34.123  1.00  0.00     0.029 A 
ATOM     24  C   UNL A   1      43.932  26.408  33.114  1.00  0.00     0.049 A 
ATOM     25  H   UNL A   1      44.157  28.009  31.784  1.00  0.00     0.167 HD
ATOM     26  C   UNL A   1      45.292  31.883  29.926  1.00  0.00     0.037 A 
ATOM     27  C   UNL A   1      44.955  25.581  32.785  1.00  0.00     0.037 A 
ATOM     28  C   UNL A   1      44.739  31.136  28.828  1.00  0.00     0.049 A 
ATOM     29  C   UNL A   1      45.492  26.036  31.478  1.00  0.00     0.074 A 
ATOM     30  C   UNL A   1      43.560  31.207  28.112  1.00  0.00     0.029 A 
ATOM     31  N   UNL A   1      45.265  29.899  28.553  1.00  0.00    -0.354 N 
ATOM     32  N   UNL A   1      44.840  25.941  30.354  1.00  0.00    -0.248 NA
ATOM     33  C   UNL A   1      46.560  27.026  31.499  1.00  0.00     0.031 C 
ATOM     34  C   UNL A   1      43.197  29.850  27.868  1.00  0.00     0.029 A 
ATOM     35  C   UNL A   1      44.208  29.040  28.386  1.00  0.00     0.049 A 
ATOM     36  H   UNL A   1      46.221  29.670  28.486  1.00  0.00     0.167 HD
ATOM     37  C   UNL A   1      45.113  27.124  29.683  1.00  0.00     0.074 A 
ATOM     38  C   UNL A   1      46.237  27.720  30.404  1.00  0.00     0.031 C 
ATOM     39  C   UNL A   1      44.228  27.654  28.789  1.00  0.00     0.037 A 
BRANCH  26  40
ATOM     40  C   UNL A   1      46.732  32.325  29.972  1.00  0.00     0.057 A 
ATOM     41  C   UNL A   1      47.184  33.323  29.092  1.00  0.00     0.134 A 
ATOM     42  C   UNL A   1      47.748  31.610  30.640  1.00  0.00     0.134 A 
ATOM     43  F   UNL A   1      46.316  34.053  28.376  1.00  0.00    -0.206 F 
ATOM     44  C   UNL A   1      48.545  33.551  28.854  1.00  0.00     0.040 A 
ATOM     45  C   UNL A   1      49.108  31.863  30.448  1.00  0.00     0.040 A 
ATOM     46  F   UNL A   1      47.485  30.564  31.434  1.00  0.00    -0.206 F 
ATOM     47  C   UNL A   1      49.513  32.817  29.530  1.00  0.00     0.006 A 
ENDBRANCH  26  40
BRANCH  27  48
ATOM     48  C   UNL A   1      45.706  24.672  33.681  1.00  0.00     0.057 A 
ATOM     49  C   UNL A   1      46.583  25.171  34.654  1.00  0.00     0.134 A 
ATOM     50  C   UNL A   1      45.381  23.307  33.789  1.00  0.00     0.134 A 
ATOM     51  F   UNL A   1      46.918  26.470  34.666  1.00  0.00    -0.206 F 
ATOM     52  C   UNL A   1      47.092  24.366  35.684  1.00  0.00     0.040 A 
ATOM     53  C   UNL A   1      45.887  22.491  34.804  1.00  0.00     0.040 A 
ATOM     54  F   UNL A   1      44.489  22.740  32.964  1.00  0.00    -0.206 F 
ATOM     55  C   UNL A   1      46.736  23.023  35.767  1.00  0.00     0.006 A 
ENDBRANCH  27  48
BRANCH  39  56
ATOM     56  C   UNL A   1      43.046  26.812  28.387  1.00  0.00     0.057 A 
ATOM     57  C   UNL A   1      41.819  26.806  29.070  1.00  0.00     0.134 A 
ATOM     58  C   UNL A   1      43.100  26.104  27.183  1.00  0.00     0.134 A 
ATOM     59  F   UNL A   1      41.636  27.539  30.174  1.00  0.00    -0.206 F 
ATOM     60  C   UNL A   1      40.714  26.090  28.599  1.00  0.00     0.040 A 
ATOM     61  C   UNL A   1      41.993  25.413  26.683  1.00  0.00     0.040 A 
ATOM     62  F   UNL A   1      44.219  26.113  26.443  1.00  0.00    -0.206 F 
ATOM     63  C   UNL A   1      40.798  25.395  27.396  1.00  0.00     0.006 A 
ENDBRANCH  39  56
ENDBRANCH  13  14
ENDBRANCH   6   8
ENDBRANCH   5   6
ENDBRANCH   4   5
ENDBRANCH   3   4
ENDBRANCH   2   3
ENDBRANCH   1   2
BRANCH   1  64
ATOM     64  C   UNL A   1      34.710  35.346  33.908  1.00  0.00     0.188 C 
BRANCH  64  65
ATOM     65  O   UNL A   1      34.686  36.215  32.779  1.00  0.00    -0.376 OA
BRANCH  65  66
ATOM     66  C   UNL A   1      33.467  36.732  32.279  1.00  0.00     0.202 C 
BRANCH  66  67
ATOM     67  C   UNL A   1      32.944  36.151  30.962  1.00  0.00     0.261 C 
BRANCH  67  68
ATOM     68  O   UNL A   1      33.213  34.764  30.740  1.00  0.00    -0.460 OA
BRANCH  68  69
ATOM     69  C   UNL A   1      33.698  34.424  29.508  1.00  0.00     0.342 C 
ATOM     70  O   UNL A   1      33.169  34.679  28.442  1.00  0.00    -0.246 OA
BRANCH  69  71
ATOM     71  C   UNL A   1      34.971  33.736  29.617  1.00  0.00     0.104 A 
ATOM     72  C   UNL A   1      36.120  34.137  30.289  1.00  0.00     0.109 A 
ATOM     73  C   UNL A   1      35.284  32.498  29.050  1.00  0.00     0.103 A 
ATOM     74  N   UNL A   1      37.121  33.203  30.072  1.00  0.00    -0.317 N 
ATOM     75  C   UNL A   1      36.595  32.187  29.292  1.00  0.00     0.058 A 
ATOM     76  N   UNL A   1      34.385  31.695  28.359  1.00  0.00    -0.215 NA
ATOM     77  C   UNL A   1      37.240  30.920  28.849  1.00  0.00     0.088 C 
ATOM     78  C   UNL A   1      34.922  30.672  27.789  1.00  0.00     0.187 C 
ATOM     79  C   UNL A   1      36.387  30.316  27.709  1.00  0.00     0.112 C 
BRANCH  74  80
ATOM     80  C   UNL A   1      38.435  33.281  30.595  1.00  0.00     0.045 A 
ATOM     81  C   UNL A   1      38.675  34.023  31.756  1.00  0.00     0.026 A 
ATOM     82  C   UNL A   1      39.490  32.643  29.932  1.00  0.00     0.026 A 
ATOM     83  C   UNL A   1      39.976  34.142  32.246  1.00  0.00     0.002 A 
ATOM     84  C   UNL A   1      40.795  32.802  30.409  1.00  0.00     0.002 A 
ATOM     85  C   UNL A   1      41.037  33.548  31.564  1.00  0.00     0.000 A 
ENDBRANCH  74  80
BRANCH  77  86
ATOM     86  C   UNL A   1      37.512  29.879  29.927  1.00  0.00     0.014 A 
ATOM     87  C   UNL A   1      38.435  28.848  29.844  1.00  0.00     0.016 A 
ATOM     88  S   UNL A   1      36.701  29.837  31.440  1.00  0.00    -0.148 S 
ATOM     89  C   UNL A   1      38.484  28.046  31.019  1.00  0.00     0.012 A 
ATOM     90  C   UNL A   1      37.614  28.499  31.982  1.00  0.00     0.065 A 
ENDBRANCH  77  86
BRANCH  78  91
ATOM     91  O   UNL A   1      34.111  29.851  27.092  1.00  0.00    -0.496 OA
ATOM     92  H   UNL A   1      33.336  30.190  26.688  1.00  0.00     0.294 HD
ENDBRANCH  78  91
ENDBRANCH  69  71
ENDBRANCH  68  69
ENDBRANCH  67  68
ENDBRANCH  66  67
ENDBRANCH  65  66
ENDBRANCH  64  65
ENDBRANCH   1  64
TORSDOF 20
ENDMDL
MODEL 3
REMARK VINA RESULT:     -10.5      5.422     10.455
REMARK SMILES O=C(OCCOCCOCCOC(=O)c1cn(-c2ccccc2)c2c1N=C(O)C[C@@H]2c1cccs1)c1ccc(-c2c3nc(c(-c4c(F)cccc4F)c4ccc([nH]4)c(-c4c(F)cccc4F)c4nc(c(-c5c(F)cccc5F)c5ccc2[nH]5)C=C4)C=C3)cc1
REMARK SMILES IDX 7 1 6 2 5 3 4 4 3 5 2 6 1 7 36 8 37 9 89 10 38 11 88 12
REMARK SMILES IDX 39 13 40 14 41 15 82 16 42 17 87 18 81 19 83 20 43 21 86 22
REMARK SMILES IDX 80 23 79 24 44 26 70 27 53 28 69 29 54 30 57 31 68 32 84 33
REMARK SMILES IDX 55 34 56 35 67 37 85 38 58 39 45 40 46 41 51 42 47 43 48 44
REMARK SMILES IDX 50 45 52 46 49 47 71 48 72 49 77 50 73 51 74 52 76 53 78 54
REMARK SMILES IDX 75 55 59 56 60 57 65 58 61 59 62 60 64 61 66 62 63 63 8 64
REMARK SMILES IDX 9 65 10 66 11 67 12 68 13 69 14 70 15 71 16 72 25 73 17 74
REMARK SMILES IDX 24 75 26 76 30 77 27 78 29 79 18 80 19 81 23 82 20 83 22 84
REMARK SMILES IDX 21 85 31 86 32 87 35 88 33 89 34 90 28 91
REMARK H PARENT 83 25 57 36 28 92
REMARK Flexibility Score: inf
ROOT
ATOM      1  C   UNL A   1      35.290  33.584  33.591  1.00  0.00     0.188 C 
ENDROOT
BRANCH   1   2
ATOM      2  O   UNL A   1      36.682  33.378  33.567  1.00  0.00    -0.376 OA
BRANCH   2   3
ATOM      3  C   UNL A   1      37.567  34.162  34.335  1.00  0.00     0.202 C 
BRANCH   3   4
ATOM      4  C   UNL A   1      37.904  33.821  35.792  1.00  0.00     0.261 C 
BRANCH   4   5
ATOM      5  O   UNL A   1      37.409  32.577  36.292  1.00  0.00    -0.460 OA
BRANCH   5   6
ATOM      6  C   UNL A   1      37.977  31.360  36.368  1.00  0.00     0.338 C 
ATOM      7  O   UNL A   1      37.734  30.661  37.350  1.00  0.00    -0.246 OA
BRANCH   6   8
ATOM      8  C   UNL A   1      38.988  30.847  35.401  1.00  0.00     0.060 A 
ATOM      9  C   UNL A   1      38.731  30.277  34.153  1.00  0.00     0.016 A 
ATOM     10  C   UNL A   1      40.324  30.929  35.845  1.00  0.00     0.016 A 
ATOM     11  C   UNL A   1      39.741  29.615  33.473  1.00  0.00     0.010 A 
ATOM     12  C   UNL A   1      41.340  30.295  35.159  1.00  0.00     0.010 A 
ATOM     13  C   UNL A   1      41.016  29.555  34.031  1.00  0.00    -0.014 A 
BRANCH  13  14
ATOM     14  C   UNL A   1      41.992  28.685  33.401  1.00  0.00     0.031 A 
ATOM     15  C   UNL A   1      42.538  27.618  34.277  1.00  0.00     0.074 A 
ATOM     16  C   UNL A   1      42.295  28.818  32.094  1.00  0.00     0.049 A 
ATOM     17  N   UNL A   1      43.765  27.418  34.633  1.00  0.00    -0.248 NA
ATOM     18  C   UNL A   1      41.570  26.731  34.940  1.00  0.00     0.031 C 
ATOM     19  C   UNL A   1      41.635  29.665  31.094  1.00  0.00     0.029 A 
ATOM     20  N   UNL A   1      43.212  28.141  31.355  1.00  0.00    -0.354 N 
ATOM     21  C   UNL A   1      43.749  26.257  35.402  1.00  0.00     0.074 A 
ATOM     22  C   UNL A   1      42.368  25.966  35.684  1.00  0.00     0.031 C 
ATOM     23  C   UNL A   1      42.012  29.274  29.856  1.00  0.00     0.029 A 
ATOM     24  C   UNL A   1      43.036  28.253  29.981  1.00  0.00     0.049 A 
ATOM     25  H   UNL A   1      43.939  27.615  31.758  1.00  0.00     0.167 HD
ATOM     26  C   UNL A   1      44.862  25.487  35.550  1.00  0.00     0.037 A 
ATOM     27  C   UNL A   1      43.641  27.498  29.032  1.00  0.00     0.037 A 
ATOM     28  C   UNL A   1      46.062  26.235  35.286  1.00  0.00     0.049 A 
ATOM     29  C   UNL A   1      44.834  26.871  29.656  1.00  0.00     0.074 A 
ATOM     30  C   UNL A   1      46.640  27.358  35.845  1.00  0.00     0.029 A 
ATOM     31  N   UNL A   1      46.678  26.069  34.071  1.00  0.00    -0.354 N 
ATOM     32  N   UNL A   1      45.889  27.537  30.032  1.00  0.00    -0.248 NA
ATOM     33  C   UNL A   1      44.655  25.574  30.293  1.00  0.00     0.031 C 
ATOM     34  C   UNL A   1      47.183  28.079  34.742  1.00  0.00     0.029 A 
ATOM     35  C   UNL A   1      46.966  27.322  33.592  1.00  0.00     0.049 A 
ATOM     36  H   UNL A   1      46.877  25.213  33.627  1.00  0.00     0.167 HD
ATOM     37  C   UNL A   1      46.265  26.959  31.236  1.00  0.00     0.074 A 
ATOM     38  C   UNL A   1      45.512  25.708  31.309  1.00  0.00     0.031 C 
ATOM     39  C   UNL A   1      46.924  27.676  32.192  1.00  0.00     0.037 A 
BRANCH  26  40
ATOM     40  C   UNL A   1      44.825  23.982  35.573  1.00  0.00     0.057 A 
ATOM     41  C   UNL A   1      45.453  23.285  36.620  1.00  0.00     0.134 A 
ATOM     42  C   UNL A   1      44.450  23.191  34.467  1.00  0.00     0.134 A 
ATOM     43  F   UNL A   1      45.882  23.929  37.715  1.00  0.00    -0.206 F 
ATOM     44  C   UNL A   1      45.738  21.915  36.542  1.00  0.00     0.040 A 
ATOM     45  C   UNL A   1      44.685  21.816  34.400  1.00  0.00     0.040 A 
ATOM     46  F   UNL A   1      43.934  23.720  33.350  1.00  0.00    -0.206 F 
ATOM     47  C   UNL A   1      45.357  21.177  35.428  1.00  0.00     0.006 A 
ENDBRANCH  26  40
BRANCH  27  48
ATOM     48  C   UNL A   1      43.064  27.013  27.757  1.00  0.00     0.057 A 
ATOM     49  C   UNL A   1      43.750  27.163  26.544  1.00  0.00     0.134 A 
ATOM     50  C   UNL A   1      41.953  26.150  27.732  1.00  0.00     0.134 A 
ATOM     51  F   UNL A   1      44.850  27.928  26.476  1.00  0.00    -0.206 F 
ATOM     52  C   UNL A   1      43.367  26.483  25.380  1.00  0.00     0.040 A 
ATOM     53  C   UNL A   1      41.554  25.471  26.577  1.00  0.00     0.040 A 
ATOM     54  F   UNL A   1      41.270  25.865  28.850  1.00  0.00    -0.206 F 
ATOM     55  C   UNL A   1      42.270  25.625  25.397  1.00  0.00     0.006 A 
ENDBRANCH  27  48
BRANCH  39  56
ATOM     56  C   UNL A   1      47.425  29.046  31.823  1.00  0.00     0.057 A 
ATOM     57  C   UNL A   1      48.652  29.287  31.184  1.00  0.00     0.134 A 
ATOM     58  C   UNL A   1      46.571  30.143  31.978  1.00  0.00     0.134 A 
ATOM     59  F   UNL A   1      49.492  28.287  30.894  1.00  0.00    -0.206 F 
ATOM     60  C   UNL A   1      49.029  30.567  30.764  1.00  0.00     0.040 A 
ATOM     61  C   UNL A   1      46.920  31.420  31.531  1.00  0.00     0.040 A 
ATOM     62  F   UNL A   1      45.355  29.980  32.524  1.00  0.00    -0.206 F 
ATOM     63  C   UNL A   1      48.157  31.638  30.932  1.00  0.00     0.006 A 
ENDBRANCH  39  56
ENDBRANCH  13  14
ENDBRANCH   6   8
ENDBRANCH   5   6
ENDBRANCH   4   5
ENDBRANCH   3   4
ENDBRANCH   2   3
ENDBRANCH   1   2
BRANCH   1  64
ATOM     64  C   UNL A   1      34.843  35.013  33.987  1.00  0.00     0.188 C 
BRANCH  64  65
ATOM     65  O   UNL A   1      34.808  36.093  33.059  1.00  0.00    -0.376 OA
BRANCH  65  66
ATOM     66  C   UNL A   1      33.587  36.714  32.705  1.00  0.00     0.202 C 
BRANCH  66  67
ATOM     67  C   UNL A   1      32.970  36.336  31.355  1.00  0.00     0.261 C 
BRANCH  67  68
ATOM     68  O   UNL A   1      33.049  34.953  30.998  1.00  0.00    -0.460 OA
BRANCH  68  69
ATOM     69  C   UNL A   1      33.342  34.675  29.692  1.00  0.00     0.342 C 
ATOM     70  O   UNL A   1      32.656  34.970  28.731  1.00  0.00    -0.246 OA
BRANCH  69  71
ATOM     71  C   UNL A   1      34.621  33.997  29.575  1.00  0.00     0.104 A 
ATOM     72  C   UNL A   1      35.855  34.379  30.088  1.00  0.00     0.109 A 
ATOM     73  C   UNL A   1      34.850  32.793  28.905  1.00  0.00     0.103 A 
ATOM     74  N   UNL A   1      36.817  33.468  29.677  1.00  0.00    -0.317 N 
ATOM     75  C   UNL A   1      36.185  32.487  28.933  1.00  0.00     0.058 A 
ATOM     76  N   UNL A   1      33.862  32.015  28.316  1.00  0.00    -0.215 NA
ATOM     77  C   UNL A   1      36.762  31.251  28.335  1.00  0.00     0.088 C 
ATOM     78  C   UNL A   1      34.313  31.028  27.621  1.00  0.00     0.187 C 
ATOM     79  C   UNL A   1      35.751  30.694  27.306  1.00  0.00     0.112 C 
BRANCH  74  80
ATOM     80  C   UNL A   1      38.194  33.537  30.002  1.00  0.00     0.045 A 
ATOM     81  C   UNL A   1      38.696  32.767  31.055  1.00  0.00     0.026 A 
ATOM     82  C   UNL A   1      39.037  34.397  29.288  1.00  0.00     0.026 A 
ATOM     83  C   UNL A   1      40.042  32.869  31.408  1.00  0.00     0.002 A 
ATOM     84  C   UNL A   1      40.375  34.521  29.676  1.00  0.00     0.002 A 
ATOM     85  C   UNL A   1      40.877  33.758  30.732  1.00  0.00     0.000 A 
ENDBRANCH  74  80
BRANCH  77  86
ATOM     86  C   UNL A   1      37.197  30.161  29.306  1.00  0.00     0.014 A 
ATOM     87  C   UNL A   1      36.692  29.964  30.582  1.00  0.00     0.016 A 
ATOM     88  S   UNL A   1      38.395  28.984  28.948  1.00  0.00    -0.148 S 
ATOM     89  C   UNL A   1      37.274  28.849  31.248  1.00  0.00     0.012 A 
ATOM     90  C   UNL A   1      38.192  28.204  30.453  1.00  0.00     0.065 A 
ENDBRANCH  77  86
BRANCH  78  91
ATOM     91  O   UNL A   1      33.411  30.232  27.012  1.00  0.00    -0.496 OA
ATOM     92  H   UNL A   1      32.517  30.235  27.295  1.00  0.00     0.294 HD
ENDBRANCH  78  91
ENDBRANCH  69  71
ENDBRANCH  68  69
ENDBRANCH  67  68
ENDBRANCH  66  67
ENDBRANCH  65  66
ENDBRANCH  64  65
ENDBRANCH   1  64
TORSDOF 20
ENDMDL
