MODEL 1
REMARK VINA RESULT:     -10.9      0.000      0.000
REMARK SMILES O=C(OCCOCCOCCOC(=O)[C@H]1CSCN1C(=O)c1occc1-c1ccccc1)c1ccc(-c2c3nc(c(-c4c(F)cccc4F)c4ccc([nH]4)c(-c4c(F)cccc4F)c4nc(c(-c5c(F)cccc5F)c5ccc2[nH]5)C=C4)C=C3)cc1
REMARK SMILES IDX 8 1 7 2 6 3 5 4 4 5 3 6 2 7 1 8 33 9 34 10 86 11 35 12 85 13
REMARK SMILES IDX 36 14 37 15 38 16 79 17 39 18 84 19 78 20 80 21 40 22 83 23
REMARK SMILES IDX 77 24 76 25 41 27 67 28 50 29 66 30 51 31 54 32 65 33 81 34
REMARK SMILES IDX 52 35 53 36 64 38 82 39 55 40 42 41 43 42 48 43 44 44 45 45
REMARK SMILES IDX 47 46 49 47 46 48 68 49 69 50 74 51 70 52 71 53 73 54 75 55
REMARK SMILES IDX 72 56 56 57 57 58 62 59 58 60 59 61 61 62 63 63 60 64 9 65
REMARK SMILES IDX 10 66 11 67 12 68 13 69 14 70 15 71 16 72 19 73 17 74 18 75
REMARK SMILES IDX 20 76 21 77 22 78 23 79 26 80 24 81 25 82 27 83 28 84 32 85
REMARK SMILES IDX 29 86 31 87 30 88
REMARK H PARENT 80 26 54 37
REMARK Flexibility Score: inf
ROOT
ATOM      1  C   UNL A   1      34.396  32.589  28.562  1.00  0.00     0.188 C 
ENDROOT
BRANCH   1   2
ATOM      2  C   UNL A   1      34.223  34.104  28.400  1.00  0.00     0.188 C 
BRANCH   2   3
ATOM      3  O   UNL A   1      33.071  34.667  29.035  1.00  0.00    -0.376 OA
BRANCH   3   4
ATOM      4  C   UNL A   1      32.930  36.073  28.808  1.00  0.00     0.202 C 
BRANCH   4   5
ATOM      5  C   UNL A   1      33.137  36.938  30.054  1.00  0.00     0.261 C 
BRANCH   5   6
ATOM      6  O   UNL A   1      32.252  36.571  31.118  1.00  0.00    -0.460 OA
BRANCH   6   7
ATOM      7  C   UNL A   1      32.446  35.691  32.124  1.00  0.00     0.338 C 
ATOM      8  O   UNL A   1      31.458  35.398  32.803  1.00  0.00    -0.246 OA
BRANCH   7   9
ATOM      9  C   UNL A   1      33.755  35.047  32.498  1.00  0.00     0.060 A 
ATOM     10  C   UNL A   1      35.032  35.624  32.521  1.00  0.00     0.016 A 
ATOM     11  C   UNL A   1      33.656  33.713  32.922  1.00  0.00     0.016 A 
ATOM     12  C   UNL A   1      36.175  34.892  32.893  1.00  0.00     0.010 A 
ATOM     13  C   UNL A   1      34.778  33.002  33.343  1.00  0.00     0.010 A 
ATOM     14  C   UNL A   1      36.060  33.570  33.311  1.00  0.00    -0.014 A 
BRANCH  14  15
ATOM     15  C   UNL A   1      37.239  32.706  33.598  1.00  0.00     0.031 A 
ATOM     16  C   UNL A   1      38.036  33.011  34.838  1.00  0.00     0.074 A 
ATOM     17  C   UNL A   1      37.678  31.758  32.747  1.00  0.00     0.049 A 
ATOM     18  N   UNL A   1      39.224  32.600  35.196  1.00  0.00    -0.248 NA
ATOM     19  C   UNL A   1      37.428  33.976  35.769  1.00  0.00     0.031 C 
ATOM     20  C   UNL A   1      37.039  31.366  31.492  1.00  0.00     0.029 A 
ATOM     21  N   UNL A   1      38.816  30.985  32.788  1.00  0.00    -0.354 N 
ATOM     22  C   UNL A   1      39.516  33.298  36.359  1.00  0.00     0.074 A 
ATOM     23  C   UNL A   1      38.439  34.237  36.577  1.00  0.00     0.031 C 
ATOM     24  C   UNL A   1      37.823  30.484  30.848  1.00  0.00     0.029 A 
ATOM     25  C   UNL A   1      39.013  30.231  31.655  1.00  0.00     0.049 A 
ATOM     26  H   UNL A   1      39.431  30.973  33.557  1.00  0.00     0.167 HD
ATOM     27  C   UNL A   1      40.551  33.132  37.216  1.00  0.00     0.037 A 
ATOM     28  C   UNL A   1      40.039  29.430  31.309  1.00  0.00     0.037 A 
ATOM     29  C   UNL A   1      41.555  32.121  37.061  1.00  0.00     0.049 A 
ATOM     30  C   UNL A   1      41.158  29.204  32.291  1.00  0.00     0.074 A 
ATOM     31  C   UNL A   1      42.566  31.762  37.932  1.00  0.00     0.029 A 
ATOM     32  N   UNL A   1      41.652  31.283  35.960  1.00  0.00    -0.354 N 
ATOM     33  N   UNL A   1      41.375  29.794  33.442  1.00  0.00    -0.248 NA
ATOM     34  C   UNL A   1      42.145  28.169  31.953  1.00  0.00     0.031 C 
ATOM     35  C   UNL A   1      43.282  30.708  37.353  1.00  0.00     0.029 A 
ATOM     36  C   UNL A   1      42.702  30.401  36.131  1.00  0.00     0.049 A 
ATOM     37  H   UNL A   1      41.060  31.312  35.174  1.00  0.00     0.167 HD
ATOM     38  C   UNL A   1      42.482  29.161  33.992  1.00  0.00     0.074 A 
ATOM     39  C   UNL A   1      42.908  28.157  33.038  1.00  0.00     0.031 C 
ATOM     40  C   UNL A   1      43.081  29.380  35.188  1.00  0.00     0.037 A 
BRANCH  27  41
ATOM     41  C   UNL A   1      40.585  34.043  38.408  1.00  0.00     0.057 A 
ATOM     42  C   UNL A   1      39.869  33.748  39.578  1.00  0.00     0.134 A 
ATOM     43  C   UNL A   1      41.261  35.266  38.354  1.00  0.00     0.134 A 
ATOM     44  F   UNL A   1      39.185  32.599  39.685  1.00  0.00    -0.206 F 
ATOM     45  C   UNL A   1      39.759  34.671  40.618  1.00  0.00     0.040 A 
ATOM     46  C   UNL A   1      41.191  36.181  39.405  1.00  0.00     0.040 A 
ATOM     47  F   UNL A   1      41.973  35.605  37.269  1.00  0.00    -0.206 F 
ATOM     48  C   UNL A   1      40.420  35.894  40.531  1.00  0.00     0.006 A 
ENDBRANCH  27  41
BRANCH  28  49
ATOM     49  C   UNL A   1      40.031  28.730  30.000  1.00  0.00     0.057 A 
ATOM     50  C   UNL A   1      40.710  29.257  28.895  1.00  0.00     0.134 A 
ATOM     51  C   UNL A   1      39.338  27.529  29.817  1.00  0.00     0.134 A 
ATOM     52  F   UNL A   1      41.379  30.415  29.006  1.00  0.00    -0.206 F 
ATOM     53  C   UNL A   1      40.683  28.629  27.649  1.00  0.00     0.040 A 
ATOM     54  C   UNL A   1      39.313  26.881  28.579  1.00  0.00     0.040 A 
ATOM     55  F   UNL A   1      38.673  26.968  30.837  1.00  0.00    -0.206 F 
ATOM     56  C   UNL A   1      39.982  27.434  27.489  1.00  0.00     0.006 A 
ENDBRANCH  28  49
BRANCH  40  57
ATOM     57  C   UNL A   1      44.208  28.476  35.581  1.00  0.00     0.057 A 
ATOM     58  C   UNL A   1      45.535  28.761  35.243  1.00  0.00     0.134 A 
ATOM     59  C   UNL A   1      43.965  27.363  36.396  1.00  0.00     0.134 A 
ATOM     60  F   UNL A   1      45.827  29.806  34.456  1.00  0.00    -0.206 F 
ATOM     61  C   UNL A   1      46.586  27.969  35.708  1.00  0.00     0.040 A 
ATOM     62  C   UNL A   1      45.009  26.576  36.882  1.00  0.00     0.040 A 
ATOM     63  F   UNL A   1      42.713  27.043  36.757  1.00  0.00    -0.206 F 
ATOM     64  C   UNL A   1      46.324  26.880  36.540  1.00  0.00     0.006 A 
ENDBRANCH  40  57
ENDBRANCH  14  15
ENDBRANCH   7   9
ENDBRANCH   6   7
ENDBRANCH   5   6
ENDBRANCH   4   5
ENDBRANCH   3   4
ENDBRANCH   2   3
ENDBRANCH   1   2
BRANCH   1  65
ATOM     65  O   UNL A   1      34.313  31.770  27.400  1.00  0.00    -0.376 OA
BRANCH  65  66
ATOM     66  C   UNL A   1      33.666  30.510  27.520  1.00  0.00     0.202 C 
BRANCH  66  67
ATOM     67  C   UNL A   1      33.679  29.526  26.336  1.00  0.00     0.261 C 
BRANCH  67  68
ATOM     68  O   UNL A   1      32.410  28.932  26.021  1.00  0.00    -0.462 OA
BRANCH  68  69
ATOM     69  C   UNL A   1      32.440  27.614  25.734  1.00  0.00     0.329 C 
ATOM     70  O   UNL A   1      32.129  26.735  26.540  1.00  0.00    -0.250 OA
BRANCH  69  71
ATOM     71  C   UNL A   1      32.772  27.248  24.274  1.00  0.00     0.206 C 
ATOM     72  C   UNL A   1      33.418  25.860  24.411  1.00  0.00     0.108 C 
ATOM     73  N   UNL A   1      31.877  27.159  23.104  1.00  0.00    -0.312 N 
ATOM     74  S   UNL A   1      33.577  25.185  22.746  1.00  0.00    -0.138 SA
ATOM     75  C   UNL A   1      32.447  26.377  22.029  1.00  0.00     0.191 C 
BRANCH  73  76
ATOM     76  C   UNL A   1      31.001  28.216  22.815  1.00  0.00     0.291 C 
ATOM     77  O   UNL A   1      31.412  29.213  22.260  1.00  0.00    -0.265 OA
BRANCH  76  78
ATOM     78  C   UNL A   1      29.584  28.009  23.107  1.00  0.00     0.199 A 
ATOM     79  O   UNL A   1      29.258  26.795  23.663  1.00  0.00    -0.459 OA
ATOM     80  C   UNL A   1      28.428  28.768  22.995  1.00  0.00     0.033 A 
ATOM     81  C   UNL A   1      27.919  26.769  23.868  1.00  0.00     0.196 A 
ATOM     82  C   UNL A   1      27.358  27.957  23.473  1.00  0.00     0.051 A 
BRANCH  80  83
ATOM     83  C   UNL A   1      28.366  30.144  22.553  1.00  0.00    -0.014 A 
ATOM     84  C   UNL A   1      28.542  31.168  23.491  1.00  0.00     0.009 A 
ATOM     85  C   UNL A   1      28.123  30.467  21.218  1.00  0.00     0.009 A 
ATOM     86  C   UNL A   1      28.518  32.503  23.090  1.00  0.00     0.001 A 
ATOM     87  C   UNL A   1      28.087  31.804  20.818  1.00  0.00     0.001 A 
ATOM     88  C   UNL A   1      28.295  32.820  21.752  1.00  0.00     0.000 A 
ENDBRANCH  80  83
ENDBRANCH  76  78
ENDBRANCH  73  76
ENDBRANCH  69  71
ENDBRANCH  68  69
ENDBRANCH  67  68
ENDBRANCH  66  67
ENDBRANCH  65  66
ENDBRANCH   1  65
TORSDOF 20
ENDMDL
MODEL 2
REMARK VINA RESULT:     -10.8      4.582      6.967
REMARK SMILES O=C(OCCOCCOCCOC(=O)[C@H]1CSCN1C(=O)c1occc1-c1ccccc1)c1ccc(-c2c3nc(c(-c4c(F)cccc4F)c4ccc([nH]4)c(-c4c(F)cccc4F)c4nc(c(-c5c(F)cccc5F)c5ccc2[nH]5)C=C4)C=C3)cc1
REMARK SMILES IDX 8 1 7 2 6 3 5 4 4 5 3 6 2 7 1 8 33 9 34 10 86 11 35 12 85 13
REMARK SMILES IDX 36 14 37 15 38 16 79 17 39 18 84 19 78 20 80 21 40 22 83 23
REMARK SMILES IDX 77 24 76 25 41 27 67 28 50 29 66 30 51 31 54 32 65 33 81 34
REMARK SMILES IDX 52 35 53 36 64 38 82 39 55 40 42 41 43 42 48 43 44 44 45 45
REMARK SMILES IDX 47 46 49 47 46 48 68 49 69 50 74 51 70 52 71 53 73 54 75 55
REMARK SMILES IDX 72 56 56 57 57 58 62 59 58 60 59 61 61 62 63 63 60 64 9 65
REMARK SMILES IDX 10 66 11 67 12 68 13 69 14 70 15 71 16 72 19 73 17 74 18 75
REMARK SMILES IDX 20 76 21 77 22 78 23 79 26 80 24 81 25 82 27 83 28 84 32 85
REMARK SMILES IDX 29 86 31 87 30 88
REMARK H PARENT 80 26 54 37
REMARK Flexibility Score: inf
ROOT
ATOM      1  C   UNL A   1      34.007  32.841  27.783  1.00  0.00     0.188 C 
ENDROOT
BRANCH   1   2
ATOM      2  C   UNL A   1      34.972  34.009  28.018  1.00  0.00     0.188 C 
BRANCH   2   3
ATOM      3  O   UNL A   1      34.484  35.054  28.865  1.00  0.00    -0.376 OA
BRANCH   3   4
ATOM      4  C   UNL A   1      33.657  34.579  29.932  1.00  0.00     0.202 C 
BRANCH   4   5
ATOM      5  C   UNL A   1      34.327  34.601  31.308  1.00  0.00     0.261 C 
BRANCH   5   6
ATOM      6  O   UNL A   1      35.606  33.957  31.296  1.00  0.00    -0.460 OA
BRANCH   6   7
ATOM      7  C   UNL A   1      35.971  32.775  31.835  1.00  0.00     0.338 C 
ATOM      8  O   UNL A   1      35.246  32.323  32.725  1.00  0.00    -0.246 OA
BRANCH   7   9
ATOM      9  C   UNL A   1      37.185  31.967  31.459  1.00  0.00     0.060 A 
ATOM     10  C   UNL A   1      38.065  31.275  32.302  1.00  0.00     0.016 A 
ATOM     11  C   UNL A   1      37.422  31.865  30.080  1.00  0.00     0.016 A 
ATOM     12  C   UNL A   1      39.169  30.559  31.804  1.00  0.00     0.010 A 
ATOM     13  C   UNL A   1      38.483  31.111  29.580  1.00  0.00     0.010 A 
ATOM     14  C   UNL A   1      39.389  30.467  30.434  1.00  0.00    -0.014 A 
BRANCH  14  15
ATOM     15  C   UNL A   1      40.604  29.833  29.849  1.00  0.00     0.031 A 
ATOM     16  C   UNL A   1      41.774  30.729  29.545  1.00  0.00     0.074 A 
ATOM     17  C   UNL A   1      40.651  28.537  29.483  1.00  0.00     0.049 A 
ATOM     18  N   UNL A   1      42.838  30.505  28.819  1.00  0.00    -0.248 NA
ATOM     19  C   UNL A   1      41.690  32.099  30.080  1.00  0.00     0.031 C 
ATOM     20  C   UNL A   1      39.591  27.549  29.679  1.00  0.00     0.029 A 
ATOM     21  N   UNL A   1      41.625  27.840  28.806  1.00  0.00    -0.354 N 
ATOM     22  C   UNL A   1      43.511  31.718  28.774  1.00  0.00     0.074 A 
ATOM     23  C   UNL A   1      42.680  32.693  29.441  1.00  0.00     0.031 C 
ATOM     24  C   UNL A   1      39.937  26.399  29.076  1.00  0.00     0.029 A 
ATOM     25  C   UNL A   1      41.254  26.560  28.467  1.00  0.00     0.049 A 
ATOM     26  H   UNL A   1      42.506  28.221  28.585  1.00  0.00     0.167 HD
ATOM     27  C   UNL A   1      44.744  31.990  28.285  1.00  0.00     0.037 A 
ATOM     28  C   UNL A   1      41.903  25.627  27.745  1.00  0.00     0.037 A 
ATOM     29  C   UNL A   1      45.615  30.997  27.730  1.00  0.00     0.049 A 
ATOM     30  C   UNL A   1      43.297  25.917  27.255  1.00  0.00     0.074 A 
ATOM     31  C   UNL A   1      46.934  31.124  27.336  1.00  0.00     0.029 A 
ATOM     32  N   UNL A   1      45.254  29.675  27.519  1.00  0.00    -0.354 N 
ATOM     33  N   UNL A   1      43.972  27.040  27.307  1.00  0.00    -0.248 NA
ATOM     34  C   UNL A   1      44.039  24.800  26.651  1.00  0.00     0.031 C 
ATOM     35  C   UNL A   1      47.370  29.875  26.878  1.00  0.00     0.029 A 
ATOM     36  C   UNL A   1      46.326  28.970  27.006  1.00  0.00     0.049 A 
ATOM     37  H   UNL A   1      44.365  29.295  27.707  1.00  0.00     0.167 HD
ATOM     38  C   UNL A   1      45.234  26.750  26.803  1.00  0.00     0.074 A 
ATOM     39  C   UNL A   1      45.224  25.351  26.428  1.00  0.00     0.031 C 
ATOM     40  C   UNL A   1      46.308  27.567  26.681  1.00  0.00     0.037 A 
BRANCH  27  41
ATOM     41  C   UNL A   1      45.206  33.413  28.395  1.00  0.00     0.057 A 
ATOM     42  C   UNL A   1      44.904  34.362  27.406  1.00  0.00     0.134 A 
ATOM     43  C   UNL A   1      46.035  33.817  29.446  1.00  0.00     0.134 A 
ATOM     44  F   UNL A   1      44.129  34.032  26.362  1.00  0.00    -0.206 F 
ATOM     45  C   UNL A   1      45.473  35.636  27.418  1.00  0.00     0.040 A 
ATOM     46  C   UNL A   1      46.579  35.102  29.490  1.00  0.00     0.040 A 
ATOM     47  F   UNL A   1      46.354  32.964  30.431  1.00  0.00    -0.206 F 
ATOM     48  C   UNL A   1      46.317  36.007  28.462  1.00  0.00     0.006 A 
ENDBRANCH  27  41
BRANCH  28  49
ATOM     49  C   UNL A   1      41.274  24.306  27.493  1.00  0.00     0.057 A 
ATOM     50  C   UNL A   1      40.283  24.154  26.516  1.00  0.00     0.134 A 
ATOM     51  C   UNL A   1      41.635  23.171  28.226  1.00  0.00     0.134 A 
ATOM     52  F   UNL A   1      39.883  25.210  25.792  1.00  0.00    -0.206 F 
ATOM     53  C   UNL A   1      39.657  22.926  26.292  1.00  0.00     0.040 A 
ATOM     54  C   UNL A   1      41.027  21.933  28.004  1.00  0.00     0.040 A 
ATOM     55  F   UNL A   1      42.583  23.249  29.172  1.00  0.00    -0.206 F 
ATOM     56  C   UNL A   1      40.030  21.809  27.037  1.00  0.00     0.006 A 
ENDBRANCH  28  49
BRANCH  40  57
ATOM     57  C   UNL A   1      47.590  26.966  26.195  1.00  0.00     0.057 A 
ATOM     58  C   UNL A   1      47.940  26.964  24.841  1.00  0.00     0.134 A 
ATOM     59  C   UNL A   1      48.529  26.476  27.113  1.00  0.00     0.134 A 
ATOM     60  F   UNL A   1      47.077  27.408  23.915  1.00  0.00    -0.206 F 
ATOM     61  C   UNL A   1      49.185  26.498  24.415  1.00  0.00     0.040 A 
ATOM     62  C   UNL A   1      49.784  26.027  26.701  1.00  0.00     0.040 A 
ATOM     63  F   UNL A   1      48.252  26.458  28.426  1.00  0.00    -0.206 F 
ATOM     64  C   UNL A   1      50.115  26.039  25.348  1.00  0.00     0.006 A 
ENDBRANCH  40  57
ENDBRANCH  14  15
ENDBRANCH   7   9
ENDBRANCH   6   7
ENDBRANCH   5   6
ENDBRANCH   4   5
ENDBRANCH   3   4
ENDBRANCH   2   3
ENDBRANCH   1   2
BRANCH   1  65
ATOM     65  O   UNL A   1      34.319  31.577  28.360  1.00  0.00    -0.376 OA
BRANCH  65  66
ATOM     66  C   UNL A   1      34.419  30.457  27.492  1.00  0.00     0.202 C 
BRANCH  66  67
ATOM     67  C   UNL A   1      33.145  29.845  26.881  1.00  0.00     0.261 C 
BRANCH  67  68
ATOM     68  O   UNL A   1      33.297  29.311  25.557  1.00  0.00    -0.462 OA
BRANCH  68  69
ATOM     69  C   UNL A   1      33.294  27.964  25.470  1.00  0.00     0.329 C 
ATOM     70  O   UNL A   1      33.217  27.220  26.449  1.00  0.00    -0.250 OA
BRANCH  69  71
ATOM     71  C   UNL A   1      33.266  27.379  24.044  1.00  0.00     0.206 C 
ATOM     72  C   UNL A   1      33.889  25.987  24.237  1.00  0.00     0.108 C 
ATOM     73  N   UNL A   1      32.120  27.183  23.135  1.00  0.00    -0.312 N 
ATOM     74  S   UNL A   1      33.636  25.078  22.699  1.00  0.00    -0.138 SA
ATOM     75  C   UNL A   1      32.402  26.226  22.087  1.00  0.00     0.191 C 
BRANCH  73  76
ATOM     76  C   UNL A   1      31.230  28.241  22.898  1.00  0.00     0.291 C 
ATOM     77  O   UNL A   1      31.629  29.273  22.402  1.00  0.00    -0.265 OA
BRANCH  76  78
ATOM     78  C   UNL A   1      29.814  27.996  23.166  1.00  0.00     0.199 A 
ATOM     79  O   UNL A   1      29.508  26.764  23.691  1.00  0.00    -0.459 OA
ATOM     80  C   UNL A   1      28.643  28.732  23.054  1.00  0.00     0.033 A 
ATOM     81  C   UNL A   1      28.167  26.704  23.878  1.00  0.00     0.196 A 
ATOM     82  C   UNL A   1      27.585  27.887  23.499  1.00  0.00     0.051 A 
BRANCH  80  83
ATOM     83  C   UNL A   1      28.556  30.114  22.639  1.00  0.00    -0.014 A 
ATOM     84  C   UNL A   1      28.279  30.404  21.297  1.00  0.00     0.009 A 
ATOM     85  C   UNL A   1      28.754  31.158  23.543  1.00  0.00     0.009 A 
ATOM     86  C   UNL A   1      28.158  31.727  20.873  1.00  0.00     0.001 A 
ATOM     87  C   UNL A   1      28.646  32.483  23.114  1.00  0.00     0.001 A 
ATOM     88  C   UNL A   1      28.337  32.766  21.784  1.00  0.00     0.000 A 
ENDBRANCH  80  83
ENDBRANCH  76  78
ENDBRANCH  73  76
ENDBRANCH  69  71
ENDBRANCH  68  69
ENDBRANCH  67  68
ENDBRANCH  66  67
ENDBRANCH  65  66
ENDBRANCH   1  65
TORSDOF 20
ENDMDL
MODEL 3
REMARK VINA RESULT:     -10.7      3.556      8.634
REMARK SMILES O=C(OCCOCCOCCOC(=O)[C@H]1CSCN1C(=O)c1occc1-c1ccccc1)c1ccc(-c2c3nc(c(-c4c(F)cccc4F)c4ccc([nH]4)c(-c4c(F)cccc4F)c4nc(c(-c5c(F)cccc5F)c5ccc2[nH]5)C=C4)C=C3)cc1
REMARK SMILES IDX 8 1 7 2 6 3 5 4 4 5 3 6 2 7 1 8 33 9 34 10 86 11 35 12 85 13
REMARK SMILES IDX 36 14 37 15 38 16 79 17 39 18 84 19 78 20 80 21 40 22 83 23
REMARK SMILES IDX 77 24 76 25 41 27 67 28 50 29 66 30 51 31 54 32 65 33 81 34
REMARK SMILES IDX 52 35 53 36 64 38 82 39 55 40 42 41 43 42 48 43 44 44 45 45
REMARK SMILES IDX 47 46 49 47 46 48 68 49 69 50 74 51 70 52 71 53 73 54 75 55
REMARK SMILES IDX 72 56 56 57 57 58 62 59 58 60 59 61 61 62 63 63 60 64 9 65
REMARK SMILES IDX 10 66 11 67 12 68 13 69 14 70 15 71 16 72 19 73 17 74 18 75
REMARK SMILES IDX 20 76 21 77 22 78 23 79 26 80 24 81 25 82 27 83 28 84 32 85
REMARK SMILES IDX 29 86 31 87 30 88
REMARK H PARENT 80 26 54 37
REMARK Flexibility Score: inf
ROOT
ATOM      1  C   UNL A   1      39.279  22.254  26.408  1.00  0.00     0.188 C 
ENDROOT
BRANCH   1   2
ATOM      2  C   UNL A   1      40.421  21.274  26.700  1.00  0.00     0.188 C 
BRANCH   2   3
ATOM      3  O   UNL A   1      41.389  21.122  25.658  1.00  0.00    -0.376 OA
BRANCH   3   4
ATOM      4  C   UNL A   1      42.708  20.850  26.144  1.00  0.00     0.202 C 
BRANCH   4   5
ATOM      5  C   UNL A   1      43.822  21.580  25.391  1.00  0.00     0.261 C 
BRANCH   5   6
ATOM      6  O   UNL A   1      43.366  22.804  24.806  1.00  0.00    -0.460 OA
BRANCH   6   7
ATOM      7  C   UNL A   1      43.688  24.076  25.126  1.00  0.00     0.338 C 
ATOM      8  O   UNL A   1      44.498  24.645  24.390  1.00  0.00    -0.246 OA
BRANCH   7   9
ATOM      9  C   UNL A   1      43.160  24.854  26.303  1.00  0.00     0.060 A 
ATOM     10  C   UNL A   1      42.195  24.464  27.240  1.00  0.00     0.016 A 
ATOM     11  C   UNL A   1      43.759  26.107  26.497  1.00  0.00     0.016 A 
ATOM     12  C   UNL A   1      41.795  25.305  28.295  1.00  0.00     0.010 A 
ATOM     13  C   UNL A   1      43.405  26.921  27.573  1.00  0.00     0.010 A 
ATOM     14  C   UNL A   1      42.399  26.545  28.474  1.00  0.00    -0.014 A 
BRANCH  14  15
ATOM     15  C   UNL A   1      41.938  27.532  29.491  1.00  0.00     0.031 A 
ATOM     16  C   UNL A   1      42.554  27.451  30.863  1.00  0.00     0.074 A 
ATOM     17  C   UNL A   1      40.930  28.398  29.270  1.00  0.00     0.049 A 
ATOM     18  N   UNL A   1      42.176  27.998  31.988  1.00  0.00    -0.248 NA
ATOM     19  C   UNL A   1      43.724  26.564  30.989  1.00  0.00     0.031 C 
ATOM     20  C   UNL A   1      40.210  28.575  28.009  1.00  0.00     0.029 A 
ATOM     21  N   UNL A   1      40.293  29.259  30.133  1.00  0.00    -0.354 N 
ATOM     22  C   UNL A   1      43.028  27.479  32.951  1.00  0.00     0.074 A 
ATOM     23  C   UNL A   1      43.858  26.491  32.300  1.00  0.00     0.031 C 
ATOM     24  C   UNL A   1      39.189  29.429  28.196  1.00  0.00     0.029 A 
ATOM     25  C   UNL A   1      39.193  29.877  29.585  1.00  0.00     0.049 A 
ATOM     26  H   UNL A   1      40.595  29.418  31.056  1.00  0.00     0.167 HD
ATOM     27  C   UNL A   1      43.164  27.835  34.250  1.00  0.00     0.037 A 
ATOM     28  C   UNL A   1      38.293  30.709  30.143  1.00  0.00     0.037 A 
ATOM     29  C   UNL A   1      42.422  28.896  34.864  1.00  0.00     0.049 A 
ATOM     30  C   UNL A   1      38.485  31.147  31.571  1.00  0.00     0.074 A 
ATOM     31  C   UNL A   1      42.572  29.443  36.125  1.00  0.00     0.029 A 
ATOM     32  N   UNL A   1      41.400  29.594  34.238  1.00  0.00    -0.354 N 
ATOM     33  N   UNL A   1      39.361  30.727  32.451  1.00  0.00    -0.248 NA
ATOM     34  C   UNL A   1      37.597  32.208  32.069  1.00  0.00     0.031 C 
ATOM     35  C   UNL A   1      41.632  30.470  36.265  1.00  0.00     0.029 A 
ATOM     36  C   UNL A   1      40.912  30.573  35.083  1.00  0.00     0.049 A 
ATOM     37  H   UNL A   1      41.071  29.419  33.327  1.00  0.00     0.167 HD
ATOM     38  C   UNL A   1      39.173  31.512  33.581  1.00  0.00     0.074 A 
ATOM     39  C   UNL A   1      38.083  32.418  33.285  1.00  0.00     0.031 C 
ATOM     40  C   UNL A   1      39.856  31.494  34.752  1.00  0.00     0.037 A 
BRANCH  27  41
ATOM     41  C   UNL A   1      44.195  27.087  35.043  1.00  0.00     0.057 A 
ATOM     42  C   UNL A   1      45.538  27.494  35.072  1.00  0.00     0.134 A 
ATOM     43  C   UNL A   1      43.865  25.902  35.708  1.00  0.00     0.134 A 
ATOM     44  F   UNL A   1      45.922  28.613  34.439  1.00  0.00    -0.206 F 
ATOM     45  C   UNL A   1      46.526  26.709  35.664  1.00  0.00     0.040 A 
ATOM     46  C   UNL A   1      44.840  25.126  36.338  1.00  0.00     0.040 A 
ATOM     47  F   UNL A   1      42.598  25.462  35.729  1.00  0.00    -0.206 F 
ATOM     48  C   UNL A   1      46.178  25.518  36.297  1.00  0.00     0.006 A 
ENDBRANCH  27  41
BRANCH  28  49
ATOM     49  C   UNL A   1      37.163  31.236  29.337  1.00  0.00     0.057 A 
ATOM     50  C   UNL A   1      36.019  30.463  29.107  1.00  0.00     0.134 A 
ATOM     51  C   UNL A   1      37.203  32.514  28.769  1.00  0.00     0.134 A 
ATOM     52  F   UNL A   1      35.931  29.223  29.612  1.00  0.00    -0.206 F 
ATOM     53  C   UNL A   1      34.964  30.931  28.322  1.00  0.00     0.040 A 
ATOM     54  C   UNL A   1      36.149  33.001  27.992  1.00  0.00     0.040 A 
ATOM     55  F   UNL A   1      38.268  33.307  28.957  1.00  0.00    -0.206 F 
ATOM     56  C   UNL A   1      35.026  32.206  27.762  1.00  0.00     0.006 A 
ENDBRANCH  28  49
BRANCH  40  57
ATOM     57  C   UNL A   1      39.509  32.528  35.778  1.00  0.00     0.057 A 
ATOM     58  C   UNL A   1      40.128  33.782  35.801  1.00  0.00     0.134 A 
ATOM     59  C   UNL A   1      38.468  32.296  36.686  1.00  0.00     0.134 A 
ATOM     60  F   UNL A   1      41.139  34.058  34.964  1.00  0.00    -0.206 F 
ATOM     61  C   UNL A   1      39.720  34.775  36.693  1.00  0.00     0.040 A 
ATOM     62  C   UNL A   1      38.038  33.287  37.568  1.00  0.00     0.040 A 
ATOM     63  F   UNL A   1      37.833  31.114  36.707  1.00  0.00    -0.206 F 
ATOM     64  C   UNL A   1      38.664  34.532  37.572  1.00  0.00     0.006 A 
ENDBRANCH  40  57
ENDBRANCH  14  15
ENDBRANCH   7   9
ENDBRANCH   6   7
ENDBRANCH   5   6
ENDBRANCH   4   5
ENDBRANCH   3   4
ENDBRANCH   2   3
ENDBRANCH   1   2
BRANCH   1  65
ATOM     65  O   UNL A   1      38.242  21.842  25.525  1.00  0.00    -0.376 OA
BRANCH  65  66
ATOM     66  C   UNL A   1      37.488  22.853  24.869  1.00  0.00     0.202 C 
BRANCH  66  67
ATOM     67  C   UNL A   1      36.285  22.462  23.990  1.00  0.00     0.261 C 
BRANCH  67  68
ATOM     68  O   UNL A   1      35.689  23.542  23.255  1.00  0.00    -0.462 OA
BRANCH  68  69
ATOM     69  C   UNL A   1      34.743  24.242  23.915  1.00  0.00     0.329 C 
ATOM     70  O   UNL A   1      34.955  24.848  24.966  1.00  0.00    -0.250 OA
BRANCH  69  71
ATOM     71  C   UNL A   1      33.374  24.354  23.215  1.00  0.00     0.206 C 
ATOM     72  C   UNL A   1      32.571  23.210  23.855  1.00  0.00     0.108 C 
ATOM     73  N   UNL A   1      32.449  25.503  23.146  1.00  0.00    -0.312 N 
ATOM     74  S   UNL A   1      30.853  23.421  23.346  1.00  0.00    -0.138 SA
ATOM     75  C   UNL A   1      31.102  25.109  22.794  1.00  0.00     0.191 C 
BRANCH  73  76
ATOM     76  C   UNL A   1      32.933  26.764  22.769  1.00  0.00     0.291 C 
ATOM     77  O   UNL A   1      33.336  26.950  21.641  1.00  0.00    -0.265 OA
BRANCH  76  78
ATOM     78  C   UNL A   1      32.819  27.844  23.749  1.00  0.00     0.199 A 
ATOM     79  O   UNL A   1      33.910  28.031  24.563  1.00  0.00    -0.459 OA
ATOM     80  C   UNL A   1      31.863  28.797  24.065  1.00  0.00     0.033 A 
ATOM     81  C   UNL A   1      33.640  29.060  25.402  1.00  0.00     0.196 A 
ATOM     82  C   UNL A   1      32.392  29.567  25.142  1.00  0.00     0.051 A 
BRANCH  80  83
ATOM     83  C   UNL A   1      30.613  28.998  23.365  1.00  0.00    -0.014 A 
ATOM     84  C   UNL A   1      29.487  28.267  23.762  1.00  0.00     0.009 A 
ATOM     85  C   UNL A   1      30.513  29.893  22.299  1.00  0.00     0.009 A 
ATOM     86  C   UNL A   1      28.261  28.461  23.127  1.00  0.00     0.001 A 
ATOM     87  C   UNL A   1      29.288  30.078  21.655  1.00  0.00     0.001 A 
ATOM     88  C   UNL A   1      28.162  29.371  22.076  1.00  0.00     0.000 A 
ENDBRANCH  80  83
ENDBRANCH  76  78
ENDBRANCH  73  76
ENDBRANCH  69  71
ENDBRANCH  68  69
ENDBRANCH  67  68
ENDBRANCH  66  67
ENDBRANCH  65  66
ENDBRANCH   1  65
TORSDOF 20
ENDMDL
