MODEL 1
REMARK VINA RESULT:     -10.2      0.000      0.000
REMARK SMILES NC(=O)C[C@H](NC(=O)C1(c2ccccc2)CCN(C(=O)[C@@H]2CCC[NH2+]2)CC1)C(=O)OCCOCCOCCOC(=O)c1ccc(-c2c3nc(c(-c4c(F)cccc4F)c4ccc([nH]4)c(-c4c(F)cccc4F)c4nc(c(-c5c(F)cccc5F)c5ccc2[nH]5)C=C4)C=C3)cc1
REMARK SMILES IDX 34 1 33 2 32 3 31 4 30 5 28 6 29 7 5 8 4 9 2 10 1 11 3 14
REMARK SMILES IDX 6 15 7 16 8 18 9 19 16 20 27 21 17 22 26 23 18 24 19 25
REMARK SMILES IDX 20 26 10 27 11 28 15 29 12 30 14 31 13 32 21 33 22 34 25 35
REMARK SMILES IDX 23 36 24 37 35 40 36 41 37 42 38 43 39 44 40 45 41 46 42 47
REMARK SMILES IDX 43 48 95 49 44 50 94 51 45 52 46 53 47 54 88 55 48 56 93 57
REMARK SMILES IDX 87 58 89 59 49 60 92 61 86 62 85 63 50 65 76 66 59 67 75 68
REMARK SMILES IDX 60 69 63 70 74 71 90 72 61 73 62 74 73 76 91 77 64 78 51 79
REMARK SMILES IDX 52 80 57 81 53 82 54 83 56 84 58 85 55 86 77 87 78 88 83 89
REMARK SMILES IDX 79 90 80 91 82 92 84 93 81 94 65 95 66 96 71 97 67 98 68 99
REMARK SMILES IDX 70 100 72 101 69 102
REMARK H PARENT 1 12 1 13 6 17 25 38 25 39 89 64 63 75
REMARK Flexibility Score: inf
ROOT
ATOM      1  C   UNL A   1      41.461  40.375  27.808  1.00  0.00     0.188 C 
ENDROOT
BRANCH   1   2
ATOM      2  O   UNL A   1      41.279  40.622  26.417  1.00  0.00    -0.376 OA
BRANCH   2   3
ATOM      3  C   UNL A   1      42.374  40.711  25.513  1.00  0.00     0.202 C 
BRANCH   3   4
ATOM      4  C   UNL A   1      42.555  42.153  24.682  1.00  0.00     0.261 C 
BRANCH   4   5
ATOM      5  O   UNL A   1      42.223  42.564  22.744  1.00  0.00    -0.462 OA
BRANCH   5   6
ATOM      6  C   UNL A   1      42.065  43.079  21.453  1.00  0.00     0.329 C 
ATOM      7  O   UNL A   1      40.932  43.123  20.955  1.00  0.00    -0.250 OA
BRANCH   6   8
ATOM      8  C   UNL A   1      43.273  43.655  20.594  1.00  0.00     0.201 C 
BRANCH   8   9
ATOM      9  C   UNL A   1      42.628  44.470  19.462  1.00  0.00     0.136 C 
BRANCH   9  10
ATOM     10  C   UNL A   1      42.339  43.657  18.232  1.00  0.00     0.220 C 
ATOM     11  N   UNL A   1      41.024  43.403  17.982  1.00  0.00    -0.370 N 
ATOM     12  H   UNL A   1      40.765  42.876  17.192  1.00  0.00     0.159 HD
ATOM     13  H   UNL A   1      40.332  43.747  18.592  1.00  0.00     0.159 HD
ATOM     14  O   UNL A   1      43.222  43.251  17.484  1.00  0.00    -0.275 OA
ENDBRANCH   9  10
ENDBRANCH   8   9
BRANCH   8  15
ATOM     15  N   UNL A   1      44.571  43.056  20.157  1.00  0.00    -0.342 N 
ATOM     16  C   UNL A   1      45.885  43.319  20.439  1.00  0.00     0.231 C 
ATOM     17  H   UNL A   1      44.457  42.308  19.528  1.00  0.00     0.164 HD
ATOM     18  O   UNL A   1      46.719  42.504  20.047  1.00  0.00    -0.274 OA
BRANCH  16  19
ATOM     19  C   UNL A   1      46.265  44.620  21.162  1.00  0.00     0.077 C 
ATOM     20  C   UNL A   1      47.712  44.595  21.710  1.00  0.00     0.043 C 
ATOM     21  C   UNL A   1      45.292  44.798  22.343  1.00  0.00     0.043 C 
ATOM     22  C   UNL A   1      47.924  43.684  22.925  1.00  0.00     0.121 C 
ATOM     23  C   UNL A   1      45.533  43.752  23.431  1.00  0.00     0.121 C 
ATOM     24  N   UNL A   1      46.890  43.879  23.942  1.00  0.00    -0.337 N 
ATOM     25  C   UNL A   1      47.279  44.037  25.270  1.00  0.00     0.280 C 
ATOM     26  O   UNL A   1      48.478  44.040  25.581  1.00  0.00    -0.268 OA
BRANCH  19  27
ATOM     27  C   UNL A   1      46.194  45.723  20.112  1.00  0.00    -0.032 A 
ATOM     28  C   UNL A   1      45.382  47.300  20.439  1.00  0.00     0.005 A 
ATOM     29  C   UNL A   1      46.635  45.289  18.391  1.00  0.00     0.005 A 
ATOM     30  C   UNL A   1      45.078  48.439  19.086  1.00  0.00     0.000 A 
ATOM     31  C   UNL A   1      46.294  46.442  17.036  1.00  0.00     0.000 A 
ATOM     32  C   UNL A   1      45.510  48.012  17.392  1.00  0.00     0.000 A 
ENDBRANCH  19  27
BRANCH  25  33
ATOM     33  C   UNL A   1      46.238  44.218  26.398  1.00  0.00     0.272 C 
ATOM     34  C   UNL A   1      46.101  45.621  26.962  1.00  0.00     0.081 C 
ATOM     35  N   UNL A   1      46.438  43.294  27.540  1.00  0.00    -0.336 N 
ATOM     36  C   UNL A   1      45.604  45.379  28.373  1.00  0.00     0.068 C 
ATOM     37  C   UNL A   1      46.232  44.056  28.774  1.00  0.00     0.261 C 
ATOM     38  H   UNL A   1      47.386  42.917  27.520  1.00  0.00     0.346 HD
ATOM     39  H   UNL A   1      45.781  42.516  27.489  1.00  0.00     0.346 HD
ENDBRANCH  25  33
ENDBRANCH  16  19
ENDBRANCH   8  15
ENDBRANCH   6   8
ENDBRANCH   5   6
ENDBRANCH   4   5
ENDBRANCH   3   4
ENDBRANCH   2   3
ENDBRANCH   1   2
BRANCH   1  40
ATOM     40  C   UNL A   1      42.662  39.655  28.437  1.00  0.00     0.188 C 
BRANCH  40  41
ATOM     41  O   UNL A   1      43.362  40.285  29.497  1.00  0.00    -0.376 OA
BRANCH  41  42
ATOM     42  C   UNL A   1      44.747  39.973  29.578  1.00  0.00     0.202 C 
BRANCH  42  43
ATOM     43  C   UNL A   1      45.056  38.486  29.809  1.00  0.00     0.261 C 
BRANCH  43  44
ATOM     44  O   UNL A   1      46.209  38.036  29.074  1.00  0.00    -0.460 OA
BRANCH  44  45
ATOM     45  C   UNL A   1      46.835  36.946  29.594  1.00  0.00     0.338 C 
ATOM     46  O   UNL A   1      47.885  36.928  30.215  1.00  0.00    -0.246 OA
BRANCH  45  47
ATOM     47  C   UNL A   1      45.959  35.753  29.471  1.00  0.00     0.060 A 
ATOM     48  C   UNL A   1      46.098  34.733  30.425  1.00  0.00     0.016 A 
ATOM     49  C   UNL A   1      45.010  35.632  28.451  1.00  0.00     0.016 A 
ATOM     50  C   UNL A   1      45.348  33.560  30.321  1.00  0.00     0.010 A 
ATOM     51  C   UNL A   1      44.269  34.451  28.337  1.00  0.00     0.010 A 
ATOM     52  C   UNL A   1      44.475  33.391  29.239  1.00  0.00    -0.014 A 
BRANCH  52  53
ATOM     53  C   UNL A   1      44.025  32.029  28.856  1.00  0.00     0.031 A 
ATOM     54  C   UNL A   1      42.665  31.596  29.342  1.00  0.00     0.074 A 
ATOM     55  C   UNL A   1      44.783  31.191  28.129  1.00  0.00     0.049 A 
ATOM     56  N   UNL A   1      42.081  30.430  29.262  1.00  0.00    -0.248 NA
ATOM     57  C   UNL A   1      41.861  32.627  30.021  1.00  0.00     0.031 C 
ATOM     58  C   UNL A   1      46.089  31.505  27.557  1.00  0.00     0.029 A 
ATOM     59  N   UNL A   1      44.559  29.886  27.765  1.00  0.00    -0.354 N 
ATOM     60  C   UNL A   1      40.850  30.586  29.888  1.00  0.00     0.074 A 
ATOM     61  C   UNL A   1      40.778  31.949  30.361  1.00  0.00     0.031 C 
ATOM     62  C   UNL A   1      46.564  30.412  26.930  1.00  0.00     0.029 A 
ATOM     63  C   UNL A   1      45.609  29.314  27.088  1.00  0.00     0.049 A 
ATOM     64  H   UNL A   1      43.724  29.405  27.970  1.00  0.00     0.167 HD
ATOM     65  C   UNL A   1      39.863  29.675  30.057  1.00  0.00     0.037 A 
ATOM     66  C   UNL A   1      45.785  28.043  26.674  1.00  0.00     0.037 A 
ATOM     67  C   UNL A   1      39.941  28.315  29.605  1.00  0.00     0.049 A 
ATOM     68  C   UNL A   1      44.708  27.022  26.945  1.00  0.00     0.074 A 
ATOM     69  C   UNL A   1      39.004  27.306  29.736  1.00  0.00     0.029 A 
ATOM     70  N   UNL A   1      41.030  27.772  28.941  1.00  0.00    -0.354 N 
ATOM     71  N   UNL A   1      43.545  27.178  27.535  1.00  0.00    -0.248 NA
ATOM     72  C   UNL A   1      44.969  25.645  26.499  1.00  0.00     0.031 C 
ATOM     73  C   UNL A   1      39.543  26.140  29.183  1.00  0.00     0.029 A 
ATOM     74  C   UNL A   1      40.797  26.437  28.668  1.00  0.00     0.049 A 
ATOM     75  H   UNL A   1      41.847  28.264  28.700  1.00  0.00     0.167 HD
ATOM     76  C   UNL A   1      42.929  25.932  27.502  1.00  0.00     0.074 A 
ATOM     77  C   UNL A   1      43.841  25.032  26.830  1.00  0.00     0.031 C 
ATOM     78  C   UNL A   1      41.716  25.566  27.983  1.00  0.00     0.037 A 
BRANCH  65  79
ATOM     79  C   UNL A   1      38.638  30.129  30.793  1.00  0.00     0.057 A 
ATOM     80  C   UNL A   1      37.551  30.712  30.129  1.00  0.00     0.134 A 
ATOM     81  C   UNL A   1      38.553  29.997  32.184  1.00  0.00     0.134 A 
ATOM     82  F   UNL A   1      37.582  30.890  28.800  1.00  0.00    -0.206 F 
ATOM     83  C   UNL A   1      36.432  31.171  30.826  1.00  0.00     0.040 A 
ATOM     84  C   UNL A   1      37.429  30.430  32.889  1.00  0.00     0.040 A 
ATOM     85  F   UNL A   1      39.563  29.452  32.880  1.00  0.00    -0.206 F 
ATOM     86  C   UNL A   1      36.368  31.026  32.211  1.00  0.00     0.006 A 
ENDBRANCH  65  79
BRANCH  66  87
ATOM     87  C   UNL A   1      47.035  27.646  25.977  1.00  0.00     0.057 A 
ATOM     88  C   UNL A   1      48.175  27.267  26.695  1.00  0.00     0.134 A 
ATOM     89  C   UNL A   1      47.132  27.668  24.581  1.00  0.00     0.134 A 
ATOM     90  F   UNL A   1      48.154  27.253  28.035  1.00  0.00    -0.206 F 
ATOM     91  C   UNL A   1      49.370  26.935  26.052  1.00  0.00     0.040 A 
ATOM     92  C   UNL A   1      48.314  27.317  23.923  1.00  0.00     0.040 A 
ATOM     93  F   UNL A   1      46.078  28.028  23.834  1.00  0.00    -0.206 F 
ATOM     94  C   UNL A   1      49.439  26.956  24.660  1.00  0.00     0.006 A 
ENDBRANCH  66  87
BRANCH  78  95
ATOM     95  C   UNL A   1      41.284  24.146  27.760  1.00  0.00     0.057 A 
ATOM     96  C   UNL A   1      40.354  23.801  26.773  1.00  0.00     0.134 A 
ATOM     97  C   UNL A   1      41.856  23.106  28.505  1.00  0.00     0.134 A 
ATOM     98  F   UNL A   1      39.764  24.751  26.033  1.00  0.00    -0.206 F 
ATOM     99  C   UNL A   1      39.993  22.472  26.546  1.00  0.00     0.040 A 
ATOM    100  C   UNL A   1      41.522  21.773  28.273  1.00  0.00     0.040 A 
ATOM    101  F   UNL A   1      42.762  23.371  29.459  1.00  0.00    -0.206 F 
ATOM    102  C   UNL A   1      40.584  21.453  27.293  1.00  0.00     0.006 A 
ENDBRANCH  78  95
ENDBRANCH  52  53
ENDBRANCH  45  47
ENDBRANCH  44  45
ENDBRANCH  43  44
ENDBRANCH  42  43
ENDBRANCH  41  42
ENDBRANCH  40  41
ENDBRANCH   1  40
TORSDOF 23
ENDMDL
MODEL 2
REMARK VINA RESULT:     -10.1      1.243      5.861
REMARK SMILES NC(=O)C[C@H](NC(=O)C1(c2ccccc2)CCN(C(=O)[C@@H]2CCC[NH2+]2)CC1)C(=O)OCCOCCOCCOC(=O)c1ccc(-c2c3nc(c(-c4c(F)cccc4F)c4ccc([nH]4)c(-c4c(F)cccc4F)c4nc(c(-c5c(F)cccc5F)c5ccc2[nH]5)C=C4)C=C3)cc1
REMARK SMILES IDX 34 1 33 2 32 3 31 4 30 5 28 6 29 7 5 8 4 9 2 10 1 11 3 14
REMARK SMILES IDX 6 15 7 16 8 18 9 19 16 20 27 21 17 22 26 23 18 24 19 25
REMARK SMILES IDX 20 26 10 27 11 28 15 29 12 30 14 31 13 32 21 33 22 34 25 35
REMARK SMILES IDX 23 36 24 37 35 40 36 41 37 42 38 43 39 44 40 45 41 46 42 47
REMARK SMILES IDX 43 48 95 49 44 50 94 51 45 52 46 53 47 54 88 55 48 56 93 57
REMARK SMILES IDX 87 58 89 59 49 60 92 61 86 62 85 63 50 65 76 66 59 67 75 68
REMARK SMILES IDX 60 69 63 70 74 71 90 72 61 73 62 74 73 76 91 77 64 78 51 79
REMARK SMILES IDX 52 80 57 81 53 82 54 83 56 84 58 85 55 86 77 87 78 88 83 89
REMARK SMILES IDX 79 90 80 91 82 92 84 93 81 94 65 95 66 96 71 97 67 98 68 99
REMARK SMILES IDX 70 100 72 101 69 102
REMARK H PARENT 1 12 1 13 6 17 25 38 25 39 89 64 63 75
REMARK Flexibility Score: inf
ROOT
ATOM      1  C   UNL A   1      42.643  40.533  26.200  1.00  0.00     0.188 C 
ENDROOT
BRANCH   1   2
ATOM      2  O   UNL A   1      42.994  41.145  24.962  1.00  0.00    -0.376 OA
BRANCH   2   3
ATOM      3  C   UNL A   1      43.835  42.290  24.895  1.00  0.00     0.202 C 
BRANCH   3   4
ATOM      4  C   UNL A   1      43.289  43.579  23.978  1.00  0.00     0.261 C 
BRANCH   4   5
ATOM      5  O   UNL A   1      42.815  43.653  22.027  1.00  0.00    -0.462 OA
BRANCH   5   6
ATOM      6  C   UNL A   1      42.712  43.798  20.640  1.00  0.00     0.329 C 
ATOM      7  O   UNL A   1      41.711  43.355  20.060  1.00  0.00    -0.250 OA
BRANCH   6   8
ATOM      8  C   UNL A   1      43.806  44.547  19.761  1.00  0.00     0.201 C 
BRANCH   8   9
ATOM      9  C   UNL A   1      43.025  45.270  18.652  1.00  0.00     0.136 C 
BRANCH   9  10
ATOM     10  C   UNL A   1      42.900  44.468  17.388  1.00  0.00     0.220 C 
ATOM     11  N   UNL A   1      41.632  44.281  16.927  1.00  0.00    -0.370 N 
ATOM     12  H   UNL A   1      41.480  43.764  16.102  1.00  0.00     0.159 HD
ATOM     13  H   UNL A   1      40.868  44.661  17.417  1.00  0.00     0.159 HD
ATOM     14  O   UNL A   1      43.871  44.015  16.793  1.00  0.00    -0.275 OA
ENDBRANCH   9  10
ENDBRANCH   8   9
BRANCH   8  15
ATOM     15  N   UNL A   1      45.164  44.140  19.288  1.00  0.00    -0.342 N 
ATOM     16  C   UNL A   1      46.438  44.530  19.603  1.00  0.00     0.231 C 
ATOM     17  H   UNL A   1      45.138  43.439  18.598  1.00  0.00     0.164 HD
ATOM     18  O   UNL A   1      47.362  43.853  19.153  1.00  0.00    -0.274 OA
BRANCH  16  19
ATOM     19  C   UNL A   1      46.664  45.802  20.434  1.00  0.00     0.077 C 
ATOM     20  C   UNL A   1      48.163  46.076  20.707  1.00  0.00     0.043 C 
ATOM     21  C   UNL A   1      45.943  45.612  21.782  1.00  0.00     0.043 C 
ATOM     22  C   UNL A   1      48.817  45.123  21.715  1.00  0.00     0.121 C 
ATOM     23  C   UNL A   1      46.628  44.550  22.640  1.00  0.00     0.121 C 
ATOM     24  N   UNL A   1      48.000  44.952  22.917  1.00  0.00    -0.337 N 
ATOM     25  C   UNL A   1      48.611  45.061  24.163  1.00  0.00     0.280 C 
ATOM     26  O   UNL A   1      49.817  45.325  24.254  1.00  0.00    -0.268 OA
BRANCH  19  27
ATOM     27  C   UNL A   1      46.137  46.957  19.591  1.00  0.00    -0.032 A 
ATOM     28  C   UNL A   1      45.078  48.241  20.287  1.00  0.00     0.005 A 
ATOM     29  C   UNL A   1      46.303  46.829  17.774  1.00  0.00     0.005 A 
ATOM     30  C   UNL A   1      44.258  49.404  19.194  1.00  0.00     0.000 A 
ATOM     31  C   UNL A   1      45.444  47.998  16.688  1.00  0.00     0.000 A 
ATOM     32  C   UNL A   1      44.419  49.278  17.407  1.00  0.00     0.000 A 
ENDBRANCH  19  27
BRANCH  25  33
ATOM     33  C   UNL A   1      47.813  44.863  25.471  1.00  0.00     0.272 C 
ATOM     34  C   UNL A   1      46.338  45.220  25.414  1.00  0.00     0.081 C 
ATOM     35  N   UNL A   1      48.401  45.569  26.635  1.00  0.00    -0.336 N 
ATOM     36  C   UNL A   1      46.015  45.582  26.851  1.00  0.00     0.068 C 
ATOM     37  C   UNL A   1      47.303  46.178  27.390  1.00  0.00     0.261 C 
ATOM     38  H   UNL A   1      49.043  46.293  26.314  1.00  0.00     0.346 HD
ATOM     39  H   UNL A   1      48.918  44.917  27.225  1.00  0.00     0.346 HD
ENDBRANCH  25  33
ENDBRANCH  16  19
ENDBRANCH   8  15
ENDBRANCH   6   8
ENDBRANCH   5   6
ENDBRANCH   4   5
ENDBRANCH   3   4
ENDBRANCH   2   3
ENDBRANCH   1   2
BRANCH   1  40
ATOM     40  C   UNL A   1      43.443  39.432  26.911  1.00  0.00     0.188 C 
BRANCH  40  41
ATOM     41  O   UNL A   1      43.808  39.617  28.268  1.00  0.00    -0.376 OA
BRANCH  41  42
ATOM     42  C   UNL A   1      44.875  38.795  28.725  1.00  0.00     0.202 C 
BRANCH  42  43
ATOM     43  C   UNL A   1      45.982  38.548  27.689  1.00  0.00     0.261 C 
BRANCH  43  44
ATOM     44  O   UNL A   1      46.890  37.503  28.084  1.00  0.00    -0.460 OA
BRANCH  44  45
ATOM     45  C   UNL A   1      47.057  36.509  27.171  1.00  0.00     0.338 C 
ATOM     46  O   UNL A   1      47.888  36.462  26.280  1.00  0.00    -0.246 OA
BRANCH  45  47
ATOM     47  C   UNL A   1      46.192  35.352  27.518  1.00  0.00     0.060 A 
ATOM     48  C   UNL A   1      46.540  34.582  28.639  1.00  0.00     0.016 A 
ATOM     49  C   UNL A   1      45.054  35.028  26.773  1.00  0.00     0.016 A 
ATOM     50  C   UNL A   1      45.801  33.445  28.974  1.00  0.00     0.010 A 
ATOM     51  C   UNL A   1      44.323  33.880  27.098  1.00  0.00     0.010 A 
ATOM     52  C   UNL A   1      44.727  33.056  28.165  1.00  0.00    -0.014 A 
BRANCH  52  53
ATOM     53  C   UNL A   1      44.226  31.660  28.219  1.00  0.00     0.031 A 
ATOM     54  C   UNL A   1      45.040  30.613  27.504  1.00  0.00     0.074 A 
ATOM     55  C   UNL A   1      43.089  31.320  28.850  1.00  0.00     0.049 A 
ATOM     56  N   UNL A   1      44.775  29.351  27.286  1.00  0.00    -0.248 NA
ATOM     57  C   UNL A   1      46.331  31.060  26.952  1.00  0.00     0.031 C 
ATOM     58  C   UNL A   1      42.240  32.226  29.620  1.00  0.00     0.029 A 
ATOM     59  N   UNL A   1      42.446  30.109  28.923  1.00  0.00    -0.354 N 
ATOM     60  C   UNL A   1      45.858  28.861  26.565  1.00  0.00     0.074 A 
ATOM     61  C   UNL A   1      46.772  29.962  26.363  1.00  0.00     0.031 C 
ATOM     62  C   UNL A   1      41.172  31.541  30.070  1.00  0.00     0.029 A 
ATOM     63  C   UNL A   1      41.247  30.161  29.591  1.00  0.00     0.049 A 
ATOM     64  H   UNL A   1      42.810  29.281  28.533  1.00  0.00     0.167 HD
ATOM     65  C   UNL A   1      46.074  27.606  26.109  1.00  0.00     0.037 A 
ATOM     66  C   UNL A   1      40.309  29.208  29.766  1.00  0.00     0.037 A 
ATOM     67  C   UNL A   1      45.157  26.517  26.291  1.00  0.00     0.049 A 
ATOM     68  C   UNL A   1      40.531  27.836  29.178  1.00  0.00     0.074 A 
ATOM     69  C   UNL A   1      45.272  25.209  25.858  1.00  0.00     0.029 A 
ATOM     70  N   UNL A   1      43.946  26.618  26.957  1.00  0.00    -0.354 N 
ATOM     71  N   UNL A   1      41.559  27.380  28.500  1.00  0.00    -0.248 NA
ATOM     72  C   UNL A   1      39.460  26.848  29.373  1.00  0.00     0.031 C 
ATOM     73  C   UNL A   1      44.110  24.525  26.230  1.00  0.00     0.029 A 
ATOM     74  C   UNL A   1      43.294  25.398  26.934  1.00  0.00     0.049 A 
ATOM     75  H   UNL A   1      43.601  27.435  27.383  1.00  0.00     0.167 HD
ATOM     76  C   UNL A   1      41.271  26.050  28.217  1.00  0.00     0.074 A 
ATOM     77  C   UNL A   1      39.976  25.769  28.801  1.00  0.00     0.031 C 
ATOM     78  C   UNL A   1      42.012  25.140  27.537  1.00  0.00     0.037 A 
BRANCH  65  79
ATOM     79  C   UNL A   1      47.339  27.371  25.339  1.00  0.00     0.057 A 
ATOM     80  C   UNL A   1      47.441  27.677  23.976  1.00  0.00     0.134 A 
ATOM     81  C   UNL A   1      48.462  26.817  25.965  1.00  0.00     0.134 A 
ATOM     82  F   UNL A   1      46.392  28.186  23.313  1.00  0.00    -0.206 F 
ATOM     83  C   UNL A   1      48.608  27.416  23.256  1.00  0.00     0.040 A 
ATOM     84  C   UNL A   1      49.643  26.575  25.261  1.00  0.00     0.040 A 
ATOM     85  F   UNL A   1      48.428  26.497  27.268  1.00  0.00    -0.206 F 
ATOM     86  C   UNL A   1      49.716  26.867  23.901  1.00  0.00     0.006 A 
ENDBRANCH  65  79
BRANCH  66  87
ATOM     87  C   UNL A   1      39.061  29.510  30.512  1.00  0.00     0.057 A 
ATOM     88  C   UNL A   1      38.944  29.219  31.876  1.00  0.00     0.134 A 
ATOM     89  C   UNL A   1      37.945  30.065  29.875  1.00  0.00     0.134 A 
ATOM     90  F   UNL A   1      39.968  28.661  32.537  1.00  0.00    -0.206 F 
ATOM     91  C   UNL A   1      37.760  29.457  32.578  1.00  0.00     0.040 A 
ATOM     92  C   UNL A   1      36.761  30.329  30.569  1.00  0.00     0.040 A 
ATOM     93  F   UNL A   1      37.988  30.361  28.568  1.00  0.00    -0.206 F 
ATOM     94  C   UNL A   1      36.665  30.018  31.923  1.00  0.00     0.006 A 
ENDBRANCH  66  87
BRANCH  78  95
ATOM     95  C   UNL A   1      41.465  23.748  27.426  1.00  0.00     0.057 A 
ATOM     96  C   UNL A   1      41.977  22.689  28.184  1.00  0.00     0.134 A 
ATOM     97  C   UNL A   1      40.370  23.480  26.593  1.00  0.00     0.134 A 
ATOM     98  F   UNL A   1      43.030  22.879  28.993  1.00  0.00    -0.206 F 
ATOM     99  C   UNL A   1      41.431  21.406  28.105  1.00  0.00     0.040 A 
ATOM    100  C   UNL A   1      39.801  22.209  26.522  1.00  0.00     0.040 A 
ATOM    101  F   UNL A   1      39.827  24.456  25.849  1.00  0.00    -0.206 F 
ATOM    102  C   UNL A   1      40.335  21.167  27.277  1.00  0.00     0.006 A 
ENDBRANCH  78  95
ENDBRANCH  52  53
ENDBRANCH  45  47
ENDBRANCH  44  45
ENDBRANCH  43  44
ENDBRANCH  42  43
ENDBRANCH  41  42
ENDBRANCH  40  41
ENDBRANCH   1  40
TORSDOF 23
ENDMDL
MODEL 3
REMARK VINA RESULT:      -9.8      7.539     12.392
REMARK SMILES NC(=O)C[C@H](NC(=O)C1(c2ccccc2)CCN(C(=O)[C@@H]2CCC[NH2+]2)CC1)C(=O)OCCOCCOCCOC(=O)c1ccc(-c2c3nc(c(-c4c(F)cccc4F)c4ccc([nH]4)c(-c4c(F)cccc4F)c4nc(c(-c5c(F)cccc5F)c5ccc2[nH]5)C=C4)C=C3)cc1
REMARK SMILES IDX 34 1 33 2 32 3 31 4 30 5 28 6 29 7 5 8 4 9 2 10 1 11 3 14
REMARK SMILES IDX 6 15 7 16 8 18 9 19 16 20 27 21 17 22 26 23 18 24 19 25
REMARK SMILES IDX 20 26 10 27 11 28 15 29 12 30 14 31 13 32 21 33 22 34 25 35
REMARK SMILES IDX 23 36 24 37 35 40 36 41 37 42 38 43 39 44 40 45 41 46 42 47
REMARK SMILES IDX 43 48 95 49 44 50 94 51 45 52 46 53 47 54 88 55 48 56 93 57
REMARK SMILES IDX 87 58 89 59 49 60 92 61 86 62 85 63 50 65 76 66 59 67 75 68
REMARK SMILES IDX 60 69 63 70 74 71 90 72 61 73 62 74 73 76 91 77 64 78 51 79
REMARK SMILES IDX 52 80 57 81 53 82 54 83 56 84 58 85 55 86 77 87 78 88 83 89
REMARK SMILES IDX 79 90 80 91 82 92 84 93 81 94 65 95 66 96 71 97 67 98 68 99
REMARK SMILES IDX 70 100 72 101 69 102
REMARK H PARENT 1 12 1 13 6 17 25 38 25 39 89 64 63 75
REMARK Flexibility Score: inf
ROOT
ATOM      1  C   UNL A   1      37.057  33.334  29.109  1.00  0.00     0.188 C 
ENDROOT
BRANCH   1   2
ATOM      2  O   UNL A   1      38.150  34.216  28.872  1.00  0.00    -0.376 OA
BRANCH   2   3
ATOM      3  C   UNL A   1      38.949  34.734  29.929  1.00  0.00     0.202 C 
BRANCH   3   4
ATOM      4  C   UNL A   1      39.778  33.623  30.867  1.00  0.00     0.261 C 
BRANCH   4   5
ATOM      5  O   UNL A   1      41.718  33.105  30.826  1.00  0.00    -0.462 OA
BRANCH   5   6
ATOM      6  C   UNL A   1      42.987  32.527  30.717  1.00  0.00     0.329 C 
ATOM      7  O   UNL A   1      43.384  31.771  31.614  1.00  0.00    -0.250 OA
BRANCH   6   8
ATOM      8  C   UNL A   1      43.943  32.758  29.467  1.00  0.00     0.201 C 
BRANCH   8   9
ATOM      9  C   UNL A   1      44.448  34.204  29.593  1.00  0.00     0.136 C 
BRANCH   9  10
ATOM     10  C   UNL A   1      43.533  35.214  28.960  1.00  0.00     0.220 C 
ATOM     11  N   UNL A   1      43.612  36.480  29.458  1.00  0.00    -0.370 N 
ATOM     12  H   UNL A   1      43.039  37.191  29.088  1.00  0.00     0.159 HD
ATOM     13  H   UNL A   1      44.241  36.684  30.187  1.00  0.00     0.159 HD
ATOM     14  O   UNL A   1      42.767  34.932  28.046  1.00  0.00    -0.275 OA
ENDBRANCH   9  10
ENDBRANCH   8   9
BRANCH   8  15
ATOM     15  N   UNL A   1      43.843  32.342  28.035  1.00  0.00    -0.342 N 
ATOM     16  C   UNL A   1      44.382  31.321  27.300  1.00  0.00     0.231 C 
ATOM     17  H   UNL A   1      43.262  32.933  27.503  1.00  0.00     0.164 HD
ATOM     18  O   UNL A   1      43.942  31.154  26.162  1.00  0.00    -0.274 OA
BRANCH  16  19
ATOM     19  C   UNL A   1      45.528  30.482  27.883  1.00  0.00     0.077 C 
ATOM     20  C   UNL A   1      46.026  29.392  26.904  1.00  0.00     0.043 C 
ATOM     21  C   UNL A   1      45.002  29.798  29.159  1.00  0.00     0.043 C 
ATOM     22  C   UNL A   1      45.064  28.213  26.712  1.00  0.00     0.121 C 
ATOM     23  C   UNL A   1      43.963  28.726  28.833  1.00  0.00     0.121 C 
ATOM     24  N   UNL A   1      44.561  27.703  27.988  1.00  0.00    -0.337 N 
ATOM     25  C   UNL A   1      44.585  26.329  28.216  1.00  0.00     0.280 C 
ATOM     26  O   UNL A   1      45.048  25.556  27.367  1.00  0.00    -0.268 OA
BRANCH  19  27
ATOM     27  C   UNL A   1      46.684  31.449  28.114  1.00  0.00    -0.032 A 
ATOM     28  C   UNL A   1      47.568  32.223  26.746  1.00  0.00     0.005 A 
ATOM     29  C   UNL A   1      47.396  31.538  29.797  1.00  0.00     0.005 A 
ATOM     30  C   UNL A   1      49.091  33.117  27.065  1.00  0.00     0.000 A 
ATOM     31  C   UNL A   1      48.949  32.423  30.092  1.00  0.00     0.000 A 
ATOM     32  C   UNL A   1      49.792  33.203  28.719  1.00  0.00     0.000 A 
ENDBRANCH  19  27
BRANCH  25  33
ATOM     33  C   UNL A   1      44.043  25.722  29.529  1.00  0.00     0.272 C 
ATOM     34  C   UNL A   1      44.978  25.773  30.725  1.00  0.00     0.081 C 
ATOM     35  N   UNL A   1      43.577  24.322  29.384  1.00  0.00    -0.336 N 
ATOM     36  C   UNL A   1      44.526  24.595  31.566  1.00  0.00     0.068 C 
ATOM     37  C   UNL A   1      44.037  23.573  30.555  1.00  0.00     0.261 C 
ATOM     38  H   UNL A   1      43.966  23.912  28.535  1.00  0.00     0.346 HD
ATOM     39  H   UNL A   1      42.559  24.289  29.319  1.00  0.00     0.346 HD
ENDBRANCH  25  33
ENDBRANCH  16  19
ENDBRANCH   8  15
ENDBRANCH   6   8
ENDBRANCH   5   6
ENDBRANCH   4   5
ENDBRANCH   3   4
ENDBRANCH   2   3
ENDBRANCH   1   2
BRANCH   1  40
ATOM     40  C   UNL A   1      35.577  33.741  29.167  1.00  0.00     0.188 C 
BRANCH  40  41
ATOM     41  O   UNL A   1      35.033  34.498  28.099  1.00  0.00    -0.376 OA
BRANCH  41  42
ATOM     42  C   UNL A   1      34.110  35.510  28.483  1.00  0.00     0.202 C 
BRANCH  42  43
ATOM     43  C   UNL A   1      33.189  35.126  29.652  1.00  0.00     0.261 C 
BRANCH  43  44
ATOM     44  O   UNL A   1      33.246  36.071  30.737  1.00  0.00    -0.460 OA
BRANCH  44  45
ATOM     45  C   UNL A   1      32.807  35.600  31.935  1.00  0.00     0.338 C 
ATOM     46  O   UNL A   1      31.657  35.584  32.342  1.00  0.00    -0.246 OA
BRANCH  45  47
ATOM     47  C   UNL A   1      33.914  34.908  32.643  1.00  0.00     0.060 A 
ATOM     48  C   UNL A   1      35.163  35.547  32.695  1.00  0.00     0.016 A 
ATOM     49  C   UNL A   1      33.739  33.664  33.257  1.00  0.00     0.016 A 
ATOM     50  C   UNL A   1      36.257  34.914  33.290  1.00  0.00     0.010 A 
ATOM     51  C   UNL A   1      34.838  33.023  33.839  1.00  0.00     0.010 A 
ATOM     52  C   UNL A   1      36.111  33.622  33.809  1.00  0.00    -0.014 A 
BRANCH  52  53
ATOM     53  C   UNL A   1      37.307  32.770  34.024  1.00  0.00     0.031 A 
ATOM     54  C   UNL A   1      38.120  33.033  35.266  1.00  0.00     0.074 A 
ATOM     55  C   UNL A   1      37.684  31.816  33.156  1.00  0.00     0.049 A 
ATOM     56  N   UNL A   1      39.268  32.529  35.636  1.00  0.00    -0.248 NA
ATOM     57  C   UNL A   1      37.557  34.010  36.214  1.00  0.00     0.031 C 
ATOM     58  C   UNL A   1      36.959  31.429  31.949  1.00  0.00     0.029 A 
ATOM     59  N   UNL A   1      38.795  31.007  33.159  1.00  0.00    -0.354 N 
ATOM     60  C   UNL A   1      39.567  33.135  36.851  1.00  0.00     0.074 A 
ATOM     61  C   UNL A   1      38.494  34.057  37.146  1.00  0.00     0.031 C 
ATOM     62  C   UNL A   1      37.657  30.470  31.312  1.00  0.00     0.029 A 
ATOM     63  C   UNL A   1      38.892  30.203  32.050  1.00  0.00     0.049 A 
ATOM     64  H   UNL A   1      39.459  31.006  33.886  1.00  0.00     0.167 HD
ATOM     65  C   UNL A   1      40.640  32.943  37.653  1.00  0.00     0.037 A 
ATOM     66  C   UNL A   1      39.882  29.371  31.666  1.00  0.00     0.037 A 
ATOM     67  C   UNL A   1      41.716  32.042  37.351  1.00  0.00     0.049 A 
ATOM     68  C   UNL A   1      41.109  29.233  32.533  1.00  0.00     0.074 A 
ATOM     69  C   UNL A   1      42.857  31.781  38.088  1.00  0.00     0.029 A 
ATOM     70  N   UNL A   1      41.784  31.260  36.209  1.00  0.00    -0.354 N 
ATOM     71  N   UNL A   1      41.382  29.806  33.682  1.00  0.00    -0.248 NA
ATOM     72  C   UNL A   1      42.169  28.336  32.048  1.00  0.00     0.031 C 
ATOM     73  C   UNL A   1      43.635  30.867  37.371  1.00  0.00     0.029 A 
ATOM     74  C   UNL A   1      42.956  30.526  36.211  1.00  0.00     0.049 A 
ATOM     75  H   UNL A   1      41.100  31.231  35.502  1.00  0.00     0.167 HD
ATOM     76  C   UNL A   1      42.625  29.318  34.068  1.00  0.00     0.074 A 
ATOM     77  C   UNL A   1      43.051  28.397  33.036  1.00  0.00     0.031 C 
ATOM     78  C   UNL A   1      43.349  29.603  35.178  1.00  0.00     0.037 A 
BRANCH  65  79
ATOM     79  C   UNL A   1      40.703  33.757  38.910  1.00  0.00     0.057 A 
ATOM     80  C   UNL A   1      40.107  33.323  40.101  1.00  0.00     0.134 A 
ATOM     81  C   UNL A   1      41.352  34.997  38.925  1.00  0.00     0.134 A 
ATOM     82  F   UNL A   1      39.447  32.156  40.145  1.00  0.00    -0.206 F 
ATOM     83  C   UNL A   1      40.132  34.106  41.257  1.00  0.00     0.040 A 
ATOM     84  C   UNL A   1      41.406  35.777  40.080  1.00  0.00     0.040 A 
ATOM     85  F   UNL A   1      41.939  35.472  37.815  1.00  0.00    -0.206 F 
ATOM     86  C   UNL A   1      40.788  35.336  41.249  1.00  0.00     0.006 A 
ENDBRANCH  65  79
BRANCH  66  87
ATOM     87  C   UNL A   1      39.775  28.614  30.392  1.00  0.00     0.057 A 
ATOM     88  C   UNL A   1      39.150  27.362  30.344  1.00  0.00     0.134 A 
ATOM     89  C   UNL A   1      40.323  29.105  29.202  1.00  0.00     0.134 A 
ATOM     90  F   UNL A   1      38.630  26.825  31.457  1.00  0.00    -0.206 F 
ATOM     91  C   UNL A   1      39.083  26.621  29.162  1.00  0.00     0.040 A 
ATOM     92  C   UNL A   1      40.245  28.385  28.007  1.00  0.00     0.040 A 
ATOM     93  F   UNL A   1      40.941  30.295  29.181  1.00  0.00    -0.206 F 
ATOM     94  C   UNL A   1      39.629  27.136  27.988  1.00  0.00     0.006 A 
ENDBRANCH  66  87
BRANCH  78  95
ATOM     95  C   UNL A   1      44.652  28.881  35.357  1.00  0.00     0.057 A 
ATOM     96  C   UNL A   1      45.856  29.389  34.856  1.00  0.00     0.134 A 
ATOM     97  C   UNL A   1      44.707  27.692  36.097  1.00  0.00     0.134 A 
ATOM     98  F   UNL A   1      45.868  30.518  34.132  1.00  0.00    -0.206 F 
ATOM     99  C   UNL A   1      47.068  28.730  35.067  1.00  0.00     0.040 A 
ATOM    100  C   UNL A   1      45.915  27.037  36.335  1.00  0.00     0.040 A 
ATOM    101  F   UNL A   1      43.589  27.159  36.614  1.00  0.00    -0.206 F 
ATOM    102  C   UNL A   1      47.100  27.554  35.816  1.00  0.00     0.006 A 
ENDBRANCH  78  95
ENDBRANCH  52  53
ENDBRANCH  45  47
ENDBRANCH  44  45
ENDBRANCH  43  44
ENDBRANCH  42  43
ENDBRANCH  41  42
ENDBRANCH  40  41
ENDBRANCH   1  40
TORSDOF 23
ENDMDL
