MODEL 1
REMARK VINA RESULT:     -12.6      0.000      0.000
REMARK SMILES Cc1ccc(S(=O)(=O)n2cc(C(=O)C(=O)N[C@@H](Cc3cnc[nH]3)C(=O)OCCOCCOCCOC(=O)c3ccc(-c4c5nc(c(-c6c(F)cccc6F)c6ccc([nH]6)c(-c6c(F)cccc6F)c6nc(c(-c7c(F)cccc7F)c7ccc4[nH]7)C=C6)C=C5)cc3)c3ccccc32)cc1
REMARK SMILES IDX 29 1 28 2 27 3 26 4 24 5 25 6 17 7 16 8 14 9 15 10 12 12
REMARK SMILES IDX 13 13 11 14 9 15 10 16 97 17 92 18 96 19 93 20 95 21 94 22
REMARK SMILES IDX 6 23 7 24 8 25 5 26 1 27 2 28 3 29 99 30 4 31 98 32 18 33
REMARK SMILES IDX 19 34 20 35 23 36 21 37 22 38 30 40 31 41 32 42 33 43 34 44
REMARK SMILES IDX 35 45 36 46 37 47 38 48 39 49 91 50 40 51 90 52 41 53 42 54
REMARK SMILES IDX 43 55 84 56 44 57 89 58 83 59 85 60 45 61 88 62 82 63 81 64
REMARK SMILES IDX 46 66 72 67 55 68 71 69 56 70 59 71 70 72 86 73 57 74 58 75
REMARK SMILES IDX 69 77 87 78 60 79 47 80 48 81 53 82 49 83 50 84 52 85 54 86
REMARK SMILES IDX 51 87 73 88 74 89 79 90 75 91 76 92 78 93 80 94 77 95 61 96
REMARK SMILES IDX 62 97 67 98 63 99 64 100 66 101 68 102 65 103
REMARK H PARENT 16 11 23 39 85 65 59 76
REMARK Flexibility Score: inf
ROOT
ATOM      1  O   UNL A   1      30.977  28.899  24.636  1.00  0.00    -0.376 OA
ENDROOT
BRANCH   1   2
ATOM      2  C   UNL A   1      31.247  27.982  23.584  1.00  0.00     0.202 C 
BRANCH   2   3
ATOM      3  C   UNL A   1      32.493  27.092  23.782  1.00  0.00     0.261 C 
BRANCH   3   4
ATOM      4  O   UNL A   1      32.279  25.602  24.318  1.00  0.00    -0.462 OA
BRANCH   4   5
ATOM      5  C   UNL A   1      32.640  24.255  24.464  1.00  0.00     0.329 C 
ATOM      6  O   UNL A   1      32.746  23.948  25.660  1.00  0.00    -0.250 OA
BRANCH   5   7
ATOM      7  C   UNL A   1      32.999  22.949  23.255  1.00  0.00     0.198 C 
BRANCH   7   8
ATOM      8  N   UNL A   1      34.469  23.175  22.840  1.00  0.00    -0.335 N 
ATOM      9  C   UNL A   1      35.730  22.652  23.224  1.00  0.00     0.293 C 
ATOM     10  O   UNL A   1      36.701  22.951  22.524  1.00  0.00    -0.265 OA
ATOM     11  H   UNL A   1      34.552  23.852  22.130  1.00  0.00     0.164 HD
BRANCH   9  12
ATOM     12  C   UNL A   1      36.020  21.774  24.472  1.00  0.00     0.252 C 
ATOM     13  O   UNL A   1      35.003  21.289  24.982  1.00  0.00    -0.283 OA
BRANCH  12  14
ATOM     14  C   UNL A   1      37.361  21.654  25.196  1.00  0.00     0.054 A 
ATOM     15  N   UNL A   1      39.371  21.045  26.096  1.00  0.00    -0.240 N 
ATOM     16  C   UNL A   1      38.330  20.640  25.249  1.00  0.00     0.117 A 
ATOM     17  C   UNL A   1      39.205  22.360  26.468  1.00  0.00     0.065 A 
ATOM     18  C   UNL A   1      37.925  22.722  26.018  1.00  0.00     0.012 A 
ATOM     19  C   UNL A   1      40.040  23.257  27.166  1.00  0.00     0.028 A 
ATOM     20  C   UNL A   1      37.458  24.009  26.368  1.00  0.00     0.011 A 
ATOM     21  C   UNL A   1      39.542  24.520  27.483  1.00  0.00     0.002 A 
ATOM     22  C   UNL A   1      38.260  24.886  27.104  1.00  0.00     0.001 A 
BRANCH  15  23
ATOM     23  S   UNL A   1      40.829  20.167  26.437  1.00  0.00     0.268 S 
ATOM     24  O   UNL A   1      40.713  18.950  25.686  1.00  0.00    -0.201 OA
ATOM     25  O   UNL A   1      40.936  20.164  27.901  1.00  0.00    -0.201 OA
BRANCH  23  26
ATOM     26  C   UNL A   1      42.278  21.039  25.815  1.00  0.00     0.088 A 
ATOM     27  C   UNL A   1      45.846  22.938  24.229  1.00  0.00     0.044 C 
ATOM     28  C   UNL A   1      44.606  22.276  24.769  1.00  0.00    -0.051 A 
ATOM     29  C   UNL A   1      44.615  20.917  25.103  1.00  0.00     0.005 A 
ATOM     30  C   UNL A   1      43.424  23.003  24.970  1.00  0.00     0.005 A 
ATOM     31  C   UNL A   1      43.460  20.299  25.614  1.00  0.00     0.022 A 
ATOM     32  C   UNL A   1      42.270  22.396  25.499  1.00  0.00     0.022 A 
ENDBRANCH  23  26
ENDBRANCH  15  23
ENDBRANCH  12  14
ENDBRANCH   9  12
ENDBRANCH   7   8
BRANCH   7  33
ATOM     33  C   UNL A   1      32.408  21.178  22.953  1.00  0.00     0.092 C 
BRANCH  33  34
ATOM     34  C   UNL A   1      32.469  19.580  23.922  1.00  0.00     0.037 A 
ATOM     35  C   UNL A   1      32.619  18.149  23.701  1.00  0.00     0.134 A 
ATOM     36  N   UNL A   1      32.518  19.532  25.322  1.00  0.00    -0.348 N 
ATOM     37  N   UNL A   1      32.794  17.378  24.813  1.00  0.00    -0.245 NA
ATOM     38  C   UNL A   1      32.721  18.244  25.778  1.00  0.00     0.196 A 
ATOM     39  H   UNL A   1      32.419  20.318  25.906  1.00  0.00     0.167 HD
ENDBRANCH  33  34
ENDBRANCH   7  33
ENDBRANCH   5   7
ENDBRANCH   4   5
ENDBRANCH   3   4
ENDBRANCH   2   3
ENDBRANCH   1   2
BRANCH   1  40
ATOM     40  C   UNL A   1      31.835  28.681  25.743  1.00  0.00     0.188 C 
BRANCH  40  41
ATOM     41  C   UNL A   1      32.780  29.859  25.982  1.00  0.00     0.188 C 
BRANCH  41  42
ATOM     42  O   UNL A   1      34.003  29.537  26.607  1.00  0.00    -0.376 OA
BRANCH  42  43
ATOM     43  C   UNL A   1      34.563  30.461  27.541  1.00  0.00     0.202 C 
BRANCH  43  44
ATOM     44  C   UNL A   1      33.506  31.539  27.740  1.00  0.00     0.261 C 
BRANCH  44  45
ATOM     45  O   UNL A   1      34.148  32.839  27.724  1.00  0.00    -0.460 OA
BRANCH  45  46
ATOM     46  C   UNL A   1      33.983  33.590  28.849  1.00  0.00     0.338 C 
ATOM     47  O   UNL A   1      32.961  34.178  29.166  1.00  0.00    -0.246 OA
BRANCH  46  48
ATOM     48  C   UNL A   1      35.327  33.816  29.483  1.00  0.00     0.060 A 
ATOM     49  C   UNL A   1      36.451  33.804  28.671  1.00  0.00     0.016 A 
ATOM     50  C   UNL A   1      35.513  33.758  30.875  1.00  0.00     0.016 A 
ATOM     51  C   UNL A   1      37.701  33.538  29.245  1.00  0.00     0.010 A 
ATOM     52  C   UNL A   1      36.757  33.390  31.421  1.00  0.00     0.010 A 
ATOM     53  C   UNL A   1      37.831  33.114  30.582  1.00  0.00    -0.014 A 
BRANCH  53  54
ATOM     54  C   UNL A   1      39.022  32.282  31.080  1.00  0.00     0.031 A 
ATOM     55  C   UNL A   1      38.684  30.589  30.622  1.00  0.00     0.074 A 
ATOM     56  C   UNL A   1      40.127  32.893  31.922  1.00  0.00     0.049 A 
ATOM     57  N   UNL A   1      39.203  29.456  31.089  1.00  0.00    -0.248 NA
ATOM     58  C   UNL A   1      37.879  30.234  29.435  1.00  0.00     0.031 C 
ATOM     59  C   UNL A   1      41.554  33.374  31.623  1.00  0.00     0.029 A 
ATOM     60  N   UNL A   1      40.312  33.021  33.389  1.00  0.00    -0.354 N 
ATOM     61  C   UNL A   1      39.449  28.619  30.005  1.00  0.00     0.074 A 
ATOM     62  C   UNL A   1      38.327  28.989  29.157  1.00  0.00     0.031 C 
ATOM     63  C   UNL A   1      42.366  33.327  32.735  1.00  0.00     0.029 A 
ATOM     64  C   UNL A   1      41.593  33.042  33.915  1.00  0.00     0.049 A 
ATOM     65  H   UNL A   1      39.531  33.091  33.985  1.00  0.00     0.167 HD
ATOM     66  C   UNL A   1      40.688  28.027  29.714  1.00  0.00     0.037 A 
ATOM     67  C   UNL A   1      41.909  32.775  35.219  1.00  0.00     0.037 A 
ATOM     68  C   UNL A   1      41.829  27.995  30.741  1.00  0.00     0.049 A 
ATOM     69  C   UNL A   1      42.477  31.361  35.409  1.00  0.00     0.074 A 
ATOM     70  C   UNL A   1      43.217  28.161  30.570  1.00  0.00     0.029 A 
ATOM     71  N   UNL A   1      41.701  27.887  32.136  1.00  0.00    -0.354 N 
ATOM     72  N   UNL A   1      42.821  30.544  34.439  1.00  0.00    -0.248 NA
ATOM     73  C   UNL A   1      42.569  30.729  36.735  1.00  0.00     0.031 C 
ATOM     74  C   UNL A   1      43.884  28.253  31.816  1.00  0.00     0.029 A 
ATOM     75  C   UNL A   1      42.924  28.157  32.799  1.00  0.00     0.049 A 
ATOM     76  H   UNL A   1      40.864  27.654  32.598  1.00  0.00     0.167 HD
ATOM     77  C   UNL A   1      42.968  29.270  34.975  1.00  0.00     0.074 A 
ATOM     78  C   UNL A   1      42.871  29.462  36.414  1.00  0.00     0.031 C 
ATOM     79  C   UNL A   1      43.098  28.114  34.247  1.00  0.00     0.037 A 
BRANCH  66  80
ATOM     80  C   UNL A   1      41.136  27.755  28.218  1.00  0.00     0.057 A 
ATOM     81  C   UNL A   1      41.938  26.629  27.896  1.00  0.00     0.134 A 
ATOM     82  C   UNL A   1      41.024  28.658  27.137  1.00  0.00     0.134 A 
ATOM     83  F   UNL A   1      42.076  25.601  28.749  1.00  0.00    -0.206 F 
ATOM     84  C   UNL A   1      42.678  26.502  26.703  1.00  0.00     0.040 A 
ATOM     85  C   UNL A   1      41.654  28.473  25.890  1.00  0.00     0.040 A 
ATOM     86  F   UNL A   1      40.345  29.805  27.214  1.00  0.00    -0.206 F 
ATOM     87  C   UNL A   1      42.529  27.424  25.684  1.00  0.00     0.006 A 
ENDBRANCH  66  80
BRANCH  67  88
ATOM     88  C   UNL A   1      40.961  33.400  36.227  1.00  0.00     0.057 A 
ATOM     89  C   UNL A   1      41.217  34.731  36.610  1.00  0.00     0.134 A 
ATOM     90  C   UNL A   1      39.725  32.879  36.636  1.00  0.00     0.134 A 
ATOM     91  F   UNL A   1      42.392  35.296  36.297  1.00  0.00    -0.206 F 
ATOM     92  C   UNL A   1      40.261  35.537  37.244  1.00  0.00     0.040 A 
ATOM     93  C   UNL A   1      38.746  33.684  37.253  1.00  0.00     0.040 A 
ATOM     94  F   UNL A   1      39.412  31.602  36.386  1.00  0.00    -0.206 F 
ATOM     95  C   UNL A   1      39.000  35.026  37.525  1.00  0.00     0.006 A 
ENDBRANCH  67  88
BRANCH  79  96
ATOM     96  C   UNL A   1      43.613  26.804  34.813  1.00  0.00     0.057 A 
ATOM     97  C   UNL A   1      44.970  26.456  34.906  1.00  0.00     0.134 A 
ATOM     98  C   UNL A   1      42.710  25.746  35.058  1.00  0.00     0.134 A 
ATOM     99  F   UNL A   1      45.941  27.307  34.545  1.00  0.00    -0.206 F 
ATOM    100  C   UNL A   1      45.392  25.182  35.308  1.00  0.00     0.040 A 
ATOM    101  C   UNL A   1      43.120  24.453  35.387  1.00  0.00     0.040 A 
ATOM    102  F   UNL A   1      41.384  25.914  34.958  1.00  0.00    -0.206 F 
ATOM    103  C   UNL A   1      44.466  24.173  35.542  1.00  0.00     0.006 A 
ENDBRANCH  79  96
ENDBRANCH  53  54
ENDBRANCH  46  48
ENDBRANCH  45  46
ENDBRANCH  44  45
ENDBRANCH  43  44
ENDBRANCH  42  43
ENDBRANCH  41  42
ENDBRANCH  40  41
ENDBRANCH   1  40
TORSDOF 24
ENDMDL
MODEL 2
REMARK VINA RESULT:     -12.2      1.707      5.809
REMARK SMILES Cc1ccc(S(=O)(=O)n2cc(C(=O)C(=O)N[C@@H](Cc3cnc[nH]3)C(=O)OCCOCCOCCOC(=O)c3ccc(-c4c5nc(c(-c6c(F)cccc6F)c6ccc([nH]6)c(-c6c(F)cccc6F)c6nc(c(-c7c(F)cccc7F)c7ccc4[nH]7)C=C6)C=C5)cc3)c3ccccc32)cc1
REMARK SMILES IDX 29 1 28 2 27 3 26 4 24 5 25 6 17 7 16 8 14 9 15 10 12 12
REMARK SMILES IDX 13 13 11 14 9 15 10 16 97 17 92 18 96 19 93 20 95 21 94 22
REMARK SMILES IDX 6 23 7 24 8 25 5 26 1 27 2 28 3 29 99 30 4 31 98 32 18 33
REMARK SMILES IDX 19 34 20 35 23 36 21 37 22 38 30 40 31 41 32 42 33 43 34 44
REMARK SMILES IDX 35 45 36 46 37 47 38 48 39 49 91 50 40 51 90 52 41 53 42 54
REMARK SMILES IDX 43 55 84 56 44 57 89 58 83 59 85 60 45 61 88 62 82 63 81 64
REMARK SMILES IDX 46 66 72 67 55 68 71 69 56 70 59 71 70 72 86 73 57 74 58 75
REMARK SMILES IDX 69 77 87 78 60 79 47 80 48 81 53 82 49 83 50 84 52 85 54 86
REMARK SMILES IDX 51 87 73 88 74 89 79 90 75 91 76 92 78 93 80 94 77 95 61 96
REMARK SMILES IDX 62 97 67 98 63 99 64 100 66 101 68 102 65 103
REMARK H PARENT 16 11 23 39 85 65 59 76
REMARK Flexibility Score: inf
ROOT
ATOM      1  O   UNL A   1      32.228  28.380  24.808  1.00  0.00    -0.376 OA
ENDROOT
BRANCH   1   2
ATOM      2  C   UNL A   1      31.728  27.383  23.926  1.00  0.00     0.202 C 
BRANCH   2   3
ATOM      3  C   UNL A   1      32.636  26.148  23.738  1.00  0.00     0.261 C 
BRANCH   3   4
ATOM      4  O   UNL A   1      32.191  24.773  24.419  1.00  0.00    -0.462 OA
BRANCH   4   5
ATOM      5  C   UNL A   1      32.438  23.538  25.037  1.00  0.00     0.329 C 
ATOM      6  O   UNL A   1      31.873  23.468  26.137  1.00  0.00    -0.250 OA
BRANCH   5   7
ATOM      7  C   UNL A   1      33.430  22.102  24.540  1.00  0.00     0.198 C 
BRANCH   7   8
ATOM      8  N   UNL A   1      34.535  22.670  23.623  1.00  0.00    -0.335 N 
ATOM      9  C   UNL A   1      35.837  23.202  23.803  1.00  0.00     0.293 C 
ATOM     10  O   UNL A   1      36.512  23.395  22.789  1.00  0.00    -0.265 OA
ATOM     11  H   UNL A   1      34.269  22.660  22.675  1.00  0.00     0.164 HD
BRANCH   9  12
ATOM     12  C   UNL A   1      36.484  23.614  25.154  1.00  0.00     0.252 C 
ATOM     13  O   UNL A   1      35.914  24.564  25.705  1.00  0.00    -0.283 OA
BRANCH  12  14
ATOM     14  C   UNL A   1      37.815  23.106  25.707  1.00  0.00     0.054 A 
ATOM     15  N   UNL A   1      39.856  22.783  26.684  1.00  0.00    -0.240 N 
ATOM     16  C   UNL A   1      38.823  23.708  26.475  1.00  0.00     0.117 A 
ATOM     17  C   UNL A   1      39.486  21.539  26.226  1.00  0.00     0.065 A 
ATOM     18  C   UNL A   1      38.285  21.734  25.525  1.00  0.00     0.012 A 
ATOM     19  C   UNL A   1      40.094  20.271  26.341  1.00  0.00     0.028 A 
ATOM     20  C   UNL A   1      37.740  20.616  24.854  1.00  0.00     0.011 A 
ATOM     21  C   UNL A   1      39.517  19.193  25.671  1.00  0.00     0.002 A 
ATOM     22  C   UNL A   1      38.364  19.366  24.922  1.00  0.00     0.001 A 
BRANCH  15  23
ATOM     23  S   UNL A   1      41.292  23.031  27.625  1.00  0.00     0.268 S 
ATOM     24  O   UNL A   1      41.402  21.860  28.448  1.00  0.00    -0.201 OA
ATOM     25  O   UNL A   1      41.140  24.371  28.204  1.00  0.00    -0.201 OA
BRANCH  23  26
ATOM     26  C   UNL A   1      42.759  23.083  26.580  1.00  0.00     0.088 A 
ATOM     27  C   UNL A   1      46.419  23.149  24.246  1.00  0.00     0.044 C 
ATOM     28  C   UNL A   1      45.152  23.115  25.058  1.00  0.00    -0.051 A 
ATOM     29  C   UNL A   1      45.187  23.349  26.437  1.00  0.00     0.005 A 
ATOM     30  C   UNL A   1      43.910  22.873  24.454  1.00  0.00     0.005 A 
ATOM     31  C   UNL A   1      44.003  23.325  27.196  1.00  0.00     0.022 A 
ATOM     32  C   UNL A   1      42.718  22.867  25.204  1.00  0.00     0.022 A 
ENDBRANCH  23  26
ENDBRANCH  15  23
ENDBRANCH  12  14
ENDBRANCH   9  12
ENDBRANCH   7   8
BRANCH   7  33
ATOM     33  C   UNL A   1      33.892  20.438  25.311  1.00  0.00     0.092 C 
BRANCH  33  34
ATOM     34  C   UNL A   1      33.376  18.662  25.033  1.00  0.00     0.037 A 
ATOM     35  C   UNL A   1      33.416  17.640  23.998  1.00  0.00     0.134 A 
ATOM     36  N   UNL A   1      32.882  17.838  26.053  1.00  0.00    -0.348 N 
ATOM     37  N   UNL A   1      33.056  16.380  24.374  1.00  0.00    -0.245 NA
ATOM     38  C   UNL A   1      32.731  16.534  25.623  1.00  0.00     0.196 A 
ATOM     39  H   UNL A   1      32.669  18.150  26.963  1.00  0.00     0.167 HD
ENDBRANCH  33  34
ENDBRANCH   7  33
ENDBRANCH   5   7
ENDBRANCH   4   5
ENDBRANCH   3   4
ENDBRANCH   2   3
ENDBRANCH   1   2
BRANCH   1  40
ATOM     40  C   UNL A   1      33.097  27.822  25.779  1.00  0.00     0.188 C 
BRANCH  40  41
ATOM     41  C   UNL A   1      34.321  28.703  26.033  1.00  0.00     0.188 C 
BRANCH  41  42
ATOM     42  O   UNL A   1      34.469  29.166  27.358  1.00  0.00    -0.376 OA
BRANCH  42  43
ATOM     43  C   UNL A   1      35.060  30.448  27.577  1.00  0.00     0.202 C 
BRANCH  43  44
ATOM     44  C   UNL A   1      33.946  31.327  28.130  1.00  0.00     0.261 C 
BRANCH  44  45
ATOM     45  O   UNL A   1      34.008  32.627  27.489  1.00  0.00    -0.460 OA
BRANCH  45  46
ATOM     46  C   UNL A   1      33.689  33.689  28.283  1.00  0.00     0.338 C 
ATOM     47  O   UNL A   1      32.804  34.500  28.060  1.00  0.00    -0.246 OA
BRANCH  46  48
ATOM     48  C   UNL A   1      34.771  33.868  29.309  1.00  0.00     0.060 A 
ATOM     49  C   UNL A   1      36.082  33.995  28.873  1.00  0.00     0.016 A 
ATOM     50  C   UNL A   1      34.547  33.635  30.677  1.00  0.00     0.016 A 
ATOM     51  C   UNL A   1      37.124  33.692  29.759  1.00  0.00     0.010 A 
ATOM     52  C   UNL A   1      35.599  33.236  31.522  1.00  0.00     0.010 A 
ATOM     53  C   UNL A   1      36.887  33.102  31.015  1.00  0.00    -0.014 A 
BRANCH  53  54
ATOM     54  C   UNL A   1      37.933  32.247  31.746  1.00  0.00     0.031 A 
ATOM     55  C   UNL A   1      38.901  33.372  32.739  1.00  0.00     0.074 A 
ATOM     56  C   UNL A   1      38.094  30.765  31.461  1.00  0.00     0.049 A 
ATOM     57  N   UNL A   1      40.105  33.212  33.285  1.00  0.00    -0.248 NA
ATOM     58  C   UNL A   1      38.346  34.626  33.286  1.00  0.00     0.031 C 
ATOM     59  C   UNL A   1      37.644  29.485  32.179  1.00  0.00     0.029 A 
ATOM     60  N   UNL A   1      38.955  30.017  30.510  1.00  0.00    -0.354 N 
ATOM     61  C   UNL A   1      40.063  33.737  34.572  1.00  0.00     0.074 A 
ATOM     62  C   UNL A   1      39.151  34.846  34.351  1.00  0.00     0.031 C 
ATOM     63  C   UNL A   1      38.458  28.410  31.892  1.00  0.00     0.029 A 
ATOM     64  C   UNL A   1      39.375  28.739  30.833  1.00  0.00     0.049 A 
ATOM     65  H   UNL A   1      39.224  30.426  29.655  1.00  0.00     0.167 HD
ATOM     66  C   UNL A   1      40.423  33.038  35.736  1.00  0.00     0.037 A 
ATOM     67  C   UNL A   1      40.441  28.097  30.264  1.00  0.00     0.037 A 
ATOM     68  C   UNL A   1      41.196  31.711  35.675  1.00  0.00     0.049 A 
ATOM     69  C   UNL A   1      41.685  28.110  31.166  1.00  0.00     0.074 A 
ATOM     70  C   UNL A   1      41.066  30.543  36.449  1.00  0.00     0.029 A 
ATOM     71  N   UNL A   1      42.166  31.347  34.726  1.00  0.00    -0.354 N 
ATOM     72  N   UNL A   1      41.709  28.503  32.420  1.00  0.00    -0.248 NA
ATOM     73  C   UNL A   1      43.026  27.794  30.649  1.00  0.00     0.031 C 
ATOM     74  C   UNL A   1      41.848  29.484  35.923  1.00  0.00     0.029 A 
ATOM     75  C   UNL A   1      42.480  29.967  34.798  1.00  0.00     0.049 A 
ATOM     76  H   UNL A   1      42.576  31.973  34.086  1.00  0.00     0.167 HD
ATOM     77  C   UNL A   1      43.036  28.686  32.791  1.00  0.00     0.074 A 
ATOM     78  C   UNL A   1      43.808  28.160  31.676  1.00  0.00     0.031 C 
ATOM     79  C   UNL A   1      43.458  29.304  33.942  1.00  0.00     0.037 A 
BRANCH  66  80
ATOM     80  C   UNL A   1      39.702  33.320  37.118  1.00  0.00     0.057 A 
ATOM     81  C   UNL A   1      40.453  33.698  38.262  1.00  0.00     0.134 A 
ATOM     82  C   UNL A   1      38.361  33.012  37.438  1.00  0.00     0.134 A 
ATOM     83  F   UNL A   1      41.717  34.138  38.155  1.00  0.00    -0.206 F 
ATOM     84  C   UNL A   1      39.974  33.613  39.585  1.00  0.00     0.040 A 
ATOM     85  C   UNL A   1      37.835  33.052  38.745  1.00  0.00     0.040 A 
ATOM     86  F   UNL A   1      37.472  32.601  36.530  1.00  0.00    -0.206 F 
ATOM     87  C   UNL A   1      38.651  33.299  39.832  1.00  0.00     0.006 A 
ENDBRANCH  66  80
BRANCH  67  88
ATOM     88  C   UNL A   1      40.541  28.275  28.759  1.00  0.00     0.057 A 
ATOM     89  C   UNL A   1      41.430  29.259  28.287  1.00  0.00     0.134 A 
ATOM     90  C   UNL A   1      40.025  27.407  27.786  1.00  0.00     0.134 A 
ATOM     91  F   UNL A   1      41.939  30.158  29.142  1.00  0.00    -0.206 F 
ATOM     92  C   UNL A   1      41.881  29.305  26.960  1.00  0.00     0.040 A 
ATOM     93  C   UNL A   1      40.486  27.425  26.454  1.00  0.00     0.040 A 
ATOM     94  F   UNL A   1      39.118  26.481  28.116  1.00  0.00    -0.206 F 
ATOM     95  C   UNL A   1      41.444  28.352  26.047  1.00  0.00     0.006 A 
ENDBRANCH  67  88
BRANCH  79  96
ATOM     96  C   UNL A   1      44.860  29.182  34.510  1.00  0.00     0.057 A 
ATOM     97  C   UNL A   1      45.922  30.046  34.199  1.00  0.00     0.134 A 
ATOM     98  C   UNL A   1      45.229  28.015  35.214  1.00  0.00     0.134 A 
ATOM     99  F   UNL A   1      45.754  31.108  33.398  1.00  0.00    -0.206 F 
ATOM    100  C   UNL A   1      47.232  29.813  34.640  1.00  0.00     0.040 A 
ATOM    101  C   UNL A   1      46.542  27.736  35.595  1.00  0.00     0.040 A 
ATOM    102  F   UNL A   1      44.331  27.073  35.538  1.00  0.00    -0.206 F 
ATOM    103  C   UNL A   1      47.547  28.651  35.333  1.00  0.00     0.006 A 
ENDBRANCH  79  96
ENDBRANCH  53  54
ENDBRANCH  46  48
ENDBRANCH  45  46
ENDBRANCH  44  45
ENDBRANCH  43  44
ENDBRANCH  42  43
ENDBRANCH  41  42
ENDBRANCH  40  41
ENDBRANCH   1  40
TORSDOF 24
ENDMDL
MODEL 3
REMARK VINA RESULT:     -12.0      2.836      5.164
REMARK SMILES Cc1ccc(S(=O)(=O)n2cc(C(=O)C(=O)N[C@@H](Cc3cnc[nH]3)C(=O)OCCOCCOCCOC(=O)c3ccc(-c4c5nc(c(-c6c(F)cccc6F)c6ccc([nH]6)c(-c6c(F)cccc6F)c6nc(c(-c7c(F)cccc7F)c7ccc4[nH]7)C=C6)C=C5)cc3)c3ccccc32)cc1
REMARK SMILES IDX 29 1 28 2 27 3 26 4 24 5 25 6 17 7 16 8 14 9 15 10 12 12
REMARK SMILES IDX 13 13 11 14 9 15 10 16 97 17 92 18 96 19 93 20 95 21 94 22
REMARK SMILES IDX 6 23 7 24 8 25 5 26 1 27 2 28 3 29 99 30 4 31 98 32 18 33
REMARK SMILES IDX 19 34 20 35 23 36 21 37 22 38 30 40 31 41 32 42 33 43 34 44
REMARK SMILES IDX 35 45 36 46 37 47 38 48 39 49 91 50 40 51 90 52 41 53 42 54
REMARK SMILES IDX 43 55 84 56 44 57 89 58 83 59 85 60 45 61 88 62 82 63 81 64
REMARK SMILES IDX 46 66 72 67 55 68 71 69 56 70 59 71 70 72 86 73 57 74 58 75
REMARK SMILES IDX 69 77 87 78 60 79 47 80 48 81 53 82 49 83 50 84 52 85 54 86
REMARK SMILES IDX 51 87 73 88 74 89 79 90 75 91 76 92 78 93 80 94 77 95 61 96
REMARK SMILES IDX 62 97 67 98 63 99 64 100 66 101 68 102 65 103
REMARK H PARENT 16 11 23 39 85 65 59 76
REMARK Flexibility Score: inf
ROOT
ATOM      1  O   UNL A   1      34.187  24.867  25.816  1.00  0.00    -0.376 OA
ENDROOT
BRANCH   1   2
ATOM      2  C   UNL A   1      35.499  24.460  25.452  1.00  0.00     0.202 C 
BRANCH   2   3
ATOM      3  C   UNL A   1      36.110  23.338  26.319  1.00  0.00     0.261 C 
BRANCH   3   4
ATOM      4  O   UNL A   1      37.652  22.975  26.109  1.00  0.00    -0.462 OA
BRANCH   4   5
ATOM      5  C   UNL A   1      38.953  22.705  26.557  1.00  0.00     0.329 C 
ATOM      6  O   UNL A   1      39.261  23.442  27.504  1.00  0.00    -0.250 OA
BRANCH   5   7
ATOM      7  C   UNL A   1      40.222  21.538  25.989  1.00  0.00     0.198 C 
BRANCH   7   8
ATOM      8  N   UNL A   1      41.320  22.413  25.349  1.00  0.00    -0.335 N 
ATOM      9  C   UNL A   1      42.603  22.883  25.729  1.00  0.00     0.293 C 
ATOM     10  O   UNL A   1      43.285  23.429  24.858  1.00  0.00    -0.265 OA
ATOM     11  H   UNL A   1      41.066  22.723  24.449  1.00  0.00     0.164 HD
BRANCH   9  12
ATOM     12  C   UNL A   1      43.219  22.821  27.154  1.00  0.00     0.252 C 
ATOM     13  O   UNL A   1      42.536  22.179  27.961  1.00  0.00    -0.283 OA
BRANCH  12  14
ATOM     14  C   UNL A   1      44.420  23.627  27.651  1.00  0.00     0.054 A 
ATOM     15  N   UNL A   1      46.351  24.811  27.949  1.00  0.00    -0.240 N 
ATOM     16  C   UNL A   1      45.527  24.190  27.000  1.00  0.00     0.117 A 
ATOM     17  C   UNL A   1      45.739  24.824  29.181  1.00  0.00     0.065 A 
ATOM     18  C   UNL A   1      44.603  24.009  29.050  1.00  0.00     0.012 A 
ATOM     19  C   UNL A   1      46.077  25.453  30.398  1.00  0.00     0.028 A 
ATOM     20  C   UNL A   1      43.844  23.765  30.216  1.00  0.00     0.011 A 
ATOM     21  C   UNL A   1      45.295  25.192  31.522  1.00  0.00     0.002 A 
ATOM     22  C   UNL A   1      44.202  24.344  31.437  1.00  0.00     0.001 A 
BRANCH  15  23
ATOM     23  S   UNL A   1      47.806  25.702  27.633  1.00  0.00     0.268 S 
ATOM     24  O   UNL A   1      48.859  24.730  27.707  1.00  0.00    -0.201 OA
ATOM     25  O   UNL A   1      47.751  26.852  28.542  1.00  0.00    -0.201 OA
BRANCH  23  26
ATOM     26  C   UNL A   1      47.815  26.367  25.958  1.00  0.00     0.088 A 
ATOM     27  C   UNL A   1      47.754  28.169  22.008  1.00  0.00     0.044 C 
ATOM     28  C   UNL A   1      47.782  27.552  23.382  1.00  0.00    -0.051 A 
ATOM     29  C   UNL A   1      46.900  27.993  24.375  1.00  0.00     0.005 A 
ATOM     30  C   UNL A   1      48.671  26.513  23.692  1.00  0.00     0.005 A 
ATOM     31  C   UNL A   1      46.920  27.412  25.656  1.00  0.00     0.022 A 
ATOM     32  C   UNL A   1      48.683  25.914  24.966  1.00  0.00     0.022 A 
ENDBRANCH  23  26
ENDBRANCH  15  23
ENDBRANCH  12  14
ENDBRANCH   9  12
ENDBRANCH   7   8
BRANCH   7  33
ATOM     33  C   UNL A   1      40.855  19.845  26.545  1.00  0.00     0.092 C 
BRANCH  33  34
ATOM     34  C   UNL A   1      42.499  18.957  26.470  1.00  0.00     0.037 A 
ATOM     35  C   UNL A   1      43.100  17.691  26.862  1.00  0.00     0.134 A 
ATOM     36  N   UNL A   1      43.601  19.442  25.753  1.00  0.00    -0.348 N 
ATOM     37  N   UNL A   1      44.354  17.441  26.387  1.00  0.00    -0.245 NA
ATOM     38  C   UNL A   1      44.632  18.523  25.725  1.00  0.00     0.196 A 
ATOM     39  H   UNL A   1      43.636  20.327  25.322  1.00  0.00     0.167 HD
ENDBRANCH  33  34
ENDBRANCH   7  33
ENDBRANCH   5   7
ENDBRANCH   4   5
ENDBRANCH   3   4
ENDBRANCH   2   3
ENDBRANCH   1   2
BRANCH   1  40
ATOM     40  C   UNL A   1      33.912  26.184  25.369  1.00  0.00     0.188 C 
BRANCH  40  41
ATOM     41  C   UNL A   1      32.687  26.784  26.061  1.00  0.00     0.188 C 
BRANCH  41  42
ATOM     42  O   UNL A   1      32.941  27.915  26.866  1.00  0.00    -0.376 OA
BRANCH  42  43
ATOM     43  C   UNL A   1      33.327  29.136  26.234  1.00  0.00     0.202 C 
BRANCH  43  44
ATOM     44  C   UNL A   1      32.950  30.243  27.209  1.00  0.00     0.261 C 
BRANCH  44  45
ATOM     45  O   UNL A   1      34.112  31.075  27.452  1.00  0.00    -0.460 OA
BRANCH  45  46
ATOM     46  C   UNL A   1      33.860  32.285  28.029  1.00  0.00     0.338 C 
ATOM     47  O   UNL A   1      32.989  33.068  27.681  1.00  0.00    -0.246 OA
BRANCH  46  48
ATOM     48  C   UNL A   1      34.990  32.625  28.957  1.00  0.00     0.060 A 
ATOM     49  C   UNL A   1      36.176  33.093  28.412  1.00  0.00     0.016 A 
ATOM     50  C   UNL A   1      34.992  32.228  30.306  1.00  0.00     0.016 A 
ATOM     51  C   UNL A   1      37.360  32.969  29.152  1.00  0.00     0.010 A 
ATOM     52  C   UNL A   1      36.201  32.016  30.994  1.00  0.00     0.010 A 
ATOM     53  C   UNL A   1      37.415  32.233  30.351  1.00  0.00    -0.014 A 
BRANCH  53  54
ATOM     54  C   UNL A   1      38.707  31.588  30.875  1.00  0.00     0.031 A 
ATOM     55  C   UNL A   1      38.704  29.901  30.289  1.00  0.00     0.074 A 
ATOM     56  C   UNL A   1      39.636  32.320  31.826  1.00  0.00     0.049 A 
ATOM     57  N   UNL A   1      39.392  28.846  30.717  1.00  0.00    -0.248 NA
ATOM     58  C   UNL A   1      38.043  29.500  29.030  1.00  0.00     0.031 C 
ATOM     59  C   UNL A   1      40.967  33.065  31.655  1.00  0.00     0.029 A 
ATOM     60  N   UNL A   1      39.714  32.369  33.308  1.00  0.00    -0.354 N 
ATOM     61  C   UNL A   1      39.844  28.148  29.602  1.00  0.00     0.074 A 
ATOM     62  C   UNL A   1      38.723  28.377  28.705  1.00  0.00     0.031 C 
ATOM     63  C   UNL A   1      41.712  33.079  32.814  1.00  0.00     0.029 A 
ATOM     64  C   UNL A   1      40.939  32.575  33.919  1.00  0.00     0.049 A 
ATOM     65  H   UNL A   1      38.901  32.257  33.853  1.00  0.00     0.167 HD
ATOM     66  C   UNL A   1      41.183  27.805  29.358  1.00  0.00     0.037 A 
ATOM     67  C   UNL A   1      41.225  32.273  35.222  1.00  0.00     0.037 A 
ATOM     68  C   UNL A   1      42.254  27.898  30.456  1.00  0.00     0.049 A 
ATOM     69  C   UNL A   1      42.027  30.970  35.361  1.00  0.00     0.074 A 
ATOM     70  C   UNL A   1      43.596  28.317  30.390  1.00  0.00     0.029 A 
ATOM     71  N   UNL A   1      42.070  27.666  31.830  1.00  0.00    -0.354 N 
ATOM     72  N   UNL A   1      42.565  30.300  34.366  1.00  0.00    -0.248 NA
ATOM     73  C   UNL A   1      42.158  30.268  36.647  1.00  0.00     0.031 C 
ATOM     74  C   UNL A   1      44.166  28.433  31.682  1.00  0.00     0.029 A 
ATOM     75  C   UNL A   1      43.186  28.097  32.589  1.00  0.00     0.049 A 
ATOM     76  H   UNL A   1      41.264  27.256  32.218  1.00  0.00     0.167 HD
ATOM     77  C   UNL A   1      42.909  29.036  34.830  1.00  0.00     0.074 A 
ATOM     78  C   UNL A   1      42.700  29.101  36.268  1.00  0.00     0.031 C 
ATOM     79  C   UNL A   1      43.285  27.978  34.040  1.00  0.00     0.037 A 
BRANCH  66  80
ATOM     80  C   UNL A   1      41.754  27.728  27.882  1.00  0.00     0.057 A 
ATOM     81  C   UNL A   1      42.035  28.914  27.152  1.00  0.00     0.134 A 
ATOM     82  C   UNL A   1      41.813  26.575  27.070  1.00  0.00     0.134 A 
ATOM     83  F   UNL A   1      42.140  30.104  27.764  1.00  0.00    -0.206 F 
ATOM     84  C   UNL A   1      42.186  28.961  25.751  1.00  0.00     0.040 A 
ATOM     85  C   UNL A   1      42.096  26.598  25.689  1.00  0.00     0.040 A 
ATOM     86  F   UNL A   1      41.555  25.347  27.528  1.00  0.00    -0.206 F 
ATOM     87  C   UNL A   1      42.229  27.795  25.011  1.00  0.00     0.006 A 
ENDBRANCH  66  80
BRANCH  67  88
ATOM     88  C   UNL A   1      40.126  32.645  36.201  1.00  0.00     0.057 A 
ATOM     89  C   UNL A   1      40.165  33.942  36.747  1.00  0.00     0.134 A 
ATOM     90  C   UNL A   1      38.947  31.924  36.438  1.00  0.00     0.134 A 
ATOM     91  F   UNL A   1      41.271  34.688  36.606  1.00  0.00    -0.206 F 
ATOM     92  C   UNL A   1      39.062  34.537  37.376  1.00  0.00     0.040 A 
ATOM     93  C   UNL A   1      37.822  32.516  37.046  1.00  0.00     0.040 A 
ATOM     94  F   UNL A   1      38.834  30.656  36.023  1.00  0.00    -0.206 F 
ATOM     95  C   UNL A   1      37.866  33.837  37.484  1.00  0.00     0.006 A 
ENDBRANCH  67  88
BRANCH  79  96
ATOM     96  C   UNL A   1      43.995  26.740  34.555  1.00  0.00     0.057 A 
ATOM     97  C   UNL A   1      43.344  25.599  35.054  1.00  0.00     0.134 A 
ATOM     98  C   UNL A   1      45.388  26.777  34.784  1.00  0.00     0.134 A 
ATOM     99  F   UNL A   1      42.007  25.496  35.056  1.00  0.00    -0.206 F 
ATOM    100  C   UNL A   1      44.041  24.537  35.645  1.00  0.00     0.040 A 
ATOM    101  C   UNL A   1      46.082  25.759  35.438  1.00  0.00     0.040 A 
ATOM    102  F   UNL A   1      46.135  27.825  34.409  1.00  0.00    -0.206 F 
ATOM    103  C   UNL A   1      45.413  24.618  35.847  1.00  0.00     0.006 A 
ENDBRANCH  79  96
ENDBRANCH  53  54
ENDBRANCH  46  48
ENDBRANCH  45  46
ENDBRANCH  44  45
ENDBRANCH  43  44
ENDBRANCH  42  43
ENDBRANCH  41  42
ENDBRANCH  40  41
ENDBRANCH   1  40
TORSDOF 24
ENDMDL
