MODEL 1
REMARK VINA RESULT:     -12.3      0.000      0.000
REMARK SMILES Cc1ccc(C)c(N2C(=O)S[C@H](CC(=O)Nc3ccc(C(=O)OCCOCCOCCOC(=O)c4ccc(-c5c6nc(c(-c7c(F)cccc7F)c7ccc([nH]7)c(-c7c(F)cccc7F)c7nc(c(-c8c(F)cccc8F)c8ccc5[nH]8)C=C7)C=C6)cc4)c(O)c3)C2=O)c1
REMARK SMILES IDX 27 1 26 2 25 3 24 4 23 5 21 6 22 7 20 8 17 9 18 10 91 11
REMARK SMILES IDX 19 12 89 13 16 14 14 15 15 16 13 18 12 19 8 20 9 21 92 22
REMARK SMILES IDX 10 23 11 24 93 25 7 26 1 27 2 28 3 29 94 30 4 31 5 32 6 33
REMARK SMILES IDX 90 34 28 36 29 37 30 38 31 39 32 40 33 41 34 42 35 43 36 44
REMARK SMILES IDX 88 45 37 46 87 47 38 48 39 49 40 50 81 51 41 52 86 53 80 54
REMARK SMILES IDX 82 55 42 56 85 57 79 58 78 59 43 61 69 62 52 63 68 64 53 65
REMARK SMILES IDX 56 66 67 67 83 68 54 69 55 70 66 72 84 73 57 74 44 75 45 76
REMARK SMILES IDX 50 77 46 78 47 79 49 80 51 81 48 82 70 83 71 84 76 85 72 86
REMARK SMILES IDX 73 87 75 88 77 89 74 90 58 91 59 92 64 93 60 94 61 95 63 96
REMARK SMILES IDX 65 97 62 98
REMARK H PARENT 16 17 90 35 82 60 56 71
REMARK Flexibility Score: inf
ROOT
ATOM      1  C   UNL A   1      35.752  21.623  25.013  1.00  0.00     0.188 C 
ENDROOT
BRANCH   1   2
ATOM      2  O   UNL A   1      35.040  20.525  25.593  1.00  0.00    -0.376 OA
BRANCH   2   3
ATOM      3  C   UNL A   1      34.562  19.543  24.672  1.00  0.00     0.202 C 
BRANCH   3   4
ATOM      4  C   UNL A   1      33.150  18.989  24.947  1.00  0.00     0.261 C 
BRANCH   4   5
ATOM      5  O   UNL A   1      32.134  19.993  25.177  1.00  0.00    -0.460 OA
BRANCH   5   6
ATOM      6  C   UNL A   1      32.137  21.023  24.290  1.00  0.00     0.341 C 
ATOM      7  O   UNL A   1      32.060  20.924  23.075  1.00  0.00    -0.246 OA
BRANCH   6   8
ATOM      8  C   UNL A   1      32.109  22.348  24.961  1.00  0.00     0.101 A 
ATOM      9  C   UNL A   1      31.797  24.940  26.026  1.00  0.00     0.044 A 
ATOM     10  C   UNL A   1      31.886  24.733  24.656  1.00  0.00     0.027 A 
ATOM     11  C   UNL A   1      32.103  23.885  26.871  1.00  0.00     0.073 A 
ATOM     12  C   UNL A   1      31.986  23.448  24.120  1.00  0.00     0.022 A 
ATOM     13  C   UNL A   1      32.292  22.602  26.326  1.00  0.00     0.132 A 
BRANCH   9  14
ATOM     14  N   UNL A   1      31.475  26.213  26.521  1.00  0.00    -0.326 N 
ATOM     15  C   UNL A   1      32.383  27.227  26.763  1.00  0.00     0.226 C 
ATOM     16  O   UNL A   1      32.197  28.042  27.665  1.00  0.00    -0.275 OA
ATOM     17  H   UNL A   1      30.527  26.399  26.709  1.00  0.00     0.169 HD
BRANCH  15  18
ATOM     18  C   UNL A   1      33.476  27.437  25.718  1.00  0.00     0.125 C 
BRANCH  18  19
ATOM     19  C   UNL A   1      33.392  28.695  24.857  1.00  0.00     0.156 C 
ATOM     20  N   UNL A   1      31.367  28.469  23.590  1.00  0.00    -0.240 N 
ATOM     21  C   UNL A   1      32.252  27.850  22.738  1.00  0.00     0.293 C 
ATOM     22  C   UNL A   1      31.925  29.099  24.694  1.00  0.00     0.248 C 
ATOM     23  O   UNL A   1      32.026  27.065  21.846  1.00  0.00    -0.261 OA
ATOM     24  S   UNL A   1      33.869  28.419  23.128  1.00  0.00    -0.050 SA
ATOM     25  O   UNL A   1      31.363  29.882  25.452  1.00  0.00    -0.273 OA
BRANCH  20  26
ATOM     26  C   UNL A   1      30.092  28.801  23.083  1.00  0.00     0.056 A 
ATOM     27  C   UNL A   1      28.329  31.746  21.390  1.00  0.00     0.044 C 
ATOM     28  C   UNL A   1      28.599  30.435  22.067  1.00  0.00    -0.049 A 
ATOM     29  C   UNL A   1      27.515  29.600  22.356  1.00  0.00     0.004 A 
ATOM     30  C   UNL A   1      29.895  30.032  22.435  1.00  0.00     0.030 A 
ATOM     31  C   UNL A   1      27.709  28.380  22.996  1.00  0.00     0.006 A 
ATOM     32  C   UNL A   1      28.992  27.966  23.376  1.00  0.00    -0.027 A 
ATOM     33  C   UNL A   1      29.101  26.653  24.102  1.00  0.00     0.046 C 
ENDBRANCH  20  26
ENDBRANCH  18  19
ENDBRANCH  15  18
ENDBRANCH   9  14
BRANCH  13  34
ATOM     34  O   UNL A   1      32.735  21.676  27.218  1.00  0.00    -0.507 OA
ATOM     35  H   UNL A   1      32.887  20.794  26.941  1.00  0.00     0.293 HD
ENDBRANCH  13  34
ENDBRANCH   6   8
ENDBRANCH   5   6
ENDBRANCH   4   5
ENDBRANCH   3   4
ENDBRANCH   2   3
ENDBRANCH   1   2
BRANCH   1  36
ATOM     36  C   UNL A   1      36.076  22.758  26.000  1.00  0.00     0.188 C 
BRANCH  36  37
ATOM     37  O   UNL A   1      37.454  23.086  25.955  1.00  0.00    -0.376 OA
BRANCH  37  38
ATOM     38  C   UNL A   1      38.349  22.030  25.678  1.00  0.00     0.202 C 
BRANCH  38  39
ATOM     39  C   UNL A   1      39.659  21.970  26.476  1.00  0.00     0.261 C 
BRANCH  39  40
ATOM     40  O   UNL A   1      40.123  23.080  27.293  1.00  0.00    -0.460 OA
BRANCH  40  41
ATOM     41  C   UNL A   1      40.662  24.276  26.973  1.00  0.00     0.338 C 
ATOM     42  O   UNL A   1      41.716  24.372  26.358  1.00  0.00    -0.246 OA
BRANCH  41  43
ATOM     43  C   UNL A   1      40.034  25.464  27.549  1.00  0.00     0.060 A 
ATOM     44  C   UNL A   1      40.222  26.627  26.823  1.00  0.00     0.016 A 
ATOM     45  C   UNL A   1      39.472  25.489  28.833  1.00  0.00     0.016 A 
ATOM     46  C   UNL A   1      40.078  27.817  27.499  1.00  0.00     0.010 A 
ATOM     47  C   UNL A   1      39.290  26.719  29.482  1.00  0.00     0.010 A 
ATOM     48  C   UNL A   1      39.682  27.889  28.834  1.00  0.00    -0.014 A 
BRANCH  48  49
ATOM     49  C   UNL A   1      39.573  29.262  29.345  1.00  0.00     0.031 A 
ATOM     50  C   UNL A   1      40.891  29.952  29.434  1.00  0.00     0.074 A 
ATOM     51  C   UNL A   1      38.449  29.860  29.794  1.00  0.00     0.049 A 
ATOM     52  N   UNL A   1      41.475  30.434  30.489  1.00  0.00    -0.248 NA
ATOM     53  C   UNL A   1      41.730  29.940  28.224  1.00  0.00     0.031 C 
ATOM     54  C   UNL A   1      37.076  29.372  29.682  1.00  0.00     0.029 A 
ATOM     55  N   UNL A   1      38.289  31.090  30.391  1.00  0.00    -0.354 N 
ATOM     56  C   UNL A   1      42.655  31.000  30.015  1.00  0.00     0.074 A 
ATOM     57  C   UNL A   1      42.842  30.518  28.670  1.00  0.00     0.031 C 
ATOM     58  C   UNL A   1      36.222  30.380  29.968  1.00  0.00     0.029 A 
ATOM     59  C   UNL A   1      36.979  31.557  30.361  1.00  0.00     0.049 A 
ATOM     60  H   UNL A   1      39.032  31.591  30.799  1.00  0.00     0.167 HD
ATOM     61  C   UNL A   1      43.303  32.007  30.650  1.00  0.00     0.037 A 
ATOM     62  C   UNL A   1      36.547  32.834  30.539  1.00  0.00     0.037 A 
ATOM     63  C   UNL A   1      42.999  32.106  32.043  1.00  0.00     0.049 A 
ATOM     64  C   UNL A   1      37.594  33.593  31.257  1.00  0.00     0.074 A 
ATOM     65  C   UNL A   1      43.170  31.298  33.149  1.00  0.00     0.029 A 
ATOM     66  N   UNL A   1      42.180  33.125  32.457  1.00  0.00    -0.354 N 
ATOM     67  N   UNL A   1      37.868  33.466  32.522  1.00  0.00    -0.248 NA
ATOM     68  C   UNL A   1      38.611  34.259  30.459  1.00  0.00     0.031 C 
ATOM     69  C   UNL A   1      42.098  31.623  34.029  1.00  0.00     0.029 A 
ATOM     70  C   UNL A   1      41.344  32.620  33.417  1.00  0.00     0.049 A 
ATOM     71  H   UNL A   1      42.191  34.051  32.124  1.00  0.00     0.167 HD
ATOM     72  C   UNL A   1      39.241  33.628  32.597  1.00  0.00     0.074 A 
ATOM     73  C   UNL A   1      39.630  34.209  31.317  1.00  0.00     0.031 C 
ATOM     74  C   UNL A   1      39.968  33.023  33.579  1.00  0.00     0.037 A 
BRANCH  61  75
ATOM     75  C   UNL A   1      43.947  33.100  29.851  1.00  0.00     0.057 A 
ATOM     76  C   UNL A   1      43.181  34.042  29.157  1.00  0.00     0.134 A 
ATOM     77  C   UNL A   1      45.332  33.111  29.574  1.00  0.00     0.134 A 
ATOM     78  F   UNL A   1      41.846  34.061  29.274  1.00  0.00    -0.206 F 
ATOM     79  C   UNL A   1      43.765  34.957  28.275  1.00  0.00     0.040 A 
ATOM     80  C   UNL A   1      45.933  34.059  28.752  1.00  0.00     0.040 A 
ATOM     81  F   UNL A   1      46.150  32.145  30.022  1.00  0.00    -0.206 F 
ATOM     82  C   UNL A   1      45.146  34.982  28.086  1.00  0.00     0.006 A 
ENDBRANCH  61  75
BRANCH  62  83
ATOM     83  C   UNL A   1      35.419  33.535  29.867  1.00  0.00     0.057 A 
ATOM     84  C   UNL A   1      34.444  34.232  30.600  1.00  0.00     0.134 A 
ATOM     85  C   UNL A   1      35.422  33.776  28.482  1.00  0.00     0.134 A 
ATOM     86  F   UNL A   1      34.381  34.120  31.935  1.00  0.00    -0.206 F 
ATOM     87  C   UNL A   1      33.545  35.126  29.997  1.00  0.00     0.040 A 
ATOM     88  C   UNL A   1      34.523  34.654  27.865  1.00  0.00     0.040 A 
ATOM     89  F   UNL A   1      36.358  33.244  27.684  1.00  0.00    -0.206 F 
ATOM     90  C   UNL A   1      33.589  35.344  28.623  1.00  0.00     0.006 A 
ENDBRANCH  62  83
BRANCH  74  91
ATOM     91  C   UNL A   1      39.241  32.520  34.791  1.00  0.00     0.057 A 
ATOM     92  C   UNL A   1      38.728  31.222  34.930  1.00  0.00     0.134 A 
ATOM     93  C   UNL A   1      39.165  33.359  35.911  1.00  0.00     0.134 A 
ATOM     94  F   UNL A   1      38.834  30.320  33.941  1.00  0.00    -0.206 F 
ATOM     95  C   UNL A   1      38.131  30.797  36.123  1.00  0.00     0.040 A 
ATOM     96  C   UNL A   1      38.604  32.935  37.115  1.00  0.00     0.040 A 
ATOM     97  F   UNL A   1      39.673  34.602  35.859  1.00  0.00    -0.206 F 
ATOM     98  C   UNL A   1      38.075  31.652  37.221  1.00  0.00     0.006 A 
ENDBRANCH  74  91
ENDBRANCH  48  49
ENDBRANCH  41  43
ENDBRANCH  40  41
ENDBRANCH  39  40
ENDBRANCH  38  39
ENDBRANCH  37  38
ENDBRANCH  36  37
ENDBRANCH   1  36
TORSDOF 22
ENDMDL
MODEL 2
REMARK VINA RESULT:     -11.5      4.431     10.219
REMARK SMILES Cc1ccc(C)c(N2C(=O)S[C@H](CC(=O)Nc3ccc(C(=O)OCCOCCOCCOC(=O)c4ccc(-c5c6nc(c(-c7c(F)cccc7F)c7ccc([nH]7)c(-c7c(F)cccc7F)c7nc(c(-c8c(F)cccc8F)c8ccc5[nH]8)C=C7)C=C6)cc4)c(O)c3)C2=O)c1
REMARK SMILES IDX 27 1 26 2 25 3 24 4 23 5 21 6 22 7 20 8 17 9 18 10 91 11
REMARK SMILES IDX 19 12 89 13 16 14 14 15 15 16 13 18 12 19 8 20 9 21 92 22
REMARK SMILES IDX 10 23 11 24 93 25 7 26 1 27 2 28 3 29 94 30 4 31 5 32 6 33
REMARK SMILES IDX 90 34 28 36 29 37 30 38 31 39 32 40 33 41 34 42 35 43 36 44
REMARK SMILES IDX 88 45 37 46 87 47 38 48 39 49 40 50 81 51 41 52 86 53 80 54
REMARK SMILES IDX 82 55 42 56 85 57 79 58 78 59 43 61 69 62 52 63 68 64 53 65
REMARK SMILES IDX 56 66 67 67 83 68 54 69 55 70 66 72 84 73 57 74 44 75 45 76
REMARK SMILES IDX 50 77 46 78 47 79 49 80 51 81 48 82 70 83 71 84 76 85 72 86
REMARK SMILES IDX 73 87 75 88 77 89 74 90 58 91 59 92 64 93 60 94 61 95 63 96
REMARK SMILES IDX 65 97 62 98
REMARK H PARENT 16 17 90 35 82 60 56 71
REMARK Flexibility Score: inf
ROOT
ATOM      1  C   UNL A   1      35.689  33.407  28.410  1.00  0.00     0.188 C 
ENDROOT
BRANCH   1   2
ATOM      2  O   UNL A   1      35.390  32.256  27.614  1.00  0.00    -0.376 OA
BRANCH   2   3
ATOM      3  C   UNL A   1      34.219  31.530  27.994  1.00  0.00     0.202 C 
BRANCH   3   4
ATOM      4  C   UNL A   1      34.112  30.090  27.455  1.00  0.00     0.261 C 
BRANCH   4   5
ATOM      5  O   UNL A   1      32.761  29.617  27.243  1.00  0.00    -0.460 OA
BRANCH   5   6
ATOM      6  C   UNL A   1      32.046  30.321  26.327  1.00  0.00     0.341 C 
ATOM      7  O   UNL A   1      31.559  31.429  26.495  1.00  0.00    -0.246 OA
BRANCH   6   8
ATOM      8  C   UNL A   1      32.015  29.655  25.000  1.00  0.00     0.101 A 
ATOM      9  C   UNL A   1      32.112  28.126  22.632  1.00  0.00     0.044 A 
ATOM     10  C   UNL A   1      33.245  28.310  23.415  1.00  0.00     0.027 A 
ATOM     11  C   UNL A   1      30.995  28.900  22.902  1.00  0.00     0.073 A 
ATOM     12  C   UNL A   1      33.190  29.020  24.616  1.00  0.00     0.022 A 
ATOM     13  C   UNL A   1      30.970  29.687  24.067  1.00  0.00     0.132 A 
BRANCH   9  14
ATOM     14  N   UNL A   1      32.147  27.228  21.555  1.00  0.00    -0.326 N 
ATOM     15  C   UNL A   1      32.589  25.919  21.622  1.00  0.00     0.226 C 
ATOM     16  O   UNL A   1      33.125  25.381  20.655  1.00  0.00    -0.275 OA
ATOM     17  H   UNL A   1      31.831  27.554  20.683  1.00  0.00     0.169 HD
BRANCH  15  18
ATOM     18  C   UNL A   1      32.158  25.108  22.843  1.00  0.00     0.125 C 
BRANCH  18  19
ATOM     19  C   UNL A   1      33.250  24.671  23.816  1.00  0.00     0.156 C 
ATOM     20  N   UNL A   1      32.984  22.299  24.053  1.00  0.00    -0.240 N 
ATOM     21  C   UNL A   1      32.152  22.733  25.059  1.00  0.00     0.293 C 
ATOM     22  C   UNL A   1      33.745  23.276  23.427  1.00  0.00     0.248 C 
ATOM     23  O   UNL A   1      31.247  22.147  25.604  1.00  0.00    -0.261 OA
ATOM     24  S   UNL A   1      32.638  24.365  25.497  1.00  0.00    -0.050 SA
ATOM     25  O   UNL A   1      34.693  23.094  22.672  1.00  0.00    -0.273 OA
BRANCH  20  26
ATOM     26  C   UNL A   1      33.332  20.931  24.036  1.00  0.00     0.056 A 
ATOM     27  C   UNL A   1      32.033  17.632  22.595  1.00  0.00     0.044 C 
ATOM     28  C   UNL A   1      32.821  18.644  23.372  1.00  0.00    -0.049 A 
ATOM     29  C   UNL A   1      33.819  18.186  24.239  1.00  0.00     0.004 A 
ATOM     30  C   UNL A   1      32.577  20.025  23.273  1.00  0.00     0.030 A 
ATOM     31  C   UNL A   1      34.569  19.083  24.994  1.00  0.00     0.006 A 
ATOM     32  C   UNL A   1      34.334  20.461  24.913  1.00  0.00    -0.027 A 
ATOM     33  C   UNL A   1      35.163  21.350  25.798  1.00  0.00     0.046 C 
ENDBRANCH  20  26
ENDBRANCH  18  19
ENDBRANCH  15  18
ENDBRANCH   9  14
BRANCH  13  34
ATOM     34  O   UNL A   1      29.897  30.518  24.158  1.00  0.00    -0.507 OA
ATOM     35  H   UNL A   1      29.218  30.477  23.514  1.00  0.00     0.293 HD
ENDBRANCH  13  34
ENDBRANCH   6   8
ENDBRANCH   5   6
ENDBRANCH   4   5
ENDBRANCH   3   4
ENDBRANCH   2   3
ENDBRANCH   1   2
BRANCH   1  36
ATOM     36  C   UNL A   1      34.481  33.982  29.169  1.00  0.00     0.188 C 
BRANCH  36  37
ATOM     37  O   UNL A   1      34.616  33.774  30.564  1.00  0.00    -0.376 OA
BRANCH  37  38
ATOM     38  C   UNL A   1      35.904  33.963  31.112  1.00  0.00     0.202 C 
BRANCH  38  39
ATOM     39  C   UNL A   1      36.582  32.761  31.784  1.00  0.00     0.261 C 
BRANCH  39  40
ATOM     40  O   UNL A   1      37.380  31.801  31.038  1.00  0.00    -0.460 OA
BRANCH  40  41
ATOM     41  C   UNL A   1      37.131  30.539  30.628  1.00  0.00     0.338 C 
ATOM     42  O   UNL A   1      36.103  29.947  30.932  1.00  0.00    -0.246 OA
BRANCH  41  43
ATOM     43  C   UNL A   1      38.217  29.832  29.953  1.00  0.00     0.060 A 
ATOM     44  C   UNL A   1      38.138  28.452  30.020  1.00  0.00     0.016 A 
ATOM     45  C   UNL A   1      39.363  30.473  29.463  1.00  0.00     0.016 A 
ATOM     46  C   UNL A   1      39.305  27.747  29.833  1.00  0.00     0.010 A 
ATOM     47  C   UNL A   1      40.527  29.724  29.234  1.00  0.00     0.010 A 
ATOM     48  C   UNL A   1      40.516  28.358  29.508  1.00  0.00    -0.014 A 
BRANCH  48  49
ATOM     49  C   UNL A   1      41.627  27.413  29.334  1.00  0.00     0.031 A 
ATOM     50  C   UNL A   1      42.689  27.572  30.367  1.00  0.00     0.074 A 
ATOM     51  C   UNL A   1      41.779  26.537  28.318  1.00  0.00     0.049 A 
ATOM     52  N   UNL A   1      43.941  27.871  30.192  1.00  0.00    -0.248 NA
ATOM     53  C   UNL A   1      42.253  27.569  31.773  1.00  0.00     0.031 C 
ATOM     54  C   UNL A   1      40.797  26.183  27.295  1.00  0.00     0.029 A 
ATOM     55  N   UNL A   1      42.838  25.709  28.026  1.00  0.00    -0.354 N 
ATOM     56  C   UNL A   1      44.492  27.854  31.470  1.00  0.00     0.074 A 
ATOM     57  C   UNL A   1      43.393  27.841  32.402  1.00  0.00     0.031 C 
ATOM     58  C   UNL A   1      41.206  25.065  26.655  1.00  0.00     0.029 A 
ATOM     59  C   UNL A   1      42.509  24.668  27.161  1.00  0.00     0.049 A 
ATOM     60  H   UNL A   1      43.742  25.840  28.393  1.00  0.00     0.167 HD
ATOM     61  C   UNL A   1      45.807  27.624  31.709  1.00  0.00     0.037 A 
ATOM     62  C   UNL A   1      43.196  23.513  26.950  1.00  0.00     0.037 A 
ATOM     63  C   UNL A   1      46.656  27.895  30.592  1.00  0.00     0.049 A 
ATOM     64  C   UNL A   1      44.596  23.709  27.386  1.00  0.00     0.074 A 
ATOM     65  C   UNL A   1      46.986  29.014  29.854  1.00  0.00     0.029 A 
ATOM     66  N   UNL A   1      47.172  26.832  29.897  1.00  0.00    -0.354 N 
ATOM     67  N   UNL A   1      45.485  24.404  26.738  1.00  0.00    -0.248 NA
ATOM     68  C   UNL A   1      44.919  23.415  28.773  1.00  0.00     0.031 C 
ATOM     69  C   UNL A   1      47.284  28.534  28.546  1.00  0.00     0.029 A 
ATOM     70  C   UNL A   1      47.134  27.150  28.565  1.00  0.00     0.049 A 
ATOM     71  H   UNL A   1      47.508  25.992  30.285  1.00  0.00     0.167 HD
ATOM     72  C   UNL A   1      46.247  25.000  27.729  1.00  0.00     0.074 A 
ATOM     73  C   UNL A   1      45.917  24.280  28.953  1.00  0.00     0.031 C 
ATOM     74  C   UNL A   1      46.866  26.196  27.517  1.00  0.00     0.037 A 
BRANCH  61  75
ATOM     75  C   UNL A   1      46.216  26.806  32.897  1.00  0.00     0.057 A 
ATOM     76  C   UNL A   1      47.102  27.307  33.855  1.00  0.00     0.134 A 
ATOM     77  C   UNL A   1      45.914  25.430  33.000  1.00  0.00     0.134 A 
ATOM     78  F   UNL A   1      47.529  28.577  33.797  1.00  0.00    -0.206 F 
ATOM     79  C   UNL A   1      47.622  26.497  34.871  1.00  0.00     0.040 A 
ATOM     80  C   UNL A   1      46.370  24.631  34.045  1.00  0.00     0.040 A 
ATOM     81  F   UNL A   1      45.233  24.782  32.043  1.00  0.00    -0.206 F 
ATOM     82  C   UNL A   1      47.241  25.161  34.980  1.00  0.00     0.006 A 
ENDBRANCH  61  75
BRANCH  62  83
ATOM     83  C   UNL A   1      42.661  22.151  26.682  1.00  0.00     0.057 A 
ATOM     84  C   UNL A   1      43.271  21.291  25.752  1.00  0.00     0.134 A 
ATOM     85  C   UNL A   1      41.712  21.552  27.528  1.00  0.00     0.134 A 
ATOM     86  F   UNL A   1      44.229  21.741  24.930  1.00  0.00    -0.206 F 
ATOM     87  C   UNL A   1      42.969  19.922  25.685  1.00  0.00     0.040 A 
ATOM     88  C   UNL A   1      41.391  20.191  27.463  1.00  0.00     0.040 A 
ATOM     89  F   UNL A   1      41.126  22.242  28.517  1.00  0.00    -0.206 F 
ATOM     90  C   UNL A   1      42.030  19.367  26.548  1.00  0.00     0.006 A 
ENDBRANCH  62  83
BRANCH  74  91
ATOM     91  C   UNL A   1      47.045  26.659  26.102  1.00  0.00     0.057 A 
ATOM     92  C   UNL A   1      46.157  27.505  25.422  1.00  0.00     0.134 A 
ATOM     93  C   UNL A   1      48.237  26.324  25.444  1.00  0.00     0.134 A 
ATOM     94  F   UNL A   1      45.033  27.950  26.004  1.00  0.00    -0.206 F 
ATOM     95  C   UNL A   1      46.430  27.962  24.127  1.00  0.00     0.040 A 
ATOM     96  C   UNL A   1      48.535  26.801  24.167  1.00  0.00     0.040 A 
ATOM     97  F   UNL A   1      49.150  25.550  26.053  1.00  0.00    -0.206 F 
ATOM     98  C   UNL A   1      47.626  27.616  23.500  1.00  0.00     0.006 A 
ENDBRANCH  74  91
ENDBRANCH  48  49
ENDBRANCH  41  43
ENDBRANCH  40  41
ENDBRANCH  39  40
ENDBRANCH  38  39
ENDBRANCH  37  38
ENDBRANCH  36  37
ENDBRANCH   1  36
TORSDOF 22
ENDMDL
MODEL 3
REMARK VINA RESULT:     -11.1      1.872      3.019
REMARK SMILES Cc1ccc(C)c(N2C(=O)S[C@H](CC(=O)Nc3ccc(C(=O)OCCOCCOCCOC(=O)c4ccc(-c5c6nc(c(-c7c(F)cccc7F)c7ccc([nH]7)c(-c7c(F)cccc7F)c7nc(c(-c8c(F)cccc8F)c8ccc5[nH]8)C=C7)C=C6)cc4)c(O)c3)C2=O)c1
REMARK SMILES IDX 27 1 26 2 25 3 24 4 23 5 21 6 22 7 20 8 17 9 18 10 91 11
REMARK SMILES IDX 19 12 89 13 16 14 14 15 15 16 13 18 12 19 8 20 9 21 92 22
REMARK SMILES IDX 10 23 11 24 93 25 7 26 1 27 2 28 3 29 94 30 4 31 5 32 6 33
REMARK SMILES IDX 90 34 28 36 29 37 30 38 31 39 32 40 33 41 34 42 35 43 36 44
REMARK SMILES IDX 88 45 37 46 87 47 38 48 39 49 40 50 81 51 41 52 86 53 80 54
REMARK SMILES IDX 82 55 42 56 85 57 79 58 78 59 43 61 69 62 52 63 68 64 53 65
REMARK SMILES IDX 56 66 67 67 83 68 54 69 55 70 66 72 84 73 57 74 44 75 45 76
REMARK SMILES IDX 50 77 46 78 47 79 49 80 51 81 48 82 70 83 71 84 76 85 72 86
REMARK SMILES IDX 73 87 75 88 77 89 74 90 58 91 59 92 64 93 60 94 61 95 63 96
REMARK SMILES IDX 65 97 62 98
REMARK H PARENT 16 17 90 35 82 60 56 71
REMARK Flexibility Score: inf
ROOT
ATOM      1  C   UNL A   1      35.901  20.271  25.062  1.00  0.00     0.188 C 
ENDROOT
BRANCH   1   2
ATOM      2  O   UNL A   1      35.877  18.877  24.738  1.00  0.00    -0.376 OA
BRANCH   2   3
ATOM      3  C   UNL A   1      34.585  18.330  24.463  1.00  0.00     0.202 C 
BRANCH   3   4
ATOM      4  C   UNL A   1      33.540  18.467  25.588  1.00  0.00     0.261 C 
BRANCH   4   5
ATOM      5  O   UNL A   1      32.396  19.290  25.261  1.00  0.00    -0.460 OA
BRANCH   5   6
ATOM      6  C   UNL A   1      32.235  19.546  23.937  1.00  0.00     0.341 C 
ATOM      7  O   UNL A   1      31.862  18.747  23.092  1.00  0.00    -0.246 OA
BRANCH   6   8
ATOM      8  C   UNL A   1      32.436  20.981  23.609  1.00  0.00     0.101 A 
ATOM      9  C   UNL A   1      33.087  23.694  23.199  1.00  0.00     0.044 A 
ATOM     10  C   UNL A   1      32.981  23.167  24.480  1.00  0.00     0.027 A 
ATOM     11  C   UNL A   1      32.635  22.930  22.135  1.00  0.00     0.073 A 
ATOM     12  C   UNL A   1      32.712  21.813  24.688  1.00  0.00     0.022 A 
ATOM     13  C   UNL A   1      32.279  21.588  22.356  1.00  0.00     0.132 A 
BRANCH   9  14
ATOM     14  N   UNL A   1      33.573  24.997  23.018  1.00  0.00    -0.326 N 
ATOM     15  C   UNL A   1      33.122  25.893  22.066  1.00  0.00     0.226 C 
ATOM     16  O   UNL A   1      33.878  26.725  21.569  1.00  0.00    -0.275 OA
ATOM     17  H   UNL A   1      34.293  25.299  23.617  1.00  0.00     0.169 HD
BRANCH  15  18
ATOM     18  C   UNL A   1      31.611  25.965  21.851  1.00  0.00     0.125 C 
BRANCH  18  19
ATOM     19  C   UNL A   1      30.908  27.262  22.244  1.00  0.00     0.156 C 
ATOM     20  N   UNL A   1      31.678  27.761  24.461  1.00  0.00    -0.240 N 
ATOM     21  C   UNL A   1      30.582  26.984  24.759  1.00  0.00     0.293 C 
ATOM     22  C   UNL A   1      31.841  28.097  23.124  1.00  0.00     0.248 C 
ATOM     23  O   UNL A   1      30.330  26.383  25.777  1.00  0.00    -0.261 OA
ATOM     24  S   UNL A   1      29.506  27.010  23.369  1.00  0.00    -0.050 SA
ATOM     25  O   UNL A   1      32.604  28.942  22.669  1.00  0.00    -0.273 OA
BRANCH  20  26
ATOM     26  C   UNL A   1      32.262  28.501  25.511  1.00  0.00     0.056 A 
ATOM     27  C   UNL A   1      32.009  31.978  27.091  1.00  0.00     0.044 C 
ATOM     28  C   UNL A   1      32.461  30.590  26.748  1.00  0.00    -0.049 A 
ATOM     29  C   UNL A   1      33.608  30.091  27.375  1.00  0.00     0.004 A 
ATOM     30  C   UNL A   1      31.786  29.789  25.811  1.00  0.00     0.030 A 
ATOM     31  C   UNL A   1      34.079  28.814  27.081  1.00  0.00     0.006 A 
ATOM     32  C   UNL A   1      33.423  28.006  26.144  1.00  0.00    -0.027 A 
ATOM     33  C   UNL A   1      34.029  26.659  25.858  1.00  0.00     0.046 C 
ENDBRANCH  20  26
ENDBRANCH  18  19
ENDBRANCH  15  18
ENDBRANCH   9  14
BRANCH  13  34
ATOM     34  O   UNL A   1      31.708  20.976  21.283  1.00  0.00    -0.507 OA
ATOM     35  H   UNL A   1      30.811  21.142  21.072  1.00  0.00     0.293 HD
ENDBRANCH  13  34
ENDBRANCH   6   8
ENDBRANCH   5   6
ENDBRANCH   4   5
ENDBRANCH   3   4
ENDBRANCH   2   3
ENDBRANCH   1   2
BRANCH   1  36
ATOM     36  C   UNL A   1      37.144  21.018  24.545  1.00  0.00     0.188 C 
BRANCH  36  37
ATOM     37  O   UNL A   1      37.874  21.584  25.619  1.00  0.00    -0.376 OA
BRANCH  37  38
ATOM     38  C   UNL A   1      39.125  20.998  25.915  1.00  0.00     0.202 C 
BRANCH  38  39
ATOM     39  C   UNL A   1      40.052  21.739  26.888  1.00  0.00     0.261 C 
BRANCH  39  40
ATOM     40  O   UNL A   1      40.632  23.035  26.575  1.00  0.00    -0.460 OA
BRANCH  40  41
ATOM     41  C   UNL A   1      41.779  23.632  26.966  1.00  0.00     0.338 C 
ATOM     42  O   UNL A   1      42.737  22.994  27.383  1.00  0.00    -0.246 OA
BRANCH  41  43
ATOM     43  C   UNL A   1      41.775  25.092  27.045  1.00  0.00     0.060 A 
ATOM     44  C   UNL A   1      42.408  25.612  28.159  1.00  0.00     0.016 A 
ATOM     45  C   UNL A   1      41.016  25.905  26.192  1.00  0.00     0.016 A 
ATOM     46  C   UNL A   1      42.059  26.888  28.540  1.00  0.00     0.010 A 
ATOM     47  C   UNL A   1      40.713  27.218  26.581  1.00  0.00     0.010 A 
ATOM     48  C   UNL A   1      41.171  27.680  27.813  1.00  0.00    -0.014 A 
BRANCH  48  49
ATOM     49  C   UNL A   1      40.960  29.014  28.391  1.00  0.00     0.031 A 
ATOM     50  C   UNL A   1      42.164  29.886  28.288  1.00  0.00     0.074 A 
ATOM     51  C   UNL A   1      39.857  29.436  29.044  1.00  0.00     0.049 A 
ATOM     52  N   UNL A   1      42.846  30.430  29.250  1.00  0.00    -0.248 NA
ATOM     53  C   UNL A   1      42.778  30.016  26.956  1.00  0.00     0.031 C 
ATOM     54  C   UNL A   1      38.567  28.756  29.142  1.00  0.00     0.029 A 
ATOM     55  N   UNL A   1      39.631  30.619  29.709  1.00  0.00    -0.354 N 
ATOM     56  C   UNL A   1      43.837  31.169  28.610  1.00  0.00     0.074 A 
ATOM     57  C   UNL A   1      43.857  30.742  27.234  1.00  0.00     0.031 C 
ATOM     58  C   UNL A   1      37.641  29.624  29.608  1.00  0.00     0.029 A 
ATOM     59  C   UNL A   1      38.281  30.892  29.918  1.00  0.00     0.049 A 
ATOM     60  H   UNL A   1      40.354  31.215  30.009  1.00  0.00     0.167 HD
ATOM     61  C   UNL A   1      44.437  32.249  29.169  1.00  0.00     0.037 A 
ATOM     62  C   UNL A   1      37.712  32.090  30.217  1.00  0.00     0.037 A 
ATOM     63  C   UNL A   1      44.364  32.279  30.596  1.00  0.00     0.049 A 
ATOM     64  C   UNL A   1      38.750  32.980  30.781  1.00  0.00     0.074 A 
ATOM     65  C   UNL A   1      44.832  31.486  31.624  1.00  0.00     0.029 A 
ATOM     66  N   UNL A   1      43.493  33.161  31.182  1.00  0.00    -0.354 N 
ATOM     67  N   UNL A   1      39.250  32.873  31.977  1.00  0.00    -0.248 NA
ATOM     68  C   UNL A   1      39.512  33.800  29.853  1.00  0.00     0.031 C 
ATOM     69  C   UNL A   1      43.891  31.637  32.683  1.00  0.00     0.029 A 
ATOM     70  C   UNL A   1      42.911  32.525  32.245  1.00  0.00     0.049 A 
ATOM     71  H   UNL A   1      43.317  34.085  30.889  1.00  0.00     0.167 HD
ATOM     72  C   UNL A   1      40.580  33.231  31.829  1.00  0.00     0.074 A 
ATOM     73  C   UNL A   1      40.659  33.883  30.528  1.00  0.00     0.031 C 
ATOM     74  C   UNL A   1      41.540  32.722  32.650  1.00  0.00     0.037 A 
BRANCH  61  75
ATOM     75  C   UNL A   1      44.776  33.436  28.320  1.00  0.00     0.057 A 
ATOM     76  C   UNL A   1      43.785  34.316  27.870  1.00  0.00     0.134 A 
ATOM     77  C   UNL A   1      46.056  33.610  27.749  1.00  0.00     0.134 A 
ATOM     78  F   UNL A   1      42.515  34.183  28.276  1.00  0.00    -0.206 F 
ATOM     79  C   UNL A   1      44.065  35.324  26.941  1.00  0.00     0.040 A 
ATOM     80  C   UNL A   1      46.362  34.651  26.877  1.00  0.00     0.040 A 
ATOM     81  F   UNL A   1      47.043  32.723  27.946  1.00  0.00    -0.206 F 
ATOM     82  C   UNL A   1      45.359  35.507  26.458  1.00  0.00     0.006 A 
ENDBRANCH  61  75
BRANCH  62  83
ATOM     83  C   UNL A   1      36.399  32.631  29.771  1.00  0.00     0.057 A 
ATOM     84  C   UNL A   1      35.422  33.045  30.693  1.00  0.00     0.134 A 
ATOM     85  C   UNL A   1      36.175  33.017  28.438  1.00  0.00     0.134 A 
ATOM     86  F   UNL A   1      35.558  32.778  32.000  1.00  0.00    -0.206 F 
ATOM     87  C   UNL A   1      34.308  33.811  30.315  1.00  0.00     0.040 A 
ATOM     88  C   UNL A   1      35.063  33.768  28.044  1.00  0.00     0.040 A 
ATOM     89  F   UNL A   1      37.077  32.763  27.479  1.00  0.00    -0.206 F 
ATOM     90  C   UNL A   1      34.131  34.181  28.985  1.00  0.00     0.006 A 
ENDBRANCH  62  83
BRANCH  74  91
ATOM     91  C   UNL A   1      41.109  32.098  33.945  1.00  0.00     0.057 A 
ATOM     92  C   UNL A   1      40.964  32.792  35.155  1.00  0.00     0.134 A 
ATOM     93  C   UNL A   1      40.710  30.754  33.929  1.00  0.00     0.134 A 
ATOM     94  F   UNL A   1      41.238  34.103  35.244  1.00  0.00    -0.206 F 
ATOM     95  C   UNL A   1      40.480  32.160  36.306  1.00  0.00     0.040 A 
ATOM     96  C   UNL A   1      40.194  30.123  35.060  1.00  0.00     0.040 A 
ATOM     97  F   UNL A   1      40.785  30.041  32.793  1.00  0.00    -0.206 F 
ATOM     98  C   UNL A   1      40.086  30.824  36.258  1.00  0.00     0.006 A 
ENDBRANCH  74  91
ENDBRANCH  48  49
ENDBRANCH  41  43
ENDBRANCH  40  41
ENDBRANCH  39  40
ENDBRANCH  38  39
ENDBRANCH  37  38
ENDBRANCH  36  37
ENDBRANCH   1  36
TORSDOF 22
ENDMDL
