MODEL 1
REMARK VINA RESULT:     -13.0      0.000      0.000
REMARK SMILES Cc1cccc(OC2(C(=O)OCCOCCOCCOC(=O)c3ccc(-c4c5nc(c(-c6c(F)cccc6F)c6ccc([nH]6)c(-c6c(F)cccc6F)c6nc(c(-c7c(F)cccc7F)c7ccc4[nH]7)C=C6)C=C5)cc3)CCN(C(=O)c3cnc[nH]c3=O)CC2)c1
REMARK SMILES IDX 15 1 14 2 13 3 12 4 11 5 9 6 10 7 8 8 77 9 90 10 78 11 89 12
REMARK SMILES IDX 79 13 80 14 81 15 7 16 6 17 1 18 2 19 3 20 91 21 4 22 5 23
REMARK SMILES IDX 82 24 83 25 87 26 84 27 86 28 88 29 85 30 16 32 17 33 18 34
REMARK SMILES IDX 19 35 20 36 21 37 22 38 23 39 24 40 76 41 25 42 75 43 26 44
REMARK SMILES IDX 27 45 28 46 69 47 29 48 74 49 68 50 70 51 30 52 73 53 67 54
REMARK SMILES IDX 66 55 31 57 57 58 40 59 56 60 41 61 44 62 55 63 71 64 42 65
REMARK SMILES IDX 43 66 54 68 72 69 45 70 32 71 33 72 38 73 34 74 35 75 37 76
REMARK SMILES IDX 39 77 36 78 58 79 59 80 64 81 60 82 61 83 63 84 65 85 62 86
REMARK SMILES IDX 46 87 47 88 52 89 48 90 49 91 51 92 53 93 50 94
REMARK H PARENT 86 31 70 56 44 67
REMARK Flexibility Score: inf
ROOT
ATOM      1  C   UNL A   1      39.889  20.027  25.958  1.00  0.00     0.188 C 
ENDROOT
BRANCH   1   2
ATOM      2  O   UNL A   1      39.315  21.346  26.073  1.00  0.00    -0.376 OA
BRANCH   2   3
ATOM      3  C   UNL A   1      38.167  21.828  25.346  1.00  0.00     0.202 C 
BRANCH   3   4
ATOM      4  C   UNL A   1      37.323  23.244  25.737  1.00  0.00     0.261 C 
BRANCH   4   5
ATOM      5  O   UNL A   1      35.693  23.437  26.397  1.00  0.00    -0.460 OA
BRANCH   5   6
ATOM      6  C   UNL A   1      34.424  22.747  26.589  1.00  0.00     0.350 C 
ATOM      7  O   UNL A   1      33.973  22.278  27.640  1.00  0.00    -0.247 OA
BRANCH   6   8
ATOM      8  C   UNL A   1      33.381  22.616  25.460  1.00  0.00     0.209 C 
ATOM      9  C   UNL A   1      32.025  22.411  26.104  1.00  0.00     0.082 C 
ATOM     10  C   UNL A   1      33.583  23.902  24.580  1.00  0.00     0.082 C 
ATOM     11  C   UNL A   1      30.890  23.072  25.357  1.00  0.00     0.124 C 
ATOM     12  C   UNL A   1      32.334  24.297  23.832  1.00  0.00     0.124 C 
ATOM     13  N   UNL A   1      31.280  24.359  24.828  1.00  0.00    -0.338 N 
ATOM     14  C   UNL A   1      31.055  25.520  25.556  1.00  0.00     0.261 C 
ATOM     15  O   UNL A   1      30.915  25.544  26.774  1.00  0.00    -0.269 OA
BRANCH   8  16
ATOM     16  O   UNL A   1      33.964  21.523  24.701  1.00  0.00    -0.475 OA
BRANCH  16  17
ATOM     17  C   UNL A   1      33.427  20.295  24.461  1.00  0.00     0.121 A 
ATOM     18  C   UNL A   1      34.715  16.738  24.588  1.00  0.00     0.044 C 
ATOM     19  C   UNL A   1      33.842  17.913  24.264  1.00  0.00    -0.047 A 
ATOM     20  C   UNL A   1      32.879  17.817  23.253  1.00  0.00     0.003 A 
ATOM     21  C   UNL A   1      34.085  19.149  24.883  1.00  0.00     0.050 A 
ATOM     22  C   UNL A   1      32.174  18.951  22.858  1.00  0.00     0.004 A 
ATOM     23  C   UNL A   1      32.465  20.191  23.445  1.00  0.00     0.046 A 
ENDBRANCH  16  17
ENDBRANCH   8  16
BRANCH  14  24
ATOM     24  C   UNL A   1      30.974  26.745  24.737  1.00  0.00     0.123 A 
ATOM     25  C   UNL A   1      31.979  27.632  24.700  1.00  0.00     0.132 A 
ATOM     26  C   UNL A   1      29.798  27.021  23.892  1.00  0.00     0.263 A 
ATOM     27  N   UNL A   1      32.001  28.761  23.912  1.00  0.00    -0.246 NA
ATOM     28  N   UNL A   1      29.888  28.136  23.116  1.00  0.00    -0.312 N 
ATOM     29  O   UNL A   1      28.794  26.310  23.873  1.00  0.00    -0.269 OA
ATOM     30  C   UNL A   1      30.972  28.960  23.160  1.00  0.00     0.199 A 
ATOM     31  H   UNL A   1      29.147  28.354  22.505  1.00  0.00     0.171 HD
ENDBRANCH  14  24
ENDBRANCH   6   8
ENDBRANCH   5   6
ENDBRANCH   4   5
ENDBRANCH   3   4
ENDBRANCH   2   3
ENDBRANCH   1   2
BRANCH   1  32
ATOM     32  C   UNL A   1      41.305  19.619  26.395  1.00  0.00     0.188 C 
BRANCH  32  33
ATOM     33  O   UNL A   1      42.180  19.447  25.300  1.00  0.00    -0.376 OA
BRANCH  33  34
ATOM     34  C   UNL A   1      43.557  19.324  25.633  1.00  0.00     0.202 C 
BRANCH  34  35
ATOM     35  C   UNL A   1      44.379  20.616  25.426  1.00  0.00     0.261 C 
BRANCH  35  36
ATOM     36  O   UNL A   1      43.644  21.810  25.786  1.00  0.00    -0.460 OA
BRANCH  36  37
ATOM     37  C   UNL A   1      43.490  22.766  24.804  1.00  0.00     0.338 C 
ATOM     38  O   UNL A   1      43.925  22.658  23.672  1.00  0.00    -0.246 OA
BRANCH  37  39
ATOM     39  C   UNL A   1      42.756  23.955  25.338  1.00  0.00     0.060 A 
ATOM     40  C   UNL A   1      42.914  25.317  25.034  1.00  0.00     0.016 A 
ATOM     41  C   UNL A   1      41.922  23.696  26.361  1.00  0.00     0.016 A 
ATOM     42  C   UNL A   1      42.347  26.392  25.879  1.00  0.00     0.010 A 
ATOM     43  C   UNL A   1      41.546  24.750  27.188  1.00  0.00     0.010 A 
ATOM     44  C   UNL A   1      41.655  26.166  27.082  1.00  0.00    -0.014 A 
BRANCH  44  45
ATOM     45  C   UNL A   1      41.261  27.329  28.263  1.00  0.00     0.031 A 
ATOM     46  C   UNL A   1      40.028  28.561  28.498  1.00  0.00     0.074 A 
ATOM     47  C   UNL A   1      42.098  27.329  29.328  1.00  0.00     0.049 A 
ATOM     48  N   UNL A   1      40.220  29.712  29.128  1.00  0.00    -0.248 NA
ATOM     49  C   UNL A   1      38.581  28.633  27.995  1.00  0.00     0.031 C 
ATOM     50  C   UNL A   1      41.886  27.966  30.625  1.00  0.00     0.029 A 
ATOM     51  N   UNL A   1      43.391  26.798  29.426  1.00  0.00    -0.354 N 
ATOM     52  C   UNL A   1      39.010  30.440  29.169  1.00  0.00     0.074 A 
ATOM     53  C   UNL A   1      38.089  29.803  28.324  1.00  0.00     0.031 C 
ATOM     54  C   UNL A   1      43.058  28.044  31.268  1.00  0.00     0.029 A 
ATOM     55  C   UNL A   1      44.083  27.601  30.345  1.00  0.00     0.049 A 
ATOM     56  H   UNL A   1      43.745  26.014  28.945  1.00  0.00     0.167 HD
ATOM     57  C   UNL A   1      38.693  31.444  30.031  1.00  0.00     0.037 A 
ATOM     58  C   UNL A   1      45.213  28.278  30.006  1.00  0.00     0.037 A 
ATOM     59  C   UNL A   1      39.789  31.684  30.911  1.00  0.00     0.049 A 
ATOM     60  C   UNL A   1      45.138  29.752  30.308  1.00  0.00     0.074 A 
ATOM     61  C   UNL A   1      40.134  31.129  32.126  1.00  0.00     0.029 A 
ATOM     62  N   UNL A   1      40.921  32.264  30.381  1.00  0.00    -0.354 N 
ATOM     63  N   UNL A   1      44.028  30.383  30.567  1.00  0.00    -0.248 NA
ATOM     64  C   UNL A   1      46.295  30.641  30.324  1.00  0.00     0.031 C 
ATOM     65  C   UNL A   1      41.520  31.339  32.308  1.00  0.00     0.029 A 
ATOM     66  C   UNL A   1      41.989  32.060  31.224  1.00  0.00     0.049 A 
ATOM     67  H   UNL A   1      40.961  32.750  29.527  1.00  0.00     0.167 HD
ATOM     68  C   UNL A   1      44.282  31.721  30.708  1.00  0.00     0.074 A 
ATOM     69  C   UNL A   1      45.719  31.828  30.583  1.00  0.00     0.031 C 
ATOM     70  C   UNL A   1      43.275  32.625  30.875  1.00  0.00     0.037 A 
BRANCH  57  71
ATOM     71  C   UNL A   1      37.244  31.859  30.248  1.00  0.00     0.057 A 
ATOM     72  C   UNL A   1      36.688  32.929  29.528  1.00  0.00     0.134 A 
ATOM     73  C   UNL A   1      36.405  31.337  31.257  1.00  0.00     0.134 A 
ATOM     74  F   UNL A   1      37.323  33.467  28.479  1.00  0.00    -0.206 F 
ATOM     75  C   UNL A   1      35.465  33.523  29.873  1.00  0.00     0.040 A 
ATOM     76  C   UNL A   1      35.212  31.963  31.657  1.00  0.00     0.040 A 
ATOM     77  F   UNL A   1      36.748  30.226  31.930  1.00  0.00    -0.206 F 
ATOM     78  C   UNL A   1      34.745  33.076  30.972  1.00  0.00     0.006 A 
ENDBRANCH  57  71
BRANCH  58  79
ATOM     79  C   UNL A   1      45.984  27.640  28.904  1.00  0.00     0.057 A 
ATOM     80  C   UNL A   1      45.777  28.094  27.586  1.00  0.00     0.134 A 
ATOM     81  C   UNL A   1      47.145  26.896  29.137  1.00  0.00     0.134 A 
ATOM     82  F   UNL A   1      44.689  28.823  27.289  1.00  0.00    -0.206 F 
ATOM     83  C   UNL A   1      46.726  27.911  26.575  1.00  0.00     0.040 A 
ATOM     84  C   UNL A   1      48.095  26.690  28.125  1.00  0.00     0.040 A 
ATOM     85  F   UNL A   1      47.446  26.470  30.372  1.00  0.00    -0.206 F 
ATOM     86  C   UNL A   1      47.905  27.229  26.852  1.00  0.00     0.006 A 
ENDBRANCH  58  79
BRANCH  70  87
ATOM     87  C   UNL A   1      43.366  34.123  30.727  1.00  0.00     0.057 A 
ATOM     88  C   UNL A   1      43.560  35.003  31.799  1.00  0.00     0.134 A 
ATOM     89  C   UNL A   1      43.472  34.708  29.440  1.00  0.00     0.134 A 
ATOM     90  F   UNL A   1      43.586  34.573  33.066  1.00  0.00    -0.206 F 
ATOM     91  C   UNL A   1      43.806  36.368  31.608  1.00  0.00     0.040 A 
ATOM     92  C   UNL A   1      43.783  36.053  29.240  1.00  0.00     0.040 A 
ATOM     93  F   UNL A   1      43.315  33.987  28.320  1.00  0.00    -0.206 F 
ATOM     94  C   UNL A   1      43.940  36.894  30.328  1.00  0.00     0.006 A 
ENDBRANCH  70  87
ENDBRANCH  44  45
ENDBRANCH  37  39
ENDBRANCH  36  37
ENDBRANCH  35  36
ENDBRANCH  34  35
ENDBRANCH  33  34
ENDBRANCH  32  33
ENDBRANCH   1  32
TORSDOF 20
ENDMDL
MODEL 2
REMARK VINA RESULT:     -12.9      2.321      4.772
REMARK SMILES Cc1cccc(OC2(C(=O)OCCOCCOCCOC(=O)c3ccc(-c4c5nc(c(-c6c(F)cccc6F)c6ccc([nH]6)c(-c6c(F)cccc6F)c6nc(c(-c7c(F)cccc7F)c7ccc4[nH]7)C=C6)C=C5)cc3)CCN(C(=O)c3cnc[nH]c3=O)CC2)c1
REMARK SMILES IDX 15 1 14 2 13 3 12 4 11 5 9 6 10 7 8 8 77 9 90 10 78 11 89 12
REMARK SMILES IDX 79 13 80 14 81 15 7 16 6 17 1 18 2 19 3 20 91 21 4 22 5 23
REMARK SMILES IDX 82 24 83 25 87 26 84 27 86 28 88 29 85 30 16 32 17 33 18 34
REMARK SMILES IDX 19 35 20 36 21 37 22 38 23 39 24 40 76 41 25 42 75 43 26 44
REMARK SMILES IDX 27 45 28 46 69 47 29 48 74 49 68 50 70 51 30 52 73 53 67 54
REMARK SMILES IDX 66 55 31 57 57 58 40 59 56 60 41 61 44 62 55 63 71 64 42 65
REMARK SMILES IDX 43 66 54 68 72 69 45 70 32 71 33 72 38 73 34 74 35 75 37 76
REMARK SMILES IDX 39 77 36 78 58 79 59 80 64 81 60 82 61 83 63 84 65 85 62 86
REMARK SMILES IDX 46 87 47 88 52 89 48 90 49 91 51 92 53 93 50 94
REMARK H PARENT 86 31 70 56 44 67
REMARK Flexibility Score: inf
ROOT
ATOM      1  C   UNL A   1      40.277  19.658  25.765  1.00  0.00     0.188 C 
ENDROOT
BRANCH   1   2
ATOM      2  O   UNL A   1      39.305  20.666  26.114  1.00  0.00    -0.376 OA
BRANCH   2   3
ATOM      3  C   UNL A   1      38.331  21.238  25.220  1.00  0.00     0.202 C 
BRANCH   3   4
ATOM      4  C   UNL A   1      37.735  22.818  25.351  1.00  0.00     0.261 C 
BRANCH   4   5
ATOM      5  O   UNL A   1      36.411  23.599  24.474  1.00  0.00    -0.460 OA
BRANCH   5   6
ATOM      6  C   UNL A   1      35.058  23.387  23.977  1.00  0.00     0.350 C 
ATOM      7  O   UNL A   1      34.672  23.430  22.804  1.00  0.00    -0.247 OA
BRANCH   6   8
ATOM      8  C   UNL A   1      33.904  22.944  24.900  1.00  0.00     0.209 C 
ATOM      9  C   UNL A   1      32.667  22.770  24.042  1.00  0.00     0.082 C 
ATOM     10  C   UNL A   1      34.454  21.678  25.649  1.00  0.00     0.082 C 
ATOM     11  C   UNL A   1      31.774  21.634  24.483  1.00  0.00     0.124 C 
ATOM     12  C   UNL A   1      33.357  20.746  26.100  1.00  0.00     0.124 C 
ATOM     13  N   UNL A   1      32.545  20.494  24.925  1.00  0.00    -0.338 N 
ATOM     14  C   UNL A   1      32.869  19.475  24.040  1.00  0.00     0.261 C 
ATOM     15  O   UNL A   1      32.910  19.616  22.823  1.00  0.00    -0.269 OA
BRANCH   8  16
ATOM     16  O   UNL A   1      33.929  24.022  25.874  1.00  0.00    -0.475 OA
BRANCH  16  17
ATOM     17  C   UNL A   1      33.293  25.224  25.805  1.00  0.00     0.121 A 
ATOM     18  C   UNL A   1      34.293  28.823  26.419  1.00  0.00     0.044 C 
ATOM     19  C   UNL A   1      33.434  27.610  26.218  1.00  0.00    -0.047 A 
ATOM     20  C   UNL A   1      32.079  27.642  26.565  1.00  0.00     0.003 A 
ATOM     21  C   UNL A   1      34.023  26.403  25.809  1.00  0.00     0.050 A 
ATOM     22  C   UNL A   1      31.322  26.474  26.514  1.00  0.00     0.004 A 
ATOM     23  C   UNL A   1      31.934  25.264  26.157  1.00  0.00     0.046 A 
ENDBRANCH  16  17
ENDBRANCH   8  16
BRANCH  14  24
ATOM     24  C   UNL A   1      33.145  18.175  24.683  1.00  0.00     0.123 A 
ATOM     25  C   UNL A   1      32.156  17.395  25.141  1.00  0.00     0.132 A 
ATOM     26  C   UNL A   1      34.522  17.664  24.809  1.00  0.00     0.263 A 
ATOM     27  N   UNL A   1      32.333  16.145  25.691  1.00  0.00    -0.246 NA
ATOM     28  N   UNL A   1      34.633  16.414  25.336  1.00  0.00    -0.312 N 
ATOM     29  O   UNL A   1      35.517  18.304  24.470  1.00  0.00    -0.269 OA
ATOM     30  C   UNL A   1      33.545  15.710  25.760  1.00  0.00     0.199 A 
ATOM     31  H   UNL A   1      35.525  16.005  25.413  1.00  0.00     0.171 HD
ENDBRANCH  14  24
ENDBRANCH   6   8
ENDBRANCH   5   6
ENDBRANCH   4   5
ENDBRANCH   3   4
ENDBRANCH   2   3
ENDBRANCH   1   2
BRANCH   1  32
ATOM     32  C   UNL A   1      41.753  19.641  26.194  1.00  0.00     0.188 C 
BRANCH  32  33
ATOM     33  O   UNL A   1      42.438  18.494  25.732  1.00  0.00    -0.376 OA
BRANCH  33  34
ATOM     34  C   UNL A   1      43.856  18.568  25.790  1.00  0.00     0.202 C 
BRANCH  34  35
ATOM     35  C   UNL A   1      44.531  18.919  24.445  1.00  0.00     0.261 C 
BRANCH  35  36
ATOM     36  O   UNL A   1      44.391  20.318  24.099  1.00  0.00    -0.460 OA
BRANCH  36  37
ATOM     37  C   UNL A   1      45.232  21.204  24.739  1.00  0.00     0.338 C 
ATOM     38  O   UNL A   1      46.414  20.998  24.942  1.00  0.00    -0.246 OA
BRANCH  37  39
ATOM     39  C   UNL A   1      44.479  22.421  25.176  1.00  0.00     0.060 A 
ATOM     40  C   UNL A   1      44.479  23.717  24.636  1.00  0.00     0.016 A 
ATOM     41  C   UNL A   1      43.815  22.291  26.339  1.00  0.00     0.016 A 
ATOM     42  C   UNL A   1      43.942  24.885  25.370  1.00  0.00     0.010 A 
ATOM     43  C   UNL A   1      43.467  23.447  27.031  1.00  0.00     0.010 A 
ATOM     44  C   UNL A   1      43.440  24.828  26.683  1.00  0.00    -0.014 A 
BRANCH  44  45
ATOM     45  C   UNL A   1      43.113  26.150  27.705  1.00  0.00     0.031 A 
ATOM     46  C   UNL A   1      41.712  27.111  28.162  1.00  0.00     0.074 A 
ATOM     47  C   UNL A   1      44.201  26.608  28.369  1.00  0.00     0.049 A 
ATOM     48  N   UNL A   1      41.747  28.401  28.467  1.00  0.00    -0.248 NA
ATOM     49  C   UNL A   1      40.225  26.741  28.223  1.00  0.00     0.031 C 
ATOM     50  C   UNL A   1      44.227  27.505  29.522  1.00  0.00     0.029 A 
ATOM     51  N   UNL A   1      45.557  26.407  28.074  1.00  0.00    -0.354 N 
ATOM     52  C   UNL A   1      40.454  28.842  28.824  1.00  0.00     0.074 A 
ATOM     53  C   UNL A   1      39.543  27.825  28.502  1.00  0.00     0.031 C 
ATOM     54  C   UNL A   1      45.465  27.995  29.664  1.00  0.00     0.029 A 
ATOM     55  C   UNL A   1      46.235  27.551  28.520  1.00  0.00     0.049 A 
ATOM     56  H   UNL A   1      45.955  25.617  27.640  1.00  0.00     0.167 HD
ATOM     57  C   UNL A   1      40.144  29.947  29.554  1.00  0.00     0.037 A 
ATOM     58  C   UNL A   1      46.956  28.338  27.676  1.00  0.00     0.037 A 
ATOM     59  C   UNL A   1      41.339  30.637  29.913  1.00  0.00     0.049 A 
ATOM     60  C   UNL A   1      46.555  29.789  27.725  1.00  0.00     0.074 A 
ATOM     61  C   UNL A   1      42.189  30.507  30.992  1.00  0.00     0.029 A 
ATOM     62  N   UNL A   1      42.032  31.282  28.911  1.00  0.00    -0.354 N 
ATOM     63  N   UNL A   1      45.447  30.217  28.262  1.00  0.00    -0.248 NA
ATOM     64  C   UNL A   1      47.349  30.874  27.159  1.00  0.00     0.031 C 
ATOM     65  C   UNL A   1      43.440  31.046  30.610  1.00  0.00     0.029 A 
ATOM     66  C   UNL A   1      43.319  31.537  29.323  1.00  0.00     0.049 A 
ATOM     67  H   UNL A   1      41.661  31.523  28.032  1.00  0.00     0.167 HD
ATOM     68  C   UNL A   1      45.332  31.566  28.066  1.00  0.00     0.074 A 
ATOM     69  C   UNL A   1      46.563  31.938  27.403  1.00  0.00     0.031 C 
ATOM     70  C   UNL A   1      44.211  32.249  28.432  1.00  0.00     0.037 A 
BRANCH  57  71
ATOM     71  C   UNL A   1      38.778  30.089  30.214  1.00  0.00     0.057 A 
ATOM     72  C   UNL A   1      37.891  31.102  29.818  1.00  0.00     0.134 A 
ATOM     73  C   UNL A   1      38.355  29.351  31.341  1.00  0.00     0.134 A 
ATOM     74  F   UNL A   1      38.107  31.824  28.712  1.00  0.00    -0.206 F 
ATOM     75  C   UNL A   1      36.752  31.448  30.561  1.00  0.00     0.040 A 
ATOM     76  C   UNL A   1      37.255  29.728  32.132  1.00  0.00     0.040 A 
ATOM     77  F   UNL A   1      39.033  28.265  31.748  1.00  0.00    -0.206 F 
ATOM     78  C   UNL A   1      36.457  30.797  31.750  1.00  0.00     0.006 A 
ENDBRANCH  57  71
BRANCH  58  79
ATOM     79  C   UNL A   1      47.498  27.609  26.497  1.00  0.00     0.057 A 
ATOM     80  C   UNL A   1      46.785  27.671  25.282  1.00  0.00     0.134 A 
ATOM     81  C   UNL A   1      48.830  27.191  26.423  1.00  0.00     0.134 A 
ATOM     82  F   UNL A   1      45.504  28.075  25.274  1.00  0.00    -0.206 F 
ATOM     83  C   UNL A   1      47.394  27.432  24.046  1.00  0.00     0.040 A 
ATOM     84  C   UNL A   1      49.445  26.929  25.189  1.00  0.00     0.040 A 
ATOM     85  F   UNL A   1      49.596  27.153  27.523  1.00  0.00    -0.206 F 
ATOM     86  C   UNL A   1      48.739  27.086  23.996  1.00  0.00     0.006 A 
ENDBRANCH  58  79
BRANCH  70  87
ATOM     87  C   UNL A   1      43.813  33.639  28.004  1.00  0.00     0.057 A 
ATOM     88  C   UNL A   1      43.738  34.733  28.875  1.00  0.00     0.134 A 
ATOM     89  C   UNL A   1      43.696  33.956  26.628  1.00  0.00     0.134 A 
ATOM     90  F   UNL A   1      43.929  34.597  30.193  1.00  0.00    -0.206 F 
ATOM     91  C   UNL A   1      43.528  36.039  28.417  1.00  0.00     0.040 A 
ATOM     92  C   UNL A   1      43.555  35.262  26.158  1.00  0.00     0.040 A 
ATOM     93  F   UNL A   1      43.755  33.012  25.677  1.00  0.00    -0.206 F 
ATOM     94  C   UNL A   1      43.458  36.311  27.055  1.00  0.00     0.006 A 
ENDBRANCH  70  87
ENDBRANCH  44  45
ENDBRANCH  37  39
ENDBRANCH  36  37
ENDBRANCH  35  36
ENDBRANCH  34  35
ENDBRANCH  33  34
ENDBRANCH  32  33
ENDBRANCH   1  32
TORSDOF 20
ENDMDL
MODEL 3
REMARK VINA RESULT:     -12.1      2.912      5.581
REMARK SMILES Cc1cccc(OC2(C(=O)OCCOCCOCCOC(=O)c3ccc(-c4c5nc(c(-c6c(F)cccc6F)c6ccc([nH]6)c(-c6c(F)cccc6F)c6nc(c(-c7c(F)cccc7F)c7ccc4[nH]7)C=C6)C=C5)cc3)CCN(C(=O)c3cnc[nH]c3=O)CC2)c1
REMARK SMILES IDX 15 1 14 2 13 3 12 4 11 5 9 6 10 7 8 8 77 9 90 10 78 11 89 12
REMARK SMILES IDX 79 13 80 14 81 15 7 16 6 17 1 18 2 19 3 20 91 21 4 22 5 23
REMARK SMILES IDX 82 24 83 25 87 26 84 27 86 28 88 29 85 30 16 32 17 33 18 34
REMARK SMILES IDX 19 35 20 36 21 37 22 38 23 39 24 40 76 41 25 42 75 43 26 44
REMARK SMILES IDX 27 45 28 46 69 47 29 48 74 49 68 50 70 51 30 52 73 53 67 54
REMARK SMILES IDX 66 55 31 57 57 58 40 59 56 60 41 61 44 62 55 63 71 64 42 65
REMARK SMILES IDX 43 66 54 68 72 69 45 70 32 71 33 72 38 73 34 74 35 75 37 76
REMARK SMILES IDX 39 77 36 78 58 79 59 80 64 81 60 82 61 83 63 84 65 85 62 86
REMARK SMILES IDX 46 87 47 88 52 89 48 90 49 91 51 92 53 93 50 94
REMARK H PARENT 86 31 70 56 44 67
REMARK Flexibility Score: inf
ROOT
ATOM      1  C   UNL A   1      39.319  21.763  26.101  1.00  0.00     0.188 C 
ENDROOT
BRANCH   1   2
ATOM      2  O   UNL A   1      38.065  22.438  26.337  1.00  0.00    -0.376 OA
BRANCH   2   3
ATOM      3  C   UNL A   1      37.642  23.665  25.710  1.00  0.00     0.202 C 
BRANCH   3   4
ATOM      4  C   UNL A   1      36.035  24.019  25.309  1.00  0.00     0.261 C 
BRANCH   4   5
ATOM      5  O   UNL A   1      35.130  25.527  25.509  1.00  0.00    -0.460 OA
BRANCH   5   6
ATOM      6  C   UNL A   1      33.783  26.078  25.579  1.00  0.00     0.350 C 
ATOM      7  O   UNL A   1      33.430  27.141  26.100  1.00  0.00    -0.247 OA
BRANCH   6   8
ATOM      8  C   UNL A   1      32.587  25.413  24.866  1.00  0.00     0.209 C 
ATOM      9  C   UNL A   1      33.001  25.126  23.437  1.00  0.00     0.082 C 
ATOM     10  C   UNL A   1      32.210  24.188  25.775  1.00  0.00     0.082 C 
ATOM     11  C   UNL A   1      32.422  23.848  22.879  1.00  0.00     0.124 C 
ATOM     12  C   UNL A   1      31.531  23.081  25.008  1.00  0.00     0.124 C 
ATOM     13  N   UNL A   1      32.392  22.800  23.875  1.00  0.00    -0.338 N 
ATOM     14  C   UNL A   1      33.444  21.901  23.985  1.00  0.00     0.261 C 
ATOM     15  O   UNL A   1      34.581  22.131  23.591  1.00  0.00    -0.269 OA
BRANCH   8  16
ATOM     16  O   UNL A   1      31.560  26.413  25.105  1.00  0.00    -0.475 OA
BRANCH  16  17
ATOM     17  C   UNL A   1      30.573  26.814  24.259  1.00  0.00     0.121 A 
ATOM     18  C   UNL A   1      29.490  30.128  22.784  1.00  0.00     0.044 C 
ATOM     19  C   UNL A   1      29.448  28.691  23.212  1.00  0.00    -0.047 A 
ATOM     20  C   UNL A   1      28.226  28.013  23.281  1.00  0.00     0.003 A 
ATOM     21  C   UNL A   1      30.619  28.071  23.674  1.00  0.00     0.050 A 
ATOM     22  C   UNL A   1      28.175  26.728  23.818  1.00  0.00     0.004 A 
ATOM     23  C   UNL A   1      29.342  26.141  24.327  1.00  0.00     0.046 A 
ENDBRANCH  16  17
ENDBRANCH   8  16
BRANCH  14  24
ATOM     24  C   UNL A   1      33.080  20.612  24.606  1.00  0.00     0.123 A 
ATOM     25  C   UNL A   1      32.487  19.637  23.901  1.00  0.00     0.132 A 
ATOM     26  C   UNL A   1      33.393  20.329  26.017  1.00  0.00     0.263 A 
ATOM     27  N   UNL A   1      32.179  18.388  24.393  1.00  0.00    -0.246 NA
ATOM     28  N   UNL A   1      33.090  19.071  26.441  1.00  0.00    -0.312 N 
ATOM     29  O   UNL A   1      33.893  21.155  26.781  1.00  0.00    -0.269 OA
ATOM     30  C   UNL A   1      32.493  18.159  25.623  1.00  0.00     0.199 A 
ATOM     31  H   UNL A   1      33.309  18.812  27.366  1.00  0.00     0.171 HD
ENDBRANCH  14  24
ENDBRANCH   6   8
ENDBRANCH   5   6
ENDBRANCH   4   5
ENDBRANCH   3   4
ENDBRANCH   2   3
ENDBRANCH   1   2
BRANCH   1  32
ATOM     32  C   UNL A   1      40.719  22.363  26.310  1.00  0.00     0.188 C 
BRANCH  32  33
ATOM     33  O   UNL A   1      40.965  22.705  27.659  1.00  0.00    -0.376 OA
BRANCH  33  34
ATOM     34  C   UNL A   1      41.944  23.715  27.862  1.00  0.00     0.202 C 
BRANCH  34  35
ATOM     35  C   UNL A   1      42.779  24.054  26.606  1.00  0.00     0.261 C 
BRANCH  35  36
ATOM     36  O   UNL A   1      42.189  25.112  25.813  1.00  0.00    -0.460 OA
BRANCH  36  37
ATOM     37  C   UNL A   1      42.890  26.297  25.738  1.00  0.00     0.338 C 
ATOM     38  O   UNL A   1      43.995  26.408  25.240  1.00  0.00    -0.246 OA
BRANCH  37  39
ATOM     39  C   UNL A   1      42.120  27.405  26.385  1.00  0.00     0.060 A 
ATOM     40  C   UNL A   1      42.584  28.526  27.092  1.00  0.00     0.016 A 
ATOM     41  C   UNL A   1      40.787  27.227  26.418  1.00  0.00     0.016 A 
ATOM     42  C   UNL A   1      41.702  29.350  27.948  1.00  0.00     0.010 A 
ATOM     43  C   UNL A   1      40.049  27.948  27.352  1.00  0.00     0.010 A 
ATOM     44  C   UNL A   1      40.345  29.064  28.185  1.00  0.00    -0.014 A 
BRANCH  44  45
ATOM     45  C   UNL A   1      39.356  29.752  29.390  1.00  0.00     0.031 A 
ATOM     46  C   UNL A   1      38.250  31.113  29.529  1.00  0.00     0.074 A 
ATOM     47  C   UNL A   1      39.402  29.094  30.573  1.00  0.00     0.049 A 
ATOM     48  N   UNL A   1      38.060  31.822  30.633  1.00  0.00    -0.248 NA
ATOM     49  C   UNL A   1      37.383  31.805  28.471  1.00  0.00     0.031 C 
ATOM     50  C   UNL A   1      38.479  29.224  31.698  1.00  0.00     0.029 A 
ATOM     51  N   UNL A   1      40.375  28.201  31.042  1.00  0.00    -0.354 N 
ATOM     52  C   UNL A   1      37.077  32.810  30.401  1.00  0.00     0.074 A 
ATOM     53  C   UNL A   1      36.818  32.852  29.022  1.00  0.00     0.031 C 
ATOM     54  C   UNL A   1      39.046  28.692  32.789  1.00  0.00     0.029 A 
ATOM     55  C   UNL A   1      40.408  28.345  32.437  1.00  0.00     0.049 A 
ATOM     56  H   UNL A   1      40.927  27.591  30.499  1.00  0.00     0.167 HD
ATOM     57  C   UNL A   1      36.335  33.456  31.340  1.00  0.00     0.037 A 
ATOM     58  C   UNL A   1      41.535  28.723  33.098  1.00  0.00     0.037 A 
ATOM     59  C   UNL A   1      36.704  33.000  32.640  1.00  0.00     0.049 A 
ATOM     60  C   UNL A   1      41.330  29.920  33.990  1.00  0.00     0.074 A 
ATOM     61  C   UNL A   1      36.251  31.949  33.411  1.00  0.00     0.029 A 
ATOM     62  N   UNL A   1      37.943  33.365  33.119  1.00  0.00    -0.354 N 
ATOM     63  N   UNL A   1      40.296  30.710  33.917  1.00  0.00    -0.248 NA
ATOM     64  C   UNL A   1      42.274  30.341  35.020  1.00  0.00     0.031 C 
ATOM     65  C   UNL A   1      37.267  31.644  34.346  1.00  0.00     0.029 A 
ATOM     66  C   UNL A   1      38.302  32.543  34.162  1.00  0.00     0.049 A 
ATOM     67  H   UNL A   1      38.491  34.103  32.767  1.00  0.00     0.167 HD
ATOM     68  C   UNL A   1      40.448  31.749  34.795  1.00  0.00     0.074 A 
ATOM     69  C   UNL A   1      41.683  31.455  35.488  1.00  0.00     0.031 C 
ATOM     70  C   UNL A   1      39.559  32.781  34.841  1.00  0.00     0.037 A 
BRANCH  57  71
ATOM     71  C   UNL A   1      35.047  34.176  30.960  1.00  0.00     0.057 A 
ATOM     72  C   UNL A   1      34.228  33.685  29.930  1.00  0.00     0.134 A 
ATOM     73  C   UNL A   1      34.652  35.431  31.472  1.00  0.00     0.134 A 
ATOM     74  F   UNL A   1      34.418  32.467  29.410  1.00  0.00    -0.206 F 
ATOM     75  C   UNL A   1      33.190  34.439  29.361  1.00  0.00     0.040 A 
ATOM     76  C   UNL A   1      33.661  36.224  30.868  1.00  0.00     0.040 A 
ATOM     77  F   UNL A   1      35.259  35.957  32.549  1.00  0.00    -0.206 F 
ATOM     78  C   UNL A   1      32.935  35.733  29.792  1.00  0.00     0.006 A 
ENDBRANCH  57  71
BRANCH  58  79
ATOM     79  C   UNL A   1      42.793  28.350  32.396  1.00  0.00     0.057 A 
ATOM     80  C   UNL A   1      43.369  29.279  31.505  1.00  0.00     0.134 A 
ATOM     81  C   UNL A   1      43.618  27.312  32.840  1.00  0.00     0.134 A 
ATOM     82  F   UNL A   1      42.641  30.309  31.045  1.00  0.00    -0.206 F 
ATOM     83  C   UNL A   1      44.723  29.240  31.158  1.00  0.00     0.040 A 
ATOM     84  C   UNL A   1      44.973  27.252  32.481  1.00  0.00     0.040 A 
ATOM     85  F   UNL A   1      43.167  26.414  33.728  1.00  0.00    -0.206 F 
ATOM     86  C   UNL A   1      45.537  28.238  31.671  1.00  0.00     0.006 A 
ENDBRANCH  58  79
BRANCH  70  87
ATOM     87  C   UNL A   1      39.753  34.119  35.508  1.00  0.00     0.057 A 
ATOM     88  C   UNL A   1      39.253  34.439  36.776  1.00  0.00     0.134 A 
ATOM     89  C   UNL A   1      40.652  35.066  34.958  1.00  0.00     0.134 A 
ATOM     90  F   UNL A   1      38.472  33.593  37.459  1.00  0.00    -0.206 F 
ATOM     91  C   UNL A   1      39.593  35.628  37.434  1.00  0.00     0.040 A 
ATOM     92  C   UNL A   1      41.049  36.220  35.635  1.00  0.00     0.040 A 
ATOM     93  F   UNL A   1      41.216  34.891  33.754  1.00  0.00    -0.206 F 
ATOM     94  C   UNL A   1      40.509  36.512  36.875  1.00  0.00     0.006 A 
ENDBRANCH  70  87
ENDBRANCH  44  45
ENDBRANCH  37  39
ENDBRANCH  36  37
ENDBRANCH  35  36
ENDBRANCH  34  35
ENDBRANCH  33  34
ENDBRANCH  32  33
ENDBRANCH   1  32
TORSDOF 20
ENDMDL
