MODEL 1
REMARK VINA RESULT:     -12.2      0.000      0.000
REMARK SMILES O=C(OCCOCCOCCOC(=O)c1ccc(-c2c3nc(c(-c4c(F)cccc4F)c4ccc([nH]4)c(-c4c(F)cccc4F)c4nc(c(-c5c(F)cccc5F)c5ccc2[nH]5)C=C4)C=C3)cc1)C1=Cc2cc(S(F)(F)(F)(F)F)cc(Br)c2O[C@@H]1C(F)(F)F
REMARK SMILES IDX 8 1 7 2 6 3 5 4 4 5 3 6 2 7 1 8 69 9 70 10 85 11 71 12 84 13
REMARK SMILES IDX 72 14 83 15 73 16 81 17 80 18 82 19 86 20 87 21 88 22 89 23
REMARK SMILES IDX 74 24 75 25 76 26 77 27 78 28 79 29 9 30 10 31 11 32 12 33
REMARK SMILES IDX 13 34 14 35 15 36 16 37 68 38 17 39 67 40 18 41 19 42 20 43
REMARK SMILES IDX 61 44 21 45 66 46 60 47 62 48 22 49 65 50 59 51 58 52 23 54
REMARK SMILES IDX 49 55 32 56 48 57 33 58 36 59 47 60 63 61 34 62 35 63 46 65
REMARK SMILES IDX 64 66 37 67 24 68 25 69 30 70 26 71 27 72 29 73 31 74 28 75
REMARK SMILES IDX 50 76 51 77 56 78 52 79 53 80 55 81 57 82 54 83 38 84 39 85
REMARK SMILES IDX 44 86 40 87 41 88 43 89 45 90 42 91
REMARK H PARENT 62 53 36 64
REMARK Flexibility Score: inf
ROOT
ATOM      1  C   UNL A   1      33.025  30.043  27.013  1.00  0.00     0.188 C 
ENDROOT
BRANCH   1   2
ATOM      2  C   UNL A   1      33.644  29.264  25.865  1.00  0.00     0.188 C 
BRANCH   2   3
ATOM      3  O   UNL A   1      32.909  28.068  25.655  1.00  0.00    -0.376 OA
BRANCH   3   4
ATOM      4  C   UNL A   1      33.807  26.976  25.531  1.00  0.00     0.202 C 
BRANCH   4   5
ATOM      5  C   UNL A   1      33.655  26.348  24.154  1.00  0.00     0.261 C 
BRANCH   5   6
ATOM      6  O   UNL A   1      34.050  24.985  24.210  1.00  0.00    -0.460 OA
BRANCH   6   7
ATOM      7  C   UNL A   1      33.171  23.971  23.746  1.00  0.00     0.338 C 
ATOM      8  O   UNL A   1      33.438  23.340  22.676  1.00  0.00    -0.246 OA
BRANCH   7   9
ATOM      9  C   UNL A   1      31.911  23.642  24.529  1.00  0.00     0.087 C 
ATOM     10  C   UNL A   1      31.761  22.411  25.089  1.00  0.00     0.027 C 
ATOM     11  C   UNL A   1      30.818  24.686  24.686  1.00  0.00     0.316 C 
ATOM     12  C   UNL A   1      32.854  21.366  24.932  1.00  0.00     0.020 A 
ATOM     13  O   UNL A   1      34.312  23.182  25.403  1.00  0.00    -0.474 OA
ATOM     14  C   UNL A   1      32.611  20.069  24.512  1.00  0.00     0.036 A 
ATOM     15  C   UNL A   1      34.090  21.806  25.131  1.00  0.00     0.142 A 
ATOM     16  C   UNL A   1      33.737  19.216  24.609  1.00  0.00     0.109 A 
ATOM     17  C   UNL A   1      35.157  20.943  25.075  1.00  0.00     0.062 A 
ATOM     18  C   UNL A   1      34.984  19.632  24.726  1.00  0.00     0.044 A 
ATOM     19  Br  UNL A   1      36.954  21.598  25.504  1.00  0.00    -0.047 Br
BRANCH  11  20
ATOM     20  C   UNL A   1      30.605  24.979  26.163  1.00  0.00     0.430 C 
ATOM     21  F   UNL A   1      30.071  26.189  26.303  1.00  0.00    -0.167 F 
ATOM     22  F   UNL A   1      29.784  24.069  26.681  1.00  0.00    -0.167 F 
ATOM     23  F   UNL A   1      31.774  24.934  26.797  1.00  0.00    -0.167 F 
ENDBRANCH  11  20
BRANCH  16  24
ATOM     24  S   UNL A   1      33.446  17.430  24.568  1.00  0.00     0.310 S 
ATOM     25  F   UNL A   1      31.954  17.615  24.060  1.00  0.00    -0.094 F 
ATOM     26  F   UNL A   1      32.884  17.513  26.037  1.00  0.00    -0.094 F 
ATOM     27  F   UNL A   1      33.202  15.894  24.531  1.00  0.00    -0.094 F 
ATOM     28  F   UNL A   1      33.879  17.388  23.049  1.00  0.00    -0.094 F 
ATOM     29  F   UNL A   1      33.591  19.003  24.550  1.00  0.00    -0.094 F 
ENDBRANCH  16  24
ENDBRANCH   7   9
ENDBRANCH   6   7
ENDBRANCH   5   6
ENDBRANCH   4   5
ENDBRANCH   3   4
ENDBRANCH   2   3
ENDBRANCH   1   2
BRANCH   1  30
ATOM     30  O   UNL A   1      31.672  30.346  26.705  1.00  0.00    -0.376 OA
BRANCH  30  31
ATOM     31  C   UNL A   1      31.529  31.747  26.527  1.00  0.00     0.202 C 
BRANCH  31  32
ATOM     32  C   UNL A   1      32.603  32.470  27.323  1.00  0.00     0.261 C 
BRANCH  32  33
ATOM     33  O   UNL A   1      32.184  33.802  27.584  1.00  0.00    -0.460 OA
BRANCH  33  34
ATOM     34  C   UNL A   1      32.914  34.611  28.494  1.00  0.00     0.338 C 
ATOM     35  O   UNL A   1      32.503  35.780  28.776  1.00  0.00    -0.246 OA
BRANCH  34  36
ATOM     36  C   UNL A   1      34.188  34.077  29.130  1.00  0.00     0.060 A 
ATOM     37  C   UNL A   1      35.434  34.505  28.703  1.00  0.00     0.016 A 
ATOM     38  C   UNL A   1      34.061  33.074  29.991  1.00  0.00     0.016 A 
ATOM     39  C   UNL A   1      36.486  33.614  29.022  1.00  0.00     0.010 A 
ATOM     40  C   UNL A   1      35.155  32.330  30.363  1.00  0.00     0.010 A 
ATOM     41  C   UNL A   1      36.409  32.659  29.932  1.00  0.00    -0.014 A 
BRANCH  41  42
ATOM     42  C   UNL A   1      37.650  31.966  30.471  1.00  0.00     0.031 A 
ATOM     43  C   UNL A   1      37.961  32.281  31.795  1.00  0.00     0.074 A 
ATOM     44  C   UNL A   1      38.295  30.985  29.736  1.00  0.00     0.049 A 
ATOM     45  N   UNL A   1      38.873  31.700  32.576  1.00  0.00    -0.248 NA
ATOM     46  C   UNL A   1      37.301  33.344  32.566  1.00  0.00     0.031 C 
ATOM     47  C   UNL A   1      37.979  30.656  28.403  1.00  0.00     0.029 A 
ATOM     48  N   UNL A   1      39.328  30.169  30.139  1.00  0.00    -0.354 N 
ATOM     49  C   UNL A   1      38.868  32.262  33.787  1.00  0.00     0.074 A 
ATOM     50  C   UNL A   1      37.861  33.331  33.795  1.00  0.00     0.031 C 
ATOM     51  C   UNL A   1      38.820  29.665  28.004  1.00  0.00     0.029 A 
ATOM     52  C   UNL A   1      39.671  29.356  29.081  1.00  0.00     0.049 A 
ATOM     53  H   UNL A   1      39.748  30.167  31.030  1.00  0.00     0.167 HD
ATOM     54  C   UNL A   1      39.662  31.922  34.883  1.00  0.00     0.037 A 
ATOM     55  C   UNL A   1      40.670  28.396  29.039  1.00  0.00     0.037 A 
ATOM     56  C   UNL A   1      40.630  30.932  34.853  1.00  0.00     0.049 A 
ATOM     57  C   UNL A   1      41.504  28.097  30.119  1.00  0.00     0.074 A 
ATOM     58  C   UNL A   1      41.435  30.572  35.953  1.00  0.00     0.029 A 
ATOM     59  N   UNL A   1      40.991  30.136  33.789  1.00  0.00    -0.354 N 
ATOM     60  N   UNL A   1      41.472  28.632  31.340  1.00  0.00    -0.248 NA
ATOM     61  C   UNL A   1      42.586  27.105  30.075  1.00  0.00     0.031 C 
ATOM     62  C   UNL A   1      42.274  29.580  35.554  1.00  0.00     0.029 A 
ATOM     63  C   UNL A   1      42.009  29.305  34.199  1.00  0.00     0.049 A 
ATOM     64  H   UNL A   1      40.590  30.158  32.890  1.00  0.00     0.167 HD
ATOM     65  C   UNL A   1      42.412  28.078  32.109  1.00  0.00     0.074 A 
ATOM     66  C   UNL A   1      43.148  27.094  31.304  1.00  0.00     0.031 C 
ATOM     67  C   UNL A   1      42.684  28.352  33.450  1.00  0.00     0.037 A 
BRANCH  54  68
ATOM     68  C   UNL A   1      39.451  32.681  36.184  1.00  0.00     0.057 A 
ATOM     69  C   UNL A   1      38.503  32.267  37.105  1.00  0.00     0.134 A 
ATOM     70  C   UNL A   1      40.193  33.761  36.397  1.00  0.00     0.134 A 
ATOM     71  F   UNL A   1      37.922  31.070  37.060  1.00  0.00    -0.206 F 
ATOM     72  C   UNL A   1      38.207  33.232  38.096  1.00  0.00     0.040 A 
ATOM     73  C   UNL A   1      39.934  34.587  37.465  1.00  0.00     0.040 A 
ATOM     74  F   UNL A   1      41.194  34.047  35.570  1.00  0.00    -0.206 F 
ATOM     75  C   UNL A   1      38.972  34.270  38.382  1.00  0.00     0.006 A 
ENDBRANCH  54  68
BRANCH  55  76
ATOM     76  C   UNL A   1      40.869  27.626  27.744  1.00  0.00     0.057 A 
ATOM     77  C   UNL A   1      40.232  26.403  27.608  1.00  0.00     0.134 A 
ATOM     78  C   UNL A   1      41.628  28.119  26.773  1.00  0.00     0.134 A 
ATOM     79  F   UNL A   1      39.274  25.990  28.432  1.00  0.00    -0.206 F 
ATOM     80  C   UNL A   1      40.692  25.636  26.511  1.00  0.00     0.040 A 
ATOM     81  C   UNL A   1      41.927  27.362  25.664  1.00  0.00     0.040 A 
ATOM     82  F   UNL A   1      42.103  29.357  26.871  1.00  0.00    -0.206 F 
ATOM     83  C   UNL A   1      41.378  26.121  25.493  1.00  0.00     0.006 A 
ENDBRANCH  55  76
BRANCH  67  84
ATOM     84  C   UNL A   1      43.788  27.560  34.131  1.00  0.00     0.057 A 
ATOM     85  C   UNL A   1      45.103  27.996  34.135  1.00  0.00     0.134 A 
ATOM     86  C   UNL A   1      43.456  26.366  34.609  1.00  0.00     0.134 A 
ATOM     87  F   UNL A   1      45.448  29.259  33.907  1.00  0.00    -0.206 F 
ATOM     88  C   UNL A   1      46.045  26.974  34.403  1.00  0.00     0.040 A 
ATOM     89  C   UNL A   1      44.427  25.466  34.980  1.00  0.00     0.040 A 
ATOM     90  F   UNL A   1      42.173  26.038  34.731  1.00  0.00    -0.206 F 
ATOM     91  C   UNL A   1      45.751  25.809  34.953  1.00  0.00     0.006 A 
ENDBRANCH  67  84
ENDBRANCH  41  42
ENDBRANCH  34  36
ENDBRANCH  33  34
ENDBRANCH  32  33
ENDBRANCH  31  32
ENDBRANCH  30  31
ENDBRANCH   1  30
TORSDOF 19
ENDMDL
MODEL 2
REMARK VINA RESULT:     -12.2      3.004      8.553
REMARK SMILES O=C(OCCOCCOCCOC(=O)c1ccc(-c2c3nc(c(-c4c(F)cccc4F)c4ccc([nH]4)c(-c4c(F)cccc4F)c4nc(c(-c5c(F)cccc5F)c5ccc2[nH]5)C=C4)C=C3)cc1)C1=Cc2cc(S(F)(F)(F)(F)F)cc(Br)c2O[C@@H]1C(F)(F)F
REMARK SMILES IDX 8 1 7 2 6 3 5 4 4 5 3 6 2 7 1 8 69 9 70 10 85 11 71 12 84 13
REMARK SMILES IDX 72 14 83 15 73 16 81 17 80 18 82 19 86 20 87 21 88 22 89 23
REMARK SMILES IDX 74 24 75 25 76 26 77 27 78 28 79 29 9 30 10 31 11 32 12 33
REMARK SMILES IDX 13 34 14 35 15 36 16 37 68 38 17 39 67 40 18 41 19 42 20 43
REMARK SMILES IDX 61 44 21 45 66 46 60 47 62 48 22 49 65 50 59 51 58 52 23 54
REMARK SMILES IDX 49 55 32 56 48 57 33 58 36 59 47 60 63 61 34 62 35 63 46 65
REMARK SMILES IDX 64 66 37 67 24 68 25 69 30 70 26 71 27 72 29 73 31 74 28 75
REMARK SMILES IDX 50 76 51 77 56 78 52 79 53 80 55 81 57 82 54 83 38 84 39 85
REMARK SMILES IDX 44 86 40 87 41 88 43 89 45 90 42 91
REMARK H PARENT 62 53 36 64
REMARK Flexibility Score: inf
ROOT
ATOM      1  C   UNL A   1      39.752  20.781  26.015  1.00  0.00     0.188 C 
ENDROOT
BRANCH   1   2
ATOM      2  C   UNL A   1      38.630  21.791  25.840  1.00  0.00     0.188 C 
BRANCH   2   3
ATOM      3  O   UNL A   1      38.956  22.985  26.537  1.00  0.00    -0.376 OA
BRANCH   3   4
ATOM      4  C   UNL A   1      38.141  24.046  26.064  1.00  0.00     0.202 C 
BRANCH   4   5
ATOM      5  C   UNL A   1      36.701  23.570  25.955  1.00  0.00     0.261 C 
BRANCH   5   6
ATOM      6  O   UNL A   1      36.164  23.972  24.703  1.00  0.00    -0.460 OA
BRANCH   6   7
ATOM      7  C   UNL A   1      35.300  23.101  23.988  1.00  0.00     0.338 C 
ATOM      8  O   UNL A   1      35.447  22.949  22.735  1.00  0.00    -0.246 OA
BRANCH   7   9
ATOM      9  C   UNL A   1      34.200  22.351  24.721  1.00  0.00     0.087 C 
ATOM     10  C   UNL A   1      33.164  23.035  25.277  1.00  0.00     0.027 C 
ATOM     11  C   UNL A   1      34.258  20.837  24.835  1.00  0.00     0.316 C 
ATOM     12  C   UNL A   1      33.106  24.550  25.164  1.00  0.00     0.020 A 
ATOM     13  O   UNL A   1      33.752  24.158  22.911  1.00  0.00    -0.474 OA
ATOM     14  C   UNL A   1      32.889  25.386  26.246  1.00  0.00     0.036 A 
ATOM     15  C   UNL A   1      33.377  25.039  23.960  1.00  0.00     0.142 A 
ATOM     16  C   UNL A   1      32.693  26.743  25.892  1.00  0.00     0.109 A 
ATOM     17  C   UNL A   1      33.299  26.389  23.719  1.00  0.00     0.062 A 
ATOM     18  C   UNL A   1      33.030  27.269  24.729  1.00  0.00     0.044 A 
ATOM     19  Br  UNL A   1      33.575  27.063  21.899  1.00  0.00    -0.047 Br
BRANCH  11  20
ATOM     20  C   UNL A   1      33.026  20.232  24.180  1.00  0.00     0.430 C 
ATOM     21  F   UNL A   1      33.220  18.930  23.989  1.00  0.00    -0.167 F 
ATOM     22  F   UNL A   1      31.971  20.412  24.969  1.00  0.00    -0.167 F 
ATOM     23  F   UNL A   1      32.810  20.824  23.009  1.00  0.00    -0.167 F 
ENDBRANCH  11  20
BRANCH  16  24
ATOM     24  S   UNL A   1      31.929  27.832  27.120  1.00  0.00     0.310 S 
ATOM     25  F   UNL A   1      32.134  29.115  26.210  1.00  0.00    -0.094 F 
ATOM     26  F   UNL A   1      33.358  28.114  27.721  1.00  0.00    -0.094 F 
ATOM     27  F   UNL A   1      31.270  28.762  28.176  1.00  0.00    -0.094 F 
ATOM     28  F   UNL A   1      30.526  27.648  26.418  1.00  0.00    -0.094 F 
ATOM     29  F   UNL A   1      32.598  26.975  25.972  1.00  0.00    -0.094 F 
ENDBRANCH  16  24
ENDBRANCH   7   9
ENDBRANCH   6   7
ENDBRANCH   5   6
ENDBRANCH   4   5
ENDBRANCH   3   4
ENDBRANCH   2   3
ENDBRANCH   1   2
BRANCH   1  30
ATOM     30  O   UNL A   1      40.877  21.420  26.600  1.00  0.00    -0.376 OA
BRANCH  30  31
ATOM     31  C   UNL A   1      42.048  20.667  26.318  1.00  0.00     0.202 C 
BRANCH  31  32
ATOM     32  C   UNL A   1      43.109  21.582  25.729  1.00  0.00     0.261 C 
BRANCH  32  33
ATOM     33  O   UNL A   1      42.507  22.801  25.317  1.00  0.00    -0.460 OA
BRANCH  33  34
ATOM     34  C   UNL A   1      43.207  24.027  25.476  1.00  0.00     0.338 C 
ATOM     35  O   UNL A   1      44.048  24.396  24.597  1.00  0.00    -0.246 OA
BRANCH  34  36
ATOM     36  C   UNL A   1      42.948  24.896  26.695  1.00  0.00     0.060 A 
ATOM     37  C   UNL A   1      41.990  24.547  27.632  1.00  0.00     0.016 A 
ATOM     38  C   UNL A   1      43.557  26.076  26.740  1.00  0.00     0.016 A 
ATOM     39  C   UNL A   1      41.531  25.632  28.415  1.00  0.00     0.010 A 
ATOM     40  C   UNL A   1      43.144  27.043  27.624  1.00  0.00     0.010 A 
ATOM     41  C   UNL A   1      42.161  26.787  28.538  1.00  0.00    -0.014 A 
BRANCH  41  42
ATOM     42  C   UNL A   1      41.813  27.776  29.639  1.00  0.00     0.031 A 
ATOM     43  C   UNL A   1      40.712  28.588  29.361  1.00  0.00     0.074 A 
ATOM     44  C   UNL A   1      42.454  27.733  30.865  1.00  0.00     0.049 A 
ATOM     45  N   UNL A   1      40.077  29.411  30.197  1.00  0.00    -0.248 NA
ATOM     46  C   UNL A   1      40.052  28.661  28.050  1.00  0.00     0.031 C 
ATOM     47  C   UNL A   1      43.560  26.909  31.155  1.00  0.00     0.029 A 
ATOM     48  N   UNL A   1      42.155  28.452  32.001  1.00  0.00    -0.354 N 
ATOM     49  C   UNL A   1      39.058  30.005  29.573  1.00  0.00     0.074 A 
ATOM     50  C   UNL A   1      39.031  29.535  28.182  1.00  0.00     0.031 C 
ATOM     51  C   UNL A   1      43.929  27.139  32.443  1.00  0.00     0.029 A 
ATOM     52  C   UNL A   1      43.060  28.107  32.980  1.00  0.00     0.049 A 
ATOM     53  H   UNL A   1      41.420  29.101  32.096  1.00  0.00     0.167 HD
ATOM     54  C   UNL A   1      38.149  30.917  30.112  1.00  0.00     0.037 A 
ATOM     55  C   UNL A   1      43.141  28.600  34.273  1.00  0.00     0.037 A 
ATOM     56  C   UNL A   1      38.204  31.377  31.417  1.00  0.00     0.049 A 
ATOM     57  C   UNL A   1      42.267  29.557  34.793  1.00  0.00     0.074 A 
ATOM     58  C   UNL A   1      37.291  32.292  31.978  1.00  0.00     0.029 A 
ATOM     59  N   UNL A   1      39.124  31.051  32.389  1.00  0.00    -0.354 N 
ATOM     60  N   UNL A   1      41.225  30.121  34.182  1.00  0.00    -0.248 NA
ATOM     61  C   UNL A   1      42.364  30.110  36.151  1.00  0.00     0.031 C 
ATOM     62  C   UNL A   1      37.661  32.521  33.266  1.00  0.00     0.029 A 
ATOM     63  C   UNL A   1      38.812  31.754  33.531  1.00  0.00     0.049 A 
ATOM     64  H   UNL A   1      39.876  30.424  32.284  1.00  0.00     0.167 HD
ATOM     65  C   UNL A   1      40.615  30.975  35.006  1.00  0.00     0.074 A 
ATOM     66  C   UNL A   1      41.343  30.987  36.282  1.00  0.00     0.031 C 
ATOM     67  C   UNL A   1      39.479  31.743  34.746  1.00  0.00     0.037 A 
BRANCH  54  68
ATOM     68  C   UNL A   1      37.036  31.435  29.215  1.00  0.00     0.057 A 
ATOM     69  C   UNL A   1      37.120  32.686  28.625  1.00  0.00     0.134 A 
ATOM     70  C   UNL A   1      35.976  30.657  29.032  1.00  0.00     0.134 A 
ATOM     71  F   UNL A   1      38.250  33.387  28.570  1.00  0.00    -0.206 F 
ATOM     72  C   UNL A   1      35.896  33.150  28.088  1.00  0.00     0.040 A 
ATOM     73  C   UNL A   1      34.865  31.133  28.378  1.00  0.00     0.040 A 
ATOM     74  F   UNL A   1      35.990  29.408  29.485  1.00  0.00    -0.206 F 
ATOM     75  C   UNL A   1      34.857  32.381  27.821  1.00  0.00     0.006 A 
ENDBRANCH  54  68
BRANCH  55  76
ATOM     76  C   UNL A   1      44.244  28.069  35.174  1.00  0.00     0.057 A 
ATOM     77  C   UNL A   1      43.976  26.945  35.939  1.00  0.00     0.134 A 
ATOM     78  C   UNL A   1      45.428  28.666  35.218  1.00  0.00     0.134 A 
ATOM     79  F   UNL A   1      42.911  26.173  35.745  1.00  0.00    -0.206 F 
ATOM     80  C   UNL A   1      44.940  26.694  36.944  1.00  0.00     0.040 A 
ATOM     81  C   UNL A   1      46.375  28.278  36.137  1.00  0.00     0.040 A 
ATOM     82  F   UNL A   1      45.704  29.648  34.364  1.00  0.00    -0.206 F 
ATOM     83  C   UNL A   1      46.154  27.212  36.964  1.00  0.00     0.006 A 
ENDBRANCH  55  76
BRANCH  67  84
ATOM     84  C   UNL A   1      38.940  32.622  35.864  1.00  0.00     0.057 A 
ATOM     85  C   UNL A   1      39.255  33.968  35.949  1.00  0.00     0.134 A 
ATOM     86  C   UNL A   1      38.262  32.010  36.828  1.00  0.00     0.134 A 
ATOM     87  F   UNL A   1      39.702  34.675  34.915  1.00  0.00    -0.206 F 
ATOM     88  C   UNL A   1      39.057  34.523  37.236  1.00  0.00     0.040 A 
ATOM     89  C   UNL A   1      37.985  32.658  38.008  1.00  0.00     0.040 A 
ATOM     90  F   UNL A   1      37.845  30.760  36.650  1.00  0.00    -0.206 F 
ATOM     91  C   UNL A   1      38.320  33.973  38.184  1.00  0.00     0.006 A 
ENDBRANCH  67  84
ENDBRANCH  41  42
ENDBRANCH  34  36
ENDBRANCH  33  34
ENDBRANCH  32  33
ENDBRANCH  31  32
ENDBRANCH  30  31
ENDBRANCH   1  30
TORSDOF 19
ENDMDL
MODEL 3
REMARK VINA RESULT:     -12.0      1.799      5.817
REMARK SMILES O=C(OCCOCCOCCOC(=O)c1ccc(-c2c3nc(c(-c4c(F)cccc4F)c4ccc([nH]4)c(-c4c(F)cccc4F)c4nc(c(-c5c(F)cccc5F)c5ccc2[nH]5)C=C4)C=C3)cc1)C1=Cc2cc(S(F)(F)(F)(F)F)cc(Br)c2O[C@@H]1C(F)(F)F
REMARK SMILES IDX 8 1 7 2 6 3 5 4 4 5 3 6 2 7 1 8 69 9 70 10 85 11 71 12 84 13
REMARK SMILES IDX 72 14 83 15 73 16 81 17 80 18 82 19 86 20 87 21 88 22 89 23
REMARK SMILES IDX 74 24 75 25 76 26 77 27 78 28 79 29 9 30 10 31 11 32 12 33
REMARK SMILES IDX 13 34 14 35 15 36 16 37 68 38 17 39 67 40 18 41 19 42 20 43
REMARK SMILES IDX 61 44 21 45 66 46 60 47 62 48 22 49 65 50 59 51 58 52 23 54
REMARK SMILES IDX 49 55 32 56 48 57 33 58 36 59 47 60 63 61 34 62 35 63 46 65
REMARK SMILES IDX 64 66 37 67 24 68 25 69 30 70 26 71 27 72 29 73 31 74 28 75
REMARK SMILES IDX 50 76 51 77 56 78 52 79 53 80 55 81 57 82 54 83 38 84 39 85
REMARK SMILES IDX 44 86 40 87 41 88 43 89 45 90 42 91
REMARK H PARENT 62 53 36 64
REMARK Flexibility Score: inf
ROOT
ATOM      1  C   UNL A   1      33.150  29.686  26.389  1.00  0.00     0.188 C 
ENDROOT
BRANCH   1   2
ATOM      2  C   UNL A   1      32.921  29.121  24.997  1.00  0.00     0.188 C 
BRANCH   2   3
ATOM      3  O   UNL A   1      32.789  27.710  25.076  1.00  0.00    -0.376 OA
BRANCH   3   4
ATOM      4  C   UNL A   1      33.966  27.096  24.573  1.00  0.00     0.202 C 
BRANCH   4   5
ATOM      5  C   UNL A   1      33.589  26.060  23.525  1.00  0.00     0.261 C 
BRANCH   5   6
ATOM      6  O   UNL A   1      33.842  24.759  24.035  1.00  0.00    -0.460 OA
BRANCH   6   7
ATOM      7  C   UNL A   1      33.016  23.671  23.645  1.00  0.00     0.338 C 
ATOM      8  O   UNL A   1      33.305  22.993  22.610  1.00  0.00    -0.246 OA
BRANCH   7   9
ATOM      9  C   UNL A   1      31.787  23.318  24.467  1.00  0.00     0.087 C 
ATOM     10  C   UNL A   1      31.681  22.087  25.037  1.00  0.00     0.027 C 
ATOM     11  C   UNL A   1      30.677  24.338  24.651  1.00  0.00     0.316 C 
ATOM     12  C   UNL A   1      32.792  21.066  24.851  1.00  0.00     0.020 A 
ATOM     13  O   UNL A   1      34.222  22.915  25.272  1.00  0.00    -0.474 OA
ATOM     14  C   UNL A   1      32.566  19.761  24.445  1.00  0.00     0.036 A 
ATOM     15  C   UNL A   1      34.023  21.534  25.012  1.00  0.00     0.142 A 
ATOM     16  C   UNL A   1      33.712  18.934  24.512  1.00  0.00     0.109 A 
ATOM     17  C   UNL A   1      35.107  20.694  24.928  1.00  0.00     0.062 A 
ATOM     18  C   UNL A   1      34.953  19.378  24.590  1.00  0.00     0.044 A 
ATOM     19  Br  UNL A   1      36.900  21.391  25.302  1.00  0.00    -0.047 Br
BRANCH  11  20
ATOM     20  C   UNL A   1      30.500  24.634  26.132  1.00  0.00     0.430 C 
ATOM     21  F   UNL A   1      29.790  23.661  26.697  1.00  0.00    -0.167 F 
ATOM     22  F   UNL A   1      31.693  24.707  26.716  1.00  0.00    -0.167 F 
ATOM     23  F   UNL A   1      29.862  25.792  26.281  1.00  0.00    -0.167 F 
ENDBRANCH  11  20
BRANCH  16  24
ATOM     24  S   UNL A   1      33.460  17.141  24.488  1.00  0.00     0.310 S 
ATOM     25  F   UNL A   1      34.988  16.853  24.805  1.00  0.00    -0.094 F 
ATOM     26  F   UNL A   1      33.846  17.133  22.960  1.00  0.00    -0.094 F 
ATOM     27  F   UNL A   1      33.238  15.603  24.468  1.00  0.00    -0.094 F 
ATOM     28  F   UNL A   1      33.214  17.149  26.048  1.00  0.00    -0.094 F 
ATOM     29  F   UNL A   1      33.793  18.685  24.549  1.00  0.00    -0.094 F 
ENDBRANCH  16  24
ENDBRANCH   7   9
ENDBRANCH   6   7
ENDBRANCH   5   6
ENDBRANCH   4   5
ENDBRANCH   3   4
ENDBRANCH   2   3
ENDBRANCH   1   2
BRANCH   1  30
ATOM     30  O   UNL A   1      31.908  30.099  26.943  1.00  0.00    -0.376 OA
BRANCH  30  31
ATOM     31  C   UNL A   1      31.709  31.480  26.681  1.00  0.00     0.202 C 
BRANCH  31  32
ATOM     32  C   UNL A   1      32.786  32.289  27.385  1.00  0.00     0.261 C 
BRANCH  32  33
ATOM     33  O   UNL A   1      32.291  33.590  27.670  1.00  0.00    -0.460 OA
BRANCH  33  34
ATOM     34  C   UNL A   1      33.039  34.468  28.497  1.00  0.00     0.338 C 
ATOM     35  O   UNL A   1      32.571  35.611  28.798  1.00  0.00    -0.246 OA
BRANCH  34  36
ATOM     36  C   UNL A   1      34.399  34.040  29.025  1.00  0.00     0.060 A 
ATOM     37  C   UNL A   1      35.540  34.171  28.250  1.00  0.00     0.016 A 
ATOM     38  C   UNL A   1      34.424  33.390  30.182  1.00  0.00     0.016 A 
ATOM     39  C   UNL A   1      36.604  33.327  28.648  1.00  0.00     0.010 A 
ATOM     40  C   UNL A   1      35.545  32.698  30.572  1.00  0.00     0.010 A 
ATOM     41  C   UNL A   1      36.689  32.735  29.826  1.00  0.00    -0.014 A 
BRANCH  41  42
ATOM     42  C   UNL A   1      37.991  32.127  30.323  1.00  0.00     0.031 A 
ATOM     43  C   UNL A   1      38.308  30.892  29.755  1.00  0.00     0.074 A 
ATOM     44  C   UNL A   1      38.843  32.843  31.146  1.00  0.00     0.049 A 
ATOM     45  N   UNL A   1      39.453  30.217  29.865  1.00  0.00    -0.248 NA
ATOM     46  C   UNL A   1      37.392  30.114  28.909  1.00  0.00     0.031 C 
ATOM     47  C   UNL A   1      38.532  34.094  31.715  1.00  0.00     0.029 A 
ATOM     48  N   UNL A   1      40.111  32.496  31.557  1.00  0.00    -0.354 N 
ATOM     49  C   UNL A   1      39.389  29.083  29.165  1.00  0.00     0.074 A 
ATOM     50  C   UNL A   1      38.060  28.998  28.545  1.00  0.00     0.031 C 
ATOM     51  C   UNL A   1      39.593  34.489  32.469  1.00  0.00     0.029 A 
ATOM     52  C   UNL A   1      40.584  33.493  32.381  1.00  0.00     0.049 A 
ATOM     53  H   UNL A   1      40.595  31.676  31.305  1.00  0.00     0.167 HD
ATOM     54  C   UNL A   1      40.387  28.118  29.017  1.00  0.00     0.037 A 
ATOM     55  C   UNL A   1      41.807  33.547  33.032  1.00  0.00     0.037 A 
ATOM     56  C   UNL A   1      41.626  28.195  29.632  1.00  0.00     0.049 A 
ATOM     57  C   UNL A   1      42.783  32.554  32.930  1.00  0.00     0.074 A 
ATOM     58  C   UNL A   1      42.647  27.234  29.488  1.00  0.00     0.029 A 
ATOM     59  N   UNL A   1      42.090  29.179  30.476  1.00  0.00    -0.354 N 
ATOM     60  N   UNL A   1      42.733  31.440  32.199  1.00  0.00    -0.248 NA
ATOM     61  C   UNL A   1      44.069  32.586  33.640  1.00  0.00     0.031 C 
ATOM     62  C   UNL A   1      43.707  27.629  30.241  1.00  0.00     0.029 A 
ATOM     63  C   UNL A   1      43.367  28.842  30.869  1.00  0.00     0.049 A 
ATOM     64  H   UNL A   1      41.595  29.984  30.751  1.00  0.00     0.167 HD
ATOM     65  C   UNL A   1      43.864  30.745  32.342  1.00  0.00     0.074 A 
ATOM     66  C   UNL A   1      44.736  31.468  33.277  1.00  0.00     0.031 C 
ATOM     67  C   UNL A   1      44.204  29.539  31.727  1.00  0.00     0.037 A 
BRANCH  54  68
ATOM     68  C   UNL A   1      40.099  26.918  28.131  1.00  0.00     0.057 A 
ATOM     69  C   UNL A   1      39.444  25.804  28.631  1.00  0.00     0.134 A 
ATOM     70  C   UNL A   1      40.512  26.965  26.869  1.00  0.00     0.134 A 
ATOM     71  F   UNL A   1      38.795  25.805  29.793  1.00  0.00    -0.206 F 
ATOM     72  C   UNL A   1      39.527  24.666  27.794  1.00  0.00     0.040 A 
ATOM     73  C   UNL A   1      40.438  25.852  26.067  1.00  0.00     0.040 A 
ATOM     74  F   UNL A   1      41.001  28.100  26.379  1.00  0.00    -0.206 F 
ATOM     75  C   UNL A   1      39.857  24.699  26.516  1.00  0.00     0.006 A 
ENDBRANCH  54  68
BRANCH  55  76
ATOM     76  C   UNL A   1      42.101  34.757  33.904  1.00  0.00     0.057 A 
ATOM     77  C   UNL A   1      41.777  34.686  35.249  1.00  0.00     0.134 A 
ATOM     78  C   UNL A   1      42.659  35.845  33.386  1.00  0.00     0.134 A 
ATOM     79  F   UNL A   1      41.458  33.548  35.858  1.00  0.00    -0.206 F 
ATOM     80  C   UNL A   1      41.819  35.934  35.914  1.00  0.00     0.040 A 
ATOM     81  C   UNL A   1      42.792  36.989  34.136  1.00  0.00     0.040 A 
ATOM     82  F   UNL A   1      43.095  35.828  32.129  1.00  0.00    -0.206 F 
ATOM     83  C   UNL A   1      42.437  37.007  35.457  1.00  0.00     0.006 A 
ENDBRANCH  55  76
BRANCH  67  84
ATOM     84  C   UNL A   1      45.576  28.952  32.017  1.00  0.00     0.057 A 
ATOM     85  C   UNL A   1      46.675  29.241  31.226  1.00  0.00     0.134 A 
ATOM     86  C   UNL A   1      45.643  28.046  32.986  1.00  0.00     0.134 A 
ATOM     87  F   UNL A   1      46.733  30.301  30.425  1.00  0.00    -0.206 F 
ATOM     88  C   UNL A   1      47.731  28.306  31.347  1.00  0.00     0.040 A 
ATOM     89  C   UNL A   1      46.761  27.259  33.131  1.00  0.00     0.040 A 
ATOM     90  F   UNL A   1      44.621  27.898  33.823  1.00  0.00    -0.206 F 
ATOM     91  C   UNL A   1      47.863  27.450  32.345  1.00  0.00     0.006 A 
ENDBRANCH  67  84
ENDBRANCH  41  42
ENDBRANCH  34  36
ENDBRANCH  33  34
ENDBRANCH  32  33
ENDBRANCH  31  32
ENDBRANCH  30  31
ENDBRANCH   1  30
TORSDOF 19
ENDMDL
