MODEL 1
REMARK VINA RESULT:      -8.9      0.000      0.000
REMARK SMILES CC(C)Oc1ccc(-c2ccc(/C(=C\c3ccc(S(C)(=O)=O)cc3)C(=O)OCCOCCOCCOC(=O)c3ccc(-c4c5nc(c(-c6c(F)cccc6F)c6ccc([nH]6)c(-c6c(F)cccc6F)c6nc(c(-c7c(F)cccc7F)c7ccc4[nH]7)C=C6)C=C5)cc3)cc2)cc1
REMARK SMILES IDX 31 1 30 2 29 3 28 4 27 5 25 6 26 7 13 8 14 9 12 10 9 11
REMARK SMILES IDX 10 12 94 13 11 14 93 15 8 16 5 17 6 18 96 19 7 20 95 21 4 22
REMARK SMILES IDX 2 23 1 24 3 25 15 26 16 27 24 28 17 29 23 30 18 31 19 32
REMARK SMILES IDX 20 33 21 34 22 35 32 36 33 37 34 38 35 39 36 40 37 41 38 42
REMARK SMILES IDX 39 43 40 44 92 45 41 46 91 47 42 48 43 49 44 50 85 51 45 52
REMARK SMILES IDX 90 53 84 54 86 55 46 56 89 57 83 58 82 59 47 61 73 62 56 63
REMARK SMILES IDX 72 64 57 65 60 66 71 67 87 68 58 69 59 70 70 72 88 73 61 74
REMARK SMILES IDX 48 75 49 76 54 77 50 78 51 79 53 80 55 81 52 82 74 83 75 84
REMARK SMILES IDX 80 85 76 86 77 87 79 88 81 89 78 90 62 91 63 92 68 93 64 94
REMARK SMILES IDX 65 95 67 96 69 97 66 98
REMARK H PARENT 86 60 60 71
REMARK Flexibility Score: inf
ROOT
ATOM      1  C   UNL A   1      44.187  20.415  25.242  1.00  0.00     0.188 C 
ENDROOT
BRANCH   1   2
ATOM      2  O   UNL A   1      43.358  21.484  24.859  1.00  0.00    -0.376 OA
BRANCH   2   3
ATOM      3  C   UNL A   1      42.799  22.346  25.836  1.00  0.00     0.202 C 
BRANCH   3   4
ATOM      4  C   UNL A   1      42.504  21.981  27.307  1.00  0.00     0.261 C 
BRANCH   4   5
ATOM      5  O   UNL A   1      41.142  21.757  27.677  1.00  0.00    -0.460 OA
BRANCH   5   6
ATOM      6  C   UNL A   1      40.282  21.419  26.674  1.00  0.00     0.338 C 
ATOM      7  O   UNL A   1      40.200  20.316  26.155  1.00  0.00    -0.246 OA
BRANCH   6   8
ATOM      8  C   UNL A   1      39.327  22.549  26.381  1.00  0.00     0.067 C 
ATOM      9  C   UNL A   1      38.331  22.248  25.507  1.00  0.00     0.024 C 
BRANCH   8  10
ATOM     10  C   UNL A   1      39.556  23.883  27.030  1.00  0.00    -0.011 A 
ATOM     11  C   UNL A   1      39.741  26.532  28.140  1.00  0.00    -0.018 A 
ATOM     12  C   UNL A   1      39.152  25.476  28.843  1.00  0.00     0.009 A 
ATOM     13  C   UNL A   1      40.282  26.227  26.887  1.00  0.00     0.009 A 
ATOM     14  C   UNL A   1      39.115  24.175  28.323  1.00  0.00     0.009 A 
ATOM     15  C   UNL A   1      40.190  24.931  26.343  1.00  0.00     0.009 A 
BRANCH  11  16
ATOM     16  C   UNL A   1      39.858  27.871  28.751  1.00  0.00    -0.018 A 
ATOM     17  C   UNL A   1      40.163  30.398  30.005  1.00  0.00     0.119 A 
ATOM     18  C   UNL A   1      39.907  29.259  30.762  1.00  0.00     0.047 A 
ATOM     19  C   UNL A   1      40.274  30.283  28.624  1.00  0.00     0.047 A 
ATOM     20  C   UNL A   1      39.754  28.017  30.144  1.00  0.00     0.012 A 
ATOM     21  C   UNL A   1      40.109  29.032  28.003  1.00  0.00     0.012 A 
BRANCH  17  22
ATOM     22  O   UNL A   1      40.441  31.525  30.719  1.00  0.00    -0.491 OA
BRANCH  22  23
ATOM     23  C   UNL A   1      39.378  32.278  31.317  1.00  0.00     0.167 C 
ATOM     24  C   UNL A   1      39.259  32.076  32.822  1.00  0.00     0.052 C 
ATOM     25  C   UNL A   1      39.342  33.745  30.896  1.00  0.00     0.052 C 
ENDBRANCH  22  23
ENDBRANCH  17  22
ENDBRANCH  11  16
ENDBRANCH   8  10
BRANCH   9  26
ATOM     26  C   UNL A   1      37.195  23.097  25.111  1.00  0.00    -0.025 A 
ATOM     27  C   UNL A   1      36.781  23.012  23.773  1.00  0.00     0.009 A 
ATOM     28  C   UNL A   1      36.425  23.832  26.026  1.00  0.00     0.009 A 
ATOM     29  C   UNL A   1      35.548  23.530  23.382  1.00  0.00     0.021 A 
ATOM     30  C   UNL A   1      35.180  24.343  25.641  1.00  0.00     0.021 A 
ATOM     31  C   UNL A   1      34.737  24.159  24.328  1.00  0.00     0.067 A 
BRANCH  31  32
ATOM     32  S   UNL A   1      33.060  24.547  23.879  1.00  0.00     0.175 S 
ATOM     33  C   UNL A   1      32.297  22.967  23.651  1.00  0.00     0.163 C 
ATOM     34  O   UNL A   1      32.452  25.180  25.035  1.00  0.00    -0.224 OA
ATOM     35  O   UNL A   1      33.089  25.221  22.594  1.00  0.00    -0.224 OA
ENDBRANCH  31  32
ENDBRANCH   9  26
ENDBRANCH   6   8
ENDBRANCH   5   6
ENDBRANCH   4   5
ENDBRANCH   3   4
ENDBRANCH   2   3
ENDBRANCH   1   2
BRANCH   1  36
ATOM     36  C   UNL A   1      45.616  20.386  24.666  1.00  0.00     0.188 C 
BRANCH  36  37
ATOM     37  O   UNL A   1      46.512  21.446  24.929  1.00  0.00    -0.376 OA
BRANCH  37  38
ATOM     38  C   UNL A   1      46.247  22.727  24.378  1.00  0.00     0.202 C 
BRANCH  38  39
ATOM     39  C   UNL A   1      46.145  23.998  25.243  1.00  0.00     0.261 C 
BRANCH  39  40
ATOM     40  O   UNL A   1      45.424  25.109  24.689  1.00  0.00    -0.460 OA
BRANCH  40  41
ATOM     41  C   UNL A   1      46.008  26.324  24.838  1.00  0.00     0.338 C 
ATOM     42  O   UNL A   1      46.720  26.910  24.037  1.00  0.00    -0.246 OA
BRANCH  41  43
ATOM     43  C   UNL A   1      45.515  26.951  26.080  1.00  0.00     0.060 A 
ATOM     44  C   UNL A   1      44.133  27.083  26.274  1.00  0.00     0.016 A 
ATOM     45  C   UNL A   1      46.412  27.441  27.029  1.00  0.00     0.016 A 
ATOM     46  C   UNL A   1      43.642  27.707  27.422  1.00  0.00     0.010 A 
ATOM     47  C   UNL A   1      45.919  28.091  28.165  1.00  0.00     0.010 A 
ATOM     48  C   UNL A   1      44.534  28.241  28.360  1.00  0.00    -0.014 A 
BRANCH  48  49
ATOM     49  C   UNL A   1      44.032  29.074  29.479  1.00  0.00     0.031 A 
ATOM     50  C   UNL A   1      43.855  30.550  29.264  1.00  0.00     0.074 A 
ATOM     51  C   UNL A   1      43.740  28.529  30.672  1.00  0.00     0.049 A 
ATOM     52  N   UNL A   1      43.518  31.478  30.122  1.00  0.00    -0.248 NA
ATOM     53  C   UNL A   1      44.101  31.045  27.901  1.00  0.00     0.031 C 
ATOM     54  C   UNL A   1      43.831  27.107  30.992  1.00  0.00     0.029 A 
ATOM     55  N   UNL A   1      43.306  29.113  31.837  1.00  0.00    -0.354 N 
ATOM     56  C   UNL A   1      43.535  32.670  29.410  1.00  0.00     0.074 A 
ATOM     57  C   UNL A   1      43.925  32.349  28.054  1.00  0.00     0.031 C 
ATOM     58  C   UNL A   1      43.453  26.925  32.269  1.00  0.00     0.029 A 
ATOM     59  C   UNL A   1      43.157  28.224  32.873  1.00  0.00     0.049 A 
ATOM     60  H   UNL A   1      43.120  30.075  31.921  1.00  0.00     0.167 HD
ATOM     61  C   UNL A   1      43.259  33.921  29.850  1.00  0.00     0.037 A 
ATOM     62  C   UNL A   1      42.856  28.439  34.169  1.00  0.00     0.037 A 
ATOM     63  C   UNL A   1      42.883  34.239  31.202  1.00  0.00     0.049 A 
ATOM     64  C   UNL A   1      42.628  29.849  34.652  1.00  0.00     0.074 A 
ATOM     65  C   UNL A   1      42.570  35.476  31.740  1.00  0.00     0.029 A 
ATOM     66  N   UNL A   1      42.785  33.319  32.234  1.00  0.00    -0.354 N 
ATOM     67  N   UNL A   1      42.628  30.969  33.969  1.00  0.00    -0.248 NA
ATOM     68  C   UNL A   1      42.379  30.027  36.090  1.00  0.00     0.031 C 
ATOM     69  C   UNL A   1      42.342  35.312  33.110  1.00  0.00     0.029 A 
ATOM     70  C   UNL A   1      42.448  33.964  33.413  1.00  0.00     0.049 A 
ATOM     71  H   UNL A   1      42.932  32.350  32.143  1.00  0.00     0.167 HD
ATOM     72  C   UNL A   1      42.357  31.976  34.887  1.00  0.00     0.074 A 
ATOM     73  C   UNL A   1      42.180  31.335  36.173  1.00  0.00     0.031 C 
ATOM     74  C   UNL A   1      42.268  33.314  34.685  1.00  0.00     0.037 A 
BRANCH  61  75
ATOM     75  C   UNL A   1      43.397  35.046  28.865  1.00  0.00     0.057 A 
ATOM     76  C   UNL A   1      42.290  35.610  28.220  1.00  0.00     0.134 A 
ATOM     77  C   UNL A   1      44.657  35.591  28.583  1.00  0.00     0.134 A 
ATOM     78  F   UNL A   1      41.057  35.126  28.437  1.00  0.00    -0.206 F 
ATOM     79  C   UNL A   1      42.432  36.658  27.309  1.00  0.00     0.040 A 
ATOM     80  C   UNL A   1      44.808  36.657  27.697  1.00  0.00     0.040 A 
ATOM     81  F   UNL A   1      45.759  35.101  29.170  1.00  0.00    -0.206 F 
ATOM     82  C   UNL A   1      43.694  37.189  27.051  1.00  0.00     0.006 A 
ENDBRANCH  61  75
BRANCH  62  83
ATOM     83  C   UNL A   1      42.796  27.300  35.124  1.00  0.00     0.057 A 
ATOM     84  C   UNL A   1      41.670  26.471  35.193  1.00  0.00     0.134 A 
ATOM     85  C   UNL A   1      43.844  27.035  36.013  1.00  0.00     0.134 A 
ATOM     86  F   UNL A   1      40.617  26.695  34.395  1.00  0.00    -0.206 F 
ATOM     87  C   UNL A   1      41.583  25.431  36.121  1.00  0.00     0.040 A 
ATOM     88  C   UNL A   1      43.784  25.980  36.926  1.00  0.00     0.040 A 
ATOM     89  F   UNL A   1      44.949  27.796  36.005  1.00  0.00    -0.206 F 
ATOM     90  C   UNL A   1      42.646  25.179  36.986  1.00  0.00     0.006 A 
ENDBRANCH  62  83
BRANCH  74  91
ATOM     91  C   UNL A   1      41.928  34.176  35.870  1.00  0.00     0.057 A 
ATOM     92  C   UNL A   1      42.918  34.758  36.673  1.00  0.00     0.134 A 
ATOM     93  C   UNL A   1      40.593  34.473  36.174  1.00  0.00     0.134 A 
ATOM     94  F   UNL A   1      44.215  34.507  36.444  1.00  0.00    -0.206 F 
ATOM     95  C   UNL A   1      42.591  35.589  37.747  1.00  0.00     0.040 A 
ATOM     96  C   UNL A   1      40.254  35.326  37.225  1.00  0.00     0.040 A 
ATOM     97  F   UNL A   1      39.597  33.958  35.438  1.00  0.00    -0.206 F 
ATOM     98  C   UNL A   1      41.255  35.881  38.019  1.00  0.00     0.006 A 
ENDBRANCH  74  91
ENDBRANCH  48  49
ENDBRANCH  41  43
ENDBRANCH  40  41
ENDBRANCH  39  40
ENDBRANCH  38  39
ENDBRANCH  37  38
ENDBRANCH  36  37
ENDBRANCH   1  36
TORSDOF 23
ENDMDL
MODEL 2
REMARK VINA RESULT:      -8.8      0.705      5.696
REMARK SMILES CC(C)Oc1ccc(-c2ccc(/C(=C\c3ccc(S(C)(=O)=O)cc3)C(=O)OCCOCCOCCOC(=O)c3ccc(-c4c5nc(c(-c6c(F)cccc6F)c6ccc([nH]6)c(-c6c(F)cccc6F)c6nc(c(-c7c(F)cccc7F)c7ccc4[nH]7)C=C6)C=C5)cc3)cc2)cc1
REMARK SMILES IDX 31 1 30 2 29 3 28 4 27 5 25 6 26 7 13 8 14 9 12 10 9 11
REMARK SMILES IDX 10 12 94 13 11 14 93 15 8 16 5 17 6 18 96 19 7 20 95 21 4 22
REMARK SMILES IDX 2 23 1 24 3 25 15 26 16 27 24 28 17 29 23 30 18 31 19 32
REMARK SMILES IDX 20 33 21 34 22 35 32 36 33 37 34 38 35 39 36 40 37 41 38 42
REMARK SMILES IDX 39 43 40 44 92 45 41 46 91 47 42 48 43 49 44 50 85 51 45 52
REMARK SMILES IDX 90 53 84 54 86 55 46 56 89 57 83 58 82 59 47 61 73 62 56 63
REMARK SMILES IDX 72 64 57 65 60 66 71 67 87 68 58 69 59 70 70 72 88 73 61 74
REMARK SMILES IDX 48 75 49 76 54 77 50 78 51 79 53 80 55 81 52 82 74 83 75 84
REMARK SMILES IDX 80 85 76 86 77 87 79 88 81 89 78 90 62 91 63 92 68 93 64 94
REMARK SMILES IDX 65 95 67 96 69 97 66 98
REMARK H PARENT 86 60 60 71
REMARK Flexibility Score: inf
ROOT
ATOM      1  C   UNL A   1      44.404  19.962  25.121  1.00  0.00     0.188 C 
ENDROOT
BRANCH   1   2
ATOM      2  O   UNL A   1      43.469  21.006  25.015  1.00  0.00    -0.376 OA
BRANCH   2   3
ATOM      3  C   UNL A   1      43.057  21.724  26.167  1.00  0.00     0.202 C 
BRANCH   3   4
ATOM      4  C   UNL A   1      42.296  21.140  27.376  1.00  0.00     0.261 C 
BRANCH   4   5
ATOM      5  O   UNL A   1      40.918  21.490  27.528  1.00  0.00    -0.460 OA
BRANCH   5   6
ATOM      6  C   UNL A   1      40.086  21.167  26.496  1.00  0.00     0.338 C 
ATOM      7  O   UNL A   1      40.007  20.066  25.972  1.00  0.00    -0.246 OA
BRANCH   6   8
ATOM      8  C   UNL A   1      39.156  22.309  26.177  1.00  0.00     0.067 C 
ATOM      9  C   UNL A   1      38.164  22.014  25.296  1.00  0.00     0.024 C 
BRANCH   8  10
ATOM     10  C   UNL A   1      39.403  23.649  26.808  1.00  0.00    -0.011 A 
ATOM     11  C   UNL A   1      39.634  26.313  27.870  1.00  0.00    -0.018 A 
ATOM     12  C   UNL A   1      38.968  25.297  28.563  1.00  0.00     0.009 A 
ATOM     13  C   UNL A   1      40.227  25.959  26.654  1.00  0.00     0.009 A 
ATOM     14  C   UNL A   1      38.907  23.987  28.069  1.00  0.00     0.009 A 
ATOM     15  C   UNL A   1      40.112  24.656  26.133  1.00  0.00     0.009 A 
BRANCH  11  16
ATOM     16  C   UNL A   1      39.771  27.661  28.459  1.00  0.00    -0.018 A 
ATOM     17  C   UNL A   1      39.920  30.275  29.552  1.00  0.00     0.119 A 
ATOM     18  C   UNL A   1      39.507  30.080  28.238  1.00  0.00     0.047 A 
ATOM     19  C   UNL A   1      40.255  29.170  30.328  1.00  0.00     0.047 A 
ATOM     20  C   UNL A   1      39.436  28.794  27.700  1.00  0.00     0.012 A 
ATOM     21  C   UNL A   1      40.193  27.877  29.780  1.00  0.00     0.012 A 
BRANCH  17  22
ATOM     22  O   UNL A   1      39.810  31.550  30.018  1.00  0.00    -0.491 OA
BRANCH  22  23
ATOM     23  C   UNL A   1      38.673  31.936  30.799  1.00  0.00     0.167 C 
ATOM     24  C   UNL A   1      39.023  32.807  31.999  1.00  0.00     0.052 C 
ATOM     25  C   UNL A   1      37.507  32.478  29.976  1.00  0.00     0.052 C 
ENDBRANCH  22  23
ENDBRANCH  17  22
ENDBRANCH  11  16
ENDBRANCH   8  10
BRANCH   9  26
ATOM     26  C   UNL A   1      37.049  22.878  24.875  1.00  0.00    -0.025 A 
ATOM     27  C   UNL A   1      36.651  22.783  23.533  1.00  0.00     0.009 A 
ATOM     28  C   UNL A   1      36.281  23.638  25.771  1.00  0.00     0.009 A 
ATOM     29  C   UNL A   1      35.432  23.318  23.119  1.00  0.00     0.021 A 
ATOM     30  C   UNL A   1      35.050  24.166  25.363  1.00  0.00     0.021 A 
ATOM     31  C   UNL A   1      34.621  23.973  24.047  1.00  0.00     0.067 A 
BRANCH  31  32
ATOM     32  S   UNL A   1      32.957  24.386  23.571  1.00  0.00     0.175 S 
ATOM     33  C   UNL A   1      33.032  26.113  23.190  1.00  0.00     0.163 C 
ATOM     34  O   UNL A   1      32.681  23.664  22.343  1.00  0.00    -0.224 OA
ATOM     35  O   UNL A   1      32.107  24.220  24.735  1.00  0.00    -0.224 OA
ENDBRANCH  31  32
ENDBRANCH   9  26
ENDBRANCH   6   8
ENDBRANCH   5   6
ENDBRANCH   4   5
ENDBRANCH   3   4
ENDBRANCH   2   3
ENDBRANCH   1   2
BRANCH   1  36
ATOM     36  C   UNL A   1      45.897  20.339  25.063  1.00  0.00     0.188 C 
BRANCH  36  37
ATOM     37  O   UNL A   1      46.309  21.660  25.346  1.00  0.00    -0.376 OA
BRANCH  37  38
ATOM     38  C   UNL A   1      46.427  22.590  24.281  1.00  0.00     0.202 C 
BRANCH  38  39
ATOM     39  C   UNL A   1      46.763  24.077  24.510  1.00  0.00     0.261 C 
BRANCH  39  40
ATOM     40  O   UNL A   1      46.148  24.719  25.637  1.00  0.00    -0.460 OA
BRANCH  40  41
ATOM     41  C   UNL A   1      44.904  25.217  25.425  1.00  0.00     0.338 C 
ATOM     42  O   UNL A   1      44.044  24.774  24.679  1.00  0.00    -0.246 OA
BRANCH  41  43
ATOM     43  C   UNL A   1      44.650  26.312  26.380  1.00  0.00     0.060 A 
ATOM     44  C   UNL A   1      45.712  26.802  27.154  1.00  0.00     0.016 A 
ATOM     45  C   UNL A   1      43.364  26.827  26.539  1.00  0.00     0.016 A 
ATOM     46  C   UNL A   1      45.490  27.812  28.091  1.00  0.00     0.010 A 
ATOM     47  C   UNL A   1      43.137  27.819  27.500  1.00  0.00     0.010 A 
ATOM     48  C   UNL A   1      44.194  28.304  28.290  1.00  0.00    -0.014 A 
BRANCH  48  49
ATOM     49  C   UNL A   1      43.911  29.231  29.413  1.00  0.00     0.031 A 
ATOM     50  C   UNL A   1      43.726  28.666  30.792  1.00  0.00     0.074 A 
ATOM     51  C   UNL A   1      43.816  30.555  29.211  1.00  0.00     0.049 A 
ATOM     52  N   UNL A   1      43.385  29.275  31.899  1.00  0.00    -0.248 NA
ATOM     53  C   UNL A   1      43.948  27.220  30.940  1.00  0.00     0.031 C 
ATOM     54  C   UNL A   1      44.015  31.228  27.930  1.00  0.00     0.029 A 
ATOM     55  N   UNL A   1      43.527  31.573  30.087  1.00  0.00    -0.354 N 
ATOM     56  C   UNL A   1      43.325  28.284  32.869  1.00  0.00     0.074 A 
ATOM     57  C   UNL A   1      43.657  27.034  32.219  1.00  0.00     0.031 C 
ATOM     58  C   UNL A   1      43.852  32.551  28.104  1.00  0.00     0.029 A 
ATOM     59  C   UNL A   1      43.475  32.811  29.493  1.00  0.00     0.049 A 
ATOM     60  H   UNL A   1      43.372  31.430  31.048  1.00  0.00     0.167 HD
ATOM     61  C   UNL A   1      43.014  28.405  34.181  1.00  0.00     0.037 A 
ATOM     62  C   UNL A   1      43.123  34.008  30.003  1.00  0.00     0.037 A 
ATOM     63  C   UNL A   1      42.673  29.647  34.823  1.00  0.00     0.049 A 
ATOM     64  C   UNL A   1      42.706  34.103  31.448  1.00  0.00     0.074 A 
ATOM     65  C   UNL A   1      42.356  29.872  36.151  1.00  0.00     0.029 A 
ATOM     66  N   UNL A   1      42.588  30.872  34.180  1.00  0.00    -0.354 N 
ATOM     67  N   UNL A   1      42.671  33.164  32.364  1.00  0.00    -0.248 NA
ATOM     68  C   UNL A   1      42.261  35.420  31.926  1.00  0.00     0.031 C 
ATOM     69  C   UNL A   1      42.020  31.221  36.299  1.00  0.00     0.029 A 
ATOM     70  C   UNL A   1      42.192  31.850  35.077  1.00  0.00     0.049 A 
ATOM     71  H   UNL A   1      42.781  31.025  33.226  1.00  0.00     0.167 HD
ATOM     72  C   UNL A   1      42.224  33.782  33.527  1.00  0.00     0.074 A 
ATOM     73  C   UNL A   1      42.018  35.178  33.206  1.00  0.00     0.031 C 
ATOM     74  C   UNL A   1      41.997  33.239  34.749  1.00  0.00     0.037 A 
BRANCH  61  75
ATOM     75  C   UNL A   1      42.985  27.148  35.003  1.00  0.00     0.057 A 
ATOM     76  C   UNL A   1      41.860  26.315  35.048  1.00  0.00     0.134 A 
ATOM     77  C   UNL A   1      44.112  26.753  35.735  1.00  0.00     0.134 A 
ATOM     78  F   UNL A   1      40.743  26.643  34.380  1.00  0.00    -0.206 F 
ATOM     79  C   UNL A   1      41.847  25.147  35.813  1.00  0.00     0.040 A 
ATOM     80  C   UNL A   1      44.122  25.573  36.479  1.00  0.00     0.040 A 
ATOM     81  F   UNL A   1      45.225  27.502  35.732  1.00  0.00    -0.206 F 
ATOM     82  C   UNL A   1      42.984  24.770  36.526  1.00  0.00     0.006 A 
ENDBRANCH  61  75
BRANCH  62  83
ATOM     83  C   UNL A   1      43.102  35.215  29.134  1.00  0.00     0.057 A 
ATOM     84  C   UNL A   1      41.929  35.623  28.488  1.00  0.00     0.134 A 
ATOM     85  C   UNL A   1      44.260  35.967  28.899  1.00  0.00     0.134 A 
ATOM     86  F   UNL A   1      40.796  34.924  28.642  1.00  0.00    -0.206 F 
ATOM     87  C   UNL A   1      41.911  36.726  27.631  1.00  0.00     0.040 A 
ATOM     88  C   UNL A   1      44.250  37.089  28.068  1.00  0.00     0.040 A 
ATOM     89  F   UNL A   1      45.420  35.626  29.480  1.00  0.00    -0.206 F 
ATOM     90  C   UNL A   1      43.073  37.466  27.425  1.00  0.00     0.006 A 
ENDBRANCH  62  83
BRANCH  74  91
ATOM     91  C   UNL A   1      41.538  34.160  35.845  1.00  0.00     0.057 A 
ATOM     92  C   UNL A   1      42.443  34.836  36.675  1.00  0.00     0.134 A 
ATOM     93  C   UNL A   1      40.174  34.417  36.034  1.00  0.00     0.134 A 
ATOM     94  F   UNL A   1      43.762  34.629  36.555  1.00  0.00    -0.206 F 
ATOM     95  C   UNL A   1      42.005  35.719  37.665  1.00  0.00     0.040 A 
ATOM     96  C   UNL A   1      39.726  35.319  36.999  1.00  0.00     0.040 A 
ATOM     97  F   UNL A   1      39.255  33.811  35.267  1.00  0.00    -0.206 F 
ATOM     98  C   UNL A   1      40.642  35.969  37.822  1.00  0.00     0.006 A 
ENDBRANCH  74  91
ENDBRANCH  48  49
ENDBRANCH  41  43
ENDBRANCH  40  41
ENDBRANCH  39  40
ENDBRANCH  38  39
ENDBRANCH  37  38
ENDBRANCH  36  37
ENDBRANCH   1  36
TORSDOF 23
ENDMDL
MODEL 3
REMARK VINA RESULT:      -8.4      3.472      8.446
REMARK SMILES CC(C)Oc1ccc(-c2ccc(/C(=C\c3ccc(S(C)(=O)=O)cc3)C(=O)OCCOCCOCCOC(=O)c3ccc(-c4c5nc(c(-c6c(F)cccc6F)c6ccc([nH]6)c(-c6c(F)cccc6F)c6nc(c(-c7c(F)cccc7F)c7ccc4[nH]7)C=C6)C=C5)cc3)cc2)cc1
REMARK SMILES IDX 31 1 30 2 29 3 28 4 27 5 25 6 26 7 13 8 14 9 12 10 9 11
REMARK SMILES IDX 10 12 94 13 11 14 93 15 8 16 5 17 6 18 96 19 7 20 95 21 4 22
REMARK SMILES IDX 2 23 1 24 3 25 15 26 16 27 24 28 17 29 23 30 18 31 19 32
REMARK SMILES IDX 20 33 21 34 22 35 32 36 33 37 34 38 35 39 36 40 37 41 38 42
REMARK SMILES IDX 39 43 40 44 92 45 41 46 91 47 42 48 43 49 44 50 85 51 45 52
REMARK SMILES IDX 90 53 84 54 86 55 46 56 89 57 83 58 82 59 47 61 73 62 56 63
REMARK SMILES IDX 72 64 57 65 60 66 71 67 87 68 58 69 59 70 70 72 88 73 61 74
REMARK SMILES IDX 48 75 49 76 54 77 50 78 51 79 53 80 55 81 52 82 74 83 75 84
REMARK SMILES IDX 80 85 76 86 77 87 79 88 81 89 78 90 62 91 63 92 68 93 64 94
REMARK SMILES IDX 65 95 67 96 69 97 66 98
REMARK H PARENT 86 60 60 71
REMARK Flexibility Score: inf
ROOT
ATOM      1  C   UNL A   1      30.688  24.843  26.165  1.00  0.00     0.188 C 
ENDROOT
BRANCH   1   2
ATOM      2  O   UNL A   1      31.110  23.989  27.199  1.00  0.00    -0.376 OA
BRANCH   2   3
ATOM      3  C   UNL A   1      31.183  22.588  26.991  1.00  0.00     0.202 C 
BRANCH   3   4
ATOM      4  C   UNL A   1      30.900  21.852  25.663  1.00  0.00     0.261 C 
BRANCH   4   5
ATOM      5  O   UNL A   1      31.684  20.696  25.362  1.00  0.00    -0.460 OA
BRANCH   5   6
ATOM      6  C   UNL A   1      32.391  20.721  24.195  1.00  0.00     0.338 C 
ATOM      7  O   UNL A   1      32.486  19.792  23.408  1.00  0.00    -0.246 OA
BRANCH   6   8
ATOM      8  C   UNL A   1      32.924  22.104  23.920  1.00  0.00     0.067 C 
ATOM      9  C   UNL A   1      32.104  22.899  23.182  1.00  0.00     0.024 C 
BRANCH   8  10
ATOM     10  C   UNL A   1      34.283  22.478  24.435  1.00  0.00    -0.011 A 
ATOM     11  C   UNL A   1      36.891  22.930  25.563  1.00  0.00    -0.018 A 
ATOM     12  C   UNL A   1      36.723  22.402  24.279  1.00  0.00     0.009 A 
ATOM     13  C   UNL A   1      35.727  23.276  26.257  1.00  0.00     0.009 A 
ATOM     14  C   UNL A   1      35.453  22.236  23.711  1.00  0.00     0.009 A 
ATOM     15  C   UNL A   1      34.451  23.053  25.706  1.00  0.00     0.009 A 
BRANCH  11  16
ATOM     16  C   UNL A   1      38.243  23.188  26.100  1.00  0.00    -0.018 A 
ATOM     17  C   UNL A   1      40.788  23.727  27.233  1.00  0.00     0.119 A 
ATOM     18  C   UNL A   1      39.799  24.706  27.216  1.00  0.00     0.047 A 
ATOM     19  C   UNL A   1      40.512  22.476  26.692  1.00  0.00     0.047 A 
ATOM     20  C   UNL A   1      38.548  24.441  26.656  1.00  0.00     0.012 A 
ATOM     21  C   UNL A   1      39.255  22.215  26.119  1.00  0.00     0.012 A 
BRANCH  17  22
ATOM     22  O   UNL A   1      41.913  24.044  27.933  1.00  0.00    -0.491 OA
BRANCH  22  23
ATOM     23  C   UNL A   1      42.857  23.023  28.279  1.00  0.00     0.167 C 
ATOM     24  C   UNL A   1      44.080  22.990  27.371  1.00  0.00     0.052 C 
ATOM     25  C   UNL A   1      43.202  22.972  29.765  1.00  0.00     0.052 C 
ENDBRANCH  22  23
ENDBRANCH  17  22
ENDBRANCH  11  16
ENDBRANCH   8  10
BRANCH   9  26
ATOM     26  C   UNL A   1      32.295  24.319  22.845  1.00  0.00    -0.025 A 
ATOM     27  C   UNL A   1      31.146  25.043  22.493  1.00  0.00     0.009 A 
ATOM     28  C   UNL A   1      33.510  24.998  23.023  1.00  0.00     0.009 A 
ATOM     29  C   UNL A   1      31.172  26.436  22.457  1.00  0.00     0.021 A 
ATOM     30  C   UNL A   1      33.539  26.398  23.001  1.00  0.00     0.021 A 
ATOM     31  C   UNL A   1      32.361  27.107  22.750  1.00  0.00     0.067 A 
BRANCH  31  32
ATOM     32  S   UNL A   1      32.301  28.869  22.985  1.00  0.00     0.175 S 
ATOM     33  C   UNL A   1      33.974  29.313  23.354  1.00  0.00     0.163 C 
ATOM     34  O   UNL A   1      31.951  29.451  21.702  1.00  0.00    -0.224 OA
ATOM     35  O   UNL A   1      31.496  29.133  24.163  1.00  0.00    -0.224 OA
ENDBRANCH  31  32
ENDBRANCH   9  26
ENDBRANCH   6   8
ENDBRANCH   5   6
ENDBRANCH   4   5
ENDBRANCH   3   4
ENDBRANCH   2   3
ENDBRANCH   1   2
BRANCH   1  36
ATOM     36  C   UNL A   1      31.318  26.248  26.105  1.00  0.00     0.188 C 
BRANCH  36  37
ATOM     37  O   UNL A   1      31.057  27.189  27.126  1.00  0.00    -0.376 OA
BRANCH  37  38
ATOM     38  C   UNL A   1      32.108  28.031  27.574  1.00  0.00     0.202 C 
BRANCH  38  39
ATOM     39  C   UNL A   1      32.186  29.527  27.211  1.00  0.00     0.261 C 
BRANCH  39  40
ATOM     40  O   UNL A   1      33.467  30.034  26.806  1.00  0.00    -0.460 OA
BRANCH  40  41
ATOM     41  C   UNL A   1      33.870  31.175  27.418  1.00  0.00     0.338 C 
ATOM     42  O   UNL A   1      33.208  32.182  27.623  1.00  0.00    -0.246 OA
BRANCH  41  43
ATOM     43  C   UNL A   1      35.219  30.976  27.979  1.00  0.00     0.060 A 
ATOM     44  C   UNL A   1      35.594  29.697  28.415  1.00  0.00     0.016 A 
ATOM     45  C   UNL A   1      36.096  32.052  28.111  1.00  0.00     0.016 A 
ATOM     46  C   UNL A   1      36.851  29.490  28.985  1.00  0.00     0.010 A 
ATOM     47  C   UNL A   1      37.345  31.849  28.709  1.00  0.00     0.010 A 
ATOM     48  C   UNL A   1      37.722  30.572  29.162  1.00  0.00    -0.014 A 
BRANCH  48  49
ATOM     49  C   UNL A   1      38.973  30.405  29.941  1.00  0.00     0.031 A 
ATOM     50  C   UNL A   1      39.012  30.878  31.365  1.00  0.00     0.074 A 
ATOM     51  C   UNL A   1      40.062  29.844  29.389  1.00  0.00     0.049 A 
ATOM     52  N   UNL A   1      40.018  30.915  32.200  1.00  0.00    -0.248 NA
ATOM     53  C   UNL A   1      37.747  31.386  31.918  1.00  0.00     0.031 C 
ATOM     54  C   UNL A   1      40.138  29.309  28.032  1.00  0.00     0.029 A 
ATOM     55  N   UNL A   1      41.315  29.631  29.908  1.00  0.00    -0.354 N 
ATOM     56  C   UNL A   1      39.517  31.473  33.368  1.00  0.00     0.074 A 
ATOM     57  C   UNL A   1      38.120  31.767  33.131  1.00  0.00     0.031 C 
ATOM     58  C   UNL A   1      41.372  28.818  27.827  1.00  0.00     0.029 A 
ATOM     59  C   UNL A   1      42.190  29.063  29.014  1.00  0.00     0.049 A 
ATOM     60  H   UNL A   1      41.563  29.862  30.832  1.00  0.00     0.167 HD
ATOM     61  C   UNL A   1      40.165  31.724  34.530  1.00  0.00     0.037 A 
ATOM     62  C   UNL A   1      43.509  28.808  29.128  1.00  0.00     0.037 A 
ATOM     63  C   UNL A   1      41.557  31.441  34.759  1.00  0.00     0.049 A 
ATOM     64  C   UNL A   1      44.225  29.168  30.405  1.00  0.00     0.074 A 
ATOM     65  C   UNL A   1      42.300  31.648  35.908  1.00  0.00     0.029 A 
ATOM     66  N   UNL A   1      42.422  30.907  33.816  1.00  0.00    -0.354 N 
ATOM     67  N   UNL A   1      43.740  29.677  31.512  1.00  0.00    -0.248 NA
ATOM     68  C   UNL A   1      45.676  28.935  30.441  1.00  0.00     0.031 C 
ATOM     69  C   UNL A   1      43.627  31.295  35.642  1.00  0.00     0.029 A 
ATOM     70  C   UNL A   1      43.697  30.807  34.347  1.00  0.00     0.049 A 
ATOM     71  H   UNL A   1      42.167  30.637  32.904  1.00  0.00     0.167 HD
ATOM     72  C   UNL A   1      44.819  29.804  32.379  1.00  0.00     0.074 A 
ATOM     73  C   UNL A   1      45.981  29.302  31.678  1.00  0.00     0.031 C 
ATOM     74  C   UNL A   1      44.846  30.298  33.642  1.00  0.00     0.037 A 
BRANCH  61  75
ATOM     75  C   UNL A   1      39.381  32.379  35.631  1.00  0.00     0.057 A 
ATOM     76  C   UNL A   1      38.581  31.642  36.513  1.00  0.00     0.134 A 
ATOM     77  C   UNL A   1      39.453  33.764  35.826  1.00  0.00     0.134 A 
ATOM     78  F   UNL A   1      38.458  30.313  36.372  1.00  0.00    -0.206 F 
ATOM     79  C   UNL A   1      37.859  32.263  37.534  1.00  0.00     0.040 A 
ATOM     80  C   UNL A   1      38.760  34.392  36.862  1.00  0.00     0.040 A 
ATOM     81  F   UNL A   1      40.205  34.529  35.020  1.00  0.00    -0.206 F 
ATOM     82  C   UNL A   1      37.954  33.642  37.715  1.00  0.00     0.006 A 
ENDBRANCH  61  75
BRANCH  62  83
ATOM     83  C   UNL A   1      44.260  28.220  27.987  1.00  0.00     0.057 A 
ATOM     84  C   UNL A   1      44.522  26.846  27.922  1.00  0.00     0.134 A 
ATOM     85  C   UNL A   1      44.764  29.019  26.953  1.00  0.00     0.134 A 
ATOM     86  F   UNL A   1      44.099  26.032  28.899  1.00  0.00    -0.206 F 
ATOM     87  C   UNL A   1      45.269  26.292  26.880  1.00  0.00     0.040 A 
ATOM     88  C   UNL A   1      45.487  28.475  25.891  1.00  0.00     0.040 A 
ATOM     89  F   UNL A   1      44.556  30.345  26.958  1.00  0.00    -0.206 F 
ATOM     90  C   UNL A   1      45.748  27.107  25.857  1.00  0.00     0.006 A 
ENDBRANCH  62  83
BRANCH  74  91
ATOM     91  C   UNL A   1      46.163  30.287  34.366  1.00  0.00     0.057 A 
ATOM     92  C   UNL A   1      47.050  31.371  34.314  1.00  0.00     0.134 A 
ATOM     93  C   UNL A   1      46.522  29.199  35.173  1.00  0.00     0.134 A 
ATOM     94  F   UNL A   1      46.773  32.440  33.552  1.00  0.00    -0.206 F 
ATOM     95  C   UNL A   1      48.253  31.364  35.022  1.00  0.00     0.040 A 
ATOM     96  C   UNL A   1      47.707  29.193  35.909  1.00  0.00     0.040 A 
ATOM     97  F   UNL A   1      45.714  28.133  35.277  1.00  0.00    -0.206 F 
ATOM     98  C   UNL A   1      48.579  30.276  35.830  1.00  0.00     0.006 A 
ENDBRANCH  74  91
ENDBRANCH  48  49
ENDBRANCH  41  43
ENDBRANCH  40  41
ENDBRANCH  39  40
ENDBRANCH  38  39
ENDBRANCH  37  38
ENDBRANCH  36  37
ENDBRANCH   1  36
TORSDOF 23
ENDMDL
