MODEL 1
REMARK VINA RESULT:     -11.4      0.000      0.000
REMARK SMILES CN1C(=O)C[C@@H](C(=O)OCCOCCOCCOC(=O)c2ccc(-c3c4nc(c(-c5c(F)cccc5F)c5ccc([nH]5)c(-c5c(F)cccc5F)c5nc(c(-c6c(F)cccc6F)c6ccc3[nH]6)C=C5)C=C4)cc2)C12CCN(C(=O)c1ccccc1-n1cccn1)CC2
REMARK SMILES IDX 13 1 12 2 11 3 10 4 9 5 7 6 8 7 6 8 1 9 2 10 3 11 75 12 4 13
REMARK SMILES IDX 5 14 76 15 93 16 77 17 92 18 78 19 79 20 80 21 81 22 82 23
REMARK SMILES IDX 86 24 83 25 85 26 84 27 87 28 88 29 91 30 89 31 90 32 14 33
REMARK SMILES IDX 15 34 16 35 17 36 18 37 19 38 20 39 21 40 22 41 74 42 23 43
REMARK SMILES IDX 73 44 24 45 25 46 26 47 67 48 27 49 72 50 66 51 68 52 28 53
REMARK SMILES IDX 71 54 65 55 64 56 29 58 55 59 38 60 54 61 39 62 42 63 53 64
REMARK SMILES IDX 69 65 40 66 41 67 52 69 70 70 43 71 30 72 31 73 36 74 32 75
REMARK SMILES IDX 33 76 35 77 37 78 34 79 56 80 57 81 62 82 58 83 59 84 61 85
REMARK SMILES IDX 63 86 60 87 44 88 45 89 50 90 46 91 47 92 49 93 51 94 48 95
REMARK H PARENT 68 57 42 68
REMARK Flexibility Score: inf
ROOT
ATOM      1  C   UNL A   1      34.410  33.502  28.734  1.00  0.00     0.188 C 
ENDROOT
BRANCH   1   2
ATOM      2  O   UNL A   1      34.112  32.673  27.617  1.00  0.00    -0.376 OA
BRANCH   2   3
ATOM      3  C   UNL A   1      34.576  31.331  27.613  1.00  0.00     0.202 C 
BRANCH   3   4
ATOM      4  C   UNL A   1      33.493  30.249  27.455  1.00  0.00     0.261 C 
BRANCH   4   5
ATOM      5  O   UNL A   1      33.731  29.203  26.472  1.00  0.00    -0.463 OA
BRANCH   5   6
ATOM      6  C   UNL A   1      32.649  28.454  26.155  1.00  0.00     0.311 C 
ATOM      7  O   UNL A   1      31.995  27.825  26.984  1.00  0.00    -0.252 OA
BRANCH   6   8
ATOM      8  C   UNL A   1      32.351  28.263  24.673  1.00  0.00     0.134 C 
ATOM      9  C   UNL A   1      28.944  27.227  23.447  1.00  0.00     0.147 C 
ATOM     10  N   UNL A   1      30.182  27.874  23.846  1.00  0.00    -0.339 N 
ATOM     11  C   UNL A   1      30.281  29.246  23.984  1.00  0.00     0.223 C 
ATOM     12  C   UNL A   1      31.466  27.173  23.996  1.00  0.00     0.060 C 
ATOM     13  O   UNL A   1      29.374  30.057  23.876  1.00  0.00    -0.275 OA
ATOM     14  C   UNL A   1      31.721  29.593  24.222  1.00  0.00     0.118 C 
ATOM     15  C   UNL A   1      31.286  25.822  24.710  1.00  0.00     0.051 C 
ATOM     16  C   UNL A   1      32.025  26.882  22.560  1.00  0.00     0.051 C 
ATOM     17  C   UNL A   1      32.527  24.943  24.646  1.00  0.00     0.122 C 
ATOM     18  C   UNL A   1      33.210  25.913  22.510  1.00  0.00     0.122 C 
ATOM     19  N   UNL A   1      32.974  24.695  23.281  1.00  0.00    -0.338 N 
ATOM     20  C   UNL A   1      33.441  23.480  22.740  1.00  0.00     0.256 C 
ATOM     21  O   UNL A   1      33.967  23.431  21.627  1.00  0.00    -0.269 OA
BRANCH  20  22
ATOM     22  C   UNL A   1      33.394  22.184  23.478  1.00  0.00     0.065 A 
ATOM     23  C   UNL A   1      32.286  21.361  23.189  1.00  0.00     0.016 A 
ATOM     24  C   UNL A   1      34.327  21.731  24.420  1.00  0.00     0.077 A 
ATOM     25  C   UNL A   1      32.153  20.089  23.757  1.00  0.00     0.001 A 
ATOM     26  C   UNL A   1      34.214  20.431  24.958  1.00  0.00     0.029 A 
ATOM     27  C   UNL A   1      33.127  19.618  24.630  1.00  0.00     0.002 A 
BRANCH  24  28
ATOM     28  N   UNL A   1      35.370  22.548  24.902  1.00  0.00    -0.240 N 
ATOM     29  C   UNL A   1      35.475  23.145  26.137  1.00  0.00     0.115 A 
ATOM     30  N   UNL A   1      36.457  22.811  24.131  1.00  0.00    -0.177 NA
ATOM     31  C   UNL A   1      36.642  23.869  26.135  1.00  0.00     0.042 A 
ATOM     32  C   UNL A   1      37.193  23.646  24.865  1.00  0.00     0.135 A 
ENDBRANCH  24  28
ENDBRANCH  20  22
ENDBRANCH   6   8
ENDBRANCH   5   6
ENDBRANCH   4   5
ENDBRANCH   3   4
ENDBRANCH   2   3
ENDBRANCH   1   2
BRANCH   1  33
ATOM     33  C   UNL A   1      34.704  32.840  30.074  1.00  0.00     0.188 C 
BRANCH  33  34
ATOM     34  O   UNL A   1      35.282  33.731  31.014  1.00  0.00    -0.376 OA
BRANCH  34  35
ATOM     35  C   UNL A   1      34.485  33.896  32.183  1.00  0.00     0.202 C 
BRANCH  35  36
ATOM     36  C   UNL A   1      35.253  33.337  33.391  1.00  0.00     0.261 C 
BRANCH  36  37
ATOM     37  O   UNL A   1      35.735  31.975  33.232  1.00  0.00    -0.460 OA
BRANCH  37  38
ATOM     38  C   UNL A   1      37.017  31.816  33.620  1.00  0.00     0.338 C 
ATOM     39  O   UNL A   1      37.441  32.078  34.730  1.00  0.00    -0.246 OA
BRANCH  38  40
ATOM     40  C   UNL A   1      37.857  31.113  32.634  1.00  0.00     0.060 A 
ATOM     41  C   UNL A   1      39.026  30.506  33.098  1.00  0.00     0.016 A 
ATOM     42  C   UNL A   1      37.667  31.271  31.266  1.00  0.00     0.016 A 
ATOM     43  C   UNL A   1      40.037  30.124  32.224  1.00  0.00     0.010 A 
ATOM     44  C   UNL A   1      38.662  30.828  30.376  1.00  0.00     0.010 A 
ATOM     45  C   UNL A   1      39.869  30.275  30.847  1.00  0.00    -0.014 A 
BRANCH  45  46
ATOM     46  C   UNL A   1      40.972  29.885  29.924  1.00  0.00     0.031 A 
ATOM     47  C   UNL A   1      41.035  28.496  29.346  1.00  0.00     0.074 A 
ATOM     48  C   UNL A   1      41.905  30.792  29.564  1.00  0.00     0.049 A 
ATOM     49  N   UNL A   1      41.993  27.928  28.657  1.00  0.00    -0.248 NA
ATOM     50  C   UNL A   1      39.865  27.632  29.566  1.00  0.00     0.031 C 
ATOM     51  C   UNL A   1      41.925  32.197  29.974  1.00  0.00     0.029 A 
ATOM     52  N   UNL A   1      43.019  30.663  28.773  1.00  0.00    -0.354 N 
ATOM     53  C   UNL A   1      41.560  26.634  28.393  1.00  0.00     0.074 A 
ATOM     54  C   UNL A   1      40.248  26.499  28.990  1.00  0.00     0.031 C 
ATOM     55  C   UNL A   1      42.993  32.800  29.427  1.00  0.00     0.029 A 
ATOM     56  C   UNL A   1      43.777  31.807  28.705  1.00  0.00     0.049 A 
ATOM     57  H   UNL A   1      43.253  29.831  28.300  1.00  0.00     0.167 HD
ATOM     58  C   UNL A   1      42.203  25.646  27.726  1.00  0.00     0.037 A 
ATOM     59  C   UNL A   1      44.998  32.023  28.177  1.00  0.00     0.037 A 
ATOM     60  C   UNL A   1      43.499  25.786  27.111  1.00  0.00     0.049 A 
ATOM     61  C   UNL A   1      45.729  30.884  27.526  1.00  0.00     0.074 A 
ATOM     62  C   UNL A   1      44.230  24.836  26.417  1.00  0.00     0.029 A 
ATOM     63  N   UNL A   1      44.254  26.947  27.113  1.00  0.00    -0.354 N 
ATOM     64  N   UNL A   1      45.333  29.651  27.328  1.00  0.00    -0.248 NA
ATOM     65  C   UNL A   1      47.089  31.163  27.043  1.00  0.00     0.031 C 
ATOM     66  C   UNL A   1      45.451  25.408  26.044  1.00  0.00     0.029 A 
ATOM     67  C   UNL A   1      45.456  26.730  26.459  1.00  0.00     0.049 A 
ATOM     68  H   UNL A   1      43.977  27.800  27.518  1.00  0.00     0.167 HD
ATOM     69  C   UNL A   1      46.385  29.014  26.682  1.00  0.00     0.074 A 
ATOM     70  C   UNL A   1      47.425  30.003  26.499  1.00  0.00     0.031 C 
ATOM     71  C   UNL A   1      46.483  27.723  26.281  1.00  0.00     0.037 A 
BRANCH  58  72
ATOM     72  C   UNL A   1      41.546  24.298  27.664  1.00  0.00     0.057 A 
ATOM     73  C   UNL A   1      40.513  24.010  26.764  1.00  0.00     0.134 A 
ATOM     74  C   UNL A   1      42.011  23.251  28.472  1.00  0.00     0.134 A 
ATOM     75  F   UNL A   1      40.014  24.971  25.972  1.00  0.00    -0.206 F 
ATOM     76  C   UNL A   1      39.962  22.730  26.675  1.00  0.00     0.040 A 
ATOM     77  C   UNL A   1      41.483  21.963  28.376  1.00  0.00     0.040 A 
ATOM     78  F   UNL A   1      43.002  23.461  29.351  1.00  0.00    -0.206 F 
ATOM     79  C   UNL A   1      40.454  21.700  27.476  1.00  0.00     0.006 A 
ENDBRANCH  58  72
BRANCH  59  80
ATOM     80  C   UNL A   1      45.645  33.354  28.309  1.00  0.00     0.057 A 
ATOM     81  C   UNL A   1      46.434  33.672  29.420  1.00  0.00     0.134 A 
ATOM     82  C   UNL A   1      45.454  34.354  27.346  1.00  0.00     0.134 A 
ATOM     83  F   UNL A   1      46.630  32.768  30.390  1.00  0.00    -0.206 F 
ATOM     84  C   UNL A   1      46.990  34.943  29.580  1.00  0.00     0.040 A 
ATOM     85  C   UNL A   1      46.031  35.617  27.478  1.00  0.00     0.040 A 
ATOM     86  F   UNL A   1      44.706  34.115  26.259  1.00  0.00    -0.206 F 
ATOM     87  C   UNL A   1      46.794  35.917  28.604  1.00  0.00     0.006 A 
ENDBRANCH  59  80
BRANCH  71  88
ATOM     88  C   UNL A   1      47.745  27.325  25.576  1.00  0.00     0.057 A 
ATOM     89  C   UNL A   1      47.890  27.452  24.188  1.00  0.00     0.134 A 
ATOM     90  C   UNL A   1      48.830  26.805  26.294  1.00  0.00     0.134 A 
ATOM     91  F   UNL A   1      46.882  27.927  23.440  1.00  0.00    -0.206 F 
ATOM     92  C   UNL A   1      49.054  27.046  23.536  1.00  0.00     0.040 A 
ATOM     93  C   UNL A   1      50.010  26.422  25.656  1.00  0.00     0.040 A 
ATOM     94  F   UNL A   1      48.761  26.666  27.626  1.00  0.00    -0.206 F 
ATOM     95  C   UNL A   1      50.121  26.532  24.272  1.00  0.00     0.006 A 
ENDBRANCH  71  88
ENDBRANCH  45  46
ENDBRANCH  38  40
ENDBRANCH  37  38
ENDBRANCH  36  37
ENDBRANCH  35  36
ENDBRANCH  34  35
ENDBRANCH  33  34
ENDBRANCH   1  33
TORSDOF 19
ENDMDL
MODEL 2
REMARK VINA RESULT:     -11.3      4.410      9.989
REMARK SMILES CN1C(=O)C[C@@H](C(=O)OCCOCCOCCOC(=O)c2ccc(-c3c4nc(c(-c5c(F)cccc5F)c5ccc([nH]5)c(-c5c(F)cccc5F)c5nc(c(-c6c(F)cccc6F)c6ccc3[nH]6)C=C5)C=C4)cc2)C12CCN(C(=O)c1ccccc1-n1cccn1)CC2
REMARK SMILES IDX 13 1 12 2 11 3 10 4 9 5 7 6 8 7 6 8 1 9 2 10 3 11 75 12 4 13
REMARK SMILES IDX 5 14 76 15 93 16 77 17 92 18 78 19 79 20 80 21 81 22 82 23
REMARK SMILES IDX 86 24 83 25 85 26 84 27 87 28 88 29 91 30 89 31 90 32 14 33
REMARK SMILES IDX 15 34 16 35 17 36 18 37 19 38 20 39 21 40 22 41 74 42 23 43
REMARK SMILES IDX 73 44 24 45 25 46 26 47 67 48 27 49 72 50 66 51 68 52 28 53
REMARK SMILES IDX 71 54 65 55 64 56 29 58 55 59 38 60 54 61 39 62 42 63 53 64
REMARK SMILES IDX 69 65 40 66 41 67 52 69 70 70 43 71 30 72 31 73 36 74 32 75
REMARK SMILES IDX 33 76 35 77 37 78 34 79 56 80 57 81 62 82 58 83 59 84 61 85
REMARK SMILES IDX 63 86 60 87 44 88 45 89 50 90 46 91 47 92 49 93 51 94 48 95
REMARK H PARENT 68 57 42 68
REMARK Flexibility Score: inf
ROOT
ATOM      1  C   UNL A   1      40.549  22.171  26.349  1.00  0.00     0.188 C 
ENDROOT
BRANCH   1   2
ATOM      2  O   UNL A   1      39.171  22.199  26.702  1.00  0.00    -0.376 OA
BRANCH   2   3
ATOM      3  C   UNL A   1      38.204  22.411  25.684  1.00  0.00     0.202 C 
BRANCH   3   4
ATOM      4  C   UNL A   1      37.374  21.179  25.282  1.00  0.00     0.261 C 
BRANCH   4   5
ATOM      5  O   UNL A   1      35.970  21.393  24.964  1.00  0.00    -0.463 OA
BRANCH   5   6
ATOM      6  C   UNL A   1      35.200  20.280  24.981  1.00  0.00     0.311 C 
ATOM      7  O   UNL A   1      35.649  19.144  24.843  1.00  0.00    -0.252 OA
BRANCH   6   8
ATOM      8  C   UNL A   1      33.691  20.484  25.008  1.00  0.00     0.134 C 
ATOM      9  C   UNL A   1      31.732  21.245  21.882  1.00  0.00     0.147 C 
ATOM     10  N   UNL A   1      32.396  20.701  23.054  1.00  0.00    -0.339 N 
ATOM     11  C   UNL A   1      32.543  19.340  23.248  1.00  0.00     0.223 C 
ATOM     12  C   UNL A   1      32.839  21.510  24.199  1.00  0.00     0.060 C 
ATOM     13  O   UNL A   1      32.227  18.454  22.468  1.00  0.00    -0.275 OA
ATOM     14  C   UNL A   1      33.099  19.116  24.623  1.00  0.00     0.118 C 
ATOM     15  C   UNL A   1      33.503  22.818  23.737  1.00  0.00     0.051 C 
ATOM     16  C   UNL A   1      31.568  21.890  25.038  1.00  0.00     0.051 C 
ATOM     17  C   UNL A   1      33.728  23.807  24.874  1.00  0.00     0.122 C 
ATOM     18  C   UNL A   1      31.795  22.963  26.108  1.00  0.00     0.122 C 
ATOM     19  N   UNL A   1      32.502  24.132  25.591  1.00  0.00    -0.338 N 
ATOM     20  C   UNL A   1      32.090  25.398  26.051  1.00  0.00     0.256 C 
ATOM     21  O   UNL A   1      31.125  25.527  26.808  1.00  0.00    -0.269 OA
BRANCH  20  22
ATOM     22  C   UNL A   1      32.807  26.664  25.719  1.00  0.00     0.065 A 
ATOM     23  C   UNL A   1      33.315  27.382  26.821  1.00  0.00     0.016 A 
ATOM     24  C   UNL A   1      33.001  27.194  24.437  1.00  0.00     0.077 A 
ATOM     25  C   UNL A   1      34.069  28.549  26.648  1.00  0.00     0.001 A 
ATOM     26  C   UNL A   1      33.797  28.347  24.261  1.00  0.00     0.029 A 
ATOM     27  C   UNL A   1      34.323  29.022  25.366  1.00  0.00     0.002 A 
BRANCH  24  28
ATOM     28  N   UNL A   1      32.388  26.646  23.292  1.00  0.00    -0.240 N 
ATOM     29  C   UNL A   1      32.985  25.961  22.258  1.00  0.00     0.115 A 
ATOM     30  N   UNL A   1      31.044  26.735  23.115  1.00  0.00    -0.177 NA
ATOM     31  C   UNL A   1      31.996  25.655  21.355  1.00  0.00     0.042 A 
ATOM     32  C   UNL A   1      30.826  26.179  21.924  1.00  0.00     0.135 A 
ENDBRANCH  24  28
ENDBRANCH  20  22
ENDBRANCH   6   8
ENDBRANCH   5   6
ENDBRANCH   4   5
ENDBRANCH   3   4
ENDBRANCH   2   3
ENDBRANCH   1   2
BRANCH   1  33
ATOM     33  C   UNL A   1      41.332  20.885  26.577  1.00  0.00     0.188 C 
BRANCH  33  34
ATOM     34  O   UNL A   1      42.337  20.672  25.599  1.00  0.00    -0.376 OA
BRANCH  34  35
ATOM     35  C   UNL A   1      43.592  21.238  25.963  1.00  0.00     0.202 C 
BRANCH  35  36
ATOM     36  C   UNL A   1      44.090  22.127  24.813  1.00  0.00     0.261 C 
BRANCH  36  37
ATOM     37  O   UNL A   1      43.378  23.386  24.662  1.00  0.00    -0.460 OA
BRANCH  37  38
ATOM     38  C   UNL A   1      44.067  24.446  25.133  1.00  0.00     0.338 C 
ATOM     39  O   UNL A   1      45.165  24.787  24.737  1.00  0.00    -0.246 OA
BRANCH  38  40
ATOM     40  C   UNL A   1      43.297  25.293  26.062  1.00  0.00     0.060 A 
ATOM     41  C   UNL A   1      43.497  26.672  25.993  1.00  0.00     0.016 A 
ATOM     42  C   UNL A   1      42.616  24.755  27.148  1.00  0.00     0.016 A 
ATOM     43  C   UNL A   1      43.095  27.514  27.023  1.00  0.00     0.010 A 
ATOM     44  C   UNL A   1      42.152  25.611  28.163  1.00  0.00     0.010 A 
ATOM     45  C   UNL A   1      42.410  26.996  28.124  1.00  0.00    -0.014 A 
BRANCH  45  46
ATOM     46  C   UNL A   1      42.008  27.905  29.235  1.00  0.00     0.031 A 
ATOM     47  C   UNL A   1      42.781  27.928  30.527  1.00  0.00     0.074 A 
ATOM     48  C   UNL A   1      40.968  28.750  29.074  1.00  0.00     0.049 A 
ATOM     49  N   UNL A   1      42.494  28.529  31.654  1.00  0.00    -0.248 NA
ATOM     50  C   UNL A   1      44.048  27.179  30.556  1.00  0.00     0.031 C 
ATOM     51  C   UNL A   1      40.179  28.903  27.850  1.00  0.00     0.029 A 
ATOM     52  N   UNL A   1      40.393  29.638  29.950  1.00  0.00    -0.354 N 
ATOM     53  C   UNL A   1      43.519  28.204  32.534  1.00  0.00     0.074 A 
ATOM     54  C   UNL A   1      44.443  27.357  31.810  1.00  0.00     0.031 C 
ATOM     55  C   UNL A   1      39.231  29.831  28.050  1.00  0.00     0.029 A 
ATOM     56  C   UNL A   1      39.286  30.272  29.438  1.00  0.00     0.049 A 
ATOM     57  H   UNL A   1      40.741  29.804  30.856  1.00  0.00     0.167 HD
ATOM     58  C   UNL A   1      43.670  28.569  33.830  1.00  0.00     0.037 A 
ATOM     59  C   UNL A   1      38.377  31.069  30.032  1.00  0.00     0.037 A 
ATOM     60  C   UNL A   1      42.763  29.432  34.545  1.00  0.00     0.049 A 
ATOM     61  C   UNL A   1      38.516  31.380  31.495  1.00  0.00     0.074 A 
ATOM     62  C   UNL A   1      42.834  29.853  35.862  1.00  0.00     0.029 A 
ATOM     63  N   UNL A   1      41.626  30.008  34.003  1.00  0.00    -0.354 N 
ATOM     64  N   UNL A   1      39.460  31.025  32.331  1.00  0.00    -0.248 NA
ATOM     65  C   UNL A   1      37.448  32.187  32.102  1.00  0.00     0.031 C 
ATOM     66  C   UNL A   1      41.710  30.641  36.132  1.00  0.00     0.029 A 
ATOM     67  C   UNL A   1      40.970  30.756  34.968  1.00  0.00     0.049 A 
ATOM     68  H   UNL A   1      41.329  29.902  33.071  1.00  0.00     0.167 HD
ATOM     69  C   UNL A   1      39.112  31.581  33.555  1.00  0.00     0.074 A 
ATOM     70  C   UNL A   1      37.883  32.316  33.347  1.00  0.00     0.031 C 
ATOM     71  C   UNL A   1      39.749  31.485  34.747  1.00  0.00     0.037 A 
BRANCH  58  72
ATOM     72  C   UNL A   1      44.831  27.998  34.590  1.00  0.00     0.057 A 
ATOM     73  C   UNL A   1      44.815  26.701  35.116  1.00  0.00     0.134 A 
ATOM     74  C   UNL A   1      46.012  28.739  34.730  1.00  0.00     0.134 A 
ATOM     75  F   UNL A   1      43.712  25.944  35.026  1.00  0.00    -0.206 F 
ATOM     76  C   UNL A   1      45.932  26.164  35.760  1.00  0.00     0.040 A 
ATOM     77  C   UNL A   1      47.142  28.206  35.353  1.00  0.00     0.040 A 
ATOM     78  F   UNL A   1      46.093  29.987  34.244  1.00  0.00    -0.206 F 
ATOM     79  C   UNL A   1      47.103  26.914  35.871  1.00  0.00     0.006 A 
ENDBRANCH  58  72
BRANCH  59  80
ATOM     80  C   UNL A   1      37.206  31.568  29.265  1.00  0.00     0.057 A 
ATOM     81  C   UNL A   1      37.194  32.852  28.709  1.00  0.00     0.134 A 
ATOM     82  C   UNL A   1      36.053  30.787  29.110  1.00  0.00     0.134 A 
ATOM     83  F   UNL A   1      38.256  33.659  28.850  1.00  0.00    -0.206 F 
ATOM     84  C   UNL A   1      36.071  33.349  28.045  1.00  0.00     0.040 A 
ATOM     85  C   UNL A   1      34.937  31.260  28.419  1.00  0.00     0.040 A 
ATOM     86  F   UNL A   1      35.997  29.549  29.622  1.00  0.00    -0.206 F 
ATOM     87  C   UNL A   1      34.941  32.549  27.894  1.00  0.00     0.006 A 
ENDBRANCH  59  80
BRANCH  71  88
ATOM     88  C   UNL A   1      39.142  32.224  35.903  1.00  0.00     0.057 A 
ATOM     89  C   UNL A   1      38.241  31.611  36.783  1.00  0.00     0.134 A 
ATOM     90  C   UNL A   1      39.460  33.569  36.136  1.00  0.00     0.134 A 
ATOM     91  F   UNL A   1      37.882  30.330  36.605  1.00  0.00    -0.206 F 
ATOM     92  C   UNL A   1      37.653  32.316  37.834  1.00  0.00     0.040 A 
ATOM     93  C   UNL A   1      38.900  34.276  37.200  1.00  0.00     0.040 A 
ATOM     94  F   UNL A   1      40.322  34.213  35.336  1.00  0.00    -0.206 F 
ATOM     95  C   UNL A   1      37.986  33.653  38.046  1.00  0.00     0.006 A 
ENDBRANCH  71  88
ENDBRANCH  45  46
ENDBRANCH  38  40
ENDBRANCH  37  38
ENDBRANCH  36  37
ENDBRANCH  35  36
ENDBRANCH  34  35
ENDBRANCH  33  34
ENDBRANCH   1  33
TORSDOF 19
ENDMDL
MODEL 3
REMARK VINA RESULT:     -11.3      0.792      5.860
REMARK SMILES CN1C(=O)C[C@@H](C(=O)OCCOCCOCCOC(=O)c2ccc(-c3c4nc(c(-c5c(F)cccc5F)c5ccc([nH]5)c(-c5c(F)cccc5F)c5nc(c(-c6c(F)cccc6F)c6ccc3[nH]6)C=C5)C=C4)cc2)C12CCN(C(=O)c1ccccc1-n1cccn1)CC2
REMARK SMILES IDX 13 1 12 2 11 3 10 4 9 5 7 6 8 7 6 8 1 9 2 10 3 11 75 12 4 13
REMARK SMILES IDX 5 14 76 15 93 16 77 17 92 18 78 19 79 20 80 21 81 22 82 23
REMARK SMILES IDX 86 24 83 25 85 26 84 27 87 28 88 29 91 30 89 31 90 32 14 33
REMARK SMILES IDX 15 34 16 35 17 36 18 37 19 38 20 39 21 40 22 41 74 42 23 43
REMARK SMILES IDX 73 44 24 45 25 46 26 47 67 48 27 49 72 50 66 51 68 52 28 53
REMARK SMILES IDX 71 54 65 55 64 56 29 58 55 59 38 60 54 61 39 62 42 63 53 64
REMARK SMILES IDX 69 65 40 66 41 67 52 69 70 70 43 71 30 72 31 73 36 74 32 75
REMARK SMILES IDX 33 76 35 77 37 78 34 79 56 80 57 81 62 82 58 83 59 84 61 85
REMARK SMILES IDX 63 86 60 87 44 88 45 89 50 90 46 91 47 92 49 93 51 94 48 95
REMARK H PARENT 68 57 42 68
REMARK Flexibility Score: inf
ROOT
ATOM      1  C   UNL A   1      33.046  33.628  27.699  1.00  0.00     0.188 C 
ENDROOT
BRANCH   1   2
ATOM      2  O   UNL A   1      33.000  32.206  27.689  1.00  0.00    -0.376 OA
BRANCH   2   3
ATOM      3  C   UNL A   1      34.214  31.479  27.568  1.00  0.00     0.202 C 
BRANCH   3   4
ATOM      4  C   UNL A   1      34.069  29.988  27.220  1.00  0.00     0.261 C 
BRANCH   4   5
ATOM      5  O   UNL A   1      33.071  29.626  26.224  1.00  0.00    -0.463 OA
BRANCH   5   6
ATOM      6  C   UNL A   1      33.154  28.357  25.760  1.00  0.00     0.311 C 
ATOM      7  O   UNL A   1      33.714  27.449  26.370  1.00  0.00    -0.252 OA
BRANCH   6   8
ATOM      8  C   UNL A   1      32.669  28.109  24.338  1.00  0.00     0.134 C 
ATOM      9  C   UNL A   1      29.104  27.153  23.589  1.00  0.00     0.147 C 
ATOM     10  N   UNL A   1      30.403  27.768  23.801  1.00  0.00    -0.339 N 
ATOM     11  C   UNL A   1      30.565  29.140  23.854  1.00  0.00     0.223 C 
ATOM     12  C   UNL A   1      31.671  27.024  23.831  1.00  0.00     0.060 C 
ATOM     13  O   UNL A   1      29.680  29.980  23.815  1.00  0.00    -0.275 OA
ATOM     14  C   UNL A   1      32.035  29.440  23.897  1.00  0.00     0.118 C 
ATOM     15  C   UNL A   1      31.534  25.717  24.631  1.00  0.00     0.051 C 
ATOM     16  C   UNL A   1      32.039  26.642  22.354  1.00  0.00     0.051 C 
ATOM     17  C   UNL A   1      32.728  24.786  24.463  1.00  0.00     0.122 C 
ATOM     18  C   UNL A   1      33.175  25.625  22.212  1.00  0.00     0.122 C 
ATOM     19  N   UNL A   1      32.994  24.456  23.068  1.00  0.00    -0.338 N 
ATOM     20  C   UNL A   1      33.350  23.199  22.540  1.00  0.00     0.256 C 
ATOM     21  O   UNL A   1      33.733  23.075  21.375  1.00  0.00    -0.269 OA
BRANCH  20  22
ATOM     22  C   UNL A   1      33.349  21.942  23.344  1.00  0.00     0.065 A 
ATOM     23  C   UNL A   1      32.257  21.078  23.121  1.00  0.00     0.016 A 
ATOM     24  C   UNL A   1      34.311  21.563  24.290  1.00  0.00     0.077 A 
ATOM     25  C   UNL A   1      32.168  19.834  23.756  1.00  0.00     0.001 A 
ATOM     26  C   UNL A   1      34.241  20.290  24.897  1.00  0.00     0.029 A 
ATOM     27  C   UNL A   1      33.170  19.434  24.633  1.00  0.00     0.002 A 
BRANCH  24  28
ATOM     28  N   UNL A   1      35.342  22.429  24.708  1.00  0.00    -0.240 N 
ATOM     29  C   UNL A   1      36.441  22.843  23.992  1.00  0.00     0.115 A 
ATOM     30  N   UNL A   1      35.316  22.990  25.945  1.00  0.00    -0.177 NA
ATOM     31  C   UNL A   1      37.180  23.650  24.822  1.00  0.00     0.042 A 
ATOM     32  C   UNL A   1      36.452  23.684  26.020  1.00  0.00     0.135 A 
ENDBRANCH  24  28
ENDBRANCH  20  22
ENDBRANCH   6   8
ENDBRANCH   5   6
ENDBRANCH   4   5
ENDBRANCH   3   4
ENDBRANCH   2   3
ENDBRANCH   1   2
BRANCH   1  33
ATOM     33  C   UNL A   1      34.380  34.312  27.971  1.00  0.00     0.188 C 
BRANCH  33  34
ATOM     34  O   UNL A   1      34.288  35.321  28.963  1.00  0.00    -0.376 OA
BRANCH  34  35
ATOM     35  C   UNL A   1      33.553  34.904  30.110  1.00  0.00     0.202 C 
BRANCH  35  36
ATOM     36  C   UNL A   1      34.507  34.185  31.078  1.00  0.00     0.261 C 
BRANCH  36  37
ATOM     37  O   UNL A   1      34.941  32.868  30.641  1.00  0.00    -0.460 OA
BRANCH  37  38
ATOM     38  C   UNL A   1      35.629  32.195  31.586  1.00  0.00     0.338 C 
ATOM     39  O   UNL A   1      35.130  31.680  32.569  1.00  0.00    -0.246 OA
BRANCH  38  40
ATOM     40  C   UNL A   1      37.044  31.964  31.244  1.00  0.00     0.060 A 
ATOM     41  C   UNL A   1      37.415  32.105  29.906  1.00  0.00     0.016 A 
ATOM     42  C   UNL A   1      37.924  31.363  32.137  1.00  0.00     0.016 A 
ATOM     43  C   UNL A   1      38.616  31.589  29.431  1.00  0.00     0.010 A 
ATOM     44  C   UNL A   1      39.166  30.895  31.672  1.00  0.00     0.010 A 
ATOM     45  C   UNL A   1      39.513  30.979  30.308  1.00  0.00    -0.014 A 
BRANCH  45  46
ATOM     46  C   UNL A   1      40.784  30.407  29.781  1.00  0.00     0.031 A 
ATOM     47  C   UNL A   1      42.006  31.273  29.615  1.00  0.00     0.074 A 
ATOM     48  C   UNL A   1      40.863  29.093  29.486  1.00  0.00     0.049 A 
ATOM     49  N   UNL A   1      43.144  30.996  29.031  1.00  0.00    -0.248 NA
ATOM     50  C   UNL A   1      41.941  32.628  30.185  1.00  0.00     0.031 C 
ATOM     51  C   UNL A   1      39.791  28.114  29.676  1.00  0.00     0.029 A 
ATOM     52  N   UNL A   1      41.894  28.354  28.959  1.00  0.00    -0.354 N 
ATOM     53  C   UNL A   1      43.916  32.147  29.130  1.00  0.00     0.074 A 
ATOM     54  C   UNL A   1      43.120  33.128  29.837  1.00  0.00     0.031 C 
ATOM     55  C   UNL A   1      40.221  26.906  29.279  1.00  0.00     0.029 A 
ATOM     56  C   UNL A   1      41.562  27.041  28.725  1.00  0.00     0.049 A 
ATOM     57  H   UNL A   1      42.784  28.729  28.767  1.00  0.00     0.167 HD
ATOM     58  C   UNL A   1      45.168  32.370  28.662  1.00  0.00     0.037 A 
ATOM     59  C   UNL A   1      42.232  26.067  28.080  1.00  0.00     0.037 A 
ATOM     60  C   UNL A   1      45.970  31.387  27.979  1.00  0.00     0.049 A 
ATOM     61  C   UNL A   1      43.579  26.369  27.488  1.00  0.00     0.074 A 
ATOM     62  C   UNL A   1      47.249  31.525  27.466  1.00  0.00     0.029 A 
ATOM     63  N   UNL A   1      45.574  30.086  27.716  1.00  0.00    -0.354 N 
ATOM     64  N   UNL A   1      44.278  27.476  27.541  1.00  0.00    -0.248 NA
ATOM     65  C   UNL A   1      44.223  25.289  26.726  1.00  0.00     0.031 C 
ATOM     66  C   UNL A   1      47.606  30.323  26.846  1.00  0.00     0.029 A 
ATOM     67  C   UNL A   1      46.571  29.420  27.021  1.00  0.00     0.049 A 
ATOM     68  H   UNL A   1      44.712  29.694  27.983  1.00  0.00     0.167 HD
ATOM     69  C   UNL A   1      45.449  27.220  26.839  1.00  0.00     0.074 A 
ATOM     70  C   UNL A   1      45.376  25.846  26.391  1.00  0.00     0.031 C 
ATOM     71  C   UNL A   1      46.488  28.051  26.583  1.00  0.00     0.037 A 
BRANCH  58  72
ATOM     72  C   UNL A   1      45.742  33.747  28.822  1.00  0.00     0.057 A 
ATOM     73  C   UNL A   1      45.455  34.785  27.928  1.00  0.00     0.134 A 
ATOM     74  C   UNL A   1      46.538  34.052  29.934  1.00  0.00     0.134 A 
ATOM     75  F   UNL A   1      44.710  34.556  26.836  1.00  0.00    -0.206 F 
ATOM     76  C   UNL A   1      45.944  36.077  28.132  1.00  0.00     0.040 A 
ATOM     77  C   UNL A   1      47.015  35.344  30.161  1.00  0.00     0.040 A 
ATOM     78  F   UNL A   1      46.846  33.103  30.831  1.00  0.00    -0.206 F 
ATOM     79  C   UNL A   1      46.719  36.361  29.257  1.00  0.00     0.006 A 
ENDBRANCH  58  72
BRANCH  59  80
ATOM     80  C   UNL A   1      41.609  24.732  27.887  1.00  0.00     0.057 A 
ATOM     81  C   UNL A   1      42.045  23.614  28.607  1.00  0.00     0.134 A 
ATOM     82  C   UNL A   1      40.591  24.534  26.943  1.00  0.00     0.134 A 
ATOM     83  F   UNL A   1      43.036  23.732  29.502  1.00  0.00    -0.206 F 
ATOM     84  C   UNL A   1      41.507  22.345  28.382  1.00  0.00     0.040 A 
ATOM     85  C   UNL A   1      40.022  23.278  26.733  1.00  0.00     0.040 A 
ATOM     86  F   UNL A   1      40.130  25.563  26.217  1.00  0.00    -0.206 F 
ATOM     87  C   UNL A   1      40.489  22.177  27.446  1.00  0.00     0.006 A 
ENDBRANCH  59  80
BRANCH  71  88
ATOM     88  C   UNL A   1      47.641  27.479  25.813  1.00  0.00     0.057 A 
ATOM     89  C   UNL A   1      48.739  26.887  26.452  1.00  0.00     0.134 A 
ATOM     90  C   UNL A   1      47.655  27.522  24.412  1.00  0.00     0.134 A 
ATOM     91  F   UNL A   1      48.794  26.829  27.792  1.00  0.00    -0.206 F 
ATOM     92  C   UNL A   1      49.823  26.389  25.729  1.00  0.00     0.040 A 
ATOM     93  C   UNL A   1      48.720  27.002  23.677  1.00  0.00     0.040 A 
ATOM     94  F   UNL A   1      46.632  28.067  23.737  1.00  0.00    -0.206 F 
ATOM     95  C   UNL A   1      49.814  26.443  24.336  1.00  0.00     0.006 A 
ENDBRANCH  71  88
ENDBRANCH  45  46
ENDBRANCH  38  40
ENDBRANCH  37  38
ENDBRANCH  36  37
ENDBRANCH  35  36
ENDBRANCH  34  35
ENDBRANCH  33  34
ENDBRANCH   1  33
TORSDOF 19
ENDMDL
