MODEL 1
REMARK VINA RESULT:     -10.3      0.000      0.000
REMARK SMILES O=C(OCCOCCOCCOC(=O)c1cc(Br)cc2c1OCC2)c1ccc(-c2c3nc(c(-c4c(F)cccc4F)c4ccc([nH]4)c(-c4c(F)cccc4F)c4nc(c(-c5c(F)cccc5F)c5ccc2[nH]5)C=C4)C=C3)cc1
REMARK SMILES IDX 7 1 6 2 5 3 4 4 3 5 2 6 1 7 25 8 26 9 78 10 27 11 77 12
REMARK SMILES IDX 28 13 29 14 30 15 71 16 31 17 76 18 70 19 72 20 32 21 75 22
REMARK SMILES IDX 69 23 68 24 33 26 59 27 42 28 58 29 43 30 46 31 57 32 73 33
REMARK SMILES IDX 44 34 45 35 56 37 74 38 47 39 34 40 35 41 40 42 36 43 37 44
REMARK SMILES IDX 39 45 41 46 38 47 60 48 61 49 66 50 62 51 63 52 65 53 67 54
REMARK SMILES IDX 64 55 48 56 49 57 54 58 50 59 51 60 53 61 55 62 52 63 8 64
REMARK SMILES IDX 9 65 10 66 11 67 12 68 13 69 14 70 15 71 16 72 21 73 17 74
REMARK SMILES IDX 20 75 22 76 18 77 19 78 24 79 23 80
REMARK H PARENT 72 25 46 36
REMARK Flexibility Score: inf
ROOT
ATOM      1  C   UNL A   1      40.776  21.082  27.602  1.00  0.00     0.188 C 
ENDROOT
BRANCH   1   2
ATOM      2  O   UNL A   1      42.197  21.118  27.401  1.00  0.00    -0.376 OA
BRANCH   2   3
ATOM      3  C   UNL A   1      42.601  20.772  26.074  1.00  0.00     0.202 C 
BRANCH   3   4
ATOM      4  C   UNL A   1      43.773  21.607  25.552  1.00  0.00     0.261 C 
BRANCH   4   5
ATOM      5  O   UNL A   1      43.329  22.868  25.027  1.00  0.00    -0.460 OA
BRANCH   5   6
ATOM      6  C   UNL A   1      43.854  24.095  25.267  1.00  0.00     0.338 C 
ATOM      7  O   UNL A   1      44.833  24.462  24.621  1.00  0.00    -0.246 OA
BRANCH   6   8
ATOM      8  C   UNL A   1      43.254  25.077  26.223  1.00  0.00     0.060 A 
ATOM      9  C   UNL A   1      43.564  26.436  26.286  1.00  0.00     0.016 A 
ATOM     10  C   UNL A   1      42.239  24.591  27.068  1.00  0.00     0.016 A 
ATOM     11  C   UNL A   1      42.992  27.260  27.252  1.00  0.00     0.010 A 
ATOM     12  C   UNL A   1      41.604  25.432  27.988  1.00  0.00     0.010 A 
ATOM     13  C   UNL A   1      42.019  26.761  28.121  1.00  0.00    -0.014 A 
BRANCH  13  14
ATOM     14  C   UNL A   1      41.545  27.602  29.243  1.00  0.00     0.031 A 
ATOM     15  C   UNL A   1      42.302  27.571  30.540  1.00  0.00     0.074 A 
ATOM     16  C   UNL A   1      40.510  28.446  29.077  1.00  0.00     0.049 A 
ATOM     17  N   UNL A   1      42.054  28.194  31.662  1.00  0.00    -0.248 NA
ATOM     18  C   UNL A   1      43.510  26.729  30.574  1.00  0.00     0.031 C 
ATOM     19  C   UNL A   1      39.748  28.621  27.840  1.00  0.00     0.029 A 
ATOM     20  N   UNL A   1      39.936  29.332  29.951  1.00  0.00    -0.354 N 
ATOM     21  C   UNL A   1      43.060  27.806  32.537  1.00  0.00     0.074 A 
ATOM     22  C   UNL A   1      43.910  26.877  31.827  1.00  0.00     0.031 C 
ATOM     23  C   UNL A   1      38.820  29.572  28.031  1.00  0.00     0.029 A 
ATOM     24  C   UNL A   1      38.890  30.038  29.409  1.00  0.00     0.049 A 
ATOM     25  H   UNL A   1      40.245  29.452  30.878  1.00  0.00     0.167 HD
ATOM     26  C   UNL A   1      43.263  28.197  33.816  1.00  0.00     0.037 A 
ATOM     27  C   UNL A   1      38.073  30.945  29.973  1.00  0.00     0.037 A 
ATOM     28  C   UNL A   1      42.422  29.128  34.515  1.00  0.00     0.049 A 
ATOM     29  C   UNL A   1      38.275  31.311  31.415  1.00  0.00     0.074 A 
ATOM     30  C   UNL A   1      42.510  29.560  35.827  1.00  0.00     0.029 A 
ATOM     31  N   UNL A   1      41.337  29.778  33.948  1.00  0.00    -0.354 N 
ATOM     32  N   UNL A   1      39.195  30.893  32.250  1.00  0.00    -0.248 NA
ATOM     33  C   UNL A   1      37.320  32.265  31.994  1.00  0.00     0.031 C 
ATOM     34  C   UNL A   1      41.457  30.455  36.059  1.00  0.00     0.029 A 
ATOM     35  C   UNL A   1      40.737  30.601  34.884  1.00  0.00     0.049 A 
ATOM     36  H   UNL A   1      41.036  29.669  33.017  1.00  0.00     0.167 HD
ATOM     37  C   UNL A   1      38.935  31.535  33.452  1.00  0.00     0.074 A 
ATOM     38  C   UNL A   1      37.781  32.386  33.230  1.00  0.00     0.031 C 
ATOM     39  C   UNL A   1      39.587  31.430  34.635  1.00  0.00     0.037 A 
BRANCH  26  40
ATOM     40  C   UNL A   1      44.423  27.576  34.534  1.00  0.00     0.057 A 
ATOM     41  C   UNL A   1      44.294  26.374  35.243  1.00  0.00     0.134 A 
ATOM     42  C   UNL A   1      45.671  28.208  34.549  1.00  0.00     0.134 A 
ATOM     43  F   UNL A   1      43.115  25.736  35.292  1.00  0.00    -0.206 F 
ATOM     44  C   UNL A   1      45.362  25.836  35.964  1.00  0.00     0.040 A 
ATOM     45  C   UNL A   1      46.751  27.670  35.251  1.00  0.00     0.040 A 
ATOM     46  F   UNL A   1      45.857  29.364  33.896  1.00  0.00    -0.206 F 
ATOM     47  C   UNL A   1      46.595  26.484  35.968  1.00  0.00     0.006 A 
ENDBRANCH  26  40
BRANCH  27  48
ATOM     48  C   UNL A   1      36.963  31.542  29.193  1.00  0.00     0.057 A 
ATOM     49  C   UNL A   1      37.039  32.849  28.703  1.00  0.00     0.134 A 
ATOM     50  C   UNL A   1      35.787  30.825  28.946  1.00  0.00     0.134 A 
ATOM     51  F   UNL A   1      38.133  33.593  28.931  1.00  0.00    -0.206 F 
ATOM     52  C   UNL A   1      35.980  33.428  28.001  1.00  0.00     0.040 A 
ATOM     53  C   UNL A   1      34.723  31.388  28.241  1.00  0.00     0.040 A 
ATOM     54  F   UNL A   1      35.658  29.565  29.389  1.00  0.00    -0.206 F 
ATOM     55  C   UNL A   1      34.818  32.694  27.766  1.00  0.00     0.006 A 
ENDBRANCH  27  48
BRANCH  39  56
ATOM     56  C   UNL A   1      39.069  32.260  35.765  1.00  0.00     0.057 A 
ATOM     57  C   UNL A   1      38.202  31.727  36.727  1.00  0.00     0.134 A 
ATOM     58  C   UNL A   1      39.465  33.594  35.911  1.00  0.00     0.134 A 
ATOM     59  F   UNL A   1      37.777  30.458  36.628  1.00  0.00    -0.206 F 
ATOM     60  C   UNL A   1      37.735  32.498  37.789  1.00  0.00     0.040 A 
ATOM     61  C   UNL A   1      39.018  34.371  36.980  1.00  0.00     0.040 A 
ATOM     62  F   UNL A   1      40.296  34.160  35.022  1.00  0.00    -0.206 F 
ATOM     63  C   UNL A   1      38.148  33.823  37.921  1.00  0.00     0.006 A 
ENDBRANCH  39  56
ENDBRANCH  13  14
ENDBRANCH   6   8
ENDBRANCH   5   6
ENDBRANCH   4   5
ENDBRANCH   3   4
ENDBRANCH   2   3
ENDBRANCH   1   2
BRANCH   1  64
ATOM     64  C   UNL A   1      40.049  21.884  26.519  1.00  0.00     0.188 C 
BRANCH  64  65
ATOM     65  O   UNL A   1      39.252  21.098  25.628  1.00  0.00    -0.376 OA
BRANCH  65  66
ATOM     66  C   UNL A   1      37.892  21.498  25.474  1.00  0.00     0.202 C 
BRANCH  66  67
ATOM     67  C   UNL A   1      37.558  22.944  25.856  1.00  0.00     0.261 C 
BRANCH  67  68
ATOM     68  O   UNL A   1      36.945  23.725  24.812  1.00  0.00    -0.460 OA
BRANCH  68  69
ATOM     69  C   UNL A   1      36.416  22.990  23.804  1.00  0.00     0.342 C 
ATOM     70  O   UNL A   1      36.995  22.578  22.805  1.00  0.00    -0.246 OA
BRANCH  69  71
ATOM     71  C   UNL A   1      34.957  22.893  23.914  1.00  0.00     0.103 A 
ATOM     72  C   UNL A   1      34.212  23.986  23.449  1.00  0.00     0.035 A 
ATOM     73  C   UNL A   1      34.288  21.727  24.252  1.00  0.00     0.137 A 
ATOM     74  C   UNL A   1      32.823  23.887  23.328  1.00  0.00     0.019 A 
ATOM     75  C   UNL A   1      32.905  21.645  24.136  1.00  0.00    -0.000 A 
ATOM     76  O   UNL A   1      34.864  20.545  24.626  1.00  0.00    -0.492 OA
ATOM     77  Br  UNL A   1      31.860  25.332  22.583  1.00  0.00    -0.051 Br
ATOM     78  C   UNL A   1      32.151  22.716  23.679  1.00  0.00     0.023 A 
ATOM     79  C   UNL A   1      32.451  20.267  24.427  1.00  0.00     0.081 C 
ATOM     80  C   UNL A   1      33.762  19.653  24.912  1.00  0.00     0.234 C 
ENDBRANCH  69  71
ENDBRANCH  68  69
ENDBRANCH  67  68
ENDBRANCH  66  67
ENDBRANCH  65  66
ENDBRANCH  64  65
ENDBRANCH   1  64
TORSDOF 17
ENDMDL
MODEL 2
REMARK VINA RESULT:     -10.1      2.716      7.492
REMARK SMILES O=C(OCCOCCOCCOC(=O)c1cc(Br)cc2c1OCC2)c1ccc(-c2c3nc(c(-c4c(F)cccc4F)c4ccc([nH]4)c(-c4c(F)cccc4F)c4nc(c(-c5c(F)cccc5F)c5ccc2[nH]5)C=C4)C=C3)cc1
REMARK SMILES IDX 7 1 6 2 5 3 4 4 3 5 2 6 1 7 25 8 26 9 78 10 27 11 77 12
REMARK SMILES IDX 28 13 29 14 30 15 71 16 31 17 76 18 70 19 72 20 32 21 75 22
REMARK SMILES IDX 69 23 68 24 33 26 59 27 42 28 58 29 43 30 46 31 57 32 73 33
REMARK SMILES IDX 44 34 45 35 56 37 74 38 47 39 34 40 35 41 40 42 36 43 37 44
REMARK SMILES IDX 39 45 41 46 38 47 60 48 61 49 66 50 62 51 63 52 65 53 67 54
REMARK SMILES IDX 64 55 48 56 49 57 54 58 50 59 51 60 53 61 55 62 52 63 8 64
REMARK SMILES IDX 9 65 10 66 11 67 12 68 13 69 14 70 15 71 16 72 21 73 17 74
REMARK SMILES IDX 20 75 22 76 18 77 19 78 24 79 23 80
REMARK H PARENT 72 25 46 36
REMARK Flexibility Score: inf
ROOT
ATOM      1  C   UNL A   1      43.845  22.066  25.007  1.00  0.00     0.188 C 
ENDROOT
BRANCH   1   2
ATOM      2  O   UNL A   1      44.633  22.806  25.951  1.00  0.00    -0.376 OA
BRANCH   2   3
ATOM      3  C   UNL A   1      46.027  22.842  25.637  1.00  0.00     0.202 C 
BRANCH   3   4
ATOM      4  C   UNL A   1      46.449  24.092  24.861  1.00  0.00     0.261 C 
BRANCH   4   5
ATOM      5  O   UNL A   1      45.406  25.081  24.847  1.00  0.00    -0.460 OA
BRANCH   5   6
ATOM      6  C   UNL A   1      45.524  26.410  25.088  1.00  0.00     0.338 C 
ATOM      7  O   UNL A   1      46.238  27.088  24.352  1.00  0.00    -0.246 OA
BRANCH   6   8
ATOM      8  C   UNL A   1      44.759  27.127  26.155  1.00  0.00     0.060 A 
ATOM      9  C   UNL A   1      44.768  28.505  26.367  1.00  0.00     0.016 A 
ATOM     10  C   UNL A   1      43.906  26.341  26.952  1.00  0.00     0.016 A 
ATOM     11  C   UNL A   1      44.066  29.074  27.428  1.00  0.00     0.010 A 
ATOM     12  C   UNL A   1      43.137  26.917  27.968  1.00  0.00     0.010 A 
ATOM     13  C   UNL A   1      43.257  28.283  28.246  1.00  0.00    -0.014 A 
BRANCH  13  14
ATOM     14  C   UNL A   1      42.652  28.872  29.461  1.00  0.00     0.031 A 
ATOM     15  C   UNL A   1      41.263  29.439  29.375  1.00  0.00     0.074 A 
ATOM     16  C   UNL A   1      43.296  28.821  30.641  1.00  0.00     0.049 A 
ATOM     17  N   UNL A   1      40.549  30.032  30.296  1.00  0.00    -0.248 NA
ATOM     18  C   UNL A   1      40.583  29.312  28.075  1.00  0.00     0.031 C 
ATOM     19  C   UNL A   1      44.614  28.224  30.863  1.00  0.00     0.029 A 
ATOM     20  N   UNL A   1      42.915  29.260  31.883  1.00  0.00    -0.354 N 
ATOM     21  C   UNL A   1      39.347  30.363  29.684  1.00  0.00     0.074 A 
ATOM     22  C   UNL A   1      39.434  29.928  28.307  1.00  0.00     0.031 C 
ATOM     23  C   UNL A   1      44.921  28.318  32.167  1.00  0.00     0.029 A 
ATOM     24  C   UNL A   1      43.849  29.020  32.860  1.00  0.00     0.049 A 
ATOM     25  H   UNL A   1      42.054  29.705  32.056  1.00  0.00     0.167 HD
ATOM     26  C   UNL A   1      38.264  30.968  30.223  1.00  0.00     0.037 A 
ATOM     27  C   UNL A   1      43.841  29.347  34.164  1.00  0.00     0.037 A 
ATOM     28  C   UNL A   1      38.178  31.390  31.593  1.00  0.00     0.049 A 
ATOM     29  C   UNL A   1      42.657  30.080  34.725  1.00  0.00     0.074 A 
ATOM     30  C   UNL A   1      37.147  32.053  32.233  1.00  0.00     0.029 A 
ATOM     31  N   UNL A   1      39.171  31.179  32.539  1.00  0.00    -0.354 N 
ATOM     32  N   UNL A   1      41.550  30.440  34.121  1.00  0.00    -0.248 NA
ATOM     33  C   UNL A   1      42.726  30.460  36.142  1.00  0.00     0.031 C 
ATOM     34  C   UNL A   1      37.528  32.266  33.564  1.00  0.00     0.029 A 
ATOM     35  C   UNL A   1      38.782  31.708  33.757  1.00  0.00     0.049 A 
ATOM     36  H   UNL A   1      40.026  30.722  32.368  1.00  0.00     0.167 HD
ATOM     37  C   UNL A   1      40.787  31.086  35.085  1.00  0.00     0.074 A 
ATOM     38  C   UNL A   1      41.551  31.049  36.316  1.00  0.00     0.031 C 
ATOM     39  C   UNL A   1      39.567  31.661  34.962  1.00  0.00     0.037 A 
BRANCH  26  40
ATOM     40  C   UNL A   1      37.114  31.235  29.301  1.00  0.00     0.057 A 
ATOM     41  C   UNL A   1      36.897  32.499  28.736  1.00  0.00     0.134 A 
ATOM     42  C   UNL A   1      36.189  30.226  29.007  1.00  0.00     0.134 A 
ATOM     43  F   UNL A   1      37.732  33.515  29.004  1.00  0.00    -0.206 F 
ATOM     44  C   UNL A   1      35.786  32.756  27.931  1.00  0.00     0.040 A 
ATOM     45  C   UNL A   1      35.084  30.467  28.189  1.00  0.00     0.040 A 
ATOM     46  F   UNL A   1      36.336  28.997  29.523  1.00  0.00    -0.206 F 
ATOM     47  C   UNL A   1      34.877  31.737  27.655  1.00  0.00     0.006 A 
ENDBRANCH  26  40
BRANCH  27  48
ATOM     48  C   UNL A   1      45.004  29.024  35.026  1.00  0.00     0.057 A 
ATOM     49  C   UNL A   1      45.065  27.828  35.747  1.00  0.00     0.134 A 
ATOM     50  C   UNL A   1      46.067  29.923  35.168  1.00  0.00     0.134 A 
ATOM     51  F   UNL A   1      44.062  26.940  35.668  1.00  0.00    -0.206 F 
ATOM     52  C   UNL A   1      46.140  27.539  36.590  1.00  0.00     0.040 A 
ATOM     53  C   UNL A   1      47.150  29.644  36.001  1.00  0.00     0.040 A 
ATOM     54  F   UNL A   1      46.064  31.084  34.498  1.00  0.00    -0.206 F 
ATOM     55  C   UNL A   1      47.190  28.448  36.715  1.00  0.00     0.006 A 
ENDBRANCH  27  48
BRANCH  39  56
ATOM     56  C   UNL A   1      38.990  32.283  36.194  1.00  0.00     0.057 A 
ATOM     57  C   UNL A   1      39.233  33.624  36.517  1.00  0.00     0.134 A 
ATOM     58  C   UNL A   1      38.160  31.545  37.044  1.00  0.00     0.134 A 
ATOM     59  F   UNL A   1      40.034  34.374  35.745  1.00  0.00    -0.206 F 
ATOM     60  C   UNL A   1      38.679  34.206  37.656  1.00  0.00     0.040 A 
ATOM     61  C   UNL A   1      37.586  32.122  38.177  1.00  0.00     0.040 A 
ATOM     62  F   UNL A   1      37.889  30.257  36.784  1.00  0.00    -0.206 F 
ATOM     63  C   UNL A   1      37.848  33.456  38.487  1.00  0.00     0.006 A 
ENDBRANCH  39  56
ENDBRANCH  13  14
ENDBRANCH   6   8
ENDBRANCH   5   6
ENDBRANCH   4   5
ENDBRANCH   3   4
ENDBRANCH   2   3
ENDBRANCH   1   2
BRANCH   1  64
ATOM     64  C   UNL A   1      44.650  20.907  24.412  1.00  0.00     0.188 C 
BRANCH  64  65
ATOM     65  O   UNL A   1      43.947  19.662  24.351  1.00  0.00    -0.376 OA
BRANCH  65  66
ATOM     66  C   UNL A   1      44.104  18.790  25.467  1.00  0.00     0.202 C 
BRANCH  66  67
ATOM     67  C   UNL A   1      42.817  18.275  26.120  1.00  0.00     0.261 C 
BRANCH  67  68
ATOM     68  O   UNL A   1      42.227  19.161  27.089  1.00  0.00    -0.460 OA
BRANCH  68  69
ATOM     69  C   UNL A   1      41.113  19.799  26.657  1.00  0.00     0.342 C 
ATOM     70  O   UNL A   1      40.350  19.438  25.768  1.00  0.00    -0.246 OA
BRANCH  69  71
ATOM     71  C   UNL A   1      40.999  21.141  27.238  1.00  0.00     0.103 A 
ATOM     72  C   UNL A   1      42.053  21.568  28.059  1.00  0.00     0.035 A 
ATOM     73  C   UNL A   1      40.033  22.061  26.862  1.00  0.00     0.137 A 
ATOM     74  C   UNL A   1      42.118  22.900  28.479  1.00  0.00     0.019 A 
ATOM     75  C   UNL A   1      40.105  23.380  27.294  1.00  0.00    -0.000 A 
ATOM     76  O   UNL A   1      39.001  21.839  25.992  1.00  0.00    -0.492 OA
ATOM     77  Br  UNL A   1      43.612  23.474  29.482  1.00  0.00    -0.051 Br
ATOM     78  C   UNL A   1      41.138  23.821  28.108  1.00  0.00     0.023 A 
ATOM     79  C   UNL A   1      39.042  24.185  26.653  1.00  0.00     0.081 C 
ATOM     80  C   UNL A   1      38.254  23.077  25.959  1.00  0.00     0.234 C 
ENDBRANCH  69  71
ENDBRANCH  68  69
ENDBRANCH  67  68
ENDBRANCH  66  67
ENDBRANCH  65  66
ENDBRANCH  64  65
ENDBRANCH   1  64
TORSDOF 17
ENDMDL
MODEL 3
REMARK VINA RESULT:     -10.1      4.340      6.765
REMARK SMILES O=C(OCCOCCOCCOC(=O)c1cc(Br)cc2c1OCC2)c1ccc(-c2c3nc(c(-c4c(F)cccc4F)c4ccc([nH]4)c(-c4c(F)cccc4F)c4nc(c(-c5c(F)cccc5F)c5ccc2[nH]5)C=C4)C=C3)cc1
REMARK SMILES IDX 7 1 6 2 5 3 4 4 3 5 2 6 1 7 25 8 26 9 78 10 27 11 77 12
REMARK SMILES IDX 28 13 29 14 30 15 71 16 31 17 76 18 70 19 72 20 32 21 75 22
REMARK SMILES IDX 69 23 68 24 33 26 59 27 42 28 58 29 43 30 46 31 57 32 73 33
REMARK SMILES IDX 44 34 45 35 56 37 74 38 47 39 34 40 35 41 40 42 36 43 37 44
REMARK SMILES IDX 39 45 41 46 38 47 60 48 61 49 66 50 62 51 63 52 65 53 67 54
REMARK SMILES IDX 64 55 48 56 49 57 54 58 50 59 51 60 53 61 55 62 52 63 8 64
REMARK SMILES IDX 9 65 10 66 11 67 12 68 13 69 14 70 15 71 16 72 21 73 17 74
REMARK SMILES IDX 20 75 22 76 18 77 19 78 24 79 23 80
REMARK H PARENT 72 25 46 36
REMARK Flexibility Score: inf
ROOT
ATOM      1  C   UNL A   1      36.522  21.829  25.324  1.00  0.00     0.188 C 
ENDROOT
BRANCH   1   2
ATOM      2  O   UNL A   1      36.390  20.426  25.053  1.00  0.00    -0.376 OA
BRANCH   2   3
ATOM      3  C   UNL A   1      37.627  19.780  24.741  1.00  0.00     0.202 C 
BRANCH   3   4
ATOM      4  C   UNL A   1      38.756  20.112  25.720  1.00  0.00     0.261 C 
BRANCH   4   5
ATOM      5  O   UNL A   1      39.808  19.135  25.661  1.00  0.00    -0.460 OA
BRANCH   5   6
ATOM      6  C   UNL A   1      41.120  19.313  25.950  1.00  0.00     0.338 C 
ATOM      7  O   UNL A   1      41.905  18.388  25.753  1.00  0.00    -0.246 OA
BRANCH   6   8
ATOM      8  C   UNL A   1      41.693  20.613  26.420  1.00  0.00     0.060 A 
ATOM      9  C   UNL A   1      41.949  20.949  27.749  1.00  0.00     0.016 A 
ATOM     10  C   UNL A   1      42.071  21.530  25.422  1.00  0.00     0.016 A 
ATOM     11  C   UNL A   1      42.431  22.210  28.092  1.00  0.00     0.010 A 
ATOM     12  C   UNL A   1      42.629  22.768  25.756  1.00  0.00     0.010 A 
ATOM     13  C   UNL A   1      42.760  23.135  27.099  1.00  0.00    -0.014 A 
BRANCH  13  14
ATOM     14  C   UNL A   1      43.113  24.521  27.482  1.00  0.00     0.031 A 
ATOM     15  C   UNL A   1      44.541  24.967  27.348  1.00  0.00     0.074 A 
ATOM     16  C   UNL A   1      42.159  25.392  27.858  1.00  0.00     0.049 A 
ATOM     17  N   UNL A   1      45.084  26.116  27.652  1.00  0.00    -0.248 NA
ATOM     18  C   UNL A   1      45.484  23.986  26.785  1.00  0.00     0.031 C 
ATOM     19  C   UNL A   1      40.728  25.095  27.949  1.00  0.00     0.029 A 
ATOM     20  N   UNL A   1      42.249  26.713  28.211  1.00  0.00    -0.354 N 
ATOM     21  C   UNL A   1      46.431  25.991  27.336  1.00  0.00     0.074 A 
ATOM     22  C   UNL A   1      46.630  24.648  26.838  1.00  0.00     0.031 C 
ATOM     23  C   UNL A   1      40.074  26.210  28.315  1.00  0.00     0.029 A 
ATOM     24  C   UNL A   1      41.039  27.280  28.528  1.00  0.00     0.049 A 
ATOM     25  H   UNL A   1      43.099  27.207  28.237  1.00  0.00     0.167 HD
ATOM     26  C   UNL A   1      47.413  26.915  27.442  1.00  0.00     0.037 A 
ATOM     27  C   UNL A   1      40.750  28.521  28.959  1.00  0.00     0.037 A 
ATOM     28  C   UNL A   1      47.209  28.251  27.929  1.00  0.00     0.049 A 
ATOM     29  C   UNL A   1      41.867  29.509  29.136  1.00  0.00     0.074 A 
ATOM     30  C   UNL A   1      48.141  29.255  28.121  1.00  0.00     0.029 A 
ATOM     31  N   UNL A   1      45.976  28.770  28.294  1.00  0.00    -0.354 N 
ATOM     32  N   UNL A   1      43.146  29.359  28.889  1.00  0.00    -0.248 NA
ATOM     33  C   UNL A   1      41.501  30.831  29.660  1.00  0.00     0.031 C 
ATOM     34  C   UNL A   1      47.473  30.376  28.628  1.00  0.00     0.029 A 
ATOM     35  C   UNL A   1      46.122  30.077  28.721  1.00  0.00     0.049 A 
ATOM     36  H   UNL A   1      45.123  28.279  28.257  1.00  0.00     0.167 HD
ATOM     37  C   UNL A   1      43.739  30.569  29.222  1.00  0.00     0.074 A 
ATOM     38  C   UNL A   1      42.675  31.446  29.671  1.00  0.00     0.031 C 
ATOM     39  C   UNL A   1      45.045  30.922  29.167  1.00  0.00     0.037 A 
BRANCH  26  40
ATOM     40  C   UNL A   1      48.793  26.478  27.058  1.00  0.00     0.057 A 
ATOM     41  C   UNL A   1      49.670  25.898  27.984  1.00  0.00     0.134 A 
ATOM     42  C   UNL A   1      49.264  26.677  25.755  1.00  0.00     0.134 A 
ATOM     43  F   UNL A   1      49.287  25.709  29.256  1.00  0.00    -0.206 F 
ATOM     44  C   UNL A   1      50.977  25.554  27.634  1.00  0.00     0.040 A 
ATOM     45  C   UNL A   1      50.564  26.320  25.388  1.00  0.00     0.040 A 
ATOM     46  F   UNL A   1      48.477  27.235  24.824  1.00  0.00    -0.206 F 
ATOM     47  C   UNL A   1      51.426  25.764  26.332  1.00  0.00     0.006 A 
ENDBRANCH  26  40
BRANCH  27  48
ATOM     48  C   UNL A   1      39.355  28.893  29.293  1.00  0.00     0.057 A 
ATOM     49  C   UNL A   1      38.510  29.475  28.343  1.00  0.00     0.134 A 
ATOM     50  C   UNL A   1      38.847  28.702  30.583  1.00  0.00     0.134 A 
ATOM     51  F   UNL A   1      38.952  29.705  27.097  1.00  0.00    -0.206 F 
ATOM     52  C   UNL A   1      37.208  29.863  28.665  1.00  0.00     0.040 A 
ATOM     53  C   UNL A   1      37.546  29.079  30.917  1.00  0.00     0.040 A 
ATOM     54  F   UNL A   1      39.610  28.146  31.534  1.00  0.00    -0.206 F 
ATOM     55  C   UNL A   1      36.722  29.661  29.957  1.00  0.00     0.006 A 
ENDBRANCH  27  48
BRANCH  39  56
ATOM     56  C   UNL A   1      45.384  32.315  29.594  1.00  0.00     0.057 A 
ATOM     57  C   UNL A   1      45.348  33.385  28.692  1.00  0.00     0.134 A 
ATOM     58  C   UNL A   1      45.717  32.592  30.925  1.00  0.00     0.134 A 
ATOM     59  F   UNL A   1      45.050  33.174  27.401  1.00  0.00    -0.206 F 
ATOM     60  C   UNL A   1      45.646  34.685  29.098  1.00  0.00     0.040 A 
ATOM     61  C   UNL A   1      46.000  33.892  31.346  1.00  0.00     0.040 A 
ATOM     62  F   UNL A   1      45.765  31.607  31.835  1.00  0.00    -0.206 F 
ATOM     63  C   UNL A   1      45.968  34.942  30.430  1.00  0.00     0.006 A 
ENDBRANCH  39  56
ENDBRANCH  13  14
ENDBRANCH   6   8
ENDBRANCH   5   6
ENDBRANCH   4   5
ENDBRANCH   3   4
ENDBRANCH   2   3
ENDBRANCH   1   2
BRANCH   1  64
ATOM     64  C   UNL A   1      36.185  22.661  24.083  1.00  0.00     0.188 C 
BRANCH  64  65
ATOM     65  O   UNL A   1      34.823  22.568  23.654  1.00  0.00    -0.376 OA
BRANCH  65  66
ATOM     66  C   UNL A   1      33.915  23.509  24.219  1.00  0.00     0.202 C 
BRANCH  66  67
ATOM     67  C   UNL A   1      32.720  22.932  24.984  1.00  0.00     0.261 C 
BRANCH  67  68
ATOM     68  O   UNL A   1      31.546  23.766  25.003  1.00  0.00    -0.460 OA
BRANCH  68  69
ATOM     69  C   UNL A   1      31.401  24.500  26.133  1.00  0.00     0.342 C 
ATOM     70  O   UNL A   1      31.119  24.088  27.252  1.00  0.00    -0.246 OA
BRANCH  69  71
ATOM     71  C   UNL A   1      31.414  25.938  25.848  1.00  0.00     0.103 A 
ATOM     72  C   UNL A   1      32.489  26.677  26.361  1.00  0.00     0.035 A 
ATOM     73  C   UNL A   1      30.554  26.550  24.949  1.00  0.00     0.137 A 
ATOM     74  C   UNL A   1      32.682  28.003  25.962  1.00  0.00     0.019 A 
ATOM     75  C   UNL A   1      30.751  27.872  24.568  1.00  0.00    -0.000 A 
ATOM     76  O   UNL A   1      29.521  25.950  24.282  1.00  0.00    -0.492 OA
ATOM     77  Br  UNL A   1      34.207  28.934  26.575  1.00  0.00    -0.051 Br
ATOM     78  C   UNL A   1      31.808  28.620  25.067  1.00  0.00     0.023 A 
ATOM     79  C   UNL A   1      29.788  28.246  23.509  1.00  0.00     0.081 C 
ATOM     80  C   UNL A   1      28.904  27.001  23.503  1.00  0.00     0.234 C 
ENDBRANCH  69  71
ENDBRANCH  68  69
ENDBRANCH  67  68
ENDBRANCH  66  67
ENDBRANCH  65  66
ENDBRANCH  64  65
ENDBRANCH   1  64
TORSDOF 17
ENDMDL
