MODEL 1
REMARK VINA RESULT:     -11.2      0.000      0.000
REMARK SMILES CC[C@H](C)[C@H](NC(=O)[C@H](C)Oc1ccc2c(C)c(C)c(=O)oc2c1C)C(=O)OCCOCCOCCOC(=O)c1ccc(-c2c3nc(c(-c4c(F)cccc4F)c4ccc([nH]4)c(-c4c(F)cccc4F)c4nc(c(-c5c(F)cccc5F)c5ccc2[nH]5)C=C4)C=C3)cc1
REMARK SMILES IDX 32 1 31 2 30 3 29 4 28 5 26 6 27 7 5 8 3 9 4 10 2 11 1 12
REMARK SMILES IDX 6 13 7 14 8 16 9 17 10 18 11 19 12 20 13 21 24 22 14 23
REMARK SMILES IDX 23 24 25 25 15 26 22 27 16 28 20 29 17 30 18 31 21 32 19 33
REMARK SMILES IDX 33 34 34 35 35 36 36 37 37 38 38 39 39 40 40 41 41 42 93 43
REMARK SMILES IDX 42 44 92 45 43 46 44 47 45 48 86 49 46 50 91 51 85 52 87 53
REMARK SMILES IDX 47 54 90 55 84 56 83 57 48 59 74 60 57 61 73 62 58 63 61 64
REMARK SMILES IDX 72 65 88 66 59 67 60 68 71 70 89 71 62 72 49 73 50 74 55 75
REMARK SMILES IDX 51 76 52 77 54 78 56 79 53 80 75 81 76 82 81 83 77 84 78 85
REMARK SMILES IDX 80 86 82 87 79 88 63 89 64 90 69 91 65 92 66 93 68 94 70 95
REMARK SMILES IDX 67 96
REMARK H PARENT 6 15 87 58 61 69
REMARK Flexibility Score: inf
ROOT
ATOM      1  C   UNL A   1      35.061  32.171  28.206  1.00  0.00     0.188 C 
ENDROOT
BRANCH   1   2
ATOM      2  O   UNL A   1      34.177  31.520  27.322  1.00  0.00    -0.376 OA
BRANCH   2   3
ATOM      3  C   UNL A   1      33.950  30.133  27.471  1.00  0.00     0.202 C 
BRANCH   3   4
ATOM      4  C   UNL A   1      32.722  29.427  26.855  1.00  0.00     0.261 C 
BRANCH   4   5
ATOM      5  O   UNL A   1      32.219  29.844  25.569  1.00  0.00    -0.462 OA
BRANCH   5   6
ATOM      6  C   UNL A   1      31.478  28.920  24.918  1.00  0.00     0.328 C 
ATOM      7  O   UNL A   1      31.062  27.909  25.477  1.00  0.00    -0.250 OA
BRANCH   6   8
ATOM      8  C   UNL A   1      31.303  29.182  23.391  1.00  0.00     0.195 C 
BRANCH   8   9
ATOM      9  C   UNL A   1      30.064  28.428  22.826  1.00  0.00     0.019 C 
ATOM     10  C   UNL A   1      29.516  27.334  23.757  1.00  0.00     0.010 C 
BRANCH   9  11
ATOM     11  C   UNL A   1      28.896  29.367  22.454  1.00  0.00     0.002 C 
ATOM     12  C   UNL A   1      27.519  28.922  22.916  1.00  0.00     0.004 C 
ENDBRANCH   9  11
ENDBRANCH   8   9
BRANCH   8  13
ATOM     13  N   UNL A   1      32.472  29.012  22.519  1.00  0.00    -0.339 N 
ATOM     14  C   UNL A   1      33.263  27.930  22.260  1.00  0.00     0.261 C 
ATOM     15  H   UNL A   1      32.733  29.827  22.033  1.00  0.00     0.164 HD
ATOM     16  O   UNL A   1      34.337  28.174  21.693  1.00  0.00    -0.271 OA
BRANCH  14  17
ATOM     17  C   UNL A   1      32.885  26.442  22.575  1.00  0.00     0.258 C 
ATOM     18  C   UNL A   1      32.056  25.723  21.518  1.00  0.00     0.064 C 
BRANCH  17  19
ATOM     19  O   UNL A   1      32.553  25.997  23.890  1.00  0.00    -0.480 OA
BRANCH  19  20
ATOM     20  C   UNL A   1      33.176  24.850  24.269  1.00  0.00     0.127 A 
ATOM     21  C   UNL A   1      34.565  24.808  24.372  1.00  0.00     0.047 A 
ATOM     22  C   UNL A   1      32.414  23.746  24.626  1.00  0.00     0.035 A 
ATOM     23  C   UNL A   1      35.218  23.604  24.637  1.00  0.00     0.016 A 
ATOM     24  C   UNL A   1      33.096  22.539  24.853  1.00  0.00     0.145 A 
ATOM     25  C   UNL A   1      30.923  23.835  24.795  1.00  0.00     0.052 C 
ATOM     26  C   UNL A   1      34.491  22.423  24.821  1.00  0.00     0.021 A 
ATOM     27  O   UNL A   1      32.290  21.407  25.062  1.00  0.00    -0.422 OA
ATOM     28  C   UNL A   1      35.100  21.080  24.887  1.00  0.00    -0.030 A 
ATOM     29  C   UNL A   1      32.807  20.130  24.985  1.00  0.00     0.339 A 
ATOM     30  C   UNL A   1      36.601  20.895  24.841  1.00  0.00     0.045 C 
ATOM     31  C   UNL A   1      34.282  20.005  24.857  1.00  0.00     0.038 A 
ATOM     32  O   UNL A   1      32.072  19.151  25.038  1.00  0.00    -0.246 OA
ATOM     33  C   UNL A   1      34.791  18.600  24.682  1.00  0.00     0.052 C 
ENDBRANCH  19  20
ENDBRANCH  17  19
ENDBRANCH  14  17
ENDBRANCH   8  13
ENDBRANCH   6   8
ENDBRANCH   5   6
ENDBRANCH   4   5
ENDBRANCH   3   4
ENDBRANCH   2   3
ENDBRANCH   1   2
BRANCH   1  34
ATOM     34  C   UNL A   1      34.391  32.586  29.530  1.00  0.00     0.188 C 
BRANCH  34  35
ATOM     35  O   UNL A   1      34.661  33.871  30.063  1.00  0.00    -0.376 OA
BRANCH  35  36
ATOM     36  C   UNL A   1      34.172  34.160  31.363  1.00  0.00     0.202 C 
BRANCH  36  37
ATOM     37  C   UNL A   1      35.126  34.812  32.376  1.00  0.00     0.261 C 
BRANCH  37  38
ATOM     38  O   UNL A   1      36.483  34.314  32.392  1.00  0.00    -0.460 OA
BRANCH  38  39
ATOM     39  C   UNL A   1      36.649  33.075  32.917  1.00  0.00     0.338 C 
ATOM     40  O   UNL A   1      36.038  32.596  33.867  1.00  0.00    -0.246 OA
BRANCH  39  41
ATOM     41  C   UNL A   1      37.548  32.248  32.078  1.00  0.00     0.060 A 
ATOM     42  C   UNL A   1      38.383  31.334  32.730  1.00  0.00     0.016 A 
ATOM     43  C   UNL A   1      37.640  32.393  30.692  1.00  0.00     0.016 A 
ATOM     44  C   UNL A   1      39.274  30.538  32.004  1.00  0.00     0.010 A 
ATOM     45  C   UNL A   1      38.587  31.639  29.969  1.00  0.00     0.010 A 
ATOM     46  C   UNL A   1      39.414  30.708  30.621  1.00  0.00    -0.014 A 
BRANCH  46  47
ATOM     47  C   UNL A   1      40.588  30.085  29.945  1.00  0.00     0.031 A 
ATOM     48  C   UNL A   1      41.814  30.942  29.736  1.00  0.00     0.074 A 
ATOM     49  C   UNL A   1      40.621  28.788  29.582  1.00  0.00     0.049 A 
ATOM     50  N   UNL A   1      42.964  30.639  29.189  1.00  0.00    -0.248 NA
ATOM     51  C   UNL A   1      41.736  32.321  30.246  1.00  0.00     0.031 C 
ATOM     52  C   UNL A   1      39.567  27.807  29.823  1.00  0.00     0.029 A 
ATOM     53  N   UNL A   1      41.602  28.071  28.933  1.00  0.00    -0.354 N 
ATOM     54  C   UNL A   1      43.752  31.776  29.320  1.00  0.00     0.074 A 
ATOM     55  C   UNL A   1      42.950  32.776  29.990  1.00  0.00     0.031 C 
ATOM     56  C   UNL A   1      39.949  26.619  29.313  1.00  0.00     0.029 A 
ATOM     57  C   UNL A   1      41.257  26.764  28.674  1.00  0.00     0.049 A 
ATOM     58  H   UNL A   1      42.470  28.457  28.676  1.00  0.00     0.167 HD
ATOM     59  C   UNL A   1      45.023  31.989  28.905  1.00  0.00     0.037 A 
ATOM     60  C   UNL A   1      41.911  25.811  27.975  1.00  0.00     0.037 A 
ATOM     61  C   UNL A   1      45.797  31.038  28.156  1.00  0.00     0.049 A 
ATOM     62  C   UNL A   1      43.249  26.136  27.350  1.00  0.00     0.074 A 
ATOM     63  C   UNL A   1      47.064  31.187  27.622  1.00  0.00     0.029 A 
ATOM     64  N   UNL A   1      45.361  29.770  27.808  1.00  0.00    -0.354 N 
ATOM     65  N   UNL A   1      43.977  27.221  27.459  1.00  0.00    -0.248 NA
ATOM     66  C   UNL A   1      43.851  25.103  26.492  1.00  0.00     0.031 C 
ATOM     67  C   UNL A   1      47.368  30.031  26.893  1.00  0.00     0.029 A 
ATOM     68  C   UNL A   1      46.319  29.137  27.033  1.00  0.00     0.049 A 
ATOM     69  H   UNL A   1      44.498  29.378  28.072  1.00  0.00     0.167 HD
ATOM     70  C   UNL A   1      45.130  26.988  26.715  1.00  0.00     0.074 A 
ATOM     71  C   UNL A   1      45.012  25.653  26.171  1.00  0.00     0.031 C 
ATOM     72  C   UNL A   1      46.191  27.806  26.499  1.00  0.00     0.037 A 
BRANCH  59  73
ATOM     73  C   UNL A   1      45.606  33.342  29.184  1.00  0.00     0.057 A 
ATOM     74  C   UNL A   1      46.291  33.588  30.380  1.00  0.00     0.134 A 
ATOM     75  C   UNL A   1      45.520  34.391  28.258  1.00  0.00     0.134 A 
ATOM     76  F   UNL A   1      46.414  32.623  31.304  1.00  0.00    -0.206 F 
ATOM     77  C   UNL A   1      46.874  34.826  30.645  1.00  0.00     0.040 A 
ATOM     78  C   UNL A   1      46.124  35.626  28.501  1.00  0.00     0.040 A 
ATOM     79  F   UNL A   1      44.901  34.211  27.081  1.00  0.00    -0.206 F 
ATOM     80  C   UNL A   1      46.800  35.847  29.699  1.00  0.00     0.006 A 
ENDBRANCH  59  73
BRANCH  60  81
ATOM     81  C   UNL A   1      41.305  24.467  27.752  1.00  0.00     0.057 A 
ATOM     82  C   UNL A   1      40.295  24.273  26.801  1.00  0.00     0.134 A 
ATOM     83  C   UNL A   1      41.789  23.328  28.410  1.00  0.00     0.134 A 
ATOM     84  F   UNL A   1      39.795  25.315  26.121  1.00  0.00    -0.206 F 
ATOM     85  C   UNL A   1      39.789  23.002  26.514  1.00  0.00     0.040 A 
ATOM     86  C   UNL A   1      41.314  22.047  28.110  1.00  0.00     0.040 A 
ATOM     87  F   UNL A   1      42.782  23.434  29.305  1.00  0.00    -0.206 F 
ATOM     88  C   UNL A   1      40.307  21.883  27.160  1.00  0.00     0.006 A 
ENDBRANCH  60  81
BRANCH  72  89
ATOM     89  C   UNL A   1      47.328  27.266  25.678  1.00  0.00     0.057 A 
ATOM     90  C   UNL A   1      47.365  27.474  24.292  1.00  0.00     0.134 A 
ATOM     91  C   UNL A   1      48.367  26.514  26.243  1.00  0.00     0.134 A 
ATOM     92  F   UNL A   1      46.396  28.173  23.682  1.00  0.00    -0.206 F 
ATOM     93  C   UNL A   1      48.391  26.956  23.501  1.00  0.00     0.040 A 
ATOM     94  C   UNL A   1      49.416  26.018  25.466  1.00  0.00     0.040 A 
ATOM     95  F   UNL A   1      48.399  26.284  27.565  1.00  0.00    -0.206 F 
ATOM     96  C   UNL A   1      49.426  26.233  24.090  1.00  0.00     0.006 A 
ENDBRANCH  72  89
ENDBRANCH  46  47
ENDBRANCH  39  41
ENDBRANCH  38  39
ENDBRANCH  37  38
ENDBRANCH  36  37
ENDBRANCH  35  36
ENDBRANCH  34  35
ENDBRANCH   1  34
TORSDOF 23
ENDMDL
MODEL 2
REMARK VINA RESULT:     -11.2      4.292     10.072
REMARK SMILES CC[C@H](C)[C@H](NC(=O)[C@H](C)Oc1ccc2c(C)c(C)c(=O)oc2c1C)C(=O)OCCOCCOCCOC(=O)c1ccc(-c2c3nc(c(-c4c(F)cccc4F)c4ccc([nH]4)c(-c4c(F)cccc4F)c4nc(c(-c5c(F)cccc5F)c5ccc2[nH]5)C=C4)C=C3)cc1
REMARK SMILES IDX 32 1 31 2 30 3 29 4 28 5 26 6 27 7 5 8 3 9 4 10 2 11 1 12
REMARK SMILES IDX 6 13 7 14 8 16 9 17 10 18 11 19 12 20 13 21 24 22 14 23
REMARK SMILES IDX 23 24 25 25 15 26 22 27 16 28 20 29 17 30 18 31 21 32 19 33
REMARK SMILES IDX 33 34 34 35 35 36 36 37 37 38 38 39 39 40 40 41 41 42 93 43
REMARK SMILES IDX 42 44 92 45 43 46 44 47 45 48 86 49 46 50 91 51 85 52 87 53
REMARK SMILES IDX 47 54 90 55 84 56 83 57 48 59 74 60 57 61 73 62 58 63 61 64
REMARK SMILES IDX 72 65 88 66 59 67 60 68 71 70 89 71 62 72 49 73 50 74 55 75
REMARK SMILES IDX 51 76 52 77 54 78 56 79 53 80 75 81 76 82 81 83 77 84 78 85
REMARK SMILES IDX 80 86 82 87 79 88 63 89 64 90 69 91 65 92 66 93 68 94 70 95
REMARK SMILES IDX 67 96
REMARK H PARENT 6 15 87 58 61 69
REMARK Flexibility Score: inf
ROOT
ATOM      1  C   UNL A   1      40.906  19.978  26.773  1.00  0.00     0.188 C 
ENDROOT
BRANCH   1   2
ATOM      2  O   UNL A   1      39.747  20.688  26.400  1.00  0.00    -0.376 OA
BRANCH   2   3
ATOM      3  C   UNL A   1      39.748  22.099  26.479  1.00  0.00     0.202 C 
BRANCH   3   4
ATOM      4  C   UNL A   1      38.531  22.949  26.050  1.00  0.00     0.261 C 
BRANCH   4   5
ATOM      5  O   UNL A   1      37.211  22.370  26.047  1.00  0.00    -0.462 OA
BRANCH   5   6
ATOM      6  C   UNL A   1      36.572  22.408  24.855  1.00  0.00     0.328 C 
ATOM      7  O   UNL A   1      37.183  22.501  23.794  1.00  0.00    -0.250 OA
BRANCH   6   8
ATOM      8  C   UNL A   1      35.017  22.448  24.950  1.00  0.00     0.195 C 
BRANCH   8   9
ATOM      9  C   UNL A   1      34.466  21.216  25.725  1.00  0.00     0.019 C 
ATOM     10  C   UNL A   1      34.038  21.524  27.170  1.00  0.00     0.010 C 
BRANCH   9  11
ATOM     11  C   UNL A   1      33.281  20.528  25.013  1.00  0.00     0.002 C 
ATOM     12  C   UNL A   1      33.507  19.082  24.603  1.00  0.00     0.004 C 
ENDBRANCH   9  11
ENDBRANCH   8   9
BRANCH   8  13
ATOM     13  N   UNL A   1      34.253  22.686  23.719  1.00  0.00    -0.339 N 
ATOM     14  C   UNL A   1      33.342  23.646  23.384  1.00  0.00     0.261 C 
ATOM     15  H   UNL A   1      34.430  22.033  23.003  1.00  0.00     0.164 HD
ATOM     16  O   UNL A   1      32.668  23.417  22.371  1.00  0.00    -0.271 OA
BRANCH  14  17
ATOM     17  C   UNL A   1      33.142  25.001  24.147  1.00  0.00     0.258 C 
ATOM     18  C   UNL A   1      34.300  25.452  25.027  1.00  0.00     0.064 C 
BRANCH  17  19
ATOM     19  O   UNL A   1      31.884  25.391  24.699  1.00  0.00    -0.480 OA
BRANCH  19  20
ATOM     20  C   UNL A   1      31.561  26.695  24.491  1.00  0.00     0.127 A 
ATOM     21  C   UNL A   1      31.938  27.667  25.415  1.00  0.00     0.047 A 
ATOM     22  C   UNL A   1      30.920  27.060  23.314  1.00  0.00     0.035 A 
ATOM     23  C   UNL A   1      31.504  28.985  25.273  1.00  0.00     0.016 A 
ATOM     24  C   UNL A   1      30.463  28.384  23.213  1.00  0.00     0.145 A 
ATOM     25  C   UNL A   1      30.745  26.093  22.177  1.00  0.00     0.052 C 
ATOM     26  C   UNL A   1      30.698  29.358  24.192  1.00  0.00     0.021 A 
ATOM     27  O   UNL A   1      29.687  28.683  22.080  1.00  0.00    -0.422 OA
ATOM     28  C   UNL A   1      30.017  30.664  24.081  1.00  0.00    -0.030 A 
ATOM     29  C   UNL A   1      28.926  29.831  22.010  1.00  0.00     0.339 A 
ATOM     30  C   UNL A   1      30.221  31.747  25.117  1.00  0.00     0.045 C 
ATOM     31  C   UNL A   1      29.103  30.826  23.099  1.00  0.00     0.038 A 
ATOM     32  O   UNL A   1      28.153  30.015  21.077  1.00  0.00    -0.246 OA
ATOM     33  C   UNL A   1      28.186  32.016  23.032  1.00  0.00     0.052 C 
ENDBRANCH  19  20
ENDBRANCH  17  19
ENDBRANCH  14  17
ENDBRANCH   8  13
ENDBRANCH   6   8
ENDBRANCH   5   6
ENDBRANCH   4   5
ENDBRANCH   3   4
ENDBRANCH   2   3
ENDBRANCH   1   2
BRANCH   1  34
ATOM     34  C   UNL A   1      42.204  20.632  26.260  1.00  0.00     0.188 C 
BRANCH  34  35
ATOM     35  O   UNL A   1      43.051  19.891  25.399  1.00  0.00    -0.376 OA
BRANCH  35  36
ATOM     36  C   UNL A   1      44.279  20.487  25.013  1.00  0.00     0.202 C 
BRANCH  36  37
ATOM     37  C   UNL A   1      44.627  21.875  25.572  1.00  0.00     0.261 C 
BRANCH  37  38
ATOM     38  O   UNL A   1      43.955  22.999  24.962  1.00  0.00    -0.460 OA
BRANCH  38  39
ATOM     39  C   UNL A   1      44.539  24.209  25.150  1.00  0.00     0.338 C 
ATOM     40  O   UNL A   1      45.532  24.638  24.571  1.00  0.00    -0.246 OA
BRANCH  39  41
ATOM     41  C   UNL A   1      43.717  25.076  26.026  1.00  0.00     0.060 A 
ATOM     42  C   UNL A   1      44.046  26.435  26.083  1.00  0.00     0.016 A 
ATOM     43  C   UNL A   1      42.688  24.585  26.833  1.00  0.00     0.016 A 
ATOM     44  C   UNL A   1      43.329  27.308  26.906  1.00  0.00     0.010 A 
ATOM     45  C   UNL A   1      42.012  25.454  27.712  1.00  0.00     0.010 A 
ATOM     46  C   UNL A   1      42.330  26.823  27.759  1.00  0.00    -0.014 A 
BRANCH  46  47
ATOM     47  C   UNL A   1      41.824  27.714  28.841  1.00  0.00     0.031 A 
ATOM     48  C   UNL A   1      42.596  27.750  30.139  1.00  0.00     0.074 A 
ATOM     49  C   UNL A   1      40.763  28.529  28.683  1.00  0.00     0.049 A 
ATOM     50  N   UNL A   1      42.376  28.447  31.225  1.00  0.00    -0.248 NA
ATOM     51  C   UNL A   1      43.800  26.904  30.202  1.00  0.00     0.031 C 
ATOM     52  C   UNL A   1      39.990  28.697  27.455  1.00  0.00     0.029 A 
ATOM     53  N   UNL A   1      40.157  29.385  29.577  1.00  0.00    -0.354 N 
ATOM     54  C   UNL A   1      43.428  28.147  32.082  1.00  0.00     0.074 A 
ATOM     55  C   UNL A   1      44.282  27.203  31.395  1.00  0.00     0.031 C 
ATOM     56  C   UNL A   1      39.002  29.586  27.677  1.00  0.00     0.029 A 
ATOM     57  C   UNL A   1      39.046  30.021  29.073  1.00  0.00     0.049 A 
ATOM     58  H   UNL A   1      40.488  29.528  30.493  1.00  0.00     0.167 HD
ATOM     59  C   UNL A   1      43.663  28.595  33.337  1.00  0.00     0.037 A 
ATOM     60  C   UNL A   1      38.155  30.833  29.682  1.00  0.00     0.037 A 
ATOM     61  C   UNL A   1      42.775  29.458  34.066  1.00  0.00     0.049 A 
ATOM     62  C   UNL A   1      38.331  31.163  31.147  1.00  0.00     0.074 A 
ATOM     63  C   UNL A   1      42.883  29.906  35.371  1.00  0.00     0.029 A 
ATOM     64  N   UNL A   1      41.596  29.980  33.559  1.00  0.00    -0.354 N 
ATOM     65  N   UNL A   1      39.317  30.857  31.956  1.00  0.00    -0.248 NA
ATOM     66  C   UNL A   1      37.260  31.943  31.787  1.00  0.00     0.031 C 
ATOM     67  C   UNL A   1      41.734  30.645  35.674  1.00  0.00     0.029 A 
ATOM     68  C   UNL A   1      40.946  30.715  34.537  1.00  0.00     0.049 A 
ATOM     69  H   UNL A   1      41.268  29.847  32.641  1.00  0.00     0.167 HD
ATOM     70  C   UNL A   1      39.000  31.432  33.184  1.00  0.00     0.074 A 
ATOM     71  C   UNL A   1      37.739  32.119  33.010  1.00  0.00     0.031 C 
ATOM     72  C   UNL A   1      39.691  31.396  34.351  1.00  0.00     0.037 A 
BRANCH  59  73
ATOM     73  C   UNL A   1      44.892  28.074  34.020  1.00  0.00     0.057 A 
ATOM     74  C   UNL A   1      46.075  28.822  34.022  1.00  0.00     0.134 A 
ATOM     75  C   UNL A   1      44.898  26.850  34.704  1.00  0.00     0.134 A 
ATOM     76  F   UNL A   1      46.133  30.006  33.392  1.00  0.00    -0.206 F 
ATOM     77  C   UNL A   1      47.219  28.376  34.683  1.00  0.00     0.040 A 
ATOM     78  C   UNL A   1      46.030  26.407  35.392  1.00  0.00     0.040 A 
ATOM     79  F   UNL A   1      43.788  26.099  34.764  1.00  0.00    -0.206 F 
ATOM     80  C   UNL A   1      47.195  27.170  35.379  1.00  0.00     0.006 A 
ENDBRANCH  59  73
BRANCH  60  81
ATOM     81  C   UNL A   1      36.964  31.355  28.952  1.00  0.00     0.057 A 
ATOM     82  C   UNL A   1      35.831  30.559  28.746  1.00  0.00     0.134 A 
ATOM     83  C   UNL A   1      36.890  32.690  28.531  1.00  0.00     0.134 A 
ATOM     84  F   UNL A   1      35.823  29.276  29.137  1.00  0.00    -0.206 F 
ATOM     85  C   UNL A   1      34.672  31.066  28.151  1.00  0.00     0.040 A 
ATOM     86  C   UNL A   1      35.727  33.219  27.962  1.00  0.00     0.040 A 
ATOM     87  F   UNL A   1      37.925  33.520  28.730  1.00  0.00    -0.206 F 
ATOM     88  C   UNL A   1      34.614  32.404  27.768  1.00  0.00     0.006 A 
ENDBRANCH  60  81
BRANCH  72  89
ATOM     89  C   UNL A   1      39.122  32.154  35.518  1.00  0.00     0.057 A 
ATOM     90  C   UNL A   1      39.390  33.520  35.677  1.00  0.00     0.134 A 
ATOM     91  C   UNL A   1      38.340  31.533  36.502  1.00  0.00     0.134 A 
ATOM     92  F   UNL A   1      40.142  34.176  34.780  1.00  0.00    -0.206 F 
ATOM     93  C   UNL A   1      38.901  34.240  36.768  1.00  0.00     0.040 A 
ATOM     94  C   UNL A   1      37.819  32.250  37.581  1.00  0.00     0.040 A 
ATOM     95  F   UNL A   1      38.038  30.229  36.407  1.00  0.00    -0.206 F 
ATOM     96  C   UNL A   1      38.106  33.606  37.720  1.00  0.00     0.006 A 
ENDBRANCH  72  89
ENDBRANCH  46  47
ENDBRANCH  39  41
ENDBRANCH  38  39
ENDBRANCH  37  38
ENDBRANCH  36  37
ENDBRANCH  35  36
ENDBRANCH  34  35
ENDBRANCH   1  34
TORSDOF 23
ENDMDL
MODEL 3
REMARK VINA RESULT:     -11.0      0.909      5.758
REMARK SMILES CC[C@H](C)[C@H](NC(=O)[C@H](C)Oc1ccc2c(C)c(C)c(=O)oc2c1C)C(=O)OCCOCCOCCOC(=O)c1ccc(-c2c3nc(c(-c4c(F)cccc4F)c4ccc([nH]4)c(-c4c(F)cccc4F)c4nc(c(-c5c(F)cccc5F)c5ccc2[nH]5)C=C4)C=C3)cc1
REMARK SMILES IDX 32 1 31 2 30 3 29 4 28 5 26 6 27 7 5 8 3 9 4 10 2 11 1 12
REMARK SMILES IDX 6 13 7 14 8 16 9 17 10 18 11 19 12 20 13 21 24 22 14 23
REMARK SMILES IDX 23 24 25 25 15 26 22 27 16 28 20 29 17 30 18 31 21 32 19 33
REMARK SMILES IDX 33 34 34 35 35 36 36 37 37 38 38 39 39 40 40 41 41 42 93 43
REMARK SMILES IDX 42 44 92 45 43 46 44 47 45 48 86 49 46 50 91 51 85 52 87 53
REMARK SMILES IDX 47 54 90 55 84 56 83 57 48 59 74 60 57 61 73 62 58 63 61 64
REMARK SMILES IDX 72 65 88 66 59 67 60 68 71 70 89 71 62 72 49 73 50 74 55 75
REMARK SMILES IDX 51 76 52 77 54 78 56 79 53 80 75 81 76 82 81 83 77 84 78 85
REMARK SMILES IDX 80 86 82 87 79 88 63 89 64 90 69 91 65 92 66 93 68 94 70 95
REMARK SMILES IDX 67 96
REMARK H PARENT 6 15 87 58 61 69
REMARK Flexibility Score: inf
ROOT
ATOM      1  C   UNL A   1      34.575  32.738  28.298  1.00  0.00     0.188 C 
ENDROOT
BRANCH   1   2
ATOM      2  O   UNL A   1      33.828  31.654  27.795  1.00  0.00    -0.376 OA
BRANCH   2   3
ATOM      3  C   UNL A   1      34.379  30.354  27.847  1.00  0.00     0.202 C 
BRANCH   3   4
ATOM      4  C   UNL A   1      33.801  29.180  27.024  1.00  0.00     0.261 C 
BRANCH   4   5
ATOM      5  O   UNL A   1      33.528  29.350  25.618  1.00  0.00    -0.462 OA
BRANCH   5   6
ATOM      6  C   UNL A   1      32.261  29.061  25.243  1.00  0.00     0.328 C 
ATOM      7  O   UNL A   1      31.463  28.526  26.008  1.00  0.00    -0.250 OA
BRANCH   6   8
ATOM      8  C   UNL A   1      31.944  29.347  23.744  1.00  0.00     0.195 C 
BRANCH   8   9
ATOM      9  C   UNL A   1      30.410  29.353  23.482  1.00  0.00     0.019 C 
ATOM     10  C   UNL A   1      29.673  30.558  24.090  1.00  0.00     0.010 C 
BRANCH   9  11
ATOM     11  C   UNL A   1      30.048  29.279  21.983  1.00  0.00     0.002 C 
ATOM     12  C   UNL A   1      29.314  30.486  21.421  1.00  0.00     0.004 C 
ENDBRANCH   9  11
ENDBRANCH   8   9
BRANCH   8  13
ATOM     13  N   UNL A   1      32.654  28.567  22.723  1.00  0.00    -0.339 N 
ATOM     14  C   UNL A   1      32.908  27.230  22.613  1.00  0.00     0.261 C 
ATOM     15  H   UNL A   1      33.014  29.107  21.982  1.00  0.00     0.164 HD
ATOM     16  O   UNL A   1      33.769  26.914  21.781  1.00  0.00    -0.271 OA
BRANCH  14  17
ATOM     17  C   UNL A   1      32.163  26.103  23.409  1.00  0.00     0.258 C 
ATOM     18  C   UNL A   1      30.676  25.949  23.116  1.00  0.00     0.064 C 
BRANCH  17  19
ATOM     19  O   UNL A   1      32.461  25.803  24.772  1.00  0.00    -0.480 OA
BRANCH  19  20
ATOM     20  C   UNL A   1      33.112  24.625  24.957  1.00  0.00     0.127 A 
ATOM     21  C   UNL A   1      34.504  24.578  24.907  1.00  0.00     0.047 A 
ATOM     22  C   UNL A   1      32.385  23.485  25.273  1.00  0.00     0.035 A 
ATOM     23  C   UNL A   1      35.174  23.356  24.970  1.00  0.00     0.016 A 
ATOM     24  C   UNL A   1      33.079  22.264  25.296  1.00  0.00     0.145 A 
ATOM     25  C   UNL A   1      30.921  23.549  25.608  1.00  0.00     0.052 C 
ATOM     26  C   UNL A   1      34.462  22.159  25.104  1.00  0.00     0.021 A 
ATOM     27  O   UNL A   1      32.292  21.112  25.467  1.00  0.00    -0.422 OA
ATOM     28  C   UNL A   1      35.066  20.819  24.960  1.00  0.00    -0.030 A 
ATOM     29  C   UNL A   1      32.789  19.854  25.199  1.00  0.00     0.339 A 
ATOM     30  C   UNL A   1      36.552  20.646  24.735  1.00  0.00     0.045 C 
ATOM     31  C   UNL A   1      34.241  19.750  24.902  1.00  0.00     0.038 A 
ATOM     32  O   UNL A   1      32.057  18.872  25.225  1.00  0.00    -0.246 OA
ATOM     33  C   UNL A   1      34.719  18.374  24.525  1.00  0.00     0.052 C 
ENDBRANCH  19  20
ENDBRANCH  17  19
ENDBRANCH  14  17
ENDBRANCH   8  13
ENDBRANCH   6   8
ENDBRANCH   5   6
ENDBRANCH   4   5
ENDBRANCH   3   4
ENDBRANCH   2   3
ENDBRANCH   1   2
BRANCH   1  34
ATOM     34  C   UNL A   1      35.016  32.537  29.761  1.00  0.00     0.188 C 
BRANCH  34  35
ATOM     35  O   UNL A   1      34.348  33.257  30.783  1.00  0.00    -0.376 OA
BRANCH  35  36
ATOM     36  C   UNL A   1      34.499  32.797  32.117  1.00  0.00     0.202 C 
BRANCH  36  37
ATOM     37  C   UNL A   1      35.339  33.638  33.091  1.00  0.00     0.261 C 
BRANCH  37  38
ATOM     38  O   UNL A   1      36.774  33.531  32.958  1.00  0.00    -0.460 OA
BRANCH  38  39
ATOM     39  C   UNL A   1      37.333  32.414  33.489  1.00  0.00     0.338 C 
ATOM     40  O   UNL A   1      37.021  31.872  34.543  1.00  0.00    -0.246 OA
BRANCH  39  41
ATOM     41  C   UNL A   1      38.273  31.776  32.537  1.00  0.00     0.060 A 
ATOM     42  C   UNL A   1      39.407  31.151  33.069  1.00  0.00     0.016 A 
ATOM     43  C   UNL A   1      38.109  31.833  31.152  1.00  0.00     0.016 A 
ATOM     44  C   UNL A   1      40.349  30.549  32.231  1.00  0.00     0.010 A 
ATOM     45  C   UNL A   1      39.093  31.285  30.305  1.00  0.00     0.010 A 
ATOM     46  C   UNL A   1      40.224  30.642  30.839  1.00  0.00    -0.014 A 
BRANCH  46  47
ATOM     47  C   UNL A   1      41.399  30.282  29.995  1.00  0.00     0.031 A 
ATOM     48  C   UNL A   1      41.455  28.882  29.432  1.00  0.00     0.074 A 
ATOM     49  C   UNL A   1      42.361  31.164  29.662  1.00  0.00     0.049 A 
ATOM     50  N   UNL A   1      42.355  28.323  28.663  1.00  0.00    -0.248 NA
ATOM     51  C   UNL A   1      40.319  28.004  29.760  1.00  0.00     0.031 C 
ATOM     52  C   UNL A   1      42.386  32.578  30.026  1.00  0.00     0.029 A 
ATOM     53  N   UNL A   1      43.511  30.991  28.924  1.00  0.00    -0.354 N 
ATOM     54  C   UNL A   1      41.878  27.047  28.392  1.00  0.00     0.074 A 
ATOM     55  C   UNL A   1      40.614  26.909  29.081  1.00  0.00     0.031 C 
ATOM     56  C   UNL A   1      43.503  33.141  29.526  1.00  0.00     0.029 A 
ATOM     57  C   UNL A   1      44.294  32.118  28.840  1.00  0.00     0.049 A 
ATOM     58  H   UNL A   1      43.751  30.137  28.496  1.00  0.00     0.167 HD
ATOM     59  C   UNL A   1      42.440  26.062  27.654  1.00  0.00     0.037 A 
ATOM     60  C   UNL A   1      45.520  32.291  28.300  1.00  0.00     0.037 A 
ATOM     61  C   UNL A   1      43.737  26.151  27.042  1.00  0.00     0.049 A 
ATOM     62  C   UNL A   1      46.217  31.117  27.649  1.00  0.00     0.074 A 
ATOM     63  C   UNL A   1      44.430  25.181  26.340  1.00  0.00     0.029 A 
ATOM     64  N   UNL A   1      44.551  27.272  27.088  1.00  0.00    -0.354 N 
ATOM     65  N   UNL A   1      45.767  29.907  27.417  1.00  0.00    -0.248 NA
ATOM     66  C   UNL A   1      47.601  31.332  27.196  1.00  0.00     0.031 C 
ATOM     67  C   UNL A   1      45.691  25.694  26.018  1.00  0.00     0.029 A 
ATOM     68  C   UNL A   1      45.756  27.006  26.459  1.00  0.00     0.049 A 
ATOM     69  H   UNL A   1      44.309  28.129  27.506  1.00  0.00     0.167 HD
ATOM     70  C   UNL A   1      46.796  29.232  26.766  1.00  0.00     0.074 A 
ATOM     71  C   UNL A   1      47.888  30.171  26.626  1.00  0.00     0.031 C 
ATOM     72  C   UNL A   1      46.835  27.950  26.323  1.00  0.00     0.037 A 
BRANCH  59  73
ATOM     73  C   UNL A   1      41.678  24.774  27.555  1.00  0.00     0.057 A 
ATOM     74  C   UNL A   1      41.990  23.698  28.395  1.00  0.00     0.134 A 
ATOM     75  C   UNL A   1      40.616  24.608  26.656  1.00  0.00     0.134 A 
ATOM     76  F   UNL A   1      42.991  23.795  29.283  1.00  0.00    -0.206 F 
ATOM     77  C   UNL A   1      41.271  22.504  28.348  1.00  0.00     0.040 A 
ATOM     78  C   UNL A   1      39.871  23.427  26.620  1.00  0.00     0.040 A 
ATOM     79  F   UNL A   1      40.249  25.611  25.844  1.00  0.00    -0.206 F 
ATOM     80  C   UNL A   1      40.201  22.370  27.465  1.00  0.00     0.006 A 
ENDBRANCH  59  73
BRANCH  60  81
ATOM     81  C   UNL A   1      46.226  33.602  28.393  1.00  0.00     0.057 A 
ATOM     82  C   UNL A   1      46.056  34.590  27.415  1.00  0.00     0.134 A 
ATOM     83  C   UNL A   1      47.005  33.936  29.508  1.00  0.00     0.134 A 
ATOM     84  F   UNL A   1      45.310  34.346  26.327  1.00  0.00    -0.206 F 
ATOM     85  C   UNL A   1      46.633  35.857  27.540  1.00  0.00     0.040 A 
ATOM     86  C   UNL A   1      47.563  35.210  29.661  1.00  0.00     0.040 A 
ATOM     87  F   UNL A   1      47.180  33.052  30.501  1.00  0.00    -0.206 F 
ATOM     88  C   UNL A   1      47.379  36.173  28.672  1.00  0.00     0.006 A 
ENDBRANCH  60  81
BRANCH  72  89
ATOM     89  C   UNL A   1      48.078  27.500  25.608  1.00  0.00     0.057 A 
ATOM     90  C   UNL A   1      48.143  27.531  24.209  1.00  0.00     0.134 A 
ATOM     91  C   UNL A   1      49.196  27.005  26.293  1.00  0.00     0.134 A 
ATOM     92  F   UNL A   1      47.104  27.980  23.487  1.00  0.00    -0.206 F 
ATOM     93  C   UNL A   1      49.272  27.089  23.518  1.00  0.00     0.040 A 
ATOM     94  C   UNL A   1      50.343  26.590  25.615  1.00  0.00     0.040 A 
ATOM     95  F   UNL A   1      49.204  26.956  27.634  1.00  0.00    -0.206 F 
ATOM     96  C   UNL A   1      50.381  26.624  24.223  1.00  0.00     0.006 A 
ENDBRANCH  72  89
ENDBRANCH  46  47
ENDBRANCH  39  41
ENDBRANCH  38  39
ENDBRANCH  37  38
ENDBRANCH  36  37
ENDBRANCH  35  36
ENDBRANCH  34  35
ENDBRANCH   1  34
TORSDOF 23
ENDMDL
