MODEL 1
REMARK VINA RESULT:     -11.3      0.000      0.000
REMARK SMILES C[C@@]1(CN2C(=O)c3ccc(C(=O)OCCOCCOCCOC(=O)c4ccc(-c5c6nc(c(-c7c(F)cccc7F)c7ccc([nH]7)c(-c7c(F)cccc7F)c7nc(c(-c8c(F)cccc8F)c8ccc5[nH]8)C=C7)C=C6)cc4)cc3C2=O)CCCO1
REMARK SMILES IDX 17 1 16 2 15 3 14 4 13 5 11 6 12 7 10 8 4 9 5 10 81 11 6 12
REMARK SMILES IDX 7 13 80 14 82 15 8 16 79 17 9 18 3 19 2 20 1 21 83 22 86 23
REMARK SMILES IDX 84 24 85 25 18 26 19 27 20 28 21 29 22 30 23 31 24 32 25 33
REMARK SMILES IDX 26 34 78 35 27 36 77 37 28 38 29 39 30 40 71 41 31 42 76 43
REMARK SMILES IDX 70 44 72 45 32 46 75 47 69 48 68 49 33 51 59 52 42 53 58 54
REMARK SMILES IDX 43 55 46 56 57 57 73 58 44 59 45 60 56 62 74 63 47 64 34 65
REMARK SMILES IDX 35 66 40 67 36 68 37 69 39 70 41 71 38 72 60 73 61 74 66 75
REMARK SMILES IDX 62 76 63 77 65 78 67 79 64 80 48 81 49 82 54 83 50 84 51 85
REMARK SMILES IDX 53 86 55 87 52 88
REMARK H PARENT 72 50 46 61
REMARK Flexibility Score: inf
ROOT
ATOM      1  C   UNL A   1      40.675  21.174  27.060  1.00  0.00     0.188 C 
ENDROOT
BRANCH   1   2
ATOM      2  O   UNL A   1      39.493  21.701  26.480  1.00  0.00    -0.376 OA
BRANCH   2   3
ATOM      3  C   UNL A   1      39.166  23.075  26.644  1.00  0.00     0.202 C 
BRANCH   3   4
ATOM      4  C   UNL A   1      37.992  23.727  25.889  1.00  0.00     0.261 C 
BRANCH   4   5
ATOM      5  O   UNL A   1      36.677  23.295  26.268  1.00  0.00    -0.460 OA
BRANCH   5   6
ATOM      6  C   UNL A   1      36.047  22.484  25.384  1.00  0.00     0.338 C 
ATOM      7  O   UNL A   1      36.087  21.265  25.348  1.00  0.00    -0.246 OA
BRANCH   6   8
ATOM      8  C   UNL A   1      35.111  23.275  24.546  1.00  0.00     0.060 A 
ATOM      9  N   UNL A   1      32.734  26.968  23.205  1.00  0.00    -0.271 N 
ATOM     10  C   UNL A   1      32.546  25.844  22.443  1.00  0.00     0.261 C 
ATOM     11  C   UNL A   1      33.717  26.783  24.137  1.00  0.00     0.261 C 
ATOM     12  O   UNL A   1      31.848  25.682  21.467  1.00  0.00    -0.269 OA
ATOM     13  C   UNL A   1      33.391  24.801  23.025  1.00  0.00     0.053 A 
ATOM     14  C   UNL A   1      34.100  25.374  24.064  1.00  0.00     0.054 A 
ATOM     15  O   UNL A   1      34.260  27.589  24.872  1.00  0.00    -0.269 OA
ATOM     16  C   UNL A   1      33.520  23.464  22.698  1.00  0.00     0.015 A 
ATOM     17  C   UNL A   1      34.975  24.641  24.841  1.00  0.00     0.030 A 
ATOM     18  C   UNL A   1      34.396  22.691  23.474  1.00  0.00     0.016 A 
BRANCH   9  19
ATOM     19  C   UNL A   1      32.004  28.217  23.021  1.00  0.00     0.164 C 
BRANCH  19  20
ATOM     20  C   UNL A   1      30.704  28.318  23.874  1.00  0.00     0.084 C 
ATOM     21  C   UNL A   1      30.773  27.489  25.156  1.00  0.00     0.044 C 
ATOM     22  C   UNL A   1      29.474  27.916  23.050  1.00  0.00     0.039 C 
ATOM     23  O   UNL A   1      30.488  29.698  24.243  1.00  0.00    -0.373 OA
ATOM     24  C   UNL A   1      29.043  29.216  22.418  1.00  0.00     0.031 C 
ATOM     25  C   UNL A   1      29.392  30.229  23.485  1.00  0.00     0.161 C 
ENDBRANCH  19  20
ENDBRANCH   9  19
ENDBRANCH   6   8
ENDBRANCH   5   6
ENDBRANCH   4   5
ENDBRANCH   3   4
ENDBRANCH   2   3
ENDBRANCH   1   2
BRANCH   1  26
ATOM     26  C   UNL A   1      41.397  19.982  26.397  1.00  0.00     0.188 C 
BRANCH  26  27
ATOM     27  O   UNL A   1      42.360  20.338  25.436  1.00  0.00    -0.376 OA
BRANCH  27  28
ATOM     28  C   UNL A   1      43.360  21.288  25.766  1.00  0.00     0.202 C 
BRANCH  28  29
ATOM     29  C   UNL A   1      44.056  22.241  24.768  1.00  0.00     0.261 C 
BRANCH  29  30
ATOM     30  O   UNL A   1      43.517  23.553  24.577  1.00  0.00    -0.460 OA
BRANCH  30  31
ATOM     31  C   UNL A   1      44.278  24.585  25.007  1.00  0.00     0.338 C 
ATOM     32  O   UNL A   1      45.387  24.900  24.614  1.00  0.00    -0.246 OA
BRANCH  31  33
ATOM     33  C   UNL A   1      43.470  25.422  25.917  1.00  0.00     0.060 A 
ATOM     34  C   UNL A   1      43.864  26.749  26.131  1.00  0.00     0.016 A 
ATOM     35  C   UNL A   1      42.361  24.895  26.584  1.00  0.00     0.016 A 
ATOM     36  C   UNL A   1      43.172  27.544  27.042  1.00  0.00     0.010 A 
ATOM     37  C   UNL A   1      41.681  25.689  27.514  1.00  0.00     0.010 A 
ATOM     38  C   UNL A   1      42.109  27.003  27.776  1.00  0.00    -0.014 A 
BRANCH  38  39
ATOM     39  C   UNL A   1      41.585  27.758  28.941  1.00  0.00     0.031 A 
ATOM     40  C   UNL A   1      42.287  27.631  30.265  1.00  0.00     0.074 A 
ATOM     41  C   UNL A   1      40.535  28.588  28.820  1.00  0.00     0.049 A 
ATOM     42  N   UNL A   1      42.033  28.220  31.406  1.00  0.00    -0.248 NA
ATOM     43  C   UNL A   1      43.432  26.708  30.306  1.00  0.00     0.031 C 
ATOM     44  C   UNL A   1      39.782  28.823  27.591  1.00  0.00     0.029 A 
ATOM     45  N   UNL A   1      39.923  29.387  29.753  1.00  0.00    -0.354 N 
ATOM     46  C   UNL A   1      42.981  27.736  32.299  1.00  0.00     0.074 A 
ATOM     47  C   UNL A   1      43.785  26.772  31.579  1.00  0.00     0.031 C 
ATOM     48  C   UNL A   1      38.799  29.702  27.847  1.00  0.00     0.029 A 
ATOM     49  C   UNL A   1      38.839  30.072  29.262  1.00  0.00     0.049 A 
ATOM     50  H   UNL A   1      40.231  29.462  30.686  1.00  0.00     0.167 HD
ATOM     51  C   UNL A   1      43.173  28.070  33.599  1.00  0.00     0.037 A 
ATOM     52  C   UNL A   1      37.970  30.890  29.886  1.00  0.00     0.037 A 
ATOM     53  C   UNL A   1      42.363  29.019  34.319  1.00  0.00     0.049 A 
ATOM     54  C   UNL A   1      38.168  31.215  31.341  1.00  0.00     0.074 A 
ATOM     55  C   UNL A   1      42.491  29.446  35.629  1.00  0.00     0.029 A 
ATOM     56  N   UNL A   1      41.257  29.675  33.793  1.00  0.00    -0.354 N 
ATOM     57  N   UNL A   1      39.093  30.788  32.168  1.00  0.00    -0.248 NA
ATOM     58  C   UNL A   1      37.212  32.153  31.945  1.00  0.00     0.031 C 
ATOM     59  C   UNL A   1      41.424  30.306  35.916  1.00  0.00     0.029 A 
ATOM     60  C   UNL A   1      40.674  30.477  34.763  1.00  0.00     0.049 A 
ATOM     61  H   UNL A   1      40.933  29.583  32.868  1.00  0.00     0.167 HD
ATOM     62  C   UNL A   1      38.845  31.423  33.380  1.00  0.00     0.074 A 
ATOM     63  C   UNL A   1      37.695  32.278  33.173  1.00  0.00     0.031 C 
ATOM     64  C   UNL A   1      39.517  31.314  34.555  1.00  0.00     0.037 A 
BRANCH  51  65
ATOM     65  C   UNL A   1      44.279  27.357  34.328  1.00  0.00     0.057 A 
ATOM     66  C   UNL A   1      44.089  26.113  34.945  1.00  0.00     0.134 A 
ATOM     67  C   UNL A   1      45.549  27.940  34.436  1.00  0.00     0.134 A 
ATOM     68  F   UNL A   1      42.894  25.502  34.894  1.00  0.00    -0.206 F 
ATOM     69  C   UNL A   1      45.104  25.499  35.683  1.00  0.00     0.040 A 
ATOM     70  C   UNL A   1      46.582  27.319  35.140  1.00  0.00     0.040 A 
ATOM     71  F   UNL A   1      45.806  29.126  33.865  1.00  0.00    -0.206 F 
ATOM     72  C   UNL A   1      46.356  26.102  35.780  1.00  0.00     0.006 A 
ENDBRANCH  51  65
BRANCH  52  73
ATOM     73  C   UNL A   1      36.829  31.455  29.123  1.00  0.00     0.057 A 
ATOM     74  C   UNL A   1      35.700  30.688  28.814  1.00  0.00     0.134 A 
ATOM     75  C   UNL A   1      36.838  32.790  28.699  1.00  0.00     0.134 A 
ATOM     76  F   UNL A   1      35.644  29.397  29.168  1.00  0.00    -0.206 F 
ATOM     77  C   UNL A   1      34.622  31.227  28.109  1.00  0.00     0.040 A 
ATOM     78  C   UNL A   1      35.757  33.349  28.016  1.00  0.00     0.040 A 
ATOM     79  F   UNL A   1      37.892  33.576  28.961  1.00  0.00    -0.206 F 
ATOM     80  C   UNL A   1      34.646  32.564  27.716  1.00  0.00     0.006 A 
ENDBRANCH  52  73
BRANCH  64  81
ATOM     81  C   UNL A   1      39.043  32.170  35.700  1.00  0.00     0.057 A 
ATOM     82  C   UNL A   1      39.442  33.505  35.854  1.00  0.00     0.134 A 
ATOM     83  C   UNL A   1      38.168  31.648  36.663  1.00  0.00     0.134 A 
ATOM     84  F   UNL A   1      40.285  34.069  34.974  1.00  0.00    -0.206 F 
ATOM     85  C   UNL A   1      39.025  34.273  36.943  1.00  0.00     0.040 A 
ATOM     86  C   UNL A   1      37.716  32.417  37.737  1.00  0.00     0.040 A 
ATOM     87  F   UNL A   1      37.732  30.383  36.574  1.00  0.00    -0.206 F 
ATOM     88  C   UNL A   1      38.156  33.730  37.887  1.00  0.00     0.006 A 
ENDBRANCH  64  81
ENDBRANCH  38  39
ENDBRANCH  31  33
ENDBRANCH  30  31
ENDBRANCH  29  30
ENDBRANCH  28  29
ENDBRANCH  27  28
ENDBRANCH  26  27
ENDBRANCH   1  26
TORSDOF 19
ENDMDL
MODEL 2
REMARK VINA RESULT:     -11.0      1.334      2.630
REMARK SMILES C[C@@]1(CN2C(=O)c3ccc(C(=O)OCCOCCOCCOC(=O)c4ccc(-c5c6nc(c(-c7c(F)cccc7F)c7ccc([nH]7)c(-c7c(F)cccc7F)c7nc(c(-c8c(F)cccc8F)c8ccc5[nH]8)C=C7)C=C6)cc4)cc3C2=O)CCCO1
REMARK SMILES IDX 17 1 16 2 15 3 14 4 13 5 11 6 12 7 10 8 4 9 5 10 81 11 6 12
REMARK SMILES IDX 7 13 80 14 82 15 8 16 79 17 9 18 3 19 2 20 1 21 83 22 86 23
REMARK SMILES IDX 84 24 85 25 18 26 19 27 20 28 21 29 22 30 23 31 24 32 25 33
REMARK SMILES IDX 26 34 78 35 27 36 77 37 28 38 29 39 30 40 71 41 31 42 76 43
REMARK SMILES IDX 70 44 72 45 32 46 75 47 69 48 68 49 33 51 59 52 42 53 58 54
REMARK SMILES IDX 43 55 46 56 57 57 73 58 44 59 45 60 56 62 74 63 47 64 34 65
REMARK SMILES IDX 35 66 40 67 36 68 37 69 39 70 41 71 38 72 60 73 61 74 66 75
REMARK SMILES IDX 62 76 63 77 65 78 67 79 64 80 48 81 49 82 54 83 50 84 51 85
REMARK SMILES IDX 53 86 55 87 52 88
REMARK H PARENT 72 50 46 61
REMARK Flexibility Score: inf
ROOT
ATOM      1  C   UNL A   1      43.991  18.806  25.069  1.00  0.00     0.188 C 
ENDROOT
BRANCH   1   2
ATOM      2  O   UNL A   1      42.657  19.271  25.193  1.00  0.00    -0.376 OA
BRANCH   2   3
ATOM      3  C   UNL A   1      42.342  20.311  26.109  1.00  0.00     0.202 C 
BRANCH   3   4
ATOM      4  C   UNL A   1      40.914  20.519  26.646  1.00  0.00     0.261 C 
BRANCH   4   5
ATOM      5  O   UNL A   1      39.971  21.099  25.732  1.00  0.00    -0.460 OA
BRANCH   5   6
ATOM      6  C   UNL A   1      39.218  22.110  26.228  1.00  0.00     0.338 C 
ATOM      7  O   UNL A   1      39.613  23.088  26.839  1.00  0.00    -0.246 OA
BRANCH   6   8
ATOM      8  C   UNL A   1      37.817  21.980  25.753  1.00  0.00     0.060 A 
ATOM      9  N   UNL A   1      33.491  23.294  24.949  1.00  0.00    -0.271 N 
ATOM     10  C   UNL A   1      33.796  22.018  24.553  1.00  0.00     0.261 C 
ATOM     11  C   UNL A   1      34.601  23.965  25.380  1.00  0.00     0.261 C 
ATOM     12  O   UNL A   1      33.095  21.187  24.021  1.00  0.00    -0.269 OA
ATOM     13  C   UNL A   1      35.206  21.807  24.885  1.00  0.00     0.053 A 
ATOM     14  C   UNL A   1      35.695  22.994  25.396  1.00  0.00     0.054 A 
ATOM     15  O   UNL A   1      34.747  25.143  25.654  1.00  0.00    -0.269 OA
ATOM     16  C   UNL A   1      35.994  20.676  24.775  1.00  0.00     0.015 A 
ATOM     17  C   UNL A   1      36.998  23.118  25.834  1.00  0.00     0.030 A 
ATOM     18  C   UNL A   1      37.322  20.768  25.217  1.00  0.00     0.016 A 
BRANCH   9  19
ATOM     19  C   UNL A   1      32.156  23.877  24.883  1.00  0.00     0.164 C 
BRANCH  19  20
ATOM     20  C   UNL A   1      31.924  24.781  23.635  1.00  0.00     0.084 C 
ATOM     21  C   UNL A   1      32.778  24.363  22.437  1.00  0.00     0.044 C 
ATOM     22  C   UNL A   1      32.173  26.257  23.971  1.00  0.00     0.039 C 
ATOM     23  O   UNL A   1      30.535  24.702  23.246  1.00  0.00    -0.373 OA
ATOM     24  C   UNL A   1      30.822  26.734  24.444  1.00  0.00     0.031 C 
ATOM     25  C   UNL A   1      29.873  25.926  23.588  1.00  0.00     0.161 C 
ENDBRANCH  19  20
ENDBRANCH   9  19
ENDBRANCH   6   8
ENDBRANCH   5   6
ENDBRANCH   4   5
ENDBRANCH   3   4
ENDBRANCH   2   3
ENDBRANCH   1   2
BRANCH   1  26
ATOM     26  C   UNL A   1      44.931  19.425  24.012  1.00  0.00     0.188 C 
BRANCH  26  27
ATOM     27  O   UNL A   1      45.475  20.673  24.368  1.00  0.00    -0.376 OA
BRANCH  27  28
ATOM     28  C   UNL A   1      45.093  21.833  23.649  1.00  0.00     0.202 C 
BRANCH  28  29
ATOM     29  C   UNL A   1      44.117  22.921  24.154  1.00  0.00     0.261 C 
BRANCH  29  30
ATOM     30  O   UNL A   1      44.329  23.489  25.450  1.00  0.00    -0.460 OA
BRANCH  30  31
ATOM     31  C   UNL A   1      44.814  24.752  25.482  1.00  0.00     0.338 C 
ATOM     32  O   UNL A   1      45.703  25.220  24.793  1.00  0.00    -0.246 OA
BRANCH  31  33
ATOM     33  C   UNL A   1      43.956  25.566  26.367  1.00  0.00     0.060 A 
ATOM     34  C   UNL A   1      44.294  26.910  26.573  1.00  0.00     0.016 A 
ATOM     35  C   UNL A   1      42.855  25.003  27.017  1.00  0.00     0.016 A 
ATOM     36  C   UNL A   1      43.554  27.686  27.461  1.00  0.00     0.010 A 
ATOM     37  C   UNL A   1      42.126  25.780  27.925  1.00  0.00     0.010 A 
ATOM     38  C   UNL A   1      42.498  27.112  28.181  1.00  0.00    -0.014 A 
BRANCH  38  39
ATOM     39  C   UNL A   1      41.922  27.859  29.327  1.00  0.00     0.031 A 
ATOM     40  C   UNL A   1      42.590  27.755  30.670  1.00  0.00     0.074 A 
ATOM     41  C   UNL A   1      40.855  28.660  29.172  1.00  0.00     0.049 A 
ATOM     42  N   UNL A   1      42.289  28.343  31.801  1.00  0.00    -0.248 NA
ATOM     43  C   UNL A   1      43.757  26.862  30.748  1.00  0.00     0.031 C 
ATOM     44  C   UNL A   1      40.131  28.871  27.921  1.00  0.00     0.029 A 
ATOM     45  N   UNL A   1      40.196  29.448  30.083  1.00  0.00    -0.354 N 
ATOM     46  C   UNL A   1      43.223  27.888  32.722  1.00  0.00     0.074 A 
ATOM     47  C   UNL A   1      44.071  26.941  32.030  1.00  0.00     0.031 C 
ATOM     48  C   UNL A   1      39.119  29.725  28.145  1.00  0.00     0.029 A 
ATOM     49  C   UNL A   1      39.109  30.102  29.558  1.00  0.00     0.049 A 
ATOM     50  H   UNL A   1      40.476  29.534  31.024  1.00  0.00     0.167 HD
ATOM     51  C   UNL A   1      43.370  28.232  34.025  1.00  0.00     0.037 A 
ATOM     52  C   UNL A   1      38.202  30.900  30.153  1.00  0.00     0.037 A 
ATOM     53  C   UNL A   1      42.515  29.163  34.717  1.00  0.00     0.049 A 
ATOM     54  C   UNL A   1      38.351  31.236  31.612  1.00  0.00     0.074 A 
ATOM     55  C   UNL A   1      42.595  29.599  36.029  1.00  0.00     0.029 A 
ATOM     56  N   UNL A   1      41.408  29.787  34.158  1.00  0.00    -0.354 N 
ATOM     57  N   UNL A   1      39.262  30.837  32.467  1.00  0.00    -0.248 NA
ATOM     58  C   UNL A   1      37.354  32.152  32.183  1.00  0.00     0.031 C 
ATOM     59  C   UNL A   1      41.499  30.433  36.281  1.00  0.00     0.029 A 
ATOM     60  C   UNL A   1      40.778  30.578  35.107  1.00  0.00     0.049 A 
ATOM     61  H   UNL A   1      41.113  29.683  33.224  1.00  0.00     0.167 HD
ATOM     62  C   UNL A   1      38.965  31.471  33.668  1.00  0.00     0.074 A 
ATOM     63  C   UNL A   1      37.799  32.295  33.424  1.00  0.00     0.031 C 
ATOM     64  C   UNL A   1      39.606  31.385  34.862  1.00  0.00     0.037 A 
BRANCH  51  65
ATOM     65  C   UNL A   1      44.473  27.552  34.789  1.00  0.00     0.057 A 
ATOM     66  C   UNL A   1      44.285  26.325  35.442  1.00  0.00     0.134 A 
ATOM     67  C   UNL A   1      45.736  28.148  34.894  1.00  0.00     0.134 A 
ATOM     68  F   UNL A   1      43.096  25.703  35.397  1.00  0.00    -0.206 F 
ATOM     69  C   UNL A   1      45.296  25.743  36.210  1.00  0.00     0.040 A 
ATOM     70  C   UNL A   1      46.766  27.557  35.628  1.00  0.00     0.040 A 
ATOM     71  F   UNL A   1      45.991  29.317  34.289  1.00  0.00    -0.206 F 
ATOM     72  C   UNL A   1      46.542  26.359  36.303  1.00  0.00     0.006 A 
ENDBRANCH  51  65
BRANCH  52  73
ATOM     73  C   UNL A   1      37.070  31.432  29.355  1.00  0.00     0.057 A 
ATOM     74  C   UNL A   1      37.089  32.728  28.826  1.00  0.00     0.134 A 
ATOM     75  C   UNL A   1      35.944  30.644  29.089  1.00  0.00     0.134 A 
ATOM     76  F   UNL A   1      38.125  33.542  29.069  1.00  0.00    -0.206 F 
ATOM     77  C   UNL A   1      36.028  33.220  28.063  1.00  0.00     0.040 A 
ATOM     78  C   UNL A   1      34.888  31.113  28.307  1.00  0.00     0.040 A 
ATOM     79  F   UNL A   1      35.864  29.394  29.571  1.00  0.00    -0.206 F 
ATOM     80  C   UNL A   1      34.927  32.408  27.795  1.00  0.00     0.006 A 
ENDBRANCH  52  73
BRANCH  64  81
ATOM     81  C   UNL A   1      39.078  32.233  35.988  1.00  0.00     0.057 A 
ATOM     82  C   UNL A   1      38.175  31.739  36.940  1.00  0.00     0.134 A 
ATOM     83  C   UNL A   1      39.484  33.568  36.124  1.00  0.00     0.134 A 
ATOM     84  F   UNL A   1      37.736  30.472  36.868  1.00  0.00    -0.206 F 
ATOM     85  C   UNL A   1      37.664  32.551  37.955  1.00  0.00     0.040 A 
ATOM     86  C   UNL A   1      39.008  34.379  37.155  1.00  0.00     0.040 A 
ATOM     87  F   UNL A   1      40.358  34.106  35.259  1.00  0.00    -0.206 F 
ATOM     88  C   UNL A   1      38.084  33.875  38.067  1.00  0.00     0.006 A 
ENDBRANCH  64  81
ENDBRANCH  38  39
ENDBRANCH  31  33
ENDBRANCH  30  31
ENDBRANCH  29  30
ENDBRANCH  28  29
ENDBRANCH  27  28
ENDBRANCH  26  27
ENDBRANCH   1  26
TORSDOF 19
ENDMDL
MODEL 3
REMARK VINA RESULT:     -11.0      1.213      2.134
REMARK SMILES C[C@@]1(CN2C(=O)c3ccc(C(=O)OCCOCCOCCOC(=O)c4ccc(-c5c6nc(c(-c7c(F)cccc7F)c7ccc([nH]7)c(-c7c(F)cccc7F)c7nc(c(-c8c(F)cccc8F)c8ccc5[nH]8)C=C7)C=C6)cc4)cc3C2=O)CCCO1
REMARK SMILES IDX 17 1 16 2 15 3 14 4 13 5 11 6 12 7 10 8 4 9 5 10 81 11 6 12
REMARK SMILES IDX 7 13 80 14 82 15 8 16 79 17 9 18 3 19 2 20 1 21 83 22 86 23
REMARK SMILES IDX 84 24 85 25 18 26 19 27 20 28 21 29 22 30 23 31 24 32 25 33
REMARK SMILES IDX 26 34 78 35 27 36 77 37 28 38 29 39 30 40 71 41 31 42 76 43
REMARK SMILES IDX 70 44 72 45 32 46 75 47 69 48 68 49 33 51 59 52 42 53 58 54
REMARK SMILES IDX 43 55 46 56 57 57 73 58 44 59 45 60 56 62 74 63 47 64 34 65
REMARK SMILES IDX 35 66 40 67 36 68 37 69 39 70 41 71 38 72 60 73 61 74 66 75
REMARK SMILES IDX 62 76 63 77 65 78 67 79 64 80 48 81 49 82 54 83 50 84 51 85
REMARK SMILES IDX 53 86 55 87 52 88
REMARK H PARENT 72 50 46 61
REMARK Flexibility Score: inf
ROOT
ATOM      1  C   UNL A   1      41.128  20.714  26.797  1.00  0.00     0.188 C 
ENDROOT
BRANCH   1   2
ATOM      2  O   UNL A   1      40.373  19.681  26.185  1.00  0.00    -0.376 OA
BRANCH   2   3
ATOM      3  C   UNL A   1      39.222  19.996  25.414  1.00  0.00     0.202 C 
BRANCH   3   4
ATOM      4  C   UNL A   1      38.317  21.196  25.753  1.00  0.00     0.261 C 
BRANCH   4   5
ATOM      5  O   UNL A   1      37.359  21.570  24.753  1.00  0.00    -0.460 OA
BRANCH   5   6
ATOM      6  C   UNL A   1      36.134  21.003  24.870  1.00  0.00     0.338 C 
ATOM      7  O   UNL A   1      35.868  19.814  24.825  1.00  0.00    -0.246 OA
BRANCH   6   8
ATOM      8  C   UNL A   1      35.136  22.027  25.268  1.00  0.00     0.060 A 
ATOM      9  N   UNL A   1      32.595  25.831  24.862  1.00  0.00    -0.271 N 
ATOM     10  C   UNL A   1      32.404  25.122  26.020  1.00  0.00     0.261 C 
ATOM     11  C   UNL A   1      33.416  25.164  23.997  1.00  0.00     0.261 C 
ATOM     12  O   UNL A   1      31.662  25.349  26.949  1.00  0.00    -0.269 OA
ATOM     13  C   UNL A   1      33.288  23.958  25.944  1.00  0.00     0.053 A 
ATOM     14  C   UNL A   1      33.911  23.989  24.712  1.00  0.00     0.054 A 
ATOM     15  O   UNL A   1      33.684  25.403  22.832  1.00  0.00    -0.269 OA
ATOM     16  C   UNL A   1      33.547  22.967  26.874  1.00  0.00     0.015 A 
ATOM     17  C   UNL A   1      34.836  23.035  24.338  1.00  0.00     0.030 A 
ATOM     18  C   UNL A   1      34.488  21.986  26.525  1.00  0.00     0.016 A 
BRANCH   9  19
ATOM     19  C   UNL A   1      31.971  27.117  24.574  1.00  0.00     0.164 C 
BRANCH  19  20
ATOM     20  C   UNL A   1      32.859  28.344  24.941  1.00  0.00     0.084 C 
ATOM     21  C   UNL A   1      33.958  28.606  23.910  1.00  0.00     0.044 C 
ATOM     22  C   UNL A   1      33.472  28.182  26.337  1.00  0.00     0.039 C 
ATOM     23  O   UNL A   1      32.027  29.522  25.018  1.00  0.00    -0.373 OA
ATOM     24  C   UNL A   1      32.431  28.790  27.243  1.00  0.00     0.031 C 
ATOM     25  C   UNL A   1      31.869  29.906  26.391  1.00  0.00     0.161 C 
ENDBRANCH  19  20
ENDBRANCH   9  19
ENDBRANCH   6   8
ENDBRANCH   5   6
ENDBRANCH   4   5
ENDBRANCH   3   4
ENDBRANCH   2   3
ENDBRANCH   1   2
BRANCH   1  26
ATOM     26  C   UNL A   1      42.099  21.567  25.953  1.00  0.00     0.188 C 
BRANCH  26  27
ATOM     27  O   UNL A   1      43.206  20.864  25.442  1.00  0.00    -0.376 OA
BRANCH  27  28
ATOM     28  C   UNL A   1      44.363  21.578  25.041  1.00  0.00     0.202 C 
BRANCH  28  29
ATOM     29  C   UNL A   1      44.392  22.740  24.021  1.00  0.00     0.261 C 
BRANCH  29  30
ATOM     30  O   UNL A   1      43.959  24.038  24.441  1.00  0.00    -0.460 OA
BRANCH  30  31
ATOM     31  C   UNL A   1      44.751  24.677  25.333  1.00  0.00     0.338 C 
ATOM     32  O   UNL A   1      45.967  24.743  25.327  1.00  0.00    -0.246 OA
BRANCH  31  33
ATOM     33  C   UNL A   1      43.897  25.472  26.239  1.00  0.00     0.060 A 
ATOM     34  C   UNL A   1      44.172  26.838  26.388  1.00  0.00     0.016 A 
ATOM     35  C   UNL A   1      42.865  24.873  26.964  1.00  0.00     0.016 A 
ATOM     36  C   UNL A   1      43.439  27.602  27.292  1.00  0.00     0.010 A 
ATOM     37  C   UNL A   1      42.143  25.639  27.887  1.00  0.00     0.010 A 
ATOM     38  C   UNL A   1      42.455  26.996  28.084  1.00  0.00    -0.014 A 
BRANCH  38  39
ATOM     39  C   UNL A   1      41.900  27.747  29.237  1.00  0.00     0.031 A 
ATOM     40  C   UNL A   1      42.576  27.627  30.575  1.00  0.00     0.074 A 
ATOM     41  C   UNL A   1      40.845  28.567  29.094  1.00  0.00     0.049 A 
ATOM     42  N   UNL A   1      42.293  28.215  31.710  1.00  0.00    -0.248 NA
ATOM     43  C   UNL A   1      43.729  26.715  30.640  1.00  0.00     0.031 C 
ATOM     44  C   UNL A   1      40.116  28.794  27.849  1.00  0.00     0.029 A 
ATOM     45  N   UNL A   1      40.206  29.361  30.014  1.00  0.00    -0.354 N 
ATOM     46  C   UNL A   1      43.226  27.740  32.623  1.00  0.00     0.074 A 
ATOM     47  C   UNL A   1      44.054  26.783  31.921  1.00  0.00     0.031 C 
ATOM     48  C   UNL A   1      39.119  29.664  28.085  1.00  0.00     0.029 A 
ATOM     49  C   UNL A   1      39.127  30.035  29.499  1.00  0.00     0.049 A 
ATOM     50  H   UNL A   1      40.495  29.439  30.952  1.00  0.00     0.167 HD
ATOM     51  C   UNL A   1      43.389  28.077  33.926  1.00  0.00     0.037 A 
ATOM     52  C   UNL A   1      38.238  30.846  30.105  1.00  0.00     0.037 A 
ATOM     53  C   UNL A   1      42.555  29.019  34.629  1.00  0.00     0.049 A 
ATOM     54  C   UNL A   1      38.403  31.174  31.564  1.00  0.00     0.074 A 
ATOM     55  C   UNL A   1      42.652  29.447  35.941  1.00  0.00     0.029 A 
ATOM     56  N   UNL A   1      41.454  29.663  34.080  1.00  0.00    -0.354 N 
ATOM     57  N   UNL A   1      39.314  30.756  32.410  1.00  0.00    -0.248 NA
ATOM     58  C   UNL A   1      37.425  32.103  32.146  1.00  0.00     0.031 C 
ATOM     59  C   UNL A   1      41.572  30.298  36.205  1.00  0.00     0.029 A 
ATOM     60  C   UNL A   1      40.845  30.460  35.037  1.00  0.00     0.049 A 
ATOM     61  H   UNL A   1      41.151  29.568  33.148  1.00  0.00     0.167 HD
ATOM     62  C   UNL A   1      39.036  31.389  33.616  1.00  0.00     0.074 A 
ATOM     63  C   UNL A   1      37.882  32.233  33.384  1.00  0.00     0.031 C 
ATOM     64  C   UNL A   1      39.684  31.287  34.805  1.00  0.00     0.037 A 
BRANCH  51  65
ATOM     65  C   UNL A   1      44.487  27.375  34.679  1.00  0.00     0.057 A 
ATOM     66  C   UNL A   1      44.265  26.188  35.392  1.00  0.00     0.134 A 
ATOM     67  C   UNL A   1      45.781  27.910  34.710  1.00  0.00     0.134 A 
ATOM     68  F   UNL A   1      43.046  25.625  35.418  1.00  0.00    -0.206 F 
ATOM     69  C   UNL A   1      45.275  25.589  36.148  1.00  0.00     0.040 A 
ATOM     70  C   UNL A   1      46.808  27.301  35.433  1.00  0.00     0.040 A 
ATOM     71  F   UNL A   1      46.068  29.039  34.046  1.00  0.00    -0.206 F 
ATOM     72  C   UNL A   1      46.552  26.145  36.167  1.00  0.00     0.006 A 
ENDBRANCH  51  65
BRANCH  52  73
ATOM     73  C   UNL A   1      37.108  31.400  29.318  1.00  0.00     0.057 A 
ATOM     74  C   UNL A   1      37.137  32.703  28.807  1.00  0.00     0.134 A 
ATOM     75  C   UNL A   1      35.974  30.626  29.043  1.00  0.00     0.134 A 
ATOM     76  F   UNL A   1      38.182  33.504  29.061  1.00  0.00    -0.206 F 
ATOM     77  C   UNL A   1      36.079  33.217  28.055  1.00  0.00     0.040 A 
ATOM     78  C   UNL A   1      34.921  31.116  28.270  1.00  0.00     0.040 A 
ATOM     79  F   UNL A   1      35.884  29.370  29.505  1.00  0.00    -0.206 F 
ATOM     80  C   UNL A   1      34.970  32.418  27.777  1.00  0.00     0.006 A 
ENDBRANCH  52  73
BRANCH  64  81
ATOM     81  C   UNL A   1      39.179  32.139  35.938  1.00  0.00     0.057 A 
ATOM     82  C   UNL A   1      38.239  31.672  36.867  1.00  0.00     0.134 A 
ATOM     83  C   UNL A   1      39.646  33.451  36.105  1.00  0.00     0.134 A 
ATOM     84  F   UNL A   1      37.741  30.429  36.765  1.00  0.00    -0.206 F 
ATOM     85  C   UNL A   1      37.750  32.489  37.889  1.00  0.00     0.040 A 
ATOM     86  C   UNL A   1      39.192  34.265  37.144  1.00  0.00     0.040 A 
ATOM     87  F   UNL A   1      40.558  33.962  35.264  1.00  0.00    -0.206 F 
ATOM     88  C   UNL A   1      38.230  33.789  38.032  1.00  0.00     0.006 A 
ENDBRANCH  64  81
ENDBRANCH  38  39
ENDBRANCH  31  33
ENDBRANCH  30  31
ENDBRANCH  29  30
ENDBRANCH  28  29
ENDBRANCH  27  28
ENDBRANCH  26  27
ENDBRANCH   1  26
TORSDOF 19
ENDMDL
