MODEL 1
REMARK VINA RESULT:     -11.6      0.000      0.000
REMARK SMILES Cc1ccc(-c2nc(NC(=O)[C@H]3[C@@H](C(=O)OCCOCCOCCOCCOC(=O)c4ccc(-c5c6nc(c(-c7c(F)cccc7F)c7ccc([nH]7)c(-c7c(F)cccc7F)c7nc(c(-c8c(F)cccc8F)c8ccc5[nH]8)C=C7)C=C6)cc4)[C@@H]4CC[C@H]3O4)sc2C)cc1
REMARK SMILES IDX 21 1 20 2 19 3 18 4 17 5 16 6 14 7 15 8 13 9 12 10 88 11
REMARK SMILES IDX 85 12 87 13 89 14 86 15 10 16 9 17 11 19 8 20 6 21 7 22
REMARK SMILES IDX 91 23 90 24 92 25 5 26 1 27 2 28 3 29 94 30 4 31 93 32 22 33
REMARK SMILES IDX 23 34 24 35 25 36 26 37 27 38 28 39 29 40 30 41 31 42 32 43
REMARK SMILES IDX 84 44 33 45 83 46 34 47 35 48 36 49 77 50 37 51 82 52 76 53
REMARK SMILES IDX 78 54 38 55 81 56 75 57 74 58 39 60 65 61 48 62 64 63 49 64
REMARK SMILES IDX 52 65 63 66 79 67 50 68 51 69 62 71 80 72 53 73 40 74 41 75
REMARK SMILES IDX 46 76 42 77 43 78 45 79 47 80 44 81 66 82 67 83 72 84 68 85
REMARK SMILES IDX 69 86 71 87 73 88 70 89 54 90 55 91 60 92 56 93 57 94 59 95
REMARK SMILES IDX 61 96 58 97
REMARK H PARENT 9 18 78 59 52 70
REMARK Flexibility Score: inf
ROOT
ATOM      1  C   UNL A   1      39.992  21.243  26.453  1.00  0.00     0.188 C 
ENDROOT
BRANCH   1   2
ATOM      2  C   UNL A   1      39.281  22.618  26.323  1.00  0.00     0.188 C 
BRANCH   2   3
ATOM      3  O   UNL A   1      38.047  22.681  25.609  1.00  0.00    -0.376 OA
BRANCH   3   4
ATOM      4  C   UNL A   1      37.186  23.704  26.004  1.00  0.00     0.202 C 
BRANCH   4   5
ATOM      5  C   UNL A   1      35.828  23.775  25.429  1.00  0.00     0.261 C 
BRANCH   5   6
ATOM      6  O   UNL A   1      35.105  24.922  25.824  1.00  0.00    -0.463 OA
BRANCH   6   7
ATOM      7  C   UNL A   1      34.055  25.475  25.212  1.00  0.00     0.312 C 
ATOM      8  O   UNL A   1      33.976  25.357  23.986  1.00  0.00    -0.252 OA
BRANCH   7   9
ATOM      9  C   UNL A   1      33.066  26.395  25.900  1.00  0.00     0.143 C 
ATOM     10  C   UNL A   1      31.702  26.859  25.395  1.00  0.00     0.124 C 
ATOM     11  C   UNL A   1      32.073  28.310  24.875  1.00  0.00     0.132 C 
ATOM     12  C   UNL A   1      33.802  27.734  26.049  1.00  0.00     0.133 C 
ATOM     13  C   UNL A   1      32.019  29.312  26.025  1.00  0.00     0.035 C 
ATOM     14  O   UNL A   1      33.517  28.281  24.749  1.00  0.00    -0.373 OA
ATOM     15  C   UNL A   1      33.045  28.695  26.980  1.00  0.00     0.036 C 
BRANCH  10  16
ATOM     16  C   UNL A   1      30.778  26.097  24.454  1.00  0.00     0.232 C 
ATOM     17  N   UNL A   1      30.415  24.782  24.474  1.00  0.00    -0.302 N 
ATOM     18  H   UNL A   1      29.606  24.605  23.941  1.00  0.00     0.172 HD
ATOM     19  O   UNL A   1      30.290  26.750  23.517  1.00  0.00    -0.274 OA
BRANCH  17  20
ATOM     20  C   UNL A   1      30.918  23.646  25.067  1.00  0.00     0.190 A 
ATOM     21  C   UNL A   1      32.309  21.754  25.144  1.00  0.00     0.086 A 
ATOM     22  N   UNL A   1      31.560  22.699  24.408  1.00  0.00    -0.220 NA
ATOM     23  C   UNL A   1      32.234  22.426  26.563  1.00  0.00     0.031 A 
ATOM     24  S   UNL A   1      30.727  23.368  26.678  1.00  0.00    -0.101 S 
ATOM     25  C   UNL A   1      32.910  22.485  27.973  1.00  0.00     0.059 C 
BRANCH  21  26
ATOM     26  C   UNL A   1      33.161  20.209  24.406  1.00  0.00     0.001 A 
ATOM     27  C   UNL A   1      34.235  15.822  24.179  1.00  0.00     0.044 C 
ATOM     28  C   UNL A   1      34.066  17.295  24.012  1.00  0.00    -0.051 A 
ATOM     29  C   UNL A   1      34.895  18.271  24.512  1.00  0.00     0.004 A 
ATOM     30  C   UNL A   1      32.968  17.781  23.379  1.00  0.00     0.004 A 
ATOM     31  C   UNL A   1      34.472  19.657  24.620  1.00  0.00     0.010 A 
ATOM     32  C   UNL A   1      32.585  19.137  23.550  1.00  0.00     0.010 A 
ENDBRANCH  21  26
ENDBRANCH  17  20
ENDBRANCH  10  16
ENDBRANCH   7   9
ENDBRANCH   6   7
ENDBRANCH   5   6
ENDBRANCH   4   5
ENDBRANCH   3   4
ENDBRANCH   2   3
ENDBRANCH   1   2
BRANCH   1  33
ATOM     33  O   UNL A   1      41.076  21.059  27.369  1.00  0.00    -0.377 OA
BRANCH  33  34
ATOM     34  C   UNL A   1      41.665  19.765  27.506  1.00  0.00     0.188 C 
BRANCH  34  35
ATOM     35  C   UNL A   1      42.151  19.199  26.183  1.00  0.00     0.188 C 
BRANCH  35  36
ATOM     36  O   UNL A   1      43.121  18.181  26.376  1.00  0.00    -0.376 OA
BRANCH  36  37
ATOM     37  C   UNL A   1      44.278  18.331  25.572  1.00  0.00     0.202 C 
BRANCH  37  38
ATOM     38  C   UNL A   1      43.855  19.158  24.361  1.00  0.00     0.261 C 
BRANCH  38  39
ATOM     39  O   UNL A   1      45.094  19.733  23.807  1.00  0.00    -0.460 OA
BRANCH  39  40
ATOM     40  C   UNL A   1      45.723  20.751  24.495  1.00  0.00     0.338 C 
ATOM     41  O   UNL A   1      46.886  20.741  24.805  1.00  0.00    -0.246 OA
BRANCH  40  42
ATOM     42  C   UNL A   1      44.739  21.783  25.057  1.00  0.00     0.060 A 
ATOM     43  C   UNL A   1      44.238  22.803  24.225  1.00  0.00     0.016 A 
ATOM     44  C   UNL A   1      44.524  21.925  26.426  1.00  0.00     0.016 A 
ATOM     45  C   UNL A   1      43.701  23.998  24.774  1.00  0.00     0.010 A 
ATOM     46  C   UNL A   1      44.025  23.129  26.963  1.00  0.00     0.010 A 
ATOM     47  C   UNL A   1      43.716  24.236  26.168  1.00  0.00    -0.014 A 
BRANCH  47  48
ATOM     48  C   UNL A   1      43.605  25.628  26.786  1.00  0.00     0.031 A 
ATOM     49  C   UNL A   1      42.118  26.121  27.535  1.00  0.00     0.074 A 
ATOM     50  C   UNL A   1      44.760  26.403  26.819  1.00  0.00     0.049 A 
ATOM     51  N   UNL A   1      41.881  26.840  28.621  1.00  0.00    -0.248 NA
ATOM     52  C   UNL A   1      40.815  25.868  26.931  1.00  0.00     0.031 C 
ATOM     53  C   UNL A   1      44.741  27.817  26.686  1.00  0.00     0.029 A 
ATOM     54  N   UNL A   1      46.178  26.218  27.023  1.00  0.00    -0.354 N 
ATOM     55  C   UNL A   1      40.609  27.611  28.589  1.00  0.00     0.074 A 
ATOM     56  C   UNL A   1      39.958  26.654  27.634  1.00  0.00     0.031 C 
ATOM     57  C   UNL A   1      45.816  28.339  27.190  1.00  0.00     0.029 A 
ATOM     58  C   UNL A   1      46.840  27.433  27.380  1.00  0.00     0.049 A 
ATOM     59  H   UNL A   1      46.636  25.352  26.928  1.00  0.00     0.167 HD
ATOM     60  C   UNL A   1      40.286  29.084  29.067  1.00  0.00     0.037 A 
ATOM     61  C   UNL A   1      48.009  28.030  27.786  1.00  0.00     0.037 A 
ATOM     62  C   UNL A   1      41.423  30.368  29.724  1.00  0.00     0.049 A 
ATOM     63  C   UNL A   1      47.808  29.673  28.255  1.00  0.00     0.074 A 
ATOM     64  C   UNL A   1      41.588  31.189  30.880  1.00  0.00     0.029 A 
ATOM     65  N   UNL A   1      42.812  30.899  29.149  1.00  0.00    -0.354 N 
ATOM     66  N   UNL A   1      46.821  30.501  27.841  1.00  0.00    -0.248 NA
ATOM     67  C   UNL A   1      48.474  30.381  29.359  1.00  0.00     0.031 C 
ATOM     68  C   UNL A   1      42.985  31.858  30.976  1.00  0.00     0.029 A 
ATOM     69  C   UNL A   1      43.790  31.560  29.879  1.00  0.00     0.049 A 
ATOM     70  H   UNL A   1      42.991  30.745  28.194  1.00  0.00     0.167 HD
ATOM     71  C   UNL A   1      46.285  31.185  28.977  1.00  0.00     0.074 A 
ATOM     72  C   UNL A   1      47.543  31.308  29.725  1.00  0.00     0.031 C 
ATOM     73  C   UNL A   1      45.116  31.986  29.059  1.00  0.00     0.037 A 
BRANCH  60  74
ATOM     74  C   UNL A   1      38.726  29.504  29.018  1.00  0.00     0.057 A 
ATOM     75  C   UNL A   1      37.988  29.673  30.202  1.00  0.00     0.134 A 
ATOM     76  C   UNL A   1      37.886  29.685  27.886  1.00  0.00     0.134 A 
ATOM     77  F   UNL A   1      38.577  29.703  31.399  1.00  0.00    -0.206 F 
ATOM     78  C   UNL A   1      36.584  29.860  30.249  1.00  0.00     0.040 A 
ATOM     79  C   UNL A   1      36.489  29.865  27.908  1.00  0.00     0.040 A 
ATOM     80  F   UNL A   1      38.315  29.795  26.641  1.00  0.00    -0.206 F 
ATOM     81  C   UNL A   1      35.818  29.926  29.100  1.00  0.00     0.006 A 
ENDBRANCH  60  74
BRANCH  61  82
ATOM     82  C   UNL A   1      49.098  26.966  27.852  1.00  0.00     0.057 A 
ATOM     83  C   UNL A   1      50.166  26.904  26.949  1.00  0.00     0.134 A 
ATOM     84  C   UNL A   1      49.443  26.593  29.182  1.00  0.00     0.134 A 
ATOM     85  F   UNL A   1      49.943  27.014  25.632  1.00  0.00    -0.206 F 
ATOM     86  C   UNL A   1      51.511  26.799  27.389  1.00  0.00     0.040 A 
ATOM     87  C   UNL A   1      50.772  26.567  29.642  1.00  0.00     0.040 A 
ATOM     88  F   UNL A   1      48.485  26.538  30.121  1.00  0.00    -0.206 F 
ATOM     89  C   UNL A   1      51.818  26.732  28.747  1.00  0.00     0.006 A 
ENDBRANCH  61  82
BRANCH  73  90
ATOM     90  C   UNL A   1      44.857  32.954  27.859  1.00  0.00     0.057 A 
ATOM     91  C   UNL A   1      44.372  32.544  26.600  1.00  0.00     0.134 A 
ATOM     92  C   UNL A   1      45.240  34.319  27.899  1.00  0.00     0.134 A 
ATOM     93  F   UNL A   1      44.036  31.271  26.350  1.00  0.00    -0.206 F 
ATOM     94  C   UNL A   1      44.275  33.417  25.497  1.00  0.00     0.040 A 
ATOM     95  C   UNL A   1      45.123  35.200  26.817  1.00  0.00     0.040 A 
ATOM     96  F   UNL A   1      45.804  34.875  28.977  1.00  0.00    -0.206 F 
ATOM     97  C   UNL A   1      44.657  34.748  25.601  1.00  0.00     0.006 A 
ENDBRANCH  73  90
ENDBRANCH  47  48
ENDBRANCH  40  42
ENDBRANCH  39  40
ENDBRANCH  38  39
ENDBRANCH  37  38
ENDBRANCH  36  37
ENDBRANCH  35  36
ENDBRANCH  34  35
ENDBRANCH  33  34
ENDBRANCH   1  33
TORSDOF 23
ENDMDL
MODEL 2
REMARK VINA RESULT:     -11.2      4.327     10.261
REMARK SMILES Cc1ccc(-c2nc(NC(=O)[C@H]3[C@@H](C(=O)OCCOCCOCCOCCOC(=O)c4ccc(-c5c6nc(c(-c7c(F)cccc7F)c7ccc([nH]7)c(-c7c(F)cccc7F)c7nc(c(-c8c(F)cccc8F)c8ccc5[nH]8)C=C7)C=C6)cc4)[C@@H]4CC[C@H]3O4)sc2C)cc1
REMARK SMILES IDX 21 1 20 2 19 3 18 4 17 5 16 6 14 7 15 8 13 9 12 10 88 11
REMARK SMILES IDX 85 12 87 13 89 14 86 15 10 16 9 17 11 19 8 20 6 21 7 22
REMARK SMILES IDX 91 23 90 24 92 25 5 26 1 27 2 28 3 29 94 30 4 31 93 32 22 33
REMARK SMILES IDX 23 34 24 35 25 36 26 37 27 38 28 39 29 40 30 41 31 42 32 43
REMARK SMILES IDX 84 44 33 45 83 46 34 47 35 48 36 49 77 50 37 51 82 52 76 53
REMARK SMILES IDX 78 54 38 55 81 56 75 57 74 58 39 60 65 61 48 62 64 63 49 64
REMARK SMILES IDX 52 65 63 66 79 67 50 68 51 69 62 71 80 72 53 73 40 74 41 75
REMARK SMILES IDX 46 76 42 77 43 78 45 79 47 80 44 81 66 82 67 83 72 84 68 85
REMARK SMILES IDX 69 86 71 87 73 88 70 89 54 90 55 91 60 92 56 93 57 94 59 95
REMARK SMILES IDX 61 96 58 97
REMARK H PARENT 9 18 78 59 52 70
REMARK Flexibility Score: inf
ROOT
ATOM      1  C   UNL A   1      34.038  30.679  27.477  1.00  0.00     0.188 C 
ENDROOT
BRANCH   1   2
ATOM      2  C   UNL A   1      32.545  30.737  27.051  1.00  0.00     0.188 C 
BRANCH   2   3
ATOM      3  O   UNL A   1      31.795  29.523  27.034  1.00  0.00    -0.376 OA
BRANCH   3   4
ATOM      4  C   UNL A   1      32.553  28.356  27.125  1.00  0.00     0.202 C 
BRANCH   4   5
ATOM      5  C   UNL A   1      32.590  27.422  25.984  1.00  0.00     0.261 C 
BRANCH   5   6
ATOM      6  O   UNL A   1      33.017  26.121  26.331  1.00  0.00    -0.463 OA
BRANCH   6   7
ATOM      7  C   UNL A   1      33.776  25.293  25.610  1.00  0.00     0.312 C 
ATOM      8  O   UNL A   1      34.693  25.784  24.944  1.00  0.00    -0.252 OA
BRANCH   7   9
ATOM      9  C   UNL A   1      33.463  23.824  25.407  1.00  0.00     0.143 C 
ATOM     10  C   UNL A   1      32.314  23.014  26.003  1.00  0.00     0.124 C 
ATOM     11  C   UNL A   1      33.073  22.273  27.181  1.00  0.00     0.132 C 
ATOM     12  C   UNL A   1      34.680  23.073  25.966  1.00  0.00     0.133 C 
ATOM     13  C   UNL A   1      33.737  21.001  26.662  1.00  0.00     0.035 C 
ATOM     14  O   UNL A   1      34.292  23.039  27.351  1.00  0.00    -0.373 OA
ATOM     15  C   UNL A   1      34.653  21.585  25.582  1.00  0.00     0.036 C 
BRANCH  10  16
ATOM     16  C   UNL A   1      30.945  23.546  26.405  1.00  0.00     0.232 C 
ATOM     17  N   UNL A   1      30.042  24.258  25.670  1.00  0.00    -0.302 N 
ATOM     18  H   UNL A   1      29.138  24.237  26.059  1.00  0.00     0.172 HD
ATOM     19  O   UNL A   1      30.591  23.322  27.575  1.00  0.00    -0.274 OA
BRANCH  17  20
ATOM     20  C   UNL A   1      30.104  24.999  24.511  1.00  0.00     0.190 A 
ATOM     21  C   UNL A   1      29.944  26.994  23.280  1.00  0.00     0.086 A 
ATOM     22  N   UNL A   1      29.551  26.190  24.373  1.00  0.00    -0.220 NA
ATOM     23  C   UNL A   1      31.155  26.136  22.762  1.00  0.00     0.031 A 
ATOM     24  S   UNL A   1      30.871  24.427  23.173  1.00  0.00    -0.101 S 
ATOM     25  C   UNL A   1      32.463  26.180  21.903  1.00  0.00     0.059 C 
BRANCH  21  26
ATOM     26  C   UNL A   1      29.145  28.663  22.797  1.00  0.00     0.001 A 
ATOM     27  C   UNL A   1      28.568  33.144  22.963  1.00  0.00     0.044 C 
ATOM     28  C   UNL A   1      28.526  31.674  22.710  1.00  0.00    -0.051 A 
ATOM     29  C   UNL A   1      27.709  30.764  23.338  1.00  0.00     0.004 A 
ATOM     30  C   UNL A   1      29.406  31.113  21.841  1.00  0.00     0.004 A 
ATOM     31  C   UNL A   1      27.980  29.337  23.303  1.00  0.00     0.010 A 
ATOM     32  C   UNL A   1      29.654  29.716  21.877  1.00  0.00     0.010 A 
ENDBRANCH  21  26
ENDBRANCH  17  20
ENDBRANCH  10  16
ENDBRANCH   7   9
ENDBRANCH   6   7
ENDBRANCH   5   6
ENDBRANCH   4   5
ENDBRANCH   3   4
ENDBRANCH   2   3
ENDBRANCH   1   2
BRANCH   1  33
ATOM     33  O   UNL A   1      34.567  31.600  28.436  1.00  0.00    -0.377 OA
BRANCH  33  34
ATOM     34  C   UNL A   1      35.274  32.754  27.983  1.00  0.00     0.188 C 
BRANCH  34  35
ATOM     35  C   UNL A   1      34.533  34.047  28.271  1.00  0.00     0.188 C 
BRANCH  35  36
ATOM     36  O   UNL A   1      33.609  33.894  29.337  1.00  0.00    -0.376 OA
BRANCH  36  37
ATOM     37  C   UNL A   1      33.536  35.016  30.199  1.00  0.00     0.202 C 
BRANCH  37  38
ATOM     38  C   UNL A   1      34.348  34.656  31.441  1.00  0.00     0.261 C 
BRANCH  38  39
ATOM     39  O   UNL A   1      34.319  33.185  31.535  1.00  0.00    -0.460 OA
BRANCH  39  40
ATOM     40  C   UNL A   1      35.264  32.548  32.313  1.00  0.00     0.338 C 
ATOM     41  O   UNL A   1      35.427  32.758  33.487  1.00  0.00    -0.246 OA
BRANCH  40  42
ATOM     42  C   UNL A   1      36.264  31.733  31.485  1.00  0.00     0.060 A 
ATOM     43  C   UNL A   1      36.120  30.335  31.385  1.00  0.00     0.016 A 
ATOM     44  C   UNL A   1      37.468  32.275  31.044  1.00  0.00     0.016 A 
ATOM     45  C   UNL A   1      37.218  29.511  31.022  1.00  0.00     0.010 A 
ATOM     46  C   UNL A   1      38.563  31.449  30.722  1.00  0.00     0.010 A 
ATOM     47  C   UNL A   1      38.508  30.056  30.818  1.00  0.00    -0.014 A 
BRANCH  47  48
ATOM     48  C   UNL A   1      39.792  29.231  30.892  1.00  0.00     0.031 A 
ATOM     49  C   UNL A   1      40.357  28.392  29.481  1.00  0.00     0.074 A 
ATOM     50  C   UNL A   1      40.517  29.289  32.077  1.00  0.00     0.049 A 
ATOM     51  N   UNL A   1      41.578  28.191  29.012  1.00  0.00    -0.248 NA
ATOM     52  C   UNL A   1      39.466  27.631  28.612  1.00  0.00     0.031 C 
ATOM     53  C   UNL A   1      41.249  28.184  32.586  1.00  0.00     0.029 A 
ATOM     54  N   UNL A   1      40.861  30.266  33.085  1.00  0.00    -0.354 N 
ATOM     55  C   UNL A   1      41.747  26.934  28.235  1.00  0.00     0.074 A 
ATOM     56  C   UNL A   1      40.301  26.891  27.836  1.00  0.00     0.031 C 
ATOM     57  C   UNL A   1      42.174  28.583  33.402  1.00  0.00     0.029 A 
ATOM     58  C   UNL A   1      41.997  29.873  33.858  1.00  0.00     0.049 A 
ATOM     59  H   UNL A   1      40.369  31.107  33.222  1.00  0.00     0.167 HD
ATOM     60  C   UNL A   1      42.925  25.879  28.227  1.00  0.00     0.037 A 
ATOM     61  C   UNL A   1      42.911  30.226  34.822  1.00  0.00     0.037 A 
ATOM     62  C   UNL A   1      44.434  25.814  29.271  1.00  0.00     0.049 A 
ATOM     63  C   UNL A   1      44.208  29.108  34.973  1.00  0.00     0.074 A 
ATOM     64  C   UNL A   1      45.855  25.783  29.132  1.00  0.00     0.029 A 
ATOM     65  N   UNL A   1      44.592  25.922  30.854  1.00  0.00    -0.354 N 
ATOM     66  N   UNL A   1      44.173  27.800  34.628  1.00  0.00    -0.248 NA
ATOM     67  C   UNL A   1      45.626  29.404  35.233  1.00  0.00     0.031 C 
ATOM     68  C   UNL A   1      46.618  26.074  30.453  1.00  0.00     0.029 A 
ATOM     69  C   UNL A   1      45.755  26.262  31.530  1.00  0.00     0.049 A 
ATOM     70  H   UNL A   1      43.795  25.730  31.398  1.00  0.00     0.167 HD
ATOM     71  C   UNL A   1      45.350  27.487  33.878  1.00  0.00     0.074 A 
ATOM     72  C   UNL A   1      46.266  28.380  34.600  1.00  0.00     0.031 C 
ATOM     73  C   UNL A   1      45.646  26.311  33.142  1.00  0.00     0.037 A 
BRANCH  60  74
ATOM     74  C   UNL A   1      42.811  24.720  27.106  1.00  0.00     0.057 A 
ATOM     75  C   UNL A   1      41.973  23.608  27.303  1.00  0.00     0.134 A 
ATOM     76  C   UNL A   1      43.520  24.590  25.881  1.00  0.00     0.134 A 
ATOM     77  F   UNL A   1      41.092  23.560  28.303  1.00  0.00    -0.206 F 
ATOM     78  C   UNL A   1      41.951  22.466  26.463  1.00  0.00     0.040 A 
ATOM     79  C   UNL A   1      43.518  23.463  25.036  1.00  0.00     0.040 A 
ATOM     80  F   UNL A   1      44.224  25.553  25.315  1.00  0.00    -0.206 F 
ATOM     81  C   UNL A   1      42.748  22.373  25.338  1.00  0.00     0.006 A 
ENDBRANCH  60  74
BRANCH  61  82
ATOM     82  C   UNL A   1      42.557  31.616  35.337  1.00  0.00     0.057 A 
ATOM     83  C   UNL A   1      41.645  31.841  36.376  1.00  0.00     0.134 A 
ATOM     84  C   UNL A   1      43.658  32.518  35.330  1.00  0.00     0.134 A 
ATOM     85  F   UNL A   1      40.459  31.216  36.378  1.00  0.00    -0.206 F 
ATOM     86  C   UNL A   1      41.964  32.665  37.485  1.00  0.00     0.040 A 
ATOM     87  C   UNL A   1      44.025  33.276  36.458  1.00  0.00     0.040 A 
ATOM     88  F   UNL A   1      44.559  32.452  34.337  1.00  0.00    -0.206 F 
ATOM     89  C   UNL A   1      43.201  33.304  37.571  1.00  0.00     0.006 A 
ENDBRANCH  61  82
BRANCH  73  90
ATOM     90  C   UNL A   1      45.234  24.957  33.808  1.00  0.00     0.057 A 
ATOM     91  C   UNL A   1      46.140  23.929  34.142  1.00  0.00     0.134 A 
ATOM     92  C   UNL A   1      43.875  24.593  33.991  1.00  0.00     0.134 A 
ATOM     93  F   UNL A   1      47.462  24.063  33.959  1.00  0.00    -0.206 F 
ATOM     94  C   UNL A   1      45.725  22.669  34.617  1.00  0.00     0.040 A 
ATOM     95  C   UNL A   1      43.454  23.354  34.487  1.00  0.00     0.040 A 
ATOM     96  F   UNL A   1      42.865  25.399  33.650  1.00  0.00    -0.206 F 
ATOM     97  C   UNL A   1      44.379  22.375  34.786  1.00  0.00     0.006 A 
ENDBRANCH  73  90
ENDBRANCH  47  48
ENDBRANCH  40  42
ENDBRANCH  39  40
ENDBRANCH  38  39
ENDBRANCH  37  38
ENDBRANCH  36  37
ENDBRANCH  35  36
ENDBRANCH  34  35
ENDBRANCH  33  34
ENDBRANCH   1  33
TORSDOF 23
ENDMDL
MODEL 3
REMARK VINA RESULT:     -11.0      4.568     10.844
REMARK SMILES Cc1ccc(-c2nc(NC(=O)[C@H]3[C@@H](C(=O)OCCOCCOCCOCCOC(=O)c4ccc(-c5c6nc(c(-c7c(F)cccc7F)c7ccc([nH]7)c(-c7c(F)cccc7F)c7nc(c(-c8c(F)cccc8F)c8ccc5[nH]8)C=C7)C=C6)cc4)[C@@H]4CC[C@H]3O4)sc2C)cc1
REMARK SMILES IDX 21 1 20 2 19 3 18 4 17 5 16 6 14 7 15 8 13 9 12 10 88 11
REMARK SMILES IDX 85 12 87 13 89 14 86 15 10 16 9 17 11 19 8 20 6 21 7 22
REMARK SMILES IDX 91 23 90 24 92 25 5 26 1 27 2 28 3 29 94 30 4 31 93 32 22 33
REMARK SMILES IDX 23 34 24 35 25 36 26 37 27 38 28 39 29 40 30 41 31 42 32 43
REMARK SMILES IDX 84 44 33 45 83 46 34 47 35 48 36 49 77 50 37 51 82 52 76 53
REMARK SMILES IDX 78 54 38 55 81 56 75 57 74 58 39 60 65 61 48 62 64 63 49 64
REMARK SMILES IDX 52 65 63 66 79 67 50 68 51 69 62 71 80 72 53 73 40 74 41 75
REMARK SMILES IDX 46 76 42 77 43 78 45 79 47 80 44 81 66 82 67 83 72 84 68 85
REMARK SMILES IDX 69 86 71 87 73 88 70 89 54 90 55 91 60 92 56 93 57 94 59 95
REMARK SMILES IDX 61 96 58 97
REMARK H PARENT 9 18 78 59 52 70
REMARK Flexibility Score: inf
ROOT
ATOM      1  C   UNL A   1      33.715  31.030  27.601  1.00  0.00     0.188 C 
ENDROOT
BRANCH   1   2
ATOM      2  C   UNL A   1      32.459  30.427  26.913  1.00  0.00     0.188 C 
BRANCH   2   3
ATOM      3  O   UNL A   1      31.985  29.156  27.356  1.00  0.00    -0.376 OA
BRANCH   3   4
ATOM      4  C   UNL A   1      32.919  28.122  27.298  1.00  0.00     0.202 C 
BRANCH   4   5
ATOM      5  C   UNL A   1      33.141  27.412  26.024  1.00  0.00     0.261 C 
BRANCH   5   6
ATOM      6  O   UNL A   1      33.169  26.006  26.156  1.00  0.00    -0.463 OA
BRANCH   6   7
ATOM      7  C   UNL A   1      33.824  25.128  25.393  1.00  0.00     0.312 C 
ATOM      8  O   UNL A   1      34.583  25.572  24.527  1.00  0.00    -0.252 OA
BRANCH   7   9
ATOM      9  C   UNL A   1      33.547  23.638  25.395  1.00  0.00     0.143 C 
ATOM     10  C   UNL A   1      32.425  22.889  26.109  1.00  0.00     0.124 C 
ATOM     11  C   UNL A   1      33.214  22.333  27.367  1.00  0.00     0.132 C 
ATOM     12  C   UNL A   1      34.788  23.001  26.035  1.00  0.00     0.133 C 
ATOM     13  C   UNL A   1      33.906  21.019  27.017  1.00  0.00     0.035 C 
ATOM     14  O   UNL A   1      34.415  23.144  27.417  1.00  0.00    -0.373 OA
ATOM     15  C   UNL A   1      34.796  21.473  25.857  1.00  0.00     0.036 C 
BRANCH  10  16
ATOM     16  C   UNL A   1      31.046  23.436  26.454  1.00  0.00     0.232 C 
ATOM     17  N   UNL A   1      30.190  24.170  25.686  1.00  0.00    -0.302 N 
ATOM     18  H   UNL A   1      29.268  24.159  26.032  1.00  0.00     0.172 HD
ATOM     19  O   UNL A   1      30.636  23.206  27.603  1.00  0.00    -0.274 OA
BRANCH  17  20
ATOM     20  C   UNL A   1      30.316  24.922  24.539  1.00  0.00     0.190 A 
ATOM     21  C   UNL A   1      30.608  26.939  23.369  1.00  0.00     0.086 A 
ATOM     22  N   UNL A   1      30.142  26.230  24.499  1.00  0.00    -0.220 NA
ATOM     23  C   UNL A   1      31.414  25.785  22.668  1.00  0.00     0.031 A 
ATOM     24  S   UNL A   1      30.679  24.222  23.095  1.00  0.00    -0.101 S 
ATOM     25  C   UNL A   1      32.541  25.482  21.625  1.00  0.00     0.059 C 
BRANCH  21  26
ATOM     26  C   UNL A   1      30.302  28.795  23.029  1.00  0.00     0.001 A 
ATOM     27  C   UNL A   1      27.834  32.577  22.787  1.00  0.00     0.044 C 
ATOM     28  C   UNL A   1      28.873  31.506  22.759  1.00  0.00    -0.051 A 
ATOM     29  C   UNL A   1      29.217  30.734  21.674  1.00  0.00     0.004 A 
ATOM     30  C   UNL A   1      29.523  31.166  23.901  1.00  0.00     0.004 A 
ATOM     31  C   UNL A   1      29.959  29.493  21.819  1.00  0.00     0.010 A 
ATOM     32  C   UNL A   1      30.202  29.923  23.995  1.00  0.00     0.010 A 
ENDBRANCH  21  26
ENDBRANCH  17  20
ENDBRANCH  10  16
ENDBRANCH   7   9
ENDBRANCH   6   7
ENDBRANCH   5   6
ENDBRANCH   4   5
ENDBRANCH   3   4
ENDBRANCH   2   3
ENDBRANCH   1   2
BRANCH   1  33
ATOM     33  O   UNL A   1      33.683  32.340  28.174  1.00  0.00    -0.377 OA
BRANCH  33  34
ATOM     34  C   UNL A   1      34.763  33.240  27.924  1.00  0.00     0.188 C 
BRANCH  34  35
ATOM     35  C   UNL A   1      34.391  34.689  28.181  1.00  0.00     0.188 C 
BRANCH  35  36
ATOM     36  O   UNL A   1      33.129  34.800  28.820  1.00  0.00    -0.376 OA
BRANCH  36  37
ATOM     37  C   UNL A   1      32.875  36.080  29.371  1.00  0.00     0.202 C 
BRANCH  37  38
ATOM     38  C   UNL A   1      33.581  36.113  30.724  1.00  0.00     0.261 C 
BRANCH  38  39
ATOM     39  O   UNL A   1      33.290  34.819  31.368  1.00  0.00    -0.460 OA
BRANCH  39  40
ATOM     40  C   UNL A   1      34.211  34.291  32.250  1.00  0.00     0.338 C 
ATOM     41  O   UNL A   1      34.292  34.603  33.410  1.00  0.00    -0.246 OA
BRANCH  40  42
ATOM     42  C   UNL A   1      35.293  33.460  31.552  1.00  0.00     0.060 A 
ATOM     43  C   UNL A   1      35.153  32.061  31.459  1.00  0.00     0.016 A 
ATOM     44  C   UNL A   1      36.543  33.990  31.242  1.00  0.00     0.016 A 
ATOM     45  C   UNL A   1      36.280  31.227  31.234  1.00  0.00     0.010 A 
ATOM     46  C   UNL A   1      37.662  33.154  31.058  1.00  0.00     0.010 A 
ATOM     47  C   UNL A   1      37.587  31.762  31.169  1.00  0.00    -0.014 A 
BRANCH  47  48
ATOM     48  C   UNL A   1      38.850  30.934  31.399  1.00  0.00     0.031 A 
ATOM     49  C   UNL A   1      39.651  30.193  30.049  1.00  0.00     0.074 A 
ATOM     50  C   UNL A   1      39.368  30.909  32.690  1.00  0.00     0.049 A 
ATOM     51  N   UNL A   1      40.936  30.025  29.778  1.00  0.00    -0.248 NA
ATOM     52  C   UNL A   1      38.926  29.495  28.993  1.00  0.00     0.031 C 
ATOM     53  C   UNL A   1      40.016  29.770  33.238  1.00  0.00     0.029 A 
ATOM     54  N   UNL A   1      39.528  31.813  33.806  1.00  0.00    -0.354 N 
ATOM     55  C   UNL A   1      41.245  28.824  28.955  1.00  0.00     0.074 A 
ATOM     56  C   UNL A   1      39.886  28.810  28.319  1.00  0.00     0.031 C 
ATOM     57  C   UNL A   1      40.788  30.112  34.222  1.00  0.00     0.029 A 
ATOM     58  C   UNL A   1      40.524  31.368  34.729  1.00  0.00     0.049 A 
ATOM     59  H   UNL A   1      39.011  32.643  33.916  1.00  0.00     0.167 HD
ATOM     60  C   UNL A   1      42.420  27.771  29.072  1.00  0.00     0.037 A 
ATOM     61  C   UNL A   1      41.260  31.652  35.854  1.00  0.00     0.037 A 
ATOM     62  C   UNL A   1      43.734  27.633  30.347  1.00  0.00     0.049 A 
ATOM     63  C   UNL A   1      42.526  30.525  36.143  1.00  0.00     0.074 A 
ATOM     64  C   UNL A   1      45.159  27.611  30.445  1.00  0.00     0.029 A 
ATOM     65  N   UNL A   1      43.625  27.631  31.938  1.00  0.00    -0.354 N 
ATOM     66  N   UNL A   1      42.563  29.245  35.708  1.00  0.00    -0.248 NA
ATOM     67  C   UNL A   1      43.878  30.801  36.655  1.00  0.00     0.031 C 
ATOM     68  C   UNL A   1      45.687  27.809  31.892  1.00  0.00     0.029 A 
ATOM     69  C   UNL A   1      44.655  27.923  32.820  1.00  0.00     0.049 A 
ATOM     70  H   UNL A   1      42.751  27.403  32.327  1.00  0.00     0.167 HD
ATOM     71  C   UNL A   1      43.852  28.983  35.145  1.00  0.00     0.074 A 
ATOM     72  C   UNL A   1      44.626  29.823  36.069  1.00  0.00     0.031 C 
ATOM     73  C   UNL A   1      44.279  27.860  34.390  1.00  0.00     0.037 A 
BRANCH  60  74
ATOM     74  C   UNL A   1      42.506  26.692  27.872  1.00  0.00     0.057 A 
ATOM     75  C   UNL A   1      42.844  27.092  26.567  1.00  0.00     0.134 A 
ATOM     76  C   UNL A   1      42.214  25.301  27.899  1.00  0.00     0.134 A 
ATOM     77  F   UNL A   1      43.306  28.316  26.304  1.00  0.00    -0.206 F 
ATOM     78  C   UNL A   1      42.767  26.251  25.428  1.00  0.00     0.040 A 
ATOM     79  C   UNL A   1      42.125  24.449  26.782  1.00  0.00     0.040 A 
ATOM     80  F   UNL A   1      42.065  24.586  29.000  1.00  0.00    -0.206 F 
ATOM     81  C   UNL A   1      42.375  24.929  25.524  1.00  0.00     0.006 A 
ENDBRANCH  60  74
BRANCH  61  82
ATOM     82  C   UNL A   1      40.810  33.003  36.396  1.00  0.00     0.057 A 
ATOM     83  C   UNL A   1      41.257  34.226  35.880  1.00  0.00     0.134 A 
ATOM     84  C   UNL A   1      39.451  33.018  36.819  1.00  0.00     0.134 A 
ATOM     85  F   UNL A   1      42.562  34.423  35.649  1.00  0.00    -0.206 F 
ATOM     86  C   UNL A   1      40.355  35.258  35.517  1.00  0.00     0.040 A 
ATOM     87  C   UNL A   1      38.534  33.997  36.393  1.00  0.00     0.040 A 
ATOM     88  F   UNL A   1      38.929  31.926  37.403  1.00  0.00    -0.206 F 
ATOM     89  C   UNL A   1      38.979  35.100  35.683  1.00  0.00     0.006 A 
ENDBRANCH  61  82
BRANCH  73  90
ATOM     90  C   UNL A   1      43.776  26.464  34.884  1.00  0.00     0.057 A 
ATOM     91  C   UNL A   1      44.625  25.421  35.311  1.00  0.00     0.134 A 
ATOM     92  C   UNL A   1      42.413  26.083  34.796  1.00  0.00     0.134 A 
ATOM     93  F   UNL A   1      45.955  25.573  35.379  1.00  0.00    -0.206 F 
ATOM     94  C   UNL A   1      44.152  24.131  35.623  1.00  0.00     0.040 A 
ATOM     95  C   UNL A   1      41.930  24.812  35.128  1.00  0.00     0.040 A 
ATOM     96  F   UNL A   1      41.467  26.904  34.329  1.00  0.00    -0.206 F 
ATOM     97  C   UNL A   1      42.802  23.820  35.527  1.00  0.00     0.006 A 
ENDBRANCH  73  90
ENDBRANCH  47  48
ENDBRANCH  40  42
ENDBRANCH  39  40
ENDBRANCH  38  39
ENDBRANCH  37  38
ENDBRANCH  36  37
ENDBRANCH  35  36
ENDBRANCH  34  35
ENDBRANCH  33  34
ENDBRANCH   1  33
TORSDOF 23
ENDMDL
