MODEL 1
REMARK VINA RESULT:      -9.5      0.000      0.000
REMARK SMILES Cc1ccccc1C[C@H](CCSc1ccccc1)C(=O)OCCOCCOCCOCCOC(=O)c1ccc(-c2c3nc(c(-c4c(F)cccc4F)c4ccc([nH]4)c(-c4c(F)cccc4F)c4nc(c(-c5c(F)cccc5F)c5ccc2[nH]5)C=C4)C=C3)cc1
REMARK SMILES IDX 26 1 25 2 24 3 23 4 22 5 21 6 19 7 20 8 9 9 8 10 7 11 1 12
REMARK SMILES IDX 2 13 3 14 4 15 6 16 5 17 10 18 11 19 12 20 13 21 14 22 18 23
REMARK SMILES IDX 15 24 17 25 16 26 27 27 28 28 29 29 30 30 31 31 32 32 33 33
REMARK SMILES IDX 34 34 35 35 36 36 37 37 89 38 38 39 88 40 39 41 40 42 41 43
REMARK SMILES IDX 82 44 42 45 87 46 81 47 83 48 43 49 86 50 80 51 79 52 44 54
REMARK SMILES IDX 70 55 53 56 69 57 54 58 57 59 68 60 84 61 55 62 56 63 67 65
REMARK SMILES IDX 85 66 58 67 45 68 46 69 51 70 47 71 48 72 50 73 52 74 49 75
REMARK SMILES IDX 71 76 72 77 77 78 73 79 74 80 76 81 78 82 75 83 59 84 60 85
REMARK SMILES IDX 65 86 61 87 62 88 64 89 66 90 63 91
REMARK H PARENT 83 53 57 64
REMARK Flexibility Score: inf
ROOT
ATOM      1  C   UNL A   1      33.626  19.853  24.258  1.00  0.00     0.188 C 
ENDROOT
BRANCH   1   2
ATOM      2  C   UNL A   1      32.156  20.239  24.456  1.00  0.00     0.188 C 
BRANCH   2   3
ATOM      3  O   UNL A   1      31.737  20.892  25.642  1.00  0.00    -0.376 OA
BRANCH   3   4
ATOM      4  C   UNL A   1      31.239  22.220  25.552  1.00  0.00     0.202 C 
BRANCH   4   5
ATOM      5  C   UNL A   1      30.529  22.862  26.745  1.00  0.00     0.261 C 
BRANCH   5   6
ATOM      6  O   UNL A   1      31.136  24.127  27.141  1.00  0.00    -0.463 OA
BRANCH   6   7
ATOM      7  C   UNL A   1      30.632  25.188  26.524  1.00  0.00     0.309 C 
ATOM      8  O   UNL A   1      29.416  25.377  26.540  1.00  0.00    -0.252 OA
BRANCH   7   9
ATOM      9  C   UNL A   1      31.610  26.247  25.982  1.00  0.00     0.104 C 
BRANCH   9  10
ATOM     10  C   UNL A   1      32.923  26.114  25.169  1.00  0.00     0.051 C 
BRANCH  10  11
ATOM     11  C   UNL A   1      33.100  25.266  23.937  1.00  0.00    -0.044 A 
ATOM     12  C   UNL A   1      31.877  26.787  22.215  1.00  0.00     0.044 C 
ATOM     13  C   UNL A   1      32.564  25.524  22.652  1.00  0.00    -0.048 A 
ATOM     14  C   UNL A   1      32.769  24.595  21.612  1.00  0.00     0.004 A 
ATOM     15  C   UNL A   1      33.646  23.534  21.768  1.00  0.00     0.000 A 
ATOM     16  C   UNL A   1      34.018  24.211  24.055  1.00  0.00     0.004 A 
ATOM     17  C   UNL A   1      34.323  23.391  22.968  1.00  0.00     0.000 A 
ENDBRANCH  10  11
ENDBRANCH   9  10
BRANCH   9  18
ATOM     18  C   UNL A   1      31.406  27.637  26.567  1.00  0.00     0.027 C 
BRANCH  18  19
ATOM     19  C   UNL A   1      32.278  28.652  25.790  1.00  0.00     0.076 C 
BRANCH  19  20
ATOM     20  S   UNL A   1      32.699  30.374  26.506  1.00  0.00    -0.126 SA
BRANCH  20  21
ATOM     21  C   UNL A   1      34.244  30.649  27.435  1.00  0.00     0.007 A 
ATOM     22  C   UNL A   1      35.410  29.895  27.574  1.00  0.00     0.015 A 
ATOM     23  C   UNL A   1      34.377  31.922  27.992  1.00  0.00     0.015 A 
ATOM     24  C   UNL A   1      36.670  30.369  27.953  1.00  0.00     0.001 A 
ATOM     25  C   UNL A   1      35.603  32.390  28.524  1.00  0.00     0.001 A 
ATOM     26  C   UNL A   1      36.768  31.636  28.445  1.00  0.00     0.000 A 
ENDBRANCH  20  21
ENDBRANCH  19  20
ENDBRANCH  18  19
ENDBRANCH   9  18
ENDBRANCH   7   9
ENDBRANCH   6   7
ENDBRANCH   5   6
ENDBRANCH   4   5
ENDBRANCH   3   4
ENDBRANCH   2   3
ENDBRANCH   1   2
BRANCH   1  27
ATOM     27  O   UNL A   1      34.565  20.171  25.281  1.00  0.00    -0.377 OA
BRANCH  27  28
ATOM     28  C   UNL A   1      35.937  20.287  24.938  1.00  0.00     0.188 C 
BRANCH  28  29
ATOM     29  C   UNL A   1      36.563  21.671  25.044  1.00  0.00     0.188 C 
BRANCH  29  30
ATOM     30  O   UNL A   1      37.916  21.583  25.488  1.00  0.00    -0.376 OA
BRANCH  30  31
ATOM     31  C   UNL A   1      38.523  22.822  25.867  1.00  0.00     0.202 C 
BRANCH  31  32
ATOM     32  C   UNL A   1      39.672  22.690  26.874  1.00  0.00     0.261 C 
BRANCH  32  33
ATOM     33  O   UNL A   1      39.963  21.298  27.090  1.00  0.00    -0.460 OA
BRANCH  33  34
ATOM     34  C   UNL A   1      41.088  20.845  26.468  1.00  0.00     0.338 C 
ATOM     35  O   UNL A   1      41.212  19.773  25.917  1.00  0.00    -0.246 OA
BRANCH  34  36
ATOM     36  C   UNL A   1      42.248  21.702  26.857  1.00  0.00     0.060 A 
ATOM     37  C   UNL A   1      42.497  21.922  28.223  1.00  0.00     0.016 A 
ATOM     38  C   UNL A   1      42.756  22.583  25.908  1.00  0.00     0.016 A 
ATOM     39  C   UNL A   1      43.093  23.116  28.644  1.00  0.00     0.010 A 
ATOM     40  C   UNL A   1      43.194  23.817  26.336  1.00  0.00     0.010 A 
ATOM     41  C   UNL A   1      43.344  24.111  27.700  1.00  0.00    -0.014 A 
BRANCH  41  42
ATOM     42  C   UNL A   1      43.504  25.543  28.012  1.00  0.00     0.031 A 
ATOM     43  C   UNL A   1      42.285  26.378  28.341  1.00  0.00     0.074 A 
ATOM     44  C   UNL A   1      44.754  25.908  28.394  1.00  0.00     0.049 A 
ATOM     45  N   UNL A   1      42.273  27.595  28.774  1.00  0.00    -0.248 NA
ATOM     46  C   UNL A   1      40.922  25.865  28.199  1.00  0.00     0.031 C 
ATOM     47  C   UNL A   1      45.049  26.882  29.422  1.00  0.00     0.029 A 
ATOM     48  N   UNL A   1      46.014  25.395  28.125  1.00  0.00    -0.354 N 
ATOM     49  C   UNL A   1      40.981  27.938  29.183  1.00  0.00     0.074 A 
ATOM     50  C   UNL A   1      40.181  26.820  28.771  1.00  0.00     0.031 C 
ATOM     51  C   UNL A   1      46.358  26.934  29.698  1.00  0.00     0.029 A 
ATOM     52  C   UNL A   1      47.013  26.247  28.630  1.00  0.00     0.049 A 
ATOM     53  H   UNL A   1      46.186  24.551  27.648  1.00  0.00     0.167 HD
ATOM     54  C   UNL A   1      40.774  29.089  29.906  1.00  0.00     0.037 A 
ATOM     55  C   UNL A   1      47.821  26.929  27.768  1.00  0.00     0.037 A 
ATOM     56  C   UNL A   1      42.019  29.853  29.958  1.00  0.00     0.049 A 
ATOM     57  C   UNL A   1      47.344  28.372  27.534  1.00  0.00     0.074 A 
ATOM     58  C   UNL A   1      42.843  30.188  31.007  1.00  0.00     0.029 A 
ATOM     59  N   UNL A   1      42.734  30.139  28.785  1.00  0.00    -0.354 N 
ATOM     60  N   UNL A   1      46.125  28.801  27.800  1.00  0.00    -0.248 NA
ATOM     61  C   UNL A   1      48.219  29.473  27.141  1.00  0.00     0.031 C 
ATOM     62  C   UNL A   1      44.120  30.418  30.461  1.00  0.00     0.029 A 
ATOM     63  C   UNL A   1      44.056  30.424  29.076  1.00  0.00     0.049 A 
ATOM     64  H   UNL A   1      42.347  30.138  27.879  1.00  0.00     0.167 HD
ATOM     65  C   UNL A   1      46.055  30.170  27.696  1.00  0.00     0.074 A 
ATOM     66  C   UNL A   1      47.393  30.533  27.243  1.00  0.00     0.031 C 
ATOM     67  C   UNL A   1      44.980  30.951  28.070  1.00  0.00     0.037 A 
BRANCH  54  68
ATOM     68  C   UNL A   1      39.560  29.468  30.793  1.00  0.00     0.057 A 
ATOM     69  C   UNL A   1      39.103  30.812  30.882  1.00  0.00     0.134 A 
ATOM     70  C   UNL A   1      38.845  28.606  31.645  1.00  0.00     0.134 A 
ATOM     71  F   UNL A   1      39.588  31.780  30.093  1.00  0.00    -0.206 F 
ATOM     72  C   UNL A   1      38.106  31.255  31.775  1.00  0.00     0.040 A 
ATOM     73  C   UNL A   1      37.825  29.031  32.525  1.00  0.00     0.040 A 
ATOM     74  F   UNL A   1      39.066  27.293  31.681  1.00  0.00    -0.206 F 
ATOM     75  C   UNL A   1      37.462  30.363  32.610  1.00  0.00     0.006 A 
ENDBRANCH  54  68
BRANCH  55  76
ATOM     76  C   UNL A   1      48.593  25.917  26.964  1.00  0.00     0.057 A 
ATOM     77  C   UNL A   1      48.346  26.046  25.570  1.00  0.00     0.134 A 
ATOM     78  C   UNL A   1      49.924  25.662  27.327  1.00  0.00     0.134 A 
ATOM     79  F   UNL A   1      47.092  26.247  25.133  1.00  0.00    -0.206 F 
ATOM     80  C   UNL A   1      49.386  26.291  24.660  1.00  0.00     0.040 A 
ATOM     81  C   UNL A   1      50.973  25.873  26.412  1.00  0.00     0.040 A 
ATOM     82  F   UNL A   1      50.246  25.478  28.615  1.00  0.00    -0.206 F 
ATOM     83  C   UNL A   1      50.704  26.269  25.099  1.00  0.00     0.006 A 
ENDBRANCH  55  76
BRANCH  67  84
ATOM     84  C   UNL A   1      44.777  32.421  27.696  1.00  0.00     0.057 A 
ATOM     85  C   UNL A   1      45.286  33.496  28.435  1.00  0.00     0.134 A 
ATOM     86  C   UNL A   1      44.168  32.802  26.468  1.00  0.00     0.134 A 
ATOM     87  F   UNL A   1      46.018  33.305  29.540  1.00  0.00    -0.206 F 
ATOM     88  C   UNL A   1      45.119  34.833  28.043  1.00  0.00     0.040 A 
ATOM     89  C   UNL A   1      44.055  34.126  26.037  1.00  0.00     0.040 A 
ATOM     90  F   UNL A   1      43.672  31.914  25.596  1.00  0.00    -0.206 F 
ATOM     91  C   UNL A   1      44.511  35.152  26.838  1.00  0.00     0.006 A 
ENDBRANCH  67  84
ENDBRANCH  41  42
ENDBRANCH  34  36
ENDBRANCH  33  34
ENDBRANCH  32  33
ENDBRANCH  31  32
ENDBRANCH  30  31
ENDBRANCH  29  30
ENDBRANCH  28  29
ENDBRANCH  27  28
ENDBRANCH   1  27
TORSDOF 26
ENDMDL
MODEL 2
REMARK VINA RESULT:      -9.4      2.377      4.510
REMARK SMILES Cc1ccccc1C[C@H](CCSc1ccccc1)C(=O)OCCOCCOCCOCCOC(=O)c1ccc(-c2c3nc(c(-c4c(F)cccc4F)c4ccc([nH]4)c(-c4c(F)cccc4F)c4nc(c(-c5c(F)cccc5F)c5ccc2[nH]5)C=C4)C=C3)cc1
REMARK SMILES IDX 26 1 25 2 24 3 23 4 22 5 21 6 19 7 20 8 9 9 8 10 7 11 1 12
REMARK SMILES IDX 2 13 3 14 4 15 6 16 5 17 10 18 11 19 12 20 13 21 14 22 18 23
REMARK SMILES IDX 15 24 17 25 16 26 27 27 28 28 29 29 30 30 31 31 32 32 33 33
REMARK SMILES IDX 34 34 35 35 36 36 37 37 89 38 38 39 88 40 39 41 40 42 41 43
REMARK SMILES IDX 82 44 42 45 87 46 81 47 83 48 43 49 86 50 80 51 79 52 44 54
REMARK SMILES IDX 70 55 53 56 69 57 54 58 57 59 68 60 84 61 55 62 56 63 67 65
REMARK SMILES IDX 85 66 58 67 45 68 46 69 51 70 47 71 48 72 50 73 52 74 49 75
REMARK SMILES IDX 71 76 72 77 77 78 73 79 74 80 76 81 78 82 75 83 59 84 60 85
REMARK SMILES IDX 65 86 61 87 62 88 64 89 66 90 63 91
REMARK H PARENT 83 53 57 64
REMARK Flexibility Score: inf
ROOT
ATOM      1  C   UNL A   1      40.438  20.915  26.557  1.00  0.00     0.188 C 
ENDROOT
BRANCH   1   2
ATOM      2  C   UNL A   1      39.179  21.261  25.754  1.00  0.00     0.188 C 
BRANCH   2   3
ATOM      3  O   UNL A   1      38.568  22.533  25.887  1.00  0.00    -0.376 OA
BRANCH   3   4
ATOM      4  C   UNL A   1      37.162  22.638  25.713  1.00  0.00     0.202 C 
BRANCH   4   5
ATOM      5  C   UNL A   1      36.582  23.540  24.623  1.00  0.00     0.261 C 
BRANCH   5   6
ATOM      6  O   UNL A   1      35.526  24.413  25.123  1.00  0.00    -0.463 OA
BRANCH   6   7
ATOM      7  C   UNL A   1      34.660  24.803  24.195  1.00  0.00     0.309 C 
ATOM      8  O   UNL A   1      34.693  24.285  23.079  1.00  0.00    -0.252 OA
BRANCH   7   9
ATOM      9  C   UNL A   1      33.519  25.746  24.618  1.00  0.00     0.104 C 
BRANCH   9  10
ATOM     10  C   UNL A   1      33.118  26.322  26.001  1.00  0.00     0.051 C 
BRANCH  10  11
ATOM     11  C   UNL A   1      33.413  27.719  26.479  1.00  0.00    -0.044 A 
ATOM     12  C   UNL A   1      31.184  28.201  27.731  1.00  0.00     0.044 C 
ATOM     13  C   UNL A   1      32.525  28.578  27.170  1.00  0.00    -0.048 A 
ATOM     14  C   UNL A   1      32.934  29.887  27.495  1.00  0.00     0.004 A 
ATOM     15  C   UNL A   1      34.250  30.285  27.327  1.00  0.00     0.000 A 
ATOM     16  C   UNL A   1      34.749  28.129  26.362  1.00  0.00     0.004 A 
ATOM     17  C   UNL A   1      35.169  29.376  26.828  1.00  0.00     0.000 A 
ENDBRANCH  10  11
ENDBRANCH   9  10
BRANCH   9  18
ATOM     18  C   UNL A   1      32.444  25.935  23.557  1.00  0.00     0.027 C 
BRANCH  18  19
ATOM     19  C   UNL A   1      31.525  27.112  23.963  1.00  0.00     0.076 C 
BRANCH  19  20
ATOM     20  S   UNL A   1      31.440  28.723  22.938  1.00  0.00    -0.126 SA
BRANCH  20  21
ATOM     21  C   UNL A   1      29.940  29.761  22.949  1.00  0.00     0.007 A 
ATOM     22  C   UNL A   1      29.454  30.709  23.850  1.00  0.00     0.015 A 
ATOM     23  C   UNL A   1      29.203  29.742  21.764  1.00  0.00     0.015 A 
ATOM     24  C   UNL A   1      28.538  31.730  23.574  1.00  0.00     0.001 A 
ATOM     25  C   UNL A   1      28.164  30.668  21.505  1.00  0.00     0.001 A 
ATOM     26  C   UNL A   1      27.874  31.705  22.384  1.00  0.00     0.000 A 
ENDBRANCH  20  21
ENDBRANCH  19  20
ENDBRANCH  18  19
ENDBRANCH   9  18
ENDBRANCH   7   9
ENDBRANCH   6   7
ENDBRANCH   5   6
ENDBRANCH   4   5
ENDBRANCH   3   4
ENDBRANCH   2   3
ENDBRANCH   1   2
BRANCH   1  27
ATOM     27  O   UNL A   1      40.966  19.595  26.472  1.00  0.00    -0.377 OA
BRANCH  27  28
ATOM     28  C   UNL A   1      42.343  19.390  26.751  1.00  0.00     0.188 C 
BRANCH  28  29
ATOM     29  C   UNL A   1      42.889  17.983  26.548  1.00  0.00     0.188 C 
BRANCH  29  30
ATOM     30  O   UNL A   1      44.285  18.019  26.252  1.00  0.00    -0.376 OA
BRANCH  30  31
ATOM     31  C   UNL A   1      44.637  18.644  25.014  1.00  0.00     0.202 C 
BRANCH  31  32
ATOM     32  C   UNL A   1      45.902  19.509  25.071  1.00  0.00     0.261 C 
BRANCH  32  33
ATOM     33  O   UNL A   1      45.708  20.694  24.279  1.00  0.00    -0.460 OA
BRANCH  33  34
ATOM     34  C   UNL A   1      44.802  21.578  24.784  1.00  0.00     0.338 C 
ATOM     35  O   UNL A   1      43.631  21.645  24.483  1.00  0.00    -0.246 OA
BRANCH  34  36
ATOM     36  C   UNL A   1      45.526  22.674  25.498  1.00  0.00     0.060 A 
ATOM     37  C   UNL A   1      45.366  22.792  26.889  1.00  0.00     0.016 A 
ATOM     38  C   UNL A   1      45.956  23.766  24.752  1.00  0.00     0.016 A 
ATOM     39  C   UNL A   1      45.460  24.047  27.501  1.00  0.00     0.010 A 
ATOM     40  C   UNL A   1      45.890  25.014  25.331  1.00  0.00     0.010 A 
ATOM     41  C   UNL A   1      45.617  25.177  26.698  1.00  0.00    -0.014 A 
BRANCH  41  42
ATOM     42  C   UNL A   1      45.263  26.549  27.102  1.00  0.00     0.031 A 
ATOM     43  C   UNL A   1      43.809  26.914  27.319  1.00  0.00     0.074 A 
ATOM     44  C   UNL A   1      46.277  27.263  27.654  1.00  0.00     0.049 A 
ATOM     45  N   UNL A   1      43.352  28.017  27.810  1.00  0.00    -0.248 NA
ATOM     46  C   UNL A   1      42.714  26.003  26.982  1.00  0.00     0.031 C 
ATOM     47  C   UNL A   1      46.128  28.183  28.760  1.00  0.00     0.029 A 
ATOM     48  N   UNL A   1      47.656  27.209  27.519  1.00  0.00    -0.354 N 
ATOM     49  C   UNL A   1      41.985  27.887  28.072  1.00  0.00     0.074 A 
ATOM     50  C   UNL A   1      41.646  26.612  27.506  1.00  0.00     0.031 C 
ATOM     51  C   UNL A   1      47.311  28.629  29.199  1.00  0.00     0.029 A 
ATOM     52  C   UNL A   1      48.260  28.289  28.188  1.00  0.00     0.049 A 
ATOM     53  H   UNL A   1      48.143  26.513  27.023  1.00  0.00     0.167 HD
ATOM     54  C   UNL A   1      41.337  28.840  28.822  1.00  0.00     0.037 A 
ATOM     55  C   UNL A   1      48.879  29.270  27.469  1.00  0.00     0.037 A 
ATOM     56  C   UNL A   1      42.248  29.957  29.068  1.00  0.00     0.049 A 
ATOM     57  C   UNL A   1      47.979  30.497  27.252  1.00  0.00     0.074 A 
ATOM     58  C   UNL A   1      42.805  30.444  30.228  1.00  0.00     0.029 A 
ATOM     59  N   UNL A   1      42.942  30.562  28.009  1.00  0.00    -0.354 N 
ATOM     60  N   UNL A   1      46.665  30.484  27.386  1.00  0.00    -0.248 NA
ATOM     61  C   UNL A   1      48.474  31.852  27.029  1.00  0.00     0.031 C 
ATOM     62  C   UNL A   1      43.982  31.122  29.857  1.00  0.00     0.029 A 
ATOM     63  C   UNL A   1      44.059  31.232  28.477  1.00  0.00     0.049 A 
ATOM     64  H   UNL A   1      42.671  30.518  27.064  1.00  0.00     0.167 HD
ATOM     65  C   UNL A   1      46.157  31.760  27.346  1.00  0.00     0.074 A 
ATOM     66  C   UNL A   1      47.338  32.575  27.082  1.00  0.00     0.031 C 
ATOM     67  C   UNL A   1      44.853  32.116  27.622  1.00  0.00     0.037 A 
BRANCH  54  68
ATOM     68  C   UNL A   1      39.984  28.726  29.570  1.00  0.00     0.057 A 
ATOM     69  C   UNL A   1      38.759  29.069  28.934  1.00  0.00     0.134 A 
ATOM     70  C   UNL A   1      39.802  28.374  30.920  1.00  0.00     0.134 A 
ATOM     71  F   UNL A   1      38.693  29.352  27.626  1.00  0.00    -0.206 F 
ATOM     72  C   UNL A   1      37.512  29.132  29.591  1.00  0.00     0.040 A 
ATOM     73  C   UNL A   1      38.556  28.405  31.585  1.00  0.00     0.040 A 
ATOM     74  F   UNL A   1      40.806  27.960  31.692  1.00  0.00    -0.206 F 
ATOM     75  C   UNL A   1      37.405  28.804  30.928  1.00  0.00     0.006 A 
ENDBRANCH  54  68
BRANCH  55  76
ATOM     76  C   UNL A   1      50.020  28.637  26.716  1.00  0.00     0.057 A 
ATOM     77  C   UNL A   1      51.065  28.223  27.586  1.00  0.00     0.134 A 
ATOM     78  C   UNL A   1      49.711  27.755  25.670  1.00  0.00     0.134 A 
ATOM     79  F   UNL A   1      51.454  29.030  28.588  1.00  0.00    -0.206 F 
ATOM     80  C   UNL A   1      51.488  26.887  27.642  1.00  0.00     0.040 A 
ATOM     81  C   UNL A   1      50.157  26.420  25.700  1.00  0.00     0.040 A 
ATOM     82  F   UNL A   1      48.772  28.080  24.771  1.00  0.00    -0.206 F 
ATOM     83  C   UNL A   1      50.980  25.966  26.733  1.00  0.00     0.006 A 
ENDBRANCH  55  76
BRANCH  67  84
ATOM     84  C   UNL A   1      44.214  33.469  27.303  1.00  0.00     0.057 A 
ATOM     85  C   UNL A   1      44.148  34.538  28.205  1.00  0.00     0.134 A 
ATOM     86  C   UNL A   1      43.762  33.791  25.993  1.00  0.00     0.134 A 
ATOM     87  F   UNL A   1      44.668  34.452  29.436  1.00  0.00    -0.206 F 
ATOM     88  C   UNL A   1      43.593  35.782  27.868  1.00  0.00     0.040 A 
ATOM     89  C   UNL A   1      43.269  35.047  25.630  1.00  0.00     0.040 A 
ATOM     90  F   UNL A   1      43.799  32.919  24.976  1.00  0.00    -0.206 F 
ATOM     91  C   UNL A   1      43.160  36.044  26.577  1.00  0.00     0.006 A 
ENDBRANCH  67  84
ENDBRANCH  41  42
ENDBRANCH  34  36
ENDBRANCH  33  34
ENDBRANCH  32  33
ENDBRANCH  31  32
ENDBRANCH  30  31
ENDBRANCH  29  30
ENDBRANCH  28  29
ENDBRANCH  27  28
ENDBRANCH   1  27
TORSDOF 26
ENDMDL
MODEL 3
REMARK VINA RESULT:      -9.4      2.513      4.532
REMARK SMILES Cc1ccccc1C[C@H](CCSc1ccccc1)C(=O)OCCOCCOCCOCCOC(=O)c1ccc(-c2c3nc(c(-c4c(F)cccc4F)c4ccc([nH]4)c(-c4c(F)cccc4F)c4nc(c(-c5c(F)cccc5F)c5ccc2[nH]5)C=C4)C=C3)cc1
REMARK SMILES IDX 26 1 25 2 24 3 23 4 22 5 21 6 19 7 20 8 9 9 8 10 7 11 1 12
REMARK SMILES IDX 2 13 3 14 4 15 6 16 5 17 10 18 11 19 12 20 13 21 14 22 18 23
REMARK SMILES IDX 15 24 17 25 16 26 27 27 28 28 29 29 30 30 31 31 32 32 33 33
REMARK SMILES IDX 34 34 35 35 36 36 37 37 89 38 38 39 88 40 39 41 40 42 41 43
REMARK SMILES IDX 82 44 42 45 87 46 81 47 83 48 43 49 86 50 80 51 79 52 44 54
REMARK SMILES IDX 70 55 53 56 69 57 54 58 57 59 68 60 84 61 55 62 56 63 67 65
REMARK SMILES IDX 85 66 58 67 45 68 46 69 51 70 47 71 48 72 50 73 52 74 49 75
REMARK SMILES IDX 71 76 72 77 77 78 73 79 74 80 76 81 78 82 75 83 59 84 60 85
REMARK SMILES IDX 65 86 61 87 62 88 64 89 66 90 63 91
REMARK H PARENT 83 53 57 64
REMARK Flexibility Score: inf
ROOT
ATOM      1  C   UNL A   1      33.401  19.106  23.816  1.00  0.00     0.188 C 
ENDROOT
BRANCH   1   2
ATOM      2  C   UNL A   1      32.184  19.764  24.475  1.00  0.00     0.188 C 
BRANCH   2   3
ATOM      3  O   UNL A   1      32.348  20.626  25.587  1.00  0.00    -0.376 OA
BRANCH   3   4
ATOM      4  C   UNL A   1      32.646  21.996  25.353  1.00  0.00     0.202 C 
BRANCH   4   5
ATOM      5  C   UNL A   1      32.483  23.026  26.473  1.00  0.00     0.261 C 
BRANCH   5   6
ATOM      6  O   UNL A   1      33.094  24.309  26.145  1.00  0.00    -0.463 OA
BRANCH   6   7
ATOM      7  C   UNL A   1      32.221  25.280  25.906  1.00  0.00     0.309 C 
ATOM      8  O   UNL A   1      31.424  25.607  26.785  1.00  0.00    -0.252 OA
BRANCH   7   9
ATOM      9  C   UNL A   1      32.375  26.091  24.606  1.00  0.00     0.104 C 
BRANCH   9  10
ATOM     10  C   UNL A   1      32.819  27.555  24.353  1.00  0.00     0.051 C 
BRANCH  10  11
ATOM     11  C   UNL A   1      33.155  28.558  25.424  1.00  0.00    -0.044 A 
ATOM     12  C   UNL A   1      31.167  30.202  25.082  1.00  0.00     0.044 C 
ATOM     13  C   UNL A   1      32.472  29.770  25.688  1.00  0.00    -0.048 A 
ATOM     14  C   UNL A   1      32.952  30.636  26.691  1.00  0.00     0.004 A 
ATOM     15  C   UNL A   1      33.960  30.237  27.554  1.00  0.00     0.000 A 
ATOM     16  C   UNL A   1      34.141  28.159  26.339  1.00  0.00     0.004 A 
ATOM     17  C   UNL A   1      34.498  28.967  27.418  1.00  0.00     0.000 A 
ENDBRANCH  10  11
ENDBRANCH   9  10
BRANCH   9  18
ATOM     18  C   UNL A   1      31.730  25.442  23.390  1.00  0.00     0.027 C 
BRANCH  18  19
ATOM     19  C   UNL A   1      30.850  26.484  22.659  1.00  0.00     0.076 C 
BRANCH  19  20
ATOM     20  S   UNL A   1      29.287  27.228  23.471  1.00  0.00    -0.126 SA
BRANCH  20  21
ATOM     21  C   UNL A   1      28.650  28.858  22.954  1.00  0.00     0.007 A 
ATOM     22  C   UNL A   1      27.612  29.660  23.429  1.00  0.00     0.015 A 
ATOM     23  C   UNL A   1      29.436  29.525  22.013  1.00  0.00     0.015 A 
ATOM     24  C   UNL A   1      27.475  31.040  23.248  1.00  0.00     0.001 A 
ATOM     25  C   UNL A   1      29.235  30.889  21.690  1.00  0.00     0.001 A 
ATOM     26  C   UNL A   1      28.294  31.665  22.356  1.00  0.00     0.000 A 
ENDBRANCH  20  21
ENDBRANCH  19  20
ENDBRANCH  18  19
ENDBRANCH   9  18
ENDBRANCH   7   9
ENDBRANCH   6   7
ENDBRANCH   5   6
ENDBRANCH   4   5
ENDBRANCH   3   4
ENDBRANCH   2   3
ENDBRANCH   1   2
BRANCH   1  27
ATOM     27  O   UNL A   1      34.287  18.334  24.621  1.00  0.00    -0.377 OA
BRANCH  27  28
ATOM     28  C   UNL A   1      35.628  18.772  24.774  1.00  0.00     0.188 C 
BRANCH  28  29
ATOM     29  C   UNL A   1      35.846  20.253  25.057  1.00  0.00     0.188 C 
BRANCH  29  30
ATOM     30  O   UNL A   1      37.236  20.576  25.026  1.00  0.00    -0.376 OA
BRANCH  30  31
ATOM     31  C   UNL A   1      37.547  21.937  24.716  1.00  0.00     0.202 C 
BRANCH  31  32
ATOM     32  C   UNL A   1      38.218  22.716  25.853  1.00  0.00     0.261 C 
BRANCH  32  33
ATOM     33  O   UNL A   1      39.389  22.007  26.294  1.00  0.00    -0.460 OA
BRANCH  33  34
ATOM     34  C   UNL A   1      40.286  22.761  26.990  1.00  0.00     0.338 C 
ATOM     35  O   UNL A   1      41.161  22.337  27.713  1.00  0.00    -0.246 OA
BRANCH  34  36
ATOM     36  C   UNL A   1      39.827  24.183  27.011  1.00  0.00     0.060 A 
ATOM     37  C   UNL A   1      40.522  25.127  26.236  1.00  0.00     0.016 A 
ATOM     38  C   UNL A   1      39.050  24.601  28.085  1.00  0.00     0.016 A 
ATOM     39  C   UNL A   1      40.583  26.463  26.649  1.00  0.00     0.010 A 
ATOM     40  C   UNL A   1      39.245  25.876  28.570  1.00  0.00     0.010 A 
ATOM     41  C   UNL A   1      40.029  26.813  27.880  1.00  0.00    -0.014 A 
BRANCH  41  42
ATOM     42  C   UNL A   1      40.407  28.003  28.663  1.00  0.00     0.031 A 
ATOM     43  C   UNL A   1      39.415  29.135  28.830  1.00  0.00     0.074 A 
ATOM     44  C   UNL A   1      41.444  27.819  29.519  1.00  0.00     0.049 A 
ATOM     45  N   UNL A   1      39.538  30.167  29.598  1.00  0.00    -0.248 NA
ATOM     46  C   UNL A   1      38.145  29.176  28.105  1.00  0.00     0.031 C 
ATOM     47  C   UNL A   1      41.535  28.403  30.839  1.00  0.00     0.029 A 
ATOM     48  N   UNL A   1      42.529  26.956  29.520  1.00  0.00    -0.354 N 
ATOM     49  C   UNL A   1      38.325  30.857  29.658  1.00  0.00     0.074 A 
ATOM     50  C   UNL A   1      37.505  30.200  28.681  1.00  0.00     0.031 C 
ATOM     51  C   UNL A   1      42.587  27.932  31.521  1.00  0.00     0.029 A 
ATOM     52  C   UNL A   1      43.419  27.281  30.560  1.00  0.00     0.049 A 
ATOM     53  H   UNL A   1      42.659  26.218  28.882  1.00  0.00     0.167 HD
ATOM     54  C   UNL A   1      38.143  31.842  30.600  1.00  0.00     0.037 A 
ATOM     55  C   UNL A   1      44.651  27.788  30.263  1.00  0.00     0.037 A 
ATOM     56  C   UNL A   1      39.411  32.089  31.286  1.00  0.00     0.049 A 
ATOM     57  C   UNL A   1      44.694  29.322  30.357  1.00  0.00     0.074 A 
ATOM     58  C   UNL A   1      39.795  31.897  32.594  1.00  0.00     0.029 A 
ATOM     59  N   UNL A   1      40.586  32.326  30.558  1.00  0.00    -0.354 N 
ATOM     60  N   UNL A   1      43.624  30.094  30.340  1.00  0.00    -0.248 NA
ATOM     61  C   UNL A   1      45.901  30.096  30.633  1.00  0.00     0.031 C 
ATOM     62  C   UNL A   1      41.197  31.761  32.586  1.00  0.00     0.029 A 
ATOM     63  C   UNL A   1      41.702  32.062  31.331  1.00  0.00     0.049 A 
ATOM     64  H   UNL A   1      40.612  32.640  29.625  1.00  0.00     0.167 HD
ATOM     65  C   UNL A   1      43.951  31.391  30.657  1.00  0.00     0.074 A 
ATOM     66  C   UNL A   1      45.402  31.337  30.795  1.00  0.00     0.031 C 
ATOM     67  C   UNL A   1      43.054  32.413  30.894  1.00  0.00     0.037 A 
BRANCH  54  68
ATOM     68  C   UNL A   1      36.814  32.445  31.125  1.00  0.00     0.057 A 
ATOM     69  C   UNL A   1      36.126  33.455  30.399  1.00  0.00     0.134 A 
ATOM     70  C   UNL A   1      36.192  32.155  32.354  1.00  0.00     0.134 A 
ATOM     71  F   UNL A   1      36.498  33.822  29.166  1.00  0.00    -0.206 F 
ATOM     72  C   UNL A   1      34.998  34.152  30.881  1.00  0.00     0.040 A 
ATOM     73  C   UNL A   1      35.047  32.825  32.838  1.00  0.00     0.040 A 
ATOM     74  F   UNL A   1      36.634  31.199  33.169  1.00  0.00    -0.206 F 
ATOM     75  C   UNL A   1      34.453  33.843  32.111  1.00  0.00     0.006 A 
ENDBRANCH  54  68
BRANCH  55  76
ATOM     76  C   UNL A   1      45.397  26.746  29.472  1.00  0.00     0.057 A 
ATOM     77  C   UNL A   1      45.755  27.217  28.180  1.00  0.00     0.134 A 
ATOM     78  C   UNL A   1      46.372  25.987  30.137  1.00  0.00     0.134 A 
ATOM     79  F   UNL A   1      44.863  27.914  27.456  1.00  0.00    -0.206 F 
ATOM     80  C   UNL A   1      47.092  27.260  27.758  1.00  0.00     0.040 A 
ATOM     81  C   UNL A   1      47.712  25.997  29.702  1.00  0.00     0.040 A 
ATOM     82  F   UNL A   1      46.110  25.460  31.341  1.00  0.00    -0.206 F 
ATOM     83  C   UNL A   1      48.084  26.704  28.557  1.00  0.00     0.006 A 
ENDBRANCH  55  76
BRANCH  67  84
ATOM     84  C   UNL A   1      43.400  33.902  30.959  1.00  0.00     0.057 A 
ATOM     85  C   UNL A   1      44.012  34.517  32.058  1.00  0.00     0.134 A 
ATOM     86  C   UNL A   1      43.254  34.753  29.829  1.00  0.00     0.134 A 
ATOM     87  F   UNL A   1      44.359  33.824  33.149  1.00  0.00    -0.206 F 
ATOM     88  C   UNL A   1      44.356  35.878  32.071  1.00  0.00     0.040 A 
ATOM     89  C   UNL A   1      43.654  36.091  29.809  1.00  0.00     0.040 A 
ATOM     90  F   UNL A   1      42.744  34.332  28.663  1.00  0.00    -0.206 F 
ATOM     91  C   UNL A   1      44.187  36.668  30.943  1.00  0.00     0.006 A 
ENDBRANCH  67  84
ENDBRANCH  41  42
ENDBRANCH  34  36
ENDBRANCH  33  34
ENDBRANCH  32  33
ENDBRANCH  31  32
ENDBRANCH  30  31
ENDBRANCH  29  30
ENDBRANCH  28  29
ENDBRANCH  27  28
ENDBRANCH   1  27
TORSDOF 26
ENDMDL
