MODEL 1
REMARK VINA RESULT:     -10.7      0.000      0.000
REMARK SMILES O=C(OCCOCCOCCOCCOC(=O)c1ccc(-c2c3nc(c(-c4c(F)cccc4F)c4ccc([nH]4)c(-c4c(F)cccc4F)c4nc(c(-c5c(F)cccc5F)c5ccc2[nH]5)C=C4)C=C3)cc1)C1=Cc2ccc(Cl)c(Cl)c2O[C@@H]1C(F)(F)F
REMARK SMILES IDX 10 1 9 2 8 3 7 4 6 5 5 6 4 7 3 8 2 9 1 10 72 11 73 12 83 13
REMARK SMILES IDX 74 14 82 15 75 16 81 17 76 18 79 19 77 20 80 21 78 22 84 23
REMARK SMILES IDX 85 24 86 25 87 26 11 27 12 28 13 29 14 30 15 31 16 32 17 33
REMARK SMILES IDX 18 34 19 35 71 36 20 37 70 38 21 39 22 40 23 41 64 42 24 43
REMARK SMILES IDX 69 44 63 45 65 46 25 47 68 48 62 49 61 50 26 52 52 53 35 54
REMARK SMILES IDX 51 55 36 56 39 57 50 58 66 59 37 60 38 61 49 63 67 64 40 65
REMARK SMILES IDX 27 66 28 67 33 68 29 69 30 70 32 71 34 72 31 73 53 74 54 75
REMARK SMILES IDX 59 76 55 77 56 78 58 79 60 80 57 81 41 82 42 83 47 84 43 85
REMARK SMILES IDX 44 86 46 87 48 88 45 89
REMARK H PARENT 65 51 39 62
REMARK Flexibility Score: inf
ROOT
ATOM      1  C   UNL A   1      41.085  20.308  27.498  1.00  0.00     0.188 C 
ENDROOT
BRANCH   1   2
ATOM      2  O   UNL A   1      40.351  21.528  27.491  1.00  0.00    -0.377 OA
BRANCH   2   3
ATOM      3  C   UNL A   1      39.624  21.804  26.300  1.00  0.00     0.188 C 
BRANCH   3   4
ATOM      4  C   UNL A   1      38.931  23.158  26.344  1.00  0.00     0.188 C 
BRANCH   4   5
ATOM      5  O   UNL A   1      37.573  23.101  25.945  1.00  0.00    -0.376 OA
BRANCH   5   6
ATOM      6  C   UNL A   1      37.123  22.001  25.168  1.00  0.00     0.202 C 
BRANCH   6   7
ATOM      7  C   UNL A   1      36.546  22.358  23.799  1.00  0.00     0.261 C 
BRANCH   7   8
ATOM      8  O   UNL A   1      35.111  22.457  23.832  1.00  0.00    -0.460 OA
BRANCH   8   9
ATOM      9  C   UNL A   1      34.597  23.706  23.914  1.00  0.00     0.338 C 
ATOM     10  O   UNL A   1      34.872  24.588  23.115  1.00  0.00    -0.246 OA
BRANCH   9  11
ATOM     11  C   UNL A   1      33.744  23.918  25.117  1.00  0.00     0.087 C 
ATOM     12  C   UNL A   1      34.127  24.985  25.837  1.00  0.00     0.027 C 
ATOM     13  C   UNL A   1      32.288  23.557  25.024  1.00  0.00     0.316 C 
ATOM     14  C   UNL A   1      33.189  26.110  25.795  1.00  0.00     0.019 A 
ATOM     15  O   UNL A   1      31.396  24.700  24.980  1.00  0.00    -0.474 OA
ATOM     16  C   UNL A   1      33.652  27.380  26.152  1.00  0.00     0.013 A 
ATOM     17  C   UNL A   1      31.914  25.948  25.239  1.00  0.00     0.148 A 
ATOM     18  C   UNL A   1      32.888  28.506  25.853  1.00  0.00     0.023 A 
ATOM     19  C   UNL A   1      31.158  27.087  24.906  1.00  0.00     0.102 A 
ATOM     20  C   UNL A   1      31.667  28.365  25.188  1.00  0.00     0.063 A 
ATOM     21  Cl  UNL A   1      29.652  26.903  24.064  1.00  0.00    -0.079 Cl
ATOM     22  Cl  UNL A   1      30.867  29.819  24.697  1.00  0.00    -0.083 Cl
BRANCH  13  23
ATOM     23  C   UNL A   1      31.897  22.508  26.069  1.00  0.00     0.430 C 
ATOM     24  F   UNL A   1      31.147  23.050  27.057  1.00  0.00    -0.167 F 
ATOM     25  F   UNL A   1      31.139  21.530  25.506  1.00  0.00    -0.167 F 
ATOM     26  F   UNL A   1      32.968  21.912  26.633  1.00  0.00    -0.167 F 
ENDBRANCH  13  23
ENDBRANCH   9  11
ENDBRANCH   8   9
ENDBRANCH   7   8
ENDBRANCH   6   7
ENDBRANCH   5   6
ENDBRANCH   4   5
ENDBRANCH   3   4
ENDBRANCH   2   3
ENDBRANCH   1   2
BRANCH   1  27
ATOM     27  C   UNL A   1      41.289  19.605  26.133  1.00  0.00     0.188 C 
BRANCH  27  28
ATOM     28  O   UNL A   1      42.501  19.674  25.388  1.00  0.00    -0.376 OA
BRANCH  28  29
ATOM     29  C   UNL A   1      43.516  20.568  25.796  1.00  0.00     0.202 C 
BRANCH  29  30
ATOM     30  C   UNL A   1      43.841  21.666  24.770  1.00  0.00     0.261 C 
BRANCH  30  31
ATOM     31  O   UNL A   1      43.136  22.905  24.973  1.00  0.00    -0.460 OA
BRANCH  31  32
ATOM     32  C   UNL A   1      43.905  24.019  25.135  1.00  0.00     0.338 C 
ATOM     33  O   UNL A   1      44.898  24.314  24.512  1.00  0.00    -0.246 OA
BRANCH  32  34
ATOM     34  C   UNL A   1      43.239  24.943  26.105  1.00  0.00     0.060 A 
ATOM     35  C   UNL A   1      43.525  26.313  26.010  1.00  0.00     0.016 A 
ATOM     36  C   UNL A   1      42.310  24.501  27.052  1.00  0.00     0.016 A 
ATOM     37  C   UNL A   1      42.898  27.237  26.856  1.00  0.00     0.010 A 
ATOM     38  C   UNL A   1      41.700  25.423  27.918  1.00  0.00     0.010 A 
ATOM     39  C   UNL A   1      42.007  26.796  27.843  1.00  0.00    -0.014 A 
BRANCH  39  40
ATOM     40  C   UNL A   1      41.571  27.718  28.930  1.00  0.00     0.031 A 
ATOM     41  C   UNL A   1      42.330  27.678  30.231  1.00  0.00     0.074 A 
ATOM     42  C   UNL A   1      40.539  28.573  28.791  1.00  0.00     0.049 A 
ATOM     43  N   UNL A   1      42.084  28.291  31.361  1.00  0.00    -0.248 NA
ATOM     44  C   UNL A   1      43.530  26.824  30.259  1.00  0.00     0.031 C 
ATOM     45  C   UNL A   1      39.751  28.768  27.577  1.00  0.00     0.029 A 
ATOM     46  N   UNL A   1      39.965  29.431  29.704  1.00  0.00    -0.354 N 
ATOM     47  C   UNL A   1      43.086  27.886  32.234  1.00  0.00     0.074 A 
ATOM     48  C   UNL A   1      43.934  26.963  31.511  1.00  0.00     0.031 C 
ATOM     49  C   UNL A   1      38.779  29.666  27.827  1.00  0.00     0.029 A 
ATOM     50  C   UNL A   1      38.850  30.081  29.229  1.00  0.00     0.049 A 
ATOM     51  H   UNL A   1      40.321  29.566  30.612  1.00  0.00     0.167 HD
ATOM     52  C   UNL A   1      43.285  28.247  33.524  1.00  0.00     0.037 A 
ATOM     53  C   UNL A   1      37.968  30.885  29.862  1.00  0.00     0.037 A 
ATOM     54  C   UNL A   1      42.454  29.170  34.248  1.00  0.00     0.049 A 
ATOM     55  C   UNL A   1      38.162  31.199  31.328  1.00  0.00     0.074 A 
ATOM     56  C   UNL A   1      42.602  29.619  35.549  1.00  0.00     0.029 A 
ATOM     57  N   UNL A   1      41.317  29.775  33.740  1.00  0.00    -0.354 N 
ATOM     58  N   UNL A   1      39.129  30.837  32.135  1.00  0.00    -0.248 NA
ATOM     59  C   UNL A   1      37.133  32.032  31.974  1.00  0.00     0.031 C 
ATOM     60  C   UNL A   1      41.516  30.447  35.850  1.00  0.00     0.029 A 
ATOM     61  C   UNL A   1      40.727  30.561  34.716  1.00  0.00     0.049 A 
ATOM     62  H   UNL A   1      40.977  29.664  32.823  1.00  0.00     0.167 HD
ATOM     63  C   UNL A   1      38.838  31.413  33.368  1.00  0.00     0.074 A 
ATOM     64  C   UNL A   1      37.617  32.169  33.200  1.00  0.00     0.031 C 
ATOM     65  C   UNL A   1      39.516  31.318  34.538  1.00  0.00     0.037 A 
BRANCH  52  66
ATOM     66  C   UNL A   1      44.431  27.616  34.257  1.00  0.00     0.057 A 
ATOM     67  C   UNL A   1      45.689  28.223  34.332  1.00  0.00     0.134 A 
ATOM     68  C   UNL A   1      44.247  26.415  34.955  1.00  0.00     0.134 A 
ATOM     69  F   UNL A   1      45.934  29.366  33.673  1.00  0.00    -0.206 F 
ATOM     70  C   UNL A   1      46.729  27.655  35.070  1.00  0.00     0.040 A 
ATOM     71  C   UNL A   1      45.270  25.852  35.717  1.00  0.00     0.040 A 
ATOM     72  F   UNL A   1      43.063  25.784  34.926  1.00  0.00    -0.206 F 
ATOM     73  C   UNL A   1      46.516  26.471  35.774  1.00  0.00     0.006 A 
ENDBRANCH  52  66
BRANCH  53  74
ATOM     74  C   UNL A   1      36.772  31.415  29.148  1.00  0.00     0.057 A 
ATOM     75  C   UNL A   1      35.693  30.586  28.812  1.00  0.00     0.134 A 
ATOM     76  C   UNL A   1      36.719  32.744  28.708  1.00  0.00     0.134 A 
ATOM     77  F   UNL A   1      35.697  29.294  29.171  1.00  0.00    -0.206 F 
ATOM     78  C   UNL A   1      34.624  31.051  28.041  1.00  0.00     0.040 A 
ATOM     79  C   UNL A   1      35.641  33.229  27.964  1.00  0.00     0.040 A 
ATOM     80  F   UNL A   1      37.721  33.591  28.986  1.00  0.00    -0.206 F 
ATOM     81  C   UNL A   1      34.595  32.377  27.617  1.00  0.00     0.006 A 
ENDBRANCH  53  74
BRANCH  65  82
ATOM     82  C   UNL A   1      38.976  32.065  35.723  1.00  0.00     0.057 A 
ATOM     83  C   UNL A   1      38.176  31.442  36.690  1.00  0.00     0.134 A 
ATOM     84  C   UNL A   1      39.306  33.412  35.931  1.00  0.00     0.134 A 
ATOM     85  F   UNL A   1      37.815  30.158  36.547  1.00  0.00    -0.206 F 
ATOM     86  C   UNL A   1      37.707  32.133  37.808  1.00  0.00     0.040 A 
ATOM     87  C   UNL A   1      38.868  34.106  37.060  1.00  0.00     0.040 A 
ATOM     88  F   UNL A   1      40.079  34.068  35.053  1.00  0.00    -0.206 F 
ATOM     89  C   UNL A   1      38.060  33.469  38.000  1.00  0.00     0.006 A 
ENDBRANCH  65  82
ENDBRANCH  39  40
ENDBRANCH  32  34
ENDBRANCH  31  32
ENDBRANCH  30  31
ENDBRANCH  29  30
ENDBRANCH  28  29
ENDBRANCH  27  28
ENDBRANCH   1  27
TORSDOF 21
ENDMDL
MODEL 2
REMARK VINA RESULT:     -10.5      1.542      2.143
REMARK SMILES O=C(OCCOCCOCCOCCOC(=O)c1ccc(-c2c3nc(c(-c4c(F)cccc4F)c4ccc([nH]4)c(-c4c(F)cccc4F)c4nc(c(-c5c(F)cccc5F)c5ccc2[nH]5)C=C4)C=C3)cc1)C1=Cc2ccc(Cl)c(Cl)c2O[C@@H]1C(F)(F)F
REMARK SMILES IDX 10 1 9 2 8 3 7 4 6 5 5 6 4 7 3 8 2 9 1 10 72 11 73 12 83 13
REMARK SMILES IDX 74 14 82 15 75 16 81 17 76 18 79 19 77 20 80 21 78 22 84 23
REMARK SMILES IDX 85 24 86 25 87 26 11 27 12 28 13 29 14 30 15 31 16 32 17 33
REMARK SMILES IDX 18 34 19 35 71 36 20 37 70 38 21 39 22 40 23 41 64 42 24 43
REMARK SMILES IDX 69 44 63 45 65 46 25 47 68 48 62 49 61 50 26 52 52 53 35 54
REMARK SMILES IDX 51 55 36 56 39 57 50 58 66 59 37 60 38 61 49 63 67 64 40 65
REMARK SMILES IDX 27 66 28 67 33 68 29 69 30 70 32 71 34 72 31 73 53 74 54 75
REMARK SMILES IDX 59 76 55 77 56 78 58 79 60 80 57 81 41 82 42 83 47 84 43 85
REMARK SMILES IDX 44 86 46 87 48 88 45 89
REMARK H PARENT 65 51 39 62
REMARK Flexibility Score: inf
ROOT
ATOM      1  C   UNL A   1      42.024  19.792  27.294  1.00  0.00     0.188 C 
ENDROOT
BRANCH   1   2
ATOM      2  O   UNL A   1      40.638  20.116  27.271  1.00  0.00    -0.377 OA
BRANCH   2   3
ATOM      3  C   UNL A   1      40.185  20.810  26.115  1.00  0.00     0.188 C 
BRANCH   3   4
ATOM      4  C   UNL A   1      39.358  22.039  26.462  1.00  0.00     0.188 C 
BRANCH   4   5
ATOM      5  O   UNL A   1      38.098  22.062  25.814  1.00  0.00    -0.376 OA
BRANCH   5   6
ATOM      6  C   UNL A   1      37.426  23.301  25.646  1.00  0.00     0.202 C 
BRANCH   6   7
ATOM      7  C   UNL A   1      35.908  23.251  25.810  1.00  0.00     0.261 C 
BRANCH   7   8
ATOM      8  O   UNL A   1      35.473  22.009  26.394  1.00  0.00    -0.460 OA
BRANCH   8   9
ATOM      9  C   UNL A   1      34.242  22.006  26.953  1.00  0.00     0.338 C 
ATOM     10  O   UNL A   1      34.040  22.340  28.110  1.00  0.00    -0.246 OA
BRANCH   9  11
ATOM     11  C   UNL A   1      33.183  21.471  26.051  1.00  0.00     0.087 C 
ATOM     12  C   UNL A   1      32.033  22.160  26.144  1.00  0.00     0.027 C 
ATOM     13  C   UNL A   1      33.606  20.888  24.732  1.00  0.00     0.316 C 
ATOM     14  C   UNL A   1      31.709  22.956  24.957  1.00  0.00     0.019 A 
ATOM     15  O   UNL A   1      33.269  21.711  23.585  1.00  0.00    -0.474 OA
ATOM     16  C   UNL A   1      30.788  24.000  25.084  1.00  0.00     0.013 A 
ATOM     17  C   UNL A   1      32.438  22.790  23.773  1.00  0.00     0.148 A 
ATOM     18  C   UNL A   1      30.670  24.949  24.071  1.00  0.00     0.023 A 
ATOM     19  C   UNL A   1      32.344  23.768  22.764  1.00  0.00     0.102 A 
ATOM     20  C   UNL A   1      31.480  24.861  22.935  1.00  0.00     0.063 A 
ATOM     21  Cl  UNL A   1      33.367  23.661  21.367  1.00  0.00    -0.079 Cl
ATOM     22  Cl  UNL A   1      31.399  26.173  21.810  1.00  0.00    -0.083 Cl
BRANCH  13  23
ATOM     23  C   UNL A   1      33.168  19.427  24.593  1.00  0.00     0.430 C 
ATOM     24  F   UNL A   1      32.696  18.939  25.764  1.00  0.00    -0.167 F 
ATOM     25  F   UNL A   1      32.155  19.313  23.694  1.00  0.00    -0.167 F 
ATOM     26  F   UNL A   1      34.168  18.623  24.175  1.00  0.00    -0.167 F 
ENDBRANCH  13  23
ENDBRANCH   9  11
ENDBRANCH   8   9
ENDBRANCH   7   8
ENDBRANCH   6   7
ENDBRANCH   5   6
ENDBRANCH   4   5
ENDBRANCH   3   4
ENDBRANCH   2   3
ENDBRANCH   1   2
BRANCH   1  27
ATOM     27  C   UNL A   1      42.549  18.877  26.159  1.00  0.00     0.188 C 
BRANCH  27  28
ATOM     28  O   UNL A   1      43.215  19.368  25.000  1.00  0.00    -0.376 OA
BRANCH  28  29
ATOM     29  C   UNL A   1      44.318  20.239  25.151  1.00  0.00     0.202 C 
BRANCH  29  30
ATOM     30  C   UNL A   1      44.140  21.607  24.475  1.00  0.00     0.261 C 
BRANCH  30  31
ATOM     31  O   UNL A   1      43.592  22.631  25.328  1.00  0.00    -0.460 OA
BRANCH  31  32
ATOM     32  C   UNL A   1      44.138  23.874  25.207  1.00  0.00     0.338 C 
ATOM     33  O   UNL A   1      44.941  24.238  24.380  1.00  0.00    -0.246 OA
BRANCH  32  34
ATOM     34  C   UNL A   1      43.459  24.807  26.160  1.00  0.00     0.060 A 
ATOM     35  C   UNL A   1      43.774  26.172  26.081  1.00  0.00     0.016 A 
ATOM     36  C   UNL A   1      42.492  24.379  27.074  1.00  0.00     0.016 A 
ATOM     37  C   UNL A   1      43.139  27.104  26.911  1.00  0.00     0.010 A 
ATOM     38  C   UNL A   1      41.873  25.309  27.925  1.00  0.00     0.010 A 
ATOM     39  C   UNL A   1      42.209  26.675  27.867  1.00  0.00    -0.014 A 
BRANCH  39  40
ATOM     40  C   UNL A   1      41.756  27.601  28.945  1.00  0.00     0.031 A 
ATOM     41  C   UNL A   1      42.471  27.538  30.270  1.00  0.00     0.074 A 
ATOM     42  C   UNL A   1      40.747  28.478  28.777  1.00  0.00     0.049 A 
ATOM     43  N   UNL A   1      42.200  28.151  31.394  1.00  0.00    -0.248 NA
ATOM     44  C   UNL A   1      43.650  26.659  30.332  1.00  0.00     0.031 C 
ATOM     45  C   UNL A   1      40.004  28.697  27.539  1.00  0.00     0.029 A 
ATOM     46  N   UNL A   1      40.162  29.344  29.675  1.00  0.00    -0.354 N 
ATOM     47  C   UNL A   1      43.164  27.719  32.298  1.00  0.00     0.074 A 
ATOM     48  C   UNL A   1      44.016  26.783  31.599  1.00  0.00     0.031 C 
ATOM     49  C   UNL A   1      39.044  29.613  27.762  1.00  0.00     0.029 A 
ATOM     50  C   UNL A   1      39.077  30.020  29.167  1.00  0.00     0.049 A 
ATOM     51  H   UNL A   1      40.490  29.466  30.595  1.00  0.00     0.167 HD
ATOM     52  C   UNL A   1      43.327  28.070  33.596  1.00  0.00     0.037 A 
ATOM     53  C   UNL A   1      38.192  30.839  29.775  1.00  0.00     0.037 A 
ATOM     54  C   UNL A   1      42.493  29.006  34.298  1.00  0.00     0.049 A 
ATOM     55  C   UNL A   1      38.343  31.141  31.249  1.00  0.00     0.074 A 
ATOM     56  C   UNL A   1      42.606  29.446  35.605  1.00  0.00     0.029 A 
ATOM     57  N   UNL A   1      41.386  29.638  33.756  1.00  0.00    -0.354 N 
ATOM     58  N   UNL A   1      39.275  30.754  32.085  1.00  0.00    -0.248 NA
ATOM     59  C   UNL A   1      37.311  31.993  31.865  1.00  0.00     0.031 C 
ATOM     60  C   UNL A   1      41.529  30.295  35.875  1.00  0.00     0.029 A 
ATOM     61  C   UNL A   1      40.781  30.431  34.717  1.00  0.00     0.049 A 
ATOM     62  H   UNL A   1      41.075  29.539  32.827  1.00  0.00     0.167 HD
ATOM     63  C   UNL A   1      38.955  31.330  33.311  1.00  0.00     0.074 A 
ATOM     64  C   UNL A   1      37.757  32.112  33.107  1.00  0.00     0.031 C 
ATOM     65  C   UNL A   1      39.592  31.214  34.503  1.00  0.00     0.037 A 
BRANCH  52  66
ATOM     66  C   UNL A   1      44.435  27.411  34.363  1.00  0.00     0.057 A 
ATOM     67  C   UNL A   1      45.706  27.985  34.473  1.00  0.00     0.134 A 
ATOM     68  C   UNL A   1      44.199  26.217  35.057  1.00  0.00     0.134 A 
ATOM     69  F   UNL A   1      46.000  29.120  33.819  1.00  0.00    -0.206 F 
ATOM     70  C   UNL A   1      46.709  27.391  35.241  1.00  0.00     0.040 A 
ATOM     71  C   UNL A   1      45.185  25.629  35.850  1.00  0.00     0.040 A 
ATOM     72  F   UNL A   1      43.001  25.618  34.995  1.00  0.00    -0.206 F 
ATOM     73  C   UNL A   1      46.445  26.215  35.942  1.00  0.00     0.006 A 
ENDBRANCH  52  66
BRANCH  53  74
ATOM     74  C   UNL A   1      37.032  31.398  29.026  1.00  0.00     0.057 A 
ATOM     75  C   UNL A   1      37.010  32.733  28.600  1.00  0.00     0.134 A 
ATOM     76  C   UNL A   1      35.880  30.634  28.795  1.00  0.00     0.134 A 
ATOM     77  F   UNL A   1      38.065  33.530  28.821  1.00  0.00    -0.206 F 
ATOM     78  C   UNL A   1      35.877  33.293  28.001  1.00  0.00     0.040 A 
ATOM     79  C   UNL A   1      34.753  31.173  28.170  1.00  0.00     0.040 A 
ATOM     80  F   UNL A   1      35.827  29.352  29.184  1.00  0.00    -0.206 F 
ATOM     81  C   UNL A   1      34.746  32.511  27.783  1.00  0.00     0.006 A 
ENDBRANCH  53  74
BRANCH  65  82
ATOM     82  C   UNL A   1      39.028  31.967  35.674  1.00  0.00     0.057 A 
ATOM     83  C   UNL A   1      38.185  31.355  36.611  1.00  0.00     0.134 A 
ATOM     84  C   UNL A   1      39.379  33.306  35.900  1.00  0.00     0.134 A 
ATOM     85  F   UNL A   1      37.803  30.080  36.448  1.00  0.00    -0.206 F 
ATOM     86  C   UNL A   1      37.694  32.051  37.716  1.00  0.00     0.040 A 
ATOM     87  C   UNL A   1      38.918  34.003  37.018  1.00  0.00     0.040 A 
ATOM     88  F   UNL A   1      40.194  33.950  35.051  1.00  0.00    -0.206 F 
ATOM     89  C   UNL A   1      38.068  33.378  37.927  1.00  0.00     0.006 A 
ENDBRANCH  65  82
ENDBRANCH  39  40
ENDBRANCH  32  34
ENDBRANCH  31  32
ENDBRANCH  30  31
ENDBRANCH  29  30
ENDBRANCH  28  29
ENDBRANCH  27  28
ENDBRANCH   1  27
TORSDOF 21
ENDMDL
MODEL 3
REMARK VINA RESULT:     -10.4      5.039     10.286
REMARK SMILES O=C(OCCOCCOCCOCCOC(=O)c1ccc(-c2c3nc(c(-c4c(F)cccc4F)c4ccc([nH]4)c(-c4c(F)cccc4F)c4nc(c(-c5c(F)cccc5F)c5ccc2[nH]5)C=C4)C=C3)cc1)C1=Cc2ccc(Cl)c(Cl)c2O[C@@H]1C(F)(F)F
REMARK SMILES IDX 10 1 9 2 8 3 7 4 6 5 5 6 4 7 3 8 2 9 1 10 72 11 73 12 83 13
REMARK SMILES IDX 74 14 82 15 75 16 81 17 76 18 79 19 77 20 80 21 78 22 84 23
REMARK SMILES IDX 85 24 86 25 87 26 11 27 12 28 13 29 14 30 15 31 16 32 17 33
REMARK SMILES IDX 18 34 19 35 71 36 20 37 70 38 21 39 22 40 23 41 64 42 24 43
REMARK SMILES IDX 69 44 63 45 65 46 25 47 68 48 62 49 61 50 26 52 52 53 35 54
REMARK SMILES IDX 51 55 36 56 39 57 50 58 66 59 37 60 38 61 49 63 67 64 40 65
REMARK SMILES IDX 27 66 28 67 33 68 29 69 30 70 32 71 34 72 31 73 53 74 54 75
REMARK SMILES IDX 59 76 55 77 56 78 58 79 60 80 57 81 41 82 42 83 47 84 43 85
REMARK SMILES IDX 44 86 46 87 48 88 45 89
REMARK H PARENT 65 51 39 62
REMARK Flexibility Score: inf
ROOT
ATOM      1  C   UNL A   1      32.908  36.250  30.174  1.00  0.00     0.188 C 
ENDROOT
BRANCH   1   2
ATOM      2  O   UNL A   1      32.650  34.964  29.621  1.00  0.00    -0.377 OA
BRANCH   2   3
ATOM      3  C   UNL A   1      33.304  34.678  28.391  1.00  0.00     0.188 C 
BRANCH   3   4
ATOM      4  C   UNL A   1      33.000  33.277  27.883  1.00  0.00     0.188 C 
BRANCH   4   5
ATOM      5  O   UNL A   1      31.850  33.222  27.057  1.00  0.00    -0.376 OA
BRANCH   5   6
ATOM      6  C   UNL A   1      31.363  31.961  26.626  1.00  0.00     0.202 C 
BRANCH   6   7
ATOM      7  C   UNL A   1      32.295  30.777  26.879  1.00  0.00     0.261 C 
BRANCH   7   8
ATOM      8  O   UNL A   1      32.156  29.761  25.869  1.00  0.00    -0.460 OA
BRANCH   8   9
ATOM      9  C   UNL A   1      32.736  28.568  26.133  1.00  0.00     0.338 C 
ATOM     10  O   UNL A   1      33.414  28.368  27.129  1.00  0.00    -0.246 OA
BRANCH   9  11
ATOM     11  C   UNL A   1      32.543  27.562  25.050  1.00  0.00     0.087 C 
ATOM     12  C   UNL A   1      33.658  26.856  24.800  1.00  0.00     0.027 C 
ATOM     13  C   UNL A   1      31.195  26.911  24.923  1.00  0.00     0.316 C 
ATOM     14  C   UNL A   1      33.585  25.450  25.206  1.00  0.00     0.019 A 
ATOM     15  O   UNL A   1      31.167  25.521  25.340  1.00  0.00    -0.474 OA
ATOM     16  C   UNL A   1      34.778  24.740  25.373  1.00  0.00     0.013 A 
ATOM     17  C   UNL A   1      32.362  24.887  25.592  1.00  0.00     0.148 A 
ATOM     18  C   UNL A   1      34.767  23.510  26.027  1.00  0.00     0.023 A 
ATOM     19  C   UNL A   1      32.356  23.661  26.284  1.00  0.00     0.102 A 
ATOM     20  C   UNL A   1      33.567  22.993  26.524  1.00  0.00     0.063 A 
ATOM     21  Cl  UNL A   1      30.864  23.037  26.913  1.00  0.00    -0.079 Cl
ATOM     22  Cl  UNL A   1      33.667  21.552  27.476  1.00  0.00    -0.083 Cl
BRANCH  13  23
ATOM     23  C   UNL A   1      30.576  27.153  23.543  1.00  0.00     0.430 C 
ATOM     24  F   UNL A   1      30.704  26.067  22.746  1.00  0.00    -0.167 F 
ATOM     25  F   UNL A   1      29.243  27.394  23.652  1.00  0.00    -0.167 F 
ATOM     26  F   UNL A   1      31.124  28.209  22.907  1.00  0.00    -0.167 F 
ENDBRANCH  13  23
ENDBRANCH   9  11
ENDBRANCH   8   9
ENDBRANCH   7   8
ENDBRANCH   6   7
ENDBRANCH   5   6
ENDBRANCH   4   5
ENDBRANCH   3   4
ENDBRANCH   2   3
ENDBRANCH   1   2
BRANCH   1  27
ATOM     27  C   UNL A   1      33.024  36.340  31.716  1.00  0.00     0.188 C 
BRANCH  27  28
ATOM     28  O   UNL A   1      33.104  35.199  32.564  1.00  0.00    -0.376 OA
BRANCH  28  29
ATOM     29  C   UNL A   1      34.364  34.786  33.053  1.00  0.00     0.202 C 
BRANCH  29  30
ATOM     30  C   UNL A   1      34.413  33.320  33.512  1.00  0.00     0.261 C 
BRANCH  30  31
ATOM     31  O   UNL A   1      35.535  32.569  33.007  1.00  0.00    -0.460 OA
BRANCH  31  32
ATOM     32  C   UNL A   1      35.462  32.179  31.703  1.00  0.00     0.338 C 
ATOM     33  O   UNL A   1      34.513  32.288  30.963  1.00  0.00    -0.246 OA
BRANCH  32  34
ATOM     34  C   UNL A   1      36.816  31.740  31.242  1.00  0.00     0.060 A 
ATOM     35  C   UNL A   1      37.136  31.907  29.886  1.00  0.00     0.016 A 
ATOM     36  C   UNL A   1      37.782  31.231  32.116  1.00  0.00     0.016 A 
ATOM     37  C   UNL A   1      38.403  31.561  29.400  1.00  0.00     0.010 A 
ATOM     38  C   UNL A   1      39.044  30.860  31.625  1.00  0.00     0.010 A 
ATOM     39  C   UNL A   1      39.357  30.999  30.259  1.00  0.00    -0.014 A 
BRANCH  39  40
ATOM     40  C   UNL A   1      40.582  30.357  29.705  1.00  0.00     0.031 A 
ATOM     41  C   UNL A   1      41.800  31.222  29.507  1.00  0.00     0.074 A 
ATOM     42  C   UNL A   1      40.638  29.050  29.381  1.00  0.00     0.049 A 
ATOM     43  N   UNL A   1      42.946  30.935  28.943  1.00  0.00    -0.248 NA
ATOM     44  C   UNL A   1      41.709  32.601  30.015  1.00  0.00     0.031 C 
ATOM     45  C   UNL A   1      39.565  28.078  29.571  1.00  0.00     0.029 A 
ATOM     46  N   UNL A   1      41.651  28.319  28.800  1.00  0.00    -0.354 N 
ATOM     47  C   UNL A   1      43.701  32.099  29.013  1.00  0.00     0.074 A 
ATOM     48  C   UNL A   1      42.882  33.100  29.660  1.00  0.00     0.031 C 
ATOM     49  C   UNL A   1      39.965  26.886  29.090  1.00  0.00     0.029 A 
ATOM     50  C   UNL A   1      41.308  27.017  28.521  1.00  0.00     0.049 A 
ATOM     51  H   UNL A   1      42.540  28.696  28.602  1.00  0.00     0.167 HD
ATOM     52  C   UNL A   1      44.965  32.318  28.579  1.00  0.00     0.037 A 
ATOM     53  C   UNL A   1      41.981  26.056  27.853  1.00  0.00     0.037 A 
ATOM     54  C   UNL A   1      45.791  31.328  27.943  1.00  0.00     0.049 A 
ATOM     55  C   UNL A   1      43.355  26.356  27.296  1.00  0.00     0.074 A 
ATOM     56  C   UNL A   1      47.096  31.453  27.501  1.00  0.00     0.029 A 
ATOM     57  N   UNL A   1      45.390  30.035  27.650  1.00  0.00    -0.354 N 
ATOM     58  N   UNL A   1      44.072  27.448  27.397  1.00  0.00    -0.248 NA
ATOM     59  C   UNL A   1      44.011  25.286  26.525  1.00  0.00     0.031 C 
ATOM     60  C   UNL A   1      47.464  30.256  26.881  1.00  0.00     0.029 A 
ATOM     61  C   UNL A   1      46.408  29.365  26.992  1.00  0.00     0.049 A 
ATOM     62  H   UNL A   1      44.512  29.649  27.874  1.00  0.00     0.167 HD
ATOM     63  C   UNL A   1      45.264  27.190  26.726  1.00  0.00     0.074 A 
ATOM     64  C   UNL A   1      45.186  25.830  26.243  1.00  0.00     0.031 C 
ATOM     65  C   UNL A   1      46.325  28.008  26.521  1.00  0.00     0.037 A 
BRANCH  52  66
ATOM     66  C   UNL A   1      45.530  33.698  28.742  1.00  0.00     0.057 A 
ATOM     67  C   UNL A   1      46.188  34.097  29.910  1.00  0.00     0.134 A 
ATOM     68  C   UNL A   1      45.472  34.613  27.683  1.00  0.00     0.134 A 
ATOM     69  F   UNL A   1      46.264  33.272  30.965  1.00  0.00    -0.206 F 
ATOM     70  C   UNL A   1      46.763  35.364  30.024  1.00  0.00     0.040 A 
ATOM     71  C   UNL A   1      46.066  35.872  27.775  1.00  0.00     0.040 A 
ATOM     72  F   UNL A   1      44.858  34.290  26.535  1.00  0.00    -0.206 F 
ATOM     73  C   UNL A   1      46.712  36.251  28.949  1.00  0.00     0.006 A 
ENDBRANCH  52  66
BRANCH  53  74
ATOM     74  C   UNL A   1      41.361  24.725  27.602  1.00  0.00     0.057 A 
ATOM     75  C   UNL A   1      40.337  24.560  26.660  1.00  0.00     0.134 A 
ATOM     76  C   UNL A   1      41.718  23.603  28.361  1.00  0.00     0.134 A 
ATOM     77  F   UNL A   1      39.922  25.601  25.924  1.00  0.00    -0.206 F 
ATOM     78  C   UNL A   1      39.672  23.340  26.505  1.00  0.00     0.040 A 
ATOM     79  C   UNL A   1      41.083  22.370  28.194  1.00  0.00     0.040 A 
ATOM     80  F   UNL A   1      42.684  23.690  29.288  1.00  0.00    -0.206 F 
ATOM     81  C   UNL A   1      40.047  22.240  27.273  1.00  0.00     0.006 A 
ENDBRANCH  53  74
BRANCH  65  82
ATOM     82  C   UNL A   1      47.500  27.454  25.767  1.00  0.00     0.057 A 
ATOM     83  C   UNL A   1      48.584  26.853  26.421  1.00  0.00     0.134 A 
ATOM     84  C   UNL A   1      47.522  27.470  24.365  1.00  0.00     0.134 A 
ATOM     85  F   UNL A   1      48.630  26.813  27.761  1.00  0.00    -0.206 F 
ATOM     86  C   UNL A   1      49.654  26.308  25.711  1.00  0.00     0.040 A 
ATOM     87  C   UNL A   1      48.573  26.901  23.643  1.00  0.00     0.040 A 
ATOM     88  F   UNL A   1      46.511  28.017  23.673  1.00  0.00    -0.206 F 
ATOM     89  C   UNL A   1      49.647  26.324  24.317  1.00  0.00     0.006 A 
ENDBRANCH  65  82
ENDBRANCH  39  40
ENDBRANCH  32  34
ENDBRANCH  31  32
ENDBRANCH  30  31
ENDBRANCH  29  30
ENDBRANCH  28  29
ENDBRANCH  27  28
ENDBRANCH   1  27
TORSDOF 21
ENDMDL
