MODEL 1
REMARK VINA RESULT:      -9.8      0.000      0.000
REMARK SMILES CC[C@](C)([NH3+])C(=O)Nc1ccc(C(F)(F)F)cc1C(=O)OCCOCCOCCOCCOC(=O)c1ccc(-c2c3nc(c(-c4c(F)cccc4F)c4ccc([nH]4)c(-c4c(F)cccc4F)c4nc(c(-c5c(F)cccc5F)c5ccc2[nH]5)C=C4)C=C3)cc1
REMARK SMILES IDX 26 1 25 2 24 3 23 4 22 5 21 6 19 7 20 8 18 9 9 10 10 11
REMARK SMILES IDX 11 12 17 13 12 14 8 15 6 16 7 17 3 19 4 20 2 21 1 22 5 23
REMARK SMILES IDX 13 27 14 28 15 29 16 30 27 31 28 32 29 33 30 34 31 35 32 36
REMARK SMILES IDX 33 37 34 38 35 39 36 40 37 41 89 42 38 43 88 44 39 45 40 46
REMARK SMILES IDX 41 47 82 48 42 49 87 50 81 51 83 52 43 53 86 54 80 55 79 56
REMARK SMILES IDX 44 58 70 59 53 60 69 61 54 62 57 63 68 64 84 65 55 66 56 67
REMARK SMILES IDX 67 69 85 70 58 71 45 72 46 73 51 74 47 75 48 76 50 77 52 78
REMARK SMILES IDX 49 79 71 80 72 81 77 82 73 83 74 84 76 85 78 86 75 87 59 88
REMARK SMILES IDX 60 89 65 90 61 91 62 92 64 93 66 94 63 95
REMARK H PARENT 8 18 5 24 5 25 5 26 83 57 57 68
REMARK Flexibility Score: inf
ROOT
ATOM      1  C   UNL A   1      33.199  27.794  23.096  1.00  0.00     0.188 C 
ENDROOT
BRANCH   1   2
ATOM      2  C   UNL A   1      33.650  26.617  23.989  1.00  0.00     0.188 C 
BRANCH   2   3
ATOM      3  O   UNL A   1      32.595  25.853  24.539  1.00  0.00    -0.376 OA
BRANCH   3   4
ATOM      4  C   UNL A   1      32.468  25.673  25.933  1.00  0.00     0.202 C 
BRANCH   4   5
ATOM      5  C   UNL A   1      31.809  24.443  26.553  1.00  0.00     0.261 C 
BRANCH   5   6
ATOM      6  O   UNL A   1      32.355  23.156  26.258  1.00  0.00    -0.460 OA
BRANCH   6   7
ATOM      7  C   UNL A   1      33.500  22.746  26.824  1.00  0.00     0.340 C 
ATOM      8  O   UNL A   1      33.619  22.247  27.930  1.00  0.00    -0.246 OA
BRANCH   7   9
ATOM      9  C   UNL A   1      34.638  22.989  25.896  1.00  0.00     0.084 A 
ATOM     10  C   UNL A   1      34.591  22.777  24.507  1.00  0.00     0.056 A 
ATOM     11  C   UNL A   1      35.788  22.819  23.774  1.00  0.00     0.027 A 
ATOM     12  C   UNL A   1      36.991  23.189  24.379  1.00  0.00     0.015 A 
ATOM     13  C   UNL A   1      35.854  23.359  26.499  1.00  0.00     0.031 A 
ATOM     14  C   UNL A   1      37.033  23.483  25.747  1.00  0.00     0.057 A 
BRANCH  10  15
ATOM     15  N   UNL A   1      33.459  22.418  23.767  1.00  0.00    -0.320 N 
ATOM     16  C   UNL A   1      32.911  21.221  23.404  1.00  0.00     0.285 C 
ATOM     17  O   UNL A   1      32.189  21.265  22.396  1.00  0.00    -0.267 OA
ATOM     18  H   UNL A   1      32.949  23.193  23.437  1.00  0.00     0.170 HD
BRANCH  16  19
ATOM     19  C   UNL A   1      32.921  19.940  24.316  1.00  0.00     0.171 C 
ATOM     20  C   UNL A   1      34.397  19.602  24.610  1.00  0.00     0.090 C 
BRANCH  19  21
ATOM     21  C   UNL A   1      32.139  18.792  23.655  1.00  0.00     0.075 C 
ATOM     22  C   UNL A   1      32.977  17.646  23.121  1.00  0.00     0.011 C 
ENDBRANCH  19  21
BRANCH  19  23
ATOM     23  N   UNL A   1      32.316  20.031  25.647  1.00  0.00    -0.345 N 
ATOM     24  H   UNL A   1      32.346  19.115  26.098  1.00  0.00     0.345 HD
ATOM     25  H   UNL A   1      31.346  20.335  25.561  1.00  0.00     0.345 HD
ATOM     26  H   UNL A   1      32.835  20.704  26.212  1.00  0.00     0.345 HD
ENDBRANCH  19  23
ENDBRANCH  16  19
ENDBRANCH  10  15
BRANCH  14  27
ATOM     27  C   UNL A   1      38.323  23.945  26.382  1.00  0.00     0.416 C 
ATOM     28  F   UNL A   1      39.127  22.909  26.749  1.00  0.00    -0.166 F 
ATOM     29  F   UNL A   1      39.061  24.713  25.536  1.00  0.00    -0.166 F 
ATOM     30  F   UNL A   1      38.136  24.690  27.504  1.00  0.00    -0.166 F 
ENDBRANCH  14  27
ENDBRANCH   7   9
ENDBRANCH   6   7
ENDBRANCH   5   6
ENDBRANCH   4   5
ENDBRANCH   3   4
ENDBRANCH   2   3
ENDBRANCH   1   2
BRANCH   1  31
ATOM     31  O   UNL A   1      32.442  28.821  23.715  1.00  0.00    -0.377 OA
BRANCH  31  32
ATOM     32  C   UNL A   1      32.853  29.365  24.967  1.00  0.00     0.188 C 
BRANCH  32  33
ATOM     33  C   UNL A   1      32.017  29.202  26.258  1.00  0.00     0.188 C 
BRANCH  33  34
ATOM     34  O   UNL A   1      31.782  30.401  26.971  1.00  0.00    -0.376 OA
BRANCH  34  35
ATOM     35  C   UNL A   1      31.386  31.568  26.278  1.00  0.00     0.202 C 
BRANCH  35  36
ATOM     36  C   UNL A   1      31.619  32.929  26.946  1.00  0.00     0.261 C 
BRANCH  36  37
ATOM     37  O   UNL A   1      32.964  33.424  26.945  1.00  0.00    -0.460 OA
BRANCH  37  38
ATOM     38  C   UNL A   1      33.463  33.889  28.108  1.00  0.00     0.338 C 
ATOM     39  O   UNL A   1      32.956  34.707  28.859  1.00  0.00    -0.246 OA
BRANCH  38  40
ATOM     40  C   UNL A   1      34.661  33.086  28.421  1.00  0.00     0.060 A 
ATOM     41  C   UNL A   1      34.533  31.704  28.628  1.00  0.00     0.016 A 
ATOM     42  C   UNL A   1      35.911  33.702  28.498  1.00  0.00     0.016 A 
ATOM     43  C   UNL A   1      35.652  30.942  28.955  1.00  0.00     0.010 A 
ATOM     44  C   UNL A   1      37.026  32.944  28.854  1.00  0.00     0.010 A 
ATOM     45  C   UNL A   1      36.891  31.570  29.124  1.00  0.00    -0.014 A 
BRANCH  45  46
ATOM     46  C   UNL A   1      37.983  30.855  29.820  1.00  0.00     0.031 A 
ATOM     47  C   UNL A   1      38.214  31.171  31.272  1.00  0.00     0.074 A 
ATOM     48  C   UNL A   1      38.743  29.943  29.192  1.00  0.00     0.049 A 
ATOM     49  N   UNL A   1      39.149  30.746  32.080  1.00  0.00    -0.248 NA
ATOM     50  C   UNL A   1      37.258  32.104  31.893  1.00  0.00     0.031 C 
ATOM     51  C   UNL A   1      38.581  29.516  27.804  1.00  0.00     0.029 A 
ATOM     52  N   UNL A   1      39.817  29.222  29.647  1.00  0.00    -0.354 N 
ATOM     53  C   UNL A   1      38.902  31.368  33.297  1.00  0.00     0.074 A 
ATOM     54  C   UNL A   1      37.751  32.223  33.115  1.00  0.00     0.031 C 
ATOM     55  C   UNL A   1      39.538  28.617  27.513  1.00  0.00     0.029 A 
ATOM     56  C   UNL A   1      40.399  28.437  28.683  1.00  0.00     0.049 A 
ATOM     57  H   UNL A   1      40.140  29.263  30.576  1.00  0.00     0.167 HD
ATOM     58  C   UNL A   1      39.573  31.234  34.465  1.00  0.00     0.037 A 
ATOM     59  C   UNL A   1      41.515  27.685  28.736  1.00  0.00     0.037 A 
ATOM     60  C   UNL A   1      40.724  30.386  34.635  1.00  0.00     0.049 A 
ATOM     61  C   UNL A   1      42.296  27.614  30.022  1.00  0.00     0.074 A 
ATOM     62  C   UNL A   1      41.469  30.165  35.780  1.00  0.00     0.029 A 
ATOM     63  N   UNL A   1      41.301  29.629  33.628  1.00  0.00    -0.354 N 
ATOM     64  N   UNL A   1      42.049  28.188  31.177  1.00  0.00    -0.248 NA
ATOM     65  C   UNL A   1      43.513  26.789  30.015  1.00  0.00     0.031 C 
ATOM     66  C   UNL A   1      42.535  29.324  35.448  1.00  0.00     0.029 A 
ATOM     67  C   UNL A   1      42.415  28.965  34.115  1.00  0.00     0.049 A 
ATOM     68  H   UNL A   1      40.969  29.572  32.702  1.00  0.00     0.167 HD
ATOM     69  C   UNL A   1      43.056  27.768  32.038  1.00  0.00     0.074 A 
ATOM     70  C   UNL A   1      43.913  26.883  31.276  1.00  0.00     0.031 C 
ATOM     71  C   UNL A   1      43.253  28.082  33.343  1.00  0.00     0.037 A 
BRANCH  58  72
ATOM     72  C   UNL A   1      39.103  32.056  35.629  1.00  0.00     0.057 A 
ATOM     73  C   UNL A   1      38.252  31.537  36.615  1.00  0.00     0.134 A 
ATOM     74  C   UNL A   1      39.514  33.388  35.770  1.00  0.00     0.134 A 
ATOM     75  F   UNL A   1      37.805  30.274  36.532  1.00  0.00    -0.206 F 
ATOM     76  C   UNL A   1      37.805  32.320  37.680  1.00  0.00     0.040 A 
ATOM     77  C   UNL A   1      39.099  34.172  36.847  1.00  0.00     0.040 A 
ATOM     78  F   UNL A   1      40.329  33.949  34.862  1.00  0.00    -0.206 F 
ATOM     79  C   UNL A   1      38.234  33.641  37.801  1.00  0.00     0.006 A 
ENDBRANCH  58  72
BRANCH  59  80
ATOM     80  C   UNL A   1      41.973  26.951  27.529  1.00  0.00     0.057 A 
ATOM     81  C   UNL A   1      41.695  25.591  27.356  1.00  0.00     0.134 A 
ATOM     82  C   UNL A   1      42.712  27.589  26.525  1.00  0.00     0.134 A 
ATOM     83  F   UNL A   1      41.014  24.917  28.294  1.00  0.00    -0.206 F 
ATOM     84  C   UNL A   1      42.148  24.887  26.239  1.00  0.00     0.040 A 
ATOM     85  C   UNL A   1      43.147  26.904  25.388  1.00  0.00     0.040 A 
ATOM     86  F   UNL A   1      43.016  28.891  26.631  1.00  0.00    -0.206 F 
ATOM     87  C   UNL A   1      42.871  25.547  25.246  1.00  0.00     0.006 A 
ENDBRANCH  59  80
BRANCH  71  88
ATOM     88  C   UNL A   1      44.411  27.431  34.046  1.00  0.00     0.057 A 
ATOM     89  C   UNL A   1      45.664  28.050  34.149  1.00  0.00     0.134 A 
ATOM     90  C   UNL A   1      44.254  26.187  34.671  1.00  0.00     0.134 A 
ATOM     91  F   UNL A   1      45.887  29.237  33.565  1.00  0.00    -0.206 F 
ATOM     92  C   UNL A   1      46.725  27.443  34.825  1.00  0.00     0.040 A 
ATOM     93  C   UNL A   1      45.296  25.585  35.377  1.00  0.00     0.040 A 
ATOM     94  F   UNL A   1      43.077  25.544  34.624  1.00  0.00    -0.206 F 
ATOM     95  C   UNL A   1      46.538  26.210  35.449  1.00  0.00     0.006 A 
ENDBRANCH  71  88
ENDBRANCH  45  46
ENDBRANCH  38  40
ENDBRANCH  37  38
ENDBRANCH  36  37
ENDBRANCH  35  36
ENDBRANCH  34  35
ENDBRANCH  33  34
ENDBRANCH  32  33
ENDBRANCH  31  32
ENDBRANCH   1  31
TORSDOF 25
ENDMDL
MODEL 2
REMARK VINA RESULT:      -9.7      1.211      2.284
REMARK SMILES CC[C@](C)([NH3+])C(=O)Nc1ccc(C(F)(F)F)cc1C(=O)OCCOCCOCCOCCOC(=O)c1ccc(-c2c3nc(c(-c4c(F)cccc4F)c4ccc([nH]4)c(-c4c(F)cccc4F)c4nc(c(-c5c(F)cccc5F)c5ccc2[nH]5)C=C4)C=C3)cc1
REMARK SMILES IDX 26 1 25 2 24 3 23 4 22 5 21 6 19 7 20 8 18 9 9 10 10 11
REMARK SMILES IDX 11 12 17 13 12 14 8 15 6 16 7 17 3 19 4 20 2 21 1 22 5 23
REMARK SMILES IDX 13 27 14 28 15 29 16 30 27 31 28 32 29 33 30 34 31 35 32 36
REMARK SMILES IDX 33 37 34 38 35 39 36 40 37 41 89 42 38 43 88 44 39 45 40 46
REMARK SMILES IDX 41 47 82 48 42 49 87 50 81 51 83 52 43 53 86 54 80 55 79 56
REMARK SMILES IDX 44 58 70 59 53 60 69 61 54 62 57 63 68 64 84 65 55 66 56 67
REMARK SMILES IDX 67 69 85 70 58 71 45 72 46 73 51 74 47 75 48 76 50 77 52 78
REMARK SMILES IDX 49 79 71 80 72 81 77 82 73 83 74 84 76 85 78 86 75 87 59 88
REMARK SMILES IDX 60 89 65 90 61 91 62 92 64 93 66 94 63 95
REMARK H PARENT 8 18 5 24 5 25 5 26 83 57 57 68
REMARK Flexibility Score: inf
ROOT
ATOM      1  C   UNL A   1      33.201  28.565  22.541  1.00  0.00     0.188 C 
ENDROOT
BRANCH   1   2
ATOM      2  C   UNL A   1      33.955  27.226  22.702  1.00  0.00     0.188 C 
BRANCH   2   3
ATOM      3  O   UNL A   1      33.848  26.350  21.598  1.00  0.00    -0.376 OA
BRANCH   3   4
ATOM      4  C   UNL A   1      32.736  25.497  21.442  1.00  0.00     0.202 C 
BRANCH   4   5
ATOM      5  C   UNL A   1      32.870  24.004  21.148  1.00  0.00     0.261 C 
BRANCH   5   6
ATOM      6  O   UNL A   1      33.557  23.183  22.094  1.00  0.00    -0.460 OA
BRANCH   6   7
ATOM      7  C   UNL A   1      32.888  22.316  22.870  1.00  0.00     0.340 C 
ATOM      8  O   UNL A   1      31.845  21.751  22.585  1.00  0.00    -0.246 OA
BRANCH   7   9
ATOM      9  C   UNL A   1      33.608  22.130  24.159  1.00  0.00     0.084 A 
ATOM     10  C   UNL A   1      32.979  21.961  25.404  1.00  0.00     0.056 A 
ATOM     11  C   UNL A   1      33.757  22.027  26.571  1.00  0.00     0.027 A 
ATOM     12  C   UNL A   1      35.149  22.130  26.504  1.00  0.00     0.015 A 
ATOM     13  C   UNL A   1      35.010  22.235  24.098  1.00  0.00     0.031 A 
ATOM     14  C   UNL A   1      35.792  22.215  25.264  1.00  0.00     0.057 A 
BRANCH  10  15
ATOM     15  N   UNL A   1      31.602  21.830  25.621  1.00  0.00    -0.320 N 
ATOM     16  C   UNL A   1      30.647  22.658  26.138  1.00  0.00     0.285 C 
ATOM     17  O   UNL A   1      29.650  22.078  26.594  1.00  0.00    -0.267 OA
ATOM     18  H   UNL A   1      31.247  20.956  25.341  1.00  0.00     0.170 HD
BRANCH  16  19
ATOM     19  C   UNL A   1      30.632  24.216  25.929  1.00  0.00     0.171 C 
ATOM     20  C   UNL A   1      30.632  24.472  24.408  1.00  0.00     0.090 C 
BRANCH  19  21
ATOM     21  C   UNL A   1      31.804  24.879  26.673  1.00  0.00     0.075 C 
ATOM     22  C   UNL A   1      32.836  25.565  25.797  1.00  0.00     0.011 C 
ENDBRANCH  19  21
BRANCH  19  23
ATOM     23  N   UNL A   1      29.468  24.969  26.405  1.00  0.00    -0.345 N 
ATOM     24  H   UNL A   1      29.221  24.656  27.345  1.00  0.00     0.345 HD
ATOM     25  H   UNL A   1      28.680  24.810  25.776  1.00  0.00     0.345 HD
ATOM     26  H   UNL A   1      29.691  25.964  26.426  1.00  0.00     0.345 HD
ENDBRANCH  19  23
ENDBRANCH  16  19
ENDBRANCH  10  15
BRANCH  14  27
ATOM     27  C   UNL A   1      37.301  22.262  25.196  1.00  0.00     0.416 C 
ATOM     28  F   UNL A   1      37.891  21.878  26.361  1.00  0.00    -0.166 F 
ATOM     29  F   UNL A   1      37.792  21.434  24.235  1.00  0.00    -0.166 F 
ATOM     30  F   UNL A   1      37.790  23.499  24.917  1.00  0.00    -0.166 F 
ENDBRANCH  14  27
ENDBRANCH   7   9
ENDBRANCH   6   7
ENDBRANCH   5   6
ENDBRANCH   4   5
ENDBRANCH   3   4
ENDBRANCH   2   3
ENDBRANCH   1   2
BRANCH   1  31
ATOM     31  O   UNL A   1      32.288  28.920  23.566  1.00  0.00    -0.377 OA
BRANCH  31  32
ATOM     32  C   UNL A   1      32.763  29.438  24.807  1.00  0.00     0.188 C 
BRANCH  32  33
ATOM     33  C   UNL A   1      32.022  29.203  26.144  1.00  0.00     0.188 C 
BRANCH  33  34
ATOM     34  O   UNL A   1      31.858  30.357  26.945  1.00  0.00    -0.376 OA
BRANCH  34  35
ATOM     35  C   UNL A   1      31.408  31.563  26.361  1.00  0.00     0.202 C 
BRANCH  35  36
ATOM     36  C   UNL A   1      31.579  32.867  27.150  1.00  0.00     0.261 C 
BRANCH  36  37
ATOM     37  O   UNL A   1      32.859  33.507  27.064  1.00  0.00    -0.460 OA
BRANCH  37  38
ATOM     38  C   UNL A   1      33.394  33.995  28.201  1.00  0.00     0.338 C 
ATOM     39  O   UNL A   1      32.916  34.834  28.948  1.00  0.00    -0.246 OA
BRANCH  38  40
ATOM     40  C   UNL A   1      34.595  33.188  28.499  1.00  0.00     0.060 A 
ATOM     41  C   UNL A   1      34.463  31.809  28.720  1.00  0.00     0.016 A 
ATOM     42  C   UNL A   1      35.848  33.799  28.546  1.00  0.00     0.016 A 
ATOM     43  C   UNL A   1      35.585  31.044  29.032  1.00  0.00     0.010 A 
ATOM     44  C   UNL A   1      36.966  33.039  28.887  1.00  0.00     0.010 A 
ATOM     45  C   UNL A   1      36.830  31.668  29.172  1.00  0.00    -0.014 A 
BRANCH  45  46
ATOM     46  C   UNL A   1      37.932  30.953  29.854  1.00  0.00     0.031 A 
ATOM     47  C   UNL A   1      38.167  31.252  31.308  1.00  0.00     0.074 A 
ATOM     48  C   UNL A   1      38.697  30.057  29.210  1.00  0.00     0.049 A 
ATOM     49  N   UNL A   1      39.110  30.824  32.106  1.00  0.00    -0.248 NA
ATOM     50  C   UNL A   1      37.206  32.168  31.946  1.00  0.00     0.031 C 
ATOM     51  C   UNL A   1      38.533  29.647  27.817  1.00  0.00     0.029 A 
ATOM     52  N   UNL A   1      39.780  29.339  29.650  1.00  0.00    -0.354 N 
ATOM     53  C   UNL A   1      38.863  31.427  33.333  1.00  0.00     0.074 A 
ATOM     54  C   UNL A   1      37.703  32.275  33.167  1.00  0.00     0.031 C 
ATOM     55  C   UNL A   1      39.496  28.760  27.510  1.00  0.00     0.029 A 
ATOM     56  C   UNL A   1      40.364  28.573  28.673  1.00  0.00     0.049 A 
ATOM     57  H   UNL A   1      40.106  29.371  30.578  1.00  0.00     0.167 HD
ATOM     58  C   UNL A   1      39.540  31.284  34.495  1.00  0.00     0.037 A 
ATOM     59  C   UNL A   1      41.488  27.830  28.710  1.00  0.00     0.037 A 
ATOM     60  C   UNL A   1      40.699  30.444  34.650  1.00  0.00     0.049 A 
ATOM     61  C   UNL A   1      42.275  27.749  29.993  1.00  0.00     0.074 A 
ATOM     62  C   UNL A   1      41.452  30.215  35.787  1.00  0.00     0.029 A 
ATOM     63  N   UNL A   1      41.279  29.706  33.629  1.00  0.00    -0.354 N 
ATOM     64  N   UNL A   1      42.028  28.305  31.156  1.00  0.00    -0.248 NA
ATOM     65  C   UNL A   1      43.499  26.935  29.969  1.00  0.00     0.031 C 
ATOM     66  C   UNL A   1      42.524  29.389  35.440  1.00  0.00     0.029 A 
ATOM     67  C   UNL A   1      42.400  29.046  34.103  1.00  0.00     0.049 A 
ATOM     68  H   UNL A   1      40.943  29.659  32.704  1.00  0.00     0.167 HD
ATOM     69  C   UNL A   1      43.043  27.882  32.007  1.00  0.00     0.074 A 
ATOM     70  C   UNL A   1      43.904  27.016  31.228  1.00  0.00     0.031 C 
ATOM     71  C   UNL A   1      43.243  28.181  33.315  1.00  0.00     0.037 A 
BRANCH  58  72
ATOM     72  C   UNL A   1      39.068  32.087  35.673  1.00  0.00     0.057 A 
ATOM     73  C   UNL A   1      38.240  31.541  36.664  1.00  0.00     0.134 A 
ATOM     74  C   UNL A   1      39.454  33.425  35.821  1.00  0.00     0.134 A 
ATOM     75  F   UNL A   1      37.817  30.271  36.575  1.00  0.00    -0.206 F 
ATOM     76  C   UNL A   1      37.790  32.306  37.741  1.00  0.00     0.040 A 
ATOM     77  C   UNL A   1      39.036  34.191  36.910  1.00  0.00     0.040 A 
ATOM     78  F   UNL A   1      40.246  34.010  34.909  1.00  0.00    -0.206 F 
ATOM     79  C   UNL A   1      38.195  33.634  37.870  1.00  0.00     0.006 A 
ENDBRANCH  58  72
BRANCH  59  80
ATOM     80  C   UNL A   1      41.946  27.117  27.492  1.00  0.00     0.057 A 
ATOM     81  C   UNL A   1      41.626  25.772  27.272  1.00  0.00     0.134 A 
ATOM     82  C   UNL A   1      42.729  27.757  26.523  1.00  0.00     0.134 A 
ATOM     83  F   UNL A   1      40.901  25.096  28.175  1.00  0.00    -0.206 F 
ATOM     84  C   UNL A   1      42.078  25.087  26.143  1.00  0.00     0.040 A 
ATOM     85  C   UNL A   1      43.165  27.092  25.376  1.00  0.00     0.040 A 
ATOM     86  F   UNL A   1      43.075  29.045  26.675  1.00  0.00    -0.206 F 
ATOM     87  C   UNL A   1      42.845  25.750  25.187  1.00  0.00     0.006 A 
ENDBRANCH  59  80
BRANCH  71  88
ATOM     88  C   UNL A   1      44.410  27.531  34.003  1.00  0.00     0.057 A 
ATOM     89  C   UNL A   1      45.662  28.155  34.098  1.00  0.00     0.134 A 
ATOM     90  C   UNL A   1      44.264  26.283  34.624  1.00  0.00     0.134 A 
ATOM     91  F   UNL A   1      45.874  29.346  33.518  1.00  0.00    -0.206 F 
ATOM     92  C   UNL A   1      46.731  27.548  34.760  1.00  0.00     0.040 A 
ATOM     93  C   UNL A   1      45.315  25.682  35.317  1.00  0.00     0.040 A 
ATOM     94  F   UNL A   1      43.089  25.636  34.585  1.00  0.00    -0.206 F 
ATOM     95  C   UNL A   1      46.556  26.312  35.380  1.00  0.00     0.006 A 
ENDBRANCH  71  88
ENDBRANCH  45  46
ENDBRANCH  38  40
ENDBRANCH  37  38
ENDBRANCH  36  37
ENDBRANCH  35  36
ENDBRANCH  34  35
ENDBRANCH  33  34
ENDBRANCH  32  33
ENDBRANCH  31  32
ENDBRANCH   1  31
TORSDOF 25
ENDMDL
MODEL 3
REMARK VINA RESULT:      -9.6      3.370      8.537
REMARK SMILES CC[C@](C)([NH3+])C(=O)Nc1ccc(C(F)(F)F)cc1C(=O)OCCOCCOCCOCCOC(=O)c1ccc(-c2c3nc(c(-c4c(F)cccc4F)c4ccc([nH]4)c(-c4c(F)cccc4F)c4nc(c(-c5c(F)cccc5F)c5ccc2[nH]5)C=C4)C=C3)cc1
REMARK SMILES IDX 26 1 25 2 24 3 23 4 22 5 21 6 19 7 20 8 18 9 9 10 10 11
REMARK SMILES IDX 11 12 17 13 12 14 8 15 6 16 7 17 3 19 4 20 2 21 1 22 5 23
REMARK SMILES IDX 13 27 14 28 15 29 16 30 27 31 28 32 29 33 30 34 31 35 32 36
REMARK SMILES IDX 33 37 34 38 35 39 36 40 37 41 89 42 38 43 88 44 39 45 40 46
REMARK SMILES IDX 41 47 82 48 42 49 87 50 81 51 83 52 43 53 86 54 80 55 79 56
REMARK SMILES IDX 44 58 70 59 53 60 69 61 54 62 57 63 68 64 84 65 55 66 56 67
REMARK SMILES IDX 67 69 85 70 58 71 45 72 46 73 51 74 47 75 48 76 50 77 52 78
REMARK SMILES IDX 49 79 71 80 72 81 77 82 73 83 74 84 76 85 78 86 75 87 59 88
REMARK SMILES IDX 60 89 65 90 61 91 62 92 64 93 66 94 63 95
REMARK H PARENT 8 18 5 24 5 25 5 26 83 57 57 68
REMARK Flexibility Score: inf
ROOT
ATOM      1  C   UNL A   1      41.227  20.092  27.573  1.00  0.00     0.188 C 
ENDROOT
BRANCH   1   2
ATOM      2  C   UNL A   1      40.928  21.607  27.592  1.00  0.00     0.188 C 
BRANCH   2   3
ATOM      3  O   UNL A   1      39.653  21.966  27.100  1.00  0.00    -0.376 OA
BRANCH   3   4
ATOM      4  C   UNL A   1      39.138  21.401  25.914  1.00  0.00     0.202 C 
BRANCH   4   5
ATOM      5  C   UNL A   1      37.906  21.952  25.200  1.00  0.00     0.261 C 
BRANCH   5   6
ATOM      6  O   UNL A   1      36.614  21.581  25.686  1.00  0.00    -0.460 OA
BRANCH   6   7
ATOM      7  C   UNL A   1      35.564  22.405  25.551  1.00  0.00     0.340 C 
ATOM      8  O   UNL A   1      35.457  23.521  26.030  1.00  0.00    -0.246 OA
BRANCH   7   9
ATOM      9  C   UNL A   1      34.517  21.757  24.714  1.00  0.00     0.084 A 
ATOM     10  C   UNL A   1      33.661  22.444  23.838  1.00  0.00     0.056 A 
ATOM     11  C   UNL A   1      32.569  21.760  23.281  1.00  0.00     0.027 A 
ATOM     12  C   UNL A   1      32.399  20.388  23.484  1.00  0.00     0.015 A 
ATOM     13  C   UNL A   1      34.339  20.375  24.916  1.00  0.00     0.031 A 
ATOM     14  C   UNL A   1      33.295  19.677  24.289  1.00  0.00     0.057 A 
BRANCH  10  15
ATOM     15  N   UNL A   1      33.721  23.808  23.528  1.00  0.00    -0.320 N 
ATOM     16  C   UNL A   1      32.922  24.876  23.817  1.00  0.00     0.285 C 
ATOM     17  O   UNL A   1      33.020  25.827  23.027  1.00  0.00    -0.267 OA
ATOM     18  H   UNL A   1      34.508  24.048  22.985  1.00  0.00     0.170 HD
BRANCH  16  19
ATOM     19  C   UNL A   1      32.155  25.053  25.179  1.00  0.00     0.171 C 
ATOM     20  C   UNL A   1      30.761  24.418  25.002  1.00  0.00     0.090 C 
BRANCH  19  21
ATOM     21  C   UNL A   1      32.117  26.534  25.596  1.00  0.00     0.075 C 
ATOM     22  C   UNL A   1      30.919  27.325  25.105  1.00  0.00     0.011 C 
ENDBRANCH  19  21
BRANCH  19  23
ATOM     23  N   UNL A   1      32.690  24.386  26.369  1.00  0.00    -0.345 N 
ATOM     24  H   UNL A   1      32.845  23.399  26.164  1.00  0.00     0.345 HD
ATOM     25  H   UNL A   1      32.023  24.474  27.136  1.00  0.00     0.345 HD
ATOM     26  H   UNL A   1      33.574  24.821  26.634  1.00  0.00     0.345 HD
ENDBRANCH  19  23
ENDBRANCH  16  19
ENDBRANCH  10  15
BRANCH  14  27
ATOM     27  C   UNL A   1      33.142  18.183  24.454  1.00  0.00     0.416 C 
ATOM     28  F   UNL A   1      32.504  17.601  23.402  1.00  0.00    -0.166 F 
ATOM     29  F   UNL A   1      34.346  17.557  24.558  1.00  0.00    -0.166 F 
ATOM     30  F   UNL A   1      32.437  17.832  25.563  1.00  0.00    -0.166 F 
ENDBRANCH  14  27
ENDBRANCH   7   9
ENDBRANCH   6   7
ENDBRANCH   5   6
ENDBRANCH   4   5
ENDBRANCH   3   4
ENDBRANCH   2   3
ENDBRANCH   1   2
BRANCH   1  31
ATOM     31  O   UNL A   1      41.859  19.572  26.414  1.00  0.00    -0.377 OA
BRANCH  31  32
ATOM     32  C   UNL A   1      42.851  20.335  25.732  1.00  0.00     0.188 C 
BRANCH  32  33
ATOM     33  C   UNL A   1      44.170  19.712  25.217  1.00  0.00     0.188 C 
BRANCH  33  34
ATOM     34  O   UNL A   1      45.044  20.617  24.571  1.00  0.00    -0.376 OA
BRANCH  34  35
ATOM     35  C   UNL A   1      46.083  21.237  25.301  1.00  0.00     0.202 C 
BRANCH  35  36
ATOM     36  C   UNL A   1      46.007  22.750  25.539  1.00  0.00     0.261 C 
BRANCH  36  37
ATOM     37  O   UNL A   1      44.804  23.247  26.141  1.00  0.00    -0.460 OA
BRANCH  37  38
ATOM     38  C   UNL A   1      43.920  23.881  25.345  1.00  0.00     0.338 C 
ATOM     39  O   UNL A   1      43.627  23.606  24.192  1.00  0.00    -0.246 OA
BRANCH  38  40
ATOM     40  C   UNL A   1      43.212  24.871  26.181  1.00  0.00     0.060 A 
ATOM     41  C   UNL A   1      43.547  26.229  26.079  1.00  0.00     0.016 A 
ATOM     42  C   UNL A   1      42.209  24.450  27.056  1.00  0.00     0.016 A 
ATOM     43  C   UNL A   1      42.907  27.166  26.886  1.00  0.00     0.010 A 
ATOM     44  C   UNL A   1      41.589  25.384  27.884  1.00  0.00     0.010 A 
ATOM     45  C   UNL A   1      41.966  26.739  27.831  1.00  0.00    -0.014 A 
BRANCH  45  46
ATOM     46  C   UNL A   1      41.564  27.650  28.924  1.00  0.00     0.031 A 
ATOM     47  C   UNL A   1      42.354  27.603  30.202  1.00  0.00     0.074 A 
ATOM     48  C   UNL A   1      40.536  28.504  28.790  1.00  0.00     0.049 A 
ATOM     49  N   UNL A   1      42.157  28.236  31.329  1.00  0.00    -0.248 NA
ATOM     50  C   UNL A   1      43.526  26.711  30.208  1.00  0.00     0.031 C 
ATOM     51  C   UNL A   1      39.729  28.676  27.583  1.00  0.00     0.029 A 
ATOM     52  N   UNL A   1      39.988  29.379  29.693  1.00  0.00    -0.354 N 
ATOM     53  C   UNL A   1      43.169  27.809  32.179  1.00  0.00     0.074 A 
ATOM     54  C   UNL A   1      43.960  26.842  31.451  1.00  0.00     0.031 C 
ATOM     55  C   UNL A   1      38.774  29.591  27.828  1.00  0.00     0.029 A 
ATOM     56  C   UNL A   1      38.882  30.036  29.217  1.00  0.00     0.049 A 
ATOM     57  H   UNL A   1      40.355  29.522  30.595  1.00  0.00     0.167 HD
ATOM     58  C   UNL A   1      43.421  28.194  33.452  1.00  0.00     0.037 A 
ATOM     59  C   UNL A   1      38.037  30.878  29.846  1.00  0.00     0.037 A 
ATOM     60  C   UNL A   1      42.624  29.152  34.172  1.00  0.00     0.049 A 
ATOM     61  C   UNL A   1      38.287  31.230  31.290  1.00  0.00     0.074 A 
ATOM     62  C   UNL A   1      42.800  29.624  35.460  1.00  0.00     0.029 A 
ATOM     63  N   UNL A   1      41.493  29.774  33.667  1.00  0.00    -0.354 N 
ATOM     64  N   UNL A   1      39.256  30.840  32.085  1.00  0.00    -0.248 NA
ATOM     65  C   UNL A   1      37.325  32.141  31.926  1.00  0.00     0.031 C 
ATOM     66  C   UNL A   1      41.738  30.483  35.757  1.00  0.00     0.029 A 
ATOM     67  C   UNL A   1      40.940  30.602  34.630  1.00  0.00     0.049 A 
ATOM     68  H   UNL A   1      41.135  29.646  32.758  1.00  0.00     0.167 HD
ATOM     69  C   UNL A   1      39.040  31.482  33.298  1.00  0.00     0.074 A 
ATOM     70  C   UNL A   1      37.852  32.295  33.132  1.00  0.00     0.031 C 
ATOM     71  C   UNL A   1      39.760  31.410  34.445  1.00  0.00     0.037 A 
BRANCH  58  72
ATOM     72  C   UNL A   1      44.577  27.542  34.154  1.00  0.00     0.057 A 
ATOM     73  C   UNL A   1      45.840  28.146  34.231  1.00  0.00     0.134 A 
ATOM     74  C   UNL A   1      44.421  26.294  34.769  1.00  0.00     0.134 A 
ATOM     75  F   UNL A   1      46.063  29.334  33.647  1.00  0.00    -0.206 F 
ATOM     76  C   UNL A   1      46.911  27.518  34.867  1.00  0.00     0.040 A 
ATOM     77  C   UNL A   1      45.477  25.670  35.435  1.00  0.00     0.040 A 
ATOM     78  F   UNL A   1      43.239  25.659  34.734  1.00  0.00    -0.206 F 
ATOM     79  C   UNL A   1      46.729  26.278  35.478  1.00  0.00     0.006 A 
ENDBRANCH  58  72
BRANCH  59  80
ATOM     80  C   UNL A   1      36.867  31.434  29.121  1.00  0.00     0.057 A 
ATOM     81  C   UNL A   1      35.742  30.649  28.848  1.00  0.00     0.134 A 
ATOM     82  C   UNL A   1      36.851  32.759  28.669  1.00  0.00     0.134 A 
ATOM     83  F   UNL A   1      35.706  29.364  29.231  1.00  0.00    -0.206 F 
ATOM     84  C   UNL A   1      34.650  31.155  28.140  1.00  0.00     0.040 A 
ATOM     85  C   UNL A   1      35.755  33.287  27.985  1.00  0.00     0.040 A 
ATOM     86  F   UNL A   1      37.901  33.564  28.895  1.00  0.00    -0.206 F 
ATOM     87  C   UNL A   1      34.652  32.482  27.713  1.00  0.00     0.006 A 
ENDBRANCH  59  80
BRANCH  71  88
ATOM     88  C   UNL A   1      39.314  32.264  35.599  1.00  0.00     0.057 A 
ATOM     89  C   UNL A   1      39.718  33.599  35.738  1.00  0.00     0.134 A 
ATOM     90  C   UNL A   1      38.428  31.755  36.558  1.00  0.00     0.134 A 
ATOM     91  F   UNL A   1      40.573  34.147  34.861  1.00  0.00    -0.206 F 
ATOM     92  C   UNL A   1      39.277  34.387  36.803  1.00  0.00     0.040 A 
ATOM     93  C   UNL A   1      37.955  32.543  37.608  1.00  0.00     0.040 A 
ATOM     94  F   UNL A   1      37.991  30.490  36.479  1.00  0.00    -0.206 F 
ATOM     95  C   UNL A   1      38.386  33.861  37.737  1.00  0.00     0.006 A 
ENDBRANCH  71  88
ENDBRANCH  45  46
ENDBRANCH  38  40
ENDBRANCH  37  38
ENDBRANCH  36  37
ENDBRANCH  35  36
ENDBRANCH  34  35
ENDBRANCH  33  34
ENDBRANCH  32  33
ENDBRANCH  31  32
ENDBRANCH   1  31
TORSDOF 25
ENDMDL
