MODEL 1
REMARK VINA RESULT:     -10.1      0.000      0.000
REMARK SMILES O=C(C[C@H]1CN(S(=O)(=O)N2CCCCC2)CCO1)OCCOCCOCCOCCOC(=O)c1ccc(-c2c3nc(c(-c4c(F)cccc4F)c4ccc([nH]4)c(-c4c(F)cccc4F)c4nc(c(-c5c(F)cccc5F)c5ccc2[nH]5)C=C4)C=C3)cc1
REMARK SMILES IDX 24 1 23 2 22 3 21 4 20 5 19 6 2 7 1 8 3 9 4 10 5 11 18 12
REMARK SMILES IDX 6 13 17 14 16 15 7 16 8 17 9 18 10 19 11 20 15 21 12 22
REMARK SMILES IDX 14 23 13 24 25 25 26 26 27 27 28 28 29 29 30 30 31 31 32 32
REMARK SMILES IDX 33 33 34 34 35 35 87 36 36 37 86 38 37 39 38 40 39 41 80 42
REMARK SMILES IDX 40 43 85 44 79 45 81 46 41 47 84 48 78 49 77 50 42 52 68 53
REMARK SMILES IDX 51 54 67 55 52 56 55 57 66 58 82 59 53 60 54 61 65 63 83 64
REMARK SMILES IDX 56 65 43 66 44 67 49 68 45 69 46 70 48 71 50 72 47 73 69 74
REMARK SMILES IDX 70 75 75 76 71 77 72 78 74 79 76 80 73 81 57 82 58 83 63 84
REMARK SMILES IDX 59 85 60 86 62 87 64 88 61 89
REMARK H PARENT 81 51 55 62
REMARK Flexibility Score: inf
ROOT
ATOM      1  C   UNL A   1      40.237  21.521  26.162  1.00  0.00     0.188 C 
ENDROOT
BRANCH   1   2
ATOM      2  C   UNL A   1      38.907  22.185  25.771  1.00  0.00     0.188 C 
BRANCH   2   3
ATOM      3  O   UNL A   1      37.586  21.657  25.870  1.00  0.00    -0.376 OA
BRANCH   3   4
ATOM      4  C   UNL A   1      36.344  22.023  25.292  1.00  0.00     0.202 C 
BRANCH   4   5
ATOM      5  C   UNL A   1      36.172  22.804  23.989  1.00  0.00     0.261 C 
BRANCH   5   6
ATOM      6  O   UNL A   1      34.875  22.736  23.432  1.00  0.00    -0.463 OA
BRANCH   6   7
ATOM      7  C   UNL A   1      33.823  23.246  24.111  1.00  0.00     0.308 C 
ATOM      8  O   UNL A   1      32.986  22.467  24.551  1.00  0.00    -0.252 OA
BRANCH   7   9
ATOM      9  C   UNL A   1      33.658  24.755  24.132  1.00  0.00     0.156 C 
BRANCH   9  10
ATOM     10  C   UNL A   1      33.516  25.499  25.434  1.00  0.00     0.144 C 
ATOM     11  C   UNL A   1      33.155  26.977  25.170  1.00  0.00     0.136 C 
ATOM     12  O   UNL A   1      32.673  24.892  26.403  1.00  0.00    -0.375 OA
ATOM     13  N   UNL A   1      31.722  27.191  24.847  1.00  0.00    -0.184 NA
ATOM     14  C   UNL A   1      31.279  25.062  26.124  1.00  0.00     0.177 C 
ATOM     15  C   UNL A   1      30.884  26.523  25.902  1.00  0.00     0.132 C 
BRANCH  13  16
ATOM     16  S   UNL A   1      31.060  27.160  23.288  1.00  0.00     0.282 S 
ATOM     17  O   UNL A   1      32.061  27.507  22.323  1.00  0.00    -0.195 OA
ATOM     18  O   UNL A   1      30.378  25.881  23.176  1.00  0.00    -0.195 OA
BRANCH  16  19
ATOM     19  N   UNL A   1      29.874  28.355  23.287  1.00  0.00    -0.189 NA
ATOM     20  C   UNL A   1      28.472  27.905  23.334  1.00  0.00     0.103 C 
ATOM     21  C   UNL A   1      30.158  29.704  23.831  1.00  0.00     0.103 C 
ATOM     22  C   UNL A   1      27.550  28.970  22.750  1.00  0.00     0.017 C 
ATOM     23  C   UNL A   1      29.155  30.758  23.358  1.00  0.00     0.017 C 
ATOM     24  C   UNL A   1      27.715  30.282  23.501  1.00  0.00     0.003 C 
ENDBRANCH  16  19
ENDBRANCH  13  16
ENDBRANCH   9  10
ENDBRANCH   7   9
ENDBRANCH   6   7
ENDBRANCH   5   6
ENDBRANCH   4   5
ENDBRANCH   3   4
ENDBRANCH   2   3
ENDBRANCH   1   2
BRANCH   1  25
ATOM     25  O   UNL A   1      40.335  20.939  27.448  1.00  0.00    -0.377 OA
BRANCH  25  26
ATOM     26  C   UNL A   1      41.321  19.938  27.522  1.00  0.00     0.188 C 
BRANCH  26  27
ATOM     27  C   UNL A   1      41.704  19.369  26.138  1.00  0.00     0.188 C 
BRANCH  27  28
ATOM     28  O   UNL A   1      43.061  19.139  25.812  1.00  0.00    -0.376 OA
BRANCH  28  29
ATOM     29  C   UNL A   1      43.833  20.139  25.162  1.00  0.00     0.202 C 
BRANCH  29  30
ATOM     30  C   UNL A   1      44.347  21.426  25.842  1.00  0.00     0.261 C 
BRANCH  30  31
ATOM     31  O   UNL A   1      43.411  22.481  26.072  1.00  0.00    -0.460 OA
BRANCH  31  32
ATOM     32  C   UNL A   1      43.686  23.673  25.493  1.00  0.00     0.338 C 
ATOM     33  O   UNL A   1      44.186  23.872  24.401  1.00  0.00    -0.246 OA
BRANCH  32  34
ATOM     34  C   UNL A   1      43.037  24.719  26.313  1.00  0.00     0.060 A 
ATOM     35  C   UNL A   1      43.325  26.071  26.050  1.00  0.00     0.016 A 
ATOM     36  C   UNL A   1      42.094  24.368  27.279  1.00  0.00     0.016 A 
ATOM     37  C   UNL A   1      42.670  27.079  26.755  1.00  0.00     0.010 A 
ATOM     38  C   UNL A   1      41.487  25.373  28.028  1.00  0.00     0.010 A 
ATOM     39  C   UNL A   1      41.799  26.725  27.790  1.00  0.00    -0.014 A 
BRANCH  39  40
ATOM     40  C   UNL A   1      41.466  27.712  28.838  1.00  0.00     0.031 A 
ATOM     41  C   UNL A   1      42.246  27.624  30.116  1.00  0.00     0.074 A 
ATOM     42  C   UNL A   1      40.474  28.603  28.693  1.00  0.00     0.049 A 
ATOM     43  N   UNL A   1      42.035  28.210  31.264  1.00  0.00    -0.248 NA
ATOM     44  C   UNL A   1      43.413  26.726  30.099  1.00  0.00     0.031 C 
ATOM     45  C   UNL A   1      39.689  28.811  27.480  1.00  0.00     0.029 A 
ATOM     46  N   UNL A   1      39.937  29.475  29.605  1.00  0.00    -0.354 N 
ATOM     47  C   UNL A   1      43.023  27.727  32.112  1.00  0.00     0.074 A 
ATOM     48  C   UNL A   1      43.820  26.790  31.354  1.00  0.00     0.031 C 
ATOM     49  C   UNL A   1      38.735  29.723  27.738  1.00  0.00     0.029 A 
ATOM     50  C   UNL A   1      38.818  30.120  29.143  1.00  0.00     0.049 A 
ATOM     51  H   UNL A   1      40.316  29.622  30.502  1.00  0.00     0.167 HD
ATOM     52  C   UNL A   1      43.238  28.028  33.412  1.00  0.00     0.037 A 
ATOM     53  C   UNL A   1      37.936  30.898  29.802  1.00  0.00     0.037 A 
ATOM     54  C   UNL A   1      42.421  28.944  34.159  1.00  0.00     0.049 A 
ATOM     55  C   UNL A   1      38.144  31.172  31.269  1.00  0.00     0.074 A 
ATOM     56  C   UNL A   1      42.556  29.343  35.475  1.00  0.00     0.029 A 
ATOM     57  N   UNL A   1      41.299  29.586  33.653  1.00  0.00    -0.354 N 
ATOM     58  N   UNL A   1      39.090  30.733  32.067  1.00  0.00    -0.248 NA
ATOM     59  C   UNL A   1      37.165  32.047  31.928  1.00  0.00     0.031 C 
ATOM     60  C   UNL A   1      41.477  30.177  35.785  1.00  0.00     0.029 A 
ATOM     61  C   UNL A   1      40.713  30.357  34.641  1.00  0.00     0.049 A 
ATOM     62  H   UNL A   1      40.970  29.506  32.729  1.00  0.00     0.167 HD
ATOM     63  C   UNL A   1      38.839  31.303  33.310  1.00  0.00     0.074 A 
ATOM     64  C   UNL A   1      37.651  32.118  33.161  1.00  0.00     0.031 C 
ATOM     65  C   UNL A   1      39.535  31.172  34.468  1.00  0.00     0.037 A 
BRANCH  52  66
ATOM     66  C   UNL A   1      44.357  27.306  34.103  1.00  0.00     0.057 A 
ATOM     67  C   UNL A   1      44.173  26.070  34.738  1.00  0.00     0.134 A 
ATOM     68  C   UNL A   1      45.634  27.879  34.166  1.00  0.00     0.134 A 
ATOM     69  F   UNL A   1      42.969  25.478  34.738  1.00  0.00    -0.206 F 
ATOM     70  C   UNL A   1      45.204  25.452  35.448  1.00  0.00     0.040 A 
ATOM     71  C   UNL A   1      46.683  27.253  34.841  1.00  0.00     0.040 A 
ATOM     72  F   UNL A   1      45.882  29.060  33.582  1.00  0.00    -0.206 F 
ATOM     73  C   UNL A   1      46.466  26.042  35.496  1.00  0.00     0.006 A 
ENDBRANCH  52  66
BRANCH  53  74
ATOM     74  C   UNL A   1      36.763  31.445  29.077  1.00  0.00     0.057 A 
ATOM     75  C   UNL A   1      35.631  30.660  28.828  1.00  0.00     0.134 A 
ATOM     76  C   UNL A   1      36.732  32.776  28.639  1.00  0.00     0.134 A 
ATOM     77  F   UNL A   1      35.609  29.373  29.203  1.00  0.00    -0.206 F 
ATOM     78  C   UNL A   1      34.513  31.176  28.171  1.00  0.00     0.040 A 
ATOM     79  C   UNL A   1      35.612  33.312  28.003  1.00  0.00     0.040 A 
ATOM     80  F   UNL A   1      37.785  33.580  28.845  1.00  0.00    -0.206 F 
ATOM     81  C   UNL A   1      34.497  32.509  27.765  1.00  0.00     0.006 A 
ENDBRANCH  53  74
BRANCH  65  82
ATOM     82  C   UNL A   1      39.075  31.968  35.656  1.00  0.00     0.057 A 
ATOM     83  C   UNL A   1      39.440  33.306  35.846  1.00  0.00     0.134 A 
ATOM     84  C   UNL A   1      38.181  31.406  36.577  1.00  0.00     0.134 A 
ATOM     85  F   UNL A   1      40.299  33.903  35.006  1.00  0.00    -0.206 F 
ATOM     86  C   UNL A   1      38.943  34.051  36.917  1.00  0.00     0.040 A 
ATOM     87  C   UNL A   1      37.654  32.149  37.633  1.00  0.00     0.040 A 
ATOM     88  F   UNL A   1      37.781  30.131  36.446  1.00  0.00    -0.206 F 
ATOM     89  C   UNL A   1      38.037  33.475  37.807  1.00  0.00     0.006 A 
ENDBRANCH  65  82
ENDBRANCH  39  40
ENDBRANCH  32  34
ENDBRANCH  31  32
ENDBRANCH  30  31
ENDBRANCH  29  30
ENDBRANCH  28  29
ENDBRANCH  27  28
ENDBRANCH  26  27
ENDBRANCH  25  26
ENDBRANCH   1  25
TORSDOF 23
ENDMDL
MODEL 2
REMARK VINA RESULT:     -10.0      1.261      2.058
REMARK SMILES O=C(C[C@H]1CN(S(=O)(=O)N2CCCCC2)CCO1)OCCOCCOCCOCCOC(=O)c1ccc(-c2c3nc(c(-c4c(F)cccc4F)c4ccc([nH]4)c(-c4c(F)cccc4F)c4nc(c(-c5c(F)cccc5F)c5ccc2[nH]5)C=C4)C=C3)cc1
REMARK SMILES IDX 24 1 23 2 22 3 21 4 20 5 19 6 2 7 1 8 3 9 4 10 5 11 18 12
REMARK SMILES IDX 6 13 17 14 16 15 7 16 8 17 9 18 10 19 11 20 15 21 12 22
REMARK SMILES IDX 14 23 13 24 25 25 26 26 27 27 28 28 29 29 30 30 31 31 32 32
REMARK SMILES IDX 33 33 34 34 35 35 87 36 36 37 86 38 37 39 38 40 39 41 80 42
REMARK SMILES IDX 40 43 85 44 79 45 81 46 41 47 84 48 78 49 77 50 42 52 68 53
REMARK SMILES IDX 51 54 67 55 52 56 55 57 66 58 82 59 53 60 54 61 65 63 83 64
REMARK SMILES IDX 56 65 43 66 44 67 49 68 45 69 46 70 48 71 50 72 47 73 69 74
REMARK SMILES IDX 70 75 75 76 71 77 72 78 74 79 76 80 73 81 57 82 58 83 63 84
REMARK SMILES IDX 59 85 60 86 62 87 64 88 61 89
REMARK H PARENT 81 51 55 62
REMARK Flexibility Score: inf
ROOT
ATOM      1  C   UNL A   1      40.461  21.107  26.349  1.00  0.00     0.188 C 
ENDROOT
BRANCH   1   2
ATOM      2  C   UNL A   1      39.035  21.658  26.189  1.00  0.00     0.188 C 
BRANCH   2   3
ATOM      3  O   UNL A   1      38.182  21.600  25.048  1.00  0.00    -0.376 OA
BRANCH   3   4
ATOM      4  C   UNL A   1      36.775  21.538  24.885  1.00  0.00     0.202 C 
BRANCH   4   5
ATOM      5  C   UNL A   1      35.752  21.556  26.022  1.00  0.00     0.261 C 
BRANCH   5   6
ATOM      6  O   UNL A   1      35.433  22.846  26.501  1.00  0.00    -0.463 OA
BRANCH   6   7
ATOM      7  C   UNL A   1      35.002  23.797  25.642  1.00  0.00     0.308 C 
ATOM      8  O   UNL A   1      35.839  24.405  24.986  1.00  0.00    -0.252 OA
BRANCH   7   9
ATOM      9  C   UNL A   1      33.530  24.168  25.676  1.00  0.00     0.156 C 
BRANCH   9  10
ATOM     10  C   UNL A   1      32.499  23.304  24.998  1.00  0.00     0.144 C 
ATOM     11  C   UNL A   1      31.356  24.175  24.436  1.00  0.00     0.136 C 
ATOM     12  O   UNL A   1      33.002  22.377  24.047  1.00  0.00    -0.375 OA
ATOM     13  N   UNL A   1      31.693  24.846  23.156  1.00  0.00    -0.184 NA
ATOM     14  C   UNL A   1      33.353  22.982  22.798  1.00  0.00     0.177 C 
ATOM     15  C   UNL A   1      32.222  23.816  22.195  1.00  0.00     0.132 C 
BRANCH  13  16
ATOM     16  S   UNL A   1      32.401  26.379  23.016  1.00  0.00     0.282 S 
ATOM     17  O   UNL A   1      33.755  26.254  22.562  1.00  0.00    -0.195 OA
ATOM     18  O   UNL A   1      31.462  27.176  22.243  1.00  0.00    -0.195 OA
BRANCH  16  19
ATOM     19  N   UNL A   1      32.413  27.006  24.579  1.00  0.00    -0.189 NA
ATOM     20  C   UNL A   1      33.602  27.779  24.980  1.00  0.00     0.103 C 
ATOM     21  C   UNL A   1      31.145  27.327  25.275  1.00  0.00     0.103 C 
ATOM     22  C   UNL A   1      33.757  27.770  26.496  1.00  0.00     0.017 C 
ATOM     23  C   UNL A   1      31.316  27.455  26.790  1.00  0.00     0.017 C 
ATOM     24  C   UNL A   1      32.508  28.329  27.158  1.00  0.00     0.003 C 
ENDBRANCH  16  19
ENDBRANCH  13  16
ENDBRANCH   9  10
ENDBRANCH   7   9
ENDBRANCH   6   7
ENDBRANCH   5   6
ENDBRANCH   4   5
ENDBRANCH   3   4
ENDBRANCH   2   3
ENDBRANCH   1   2
BRANCH   1  25
ATOM     25  O   UNL A   1      40.827  20.570  27.607  1.00  0.00    -0.377 OA
BRANCH  25  26
ATOM     26  C   UNL A   1      41.849  19.608  27.514  1.00  0.00     0.188 C 
BRANCH  26  27
ATOM     27  C   UNL A   1      42.196  19.239  26.055  1.00  0.00     0.188 C 
BRANCH  27  28
ATOM     28  O   UNL A   1      43.547  19.144  25.645  1.00  0.00    -0.376 OA
BRANCH  28  29
ATOM     29  C   UNL A   1      44.230  20.276  25.124  1.00  0.00     0.202 C 
BRANCH  29  30
ATOM     30  C   UNL A   1      44.502  21.574  25.914  1.00  0.00     0.261 C 
BRANCH  30  31
ATOM     31  O   UNL A   1      43.496  22.590  25.896  1.00  0.00    -0.460 OA
BRANCH  31  32
ATOM     32  C   UNL A   1      43.873  23.808  25.442  1.00  0.00     0.338 C 
ATOM     33  O   UNL A   1      44.483  24.066  24.421  1.00  0.00    -0.246 OA
BRANCH  32  34
ATOM     34  C   UNL A   1      43.190  24.818  26.279  1.00  0.00     0.060 A 
ATOM     35  C   UNL A   1      43.327  26.181  25.955  1.00  0.00     0.016 A 
ATOM     36  C   UNL A   1      42.360  24.416  27.326  1.00  0.00     0.016 A 
ATOM     37  C   UNL A   1      42.633  27.148  26.680  1.00  0.00     0.010 A 
ATOM     38  C   UNL A   1      41.717  25.387  28.091  1.00  0.00     0.010 A 
ATOM     39  C   UNL A   1      41.880  26.752  27.790  1.00  0.00    -0.014 A 
BRANCH  39  40
ATOM     40  C   UNL A   1      41.534  27.742  28.831  1.00  0.00     0.031 A 
ATOM     41  C   UNL A   1      42.304  27.663  30.116  1.00  0.00     0.074 A 
ATOM     42  C   UNL A   1      40.538  28.627  28.675  1.00  0.00     0.049 A 
ATOM     43  N   UNL A   1      42.081  28.253  31.259  1.00  0.00    -0.248 NA
ATOM     44  C   UNL A   1      43.476  26.771  30.111  1.00  0.00     0.031 C 
ATOM     45  C   UNL A   1      39.761  28.826  27.456  1.00  0.00     0.029 A 
ATOM     46  N   UNL A   1      39.989  29.499  29.580  1.00  0.00    -0.354 N 
ATOM     47  C   UNL A   1      43.065  27.778  32.116  1.00  0.00     0.074 A 
ATOM     48  C   UNL A   1      43.873  26.842  31.369  1.00  0.00     0.031 C 
ATOM     49  C   UNL A   1      38.800  29.733  27.702  1.00  0.00     0.029 A 
ATOM     50  C   UNL A   1      38.870  30.136  29.107  1.00  0.00     0.049 A 
ATOM     51  H   UNL A   1      40.360  29.652  30.478  1.00  0.00     0.167 HD
ATOM     52  C   UNL A   1      43.269  28.086  33.417  1.00  0.00     0.037 A 
ATOM     53  C   UNL A   1      37.978  30.912  29.755  1.00  0.00     0.037 A 
ATOM     54  C   UNL A   1      42.440  29.000  34.154  1.00  0.00     0.049 A 
ATOM     55  C   UNL A   1      38.174  31.193  31.223  1.00  0.00     0.074 A 
ATOM     56  C   UNL A   1      42.563  29.405  35.470  1.00  0.00     0.029 A 
ATOM     57  N   UNL A   1      41.318  29.634  33.638  1.00  0.00    -0.354 N 
ATOM     58  N   UNL A   1      39.115  30.762  32.030  1.00  0.00    -0.248 NA
ATOM     59  C   UNL A   1      37.184  32.065  31.871  1.00  0.00     0.031 C 
ATOM     60  C   UNL A   1      41.477  30.234  35.768  1.00  0.00     0.029 A 
ATOM     61  C   UNL A   1      40.721  30.406  34.618  1.00  0.00     0.049 A 
ATOM     62  H   UNL A   1      40.997  29.548  32.711  1.00  0.00     0.167 HD
ATOM     63  C   UNL A   1      38.852  31.335  33.269  1.00  0.00     0.074 A 
ATOM     64  C   UNL A   1      37.661  32.144  33.107  1.00  0.00     0.031 C 
ATOM     65  C   UNL A   1      39.540  31.213  34.433  1.00  0.00     0.037 A 
BRANCH  52  66
ATOM     66  C   UNL A   1      44.386  27.373  34.120  1.00  0.00     0.057 A 
ATOM     67  C   UNL A   1      44.246  26.072  34.624  1.00  0.00     0.134 A 
ATOM     68  C   UNL A   1      45.613  28.016  34.328  1.00  0.00     0.134 A 
ATOM     69  F   UNL A   1      43.089  25.409  34.481  1.00  0.00    -0.206 F 
ATOM     70  C   UNL A   1      45.268  25.455  35.349  1.00  0.00     0.040 A 
ATOM     71  C   UNL A   1      46.655  27.395  35.019  1.00  0.00     0.040 A 
ATOM     72  F   UNL A   1      45.817  29.261  33.874  1.00  0.00    -0.206 F 
ATOM     73  C   UNL A   1      46.479  26.117  35.543  1.00  0.00     0.006 A 
ENDBRANCH  52  66
BRANCH  53  74
ATOM     74  C   UNL A   1      36.808  31.450  29.019  1.00  0.00     0.057 A 
ATOM     75  C   UNL A   1      35.696  30.648  28.737  1.00  0.00     0.134 A 
ATOM     76  C   UNL A   1      36.760  32.787  28.603  1.00  0.00     0.134 A 
ATOM     77  F   UNL A   1      35.691  29.354  29.090  1.00  0.00    -0.206 F 
ATOM     78  C   UNL A   1      34.580  31.154  28.069  1.00  0.00     0.040 A 
ATOM     79  C   UNL A   1      35.641  33.313  27.956  1.00  0.00     0.040 A 
ATOM     80  F   UNL A   1      37.794  33.607  28.841  1.00  0.00    -0.206 F 
ATOM     81  C   UNL A   1      34.546  32.494  27.686  1.00  0.00     0.006 A 
ENDBRANCH  53  74
BRANCH  65  82
ATOM     82  C   UNL A   1      39.066  32.011  35.613  1.00  0.00     0.057 A 
ATOM     83  C   UNL A   1      38.248  31.463  36.607  1.00  0.00     0.134 A 
ATOM     84  C   UNL A   1      39.512  33.328  35.797  1.00  0.00     0.134 A 
ATOM     85  F   UNL A   1      37.779  30.211  36.490  1.00  0.00    -0.206 F 
ATOM     86  C   UNL A   1      37.880  32.199  37.735  1.00  0.00     0.040 A 
ATOM     87  C   UNL A   1      39.176  34.063  36.934  1.00  0.00     0.040 A 
ATOM     88  F   UNL A   1      40.309  33.909  34.887  1.00  0.00    -0.206 F 
ATOM     89  C   UNL A   1      38.354  33.499  37.906  1.00  0.00     0.006 A 
ENDBRANCH  65  82
ENDBRANCH  39  40
ENDBRANCH  32  34
ENDBRANCH  31  32
ENDBRANCH  30  31
ENDBRANCH  29  30
ENDBRANCH  28  29
ENDBRANCH  27  28
ENDBRANCH  26  27
ENDBRANCH  25  26
ENDBRANCH   1  25
TORSDOF 23
ENDMDL
MODEL 3
REMARK VINA RESULT:      -9.7      1.717      6.436
REMARK SMILES O=C(C[C@H]1CN(S(=O)(=O)N2CCCCC2)CCO1)OCCOCCOCCOCCOC(=O)c1ccc(-c2c3nc(c(-c4c(F)cccc4F)c4ccc([nH]4)c(-c4c(F)cccc4F)c4nc(c(-c5c(F)cccc5F)c5ccc2[nH]5)C=C4)C=C3)cc1
REMARK SMILES IDX 24 1 23 2 22 3 21 4 20 5 19 6 2 7 1 8 3 9 4 10 5 11 18 12
REMARK SMILES IDX 6 13 17 14 16 15 7 16 8 17 9 18 10 19 11 20 15 21 12 22
REMARK SMILES IDX 14 23 13 24 25 25 26 26 27 27 28 28 29 29 30 30 31 31 32 32
REMARK SMILES IDX 33 33 34 34 35 35 87 36 36 37 86 38 37 39 38 40 39 41 80 42
REMARK SMILES IDX 40 43 85 44 79 45 81 46 41 47 84 48 78 49 77 50 42 52 68 53
REMARK SMILES IDX 51 54 67 55 52 56 55 57 66 58 82 59 53 60 54 61 65 63 83 64
REMARK SMILES IDX 56 65 43 66 44 67 49 68 45 69 46 70 48 71 50 72 47 73 69 74
REMARK SMILES IDX 70 75 75 76 71 77 72 78 74 79 76 80 73 81 57 82 58 83 63 84
REMARK SMILES IDX 59 85 60 86 62 87 64 88 61 89
REMARK H PARENT 81 51 55 62
REMARK Flexibility Score: inf
ROOT
ATOM      1  C   UNL A   1      41.846  19.458  26.155  1.00  0.00     0.188 C 
ENDROOT
BRANCH   1   2
ATOM      2  C   UNL A   1      41.414  20.887  26.523  1.00  0.00     0.188 C 
BRANCH   2   3
ATOM      3  O   UNL A   1      40.107  21.374  26.817  1.00  0.00    -0.376 OA
BRANCH   3   4
ATOM      4  C   UNL A   1      39.422  22.576  26.508  1.00  0.00     0.202 C 
BRANCH   4   5
ATOM      5  C   UNL A   1      38.010  22.664  25.927  1.00  0.00     0.261 C 
BRANCH   5   6
ATOM      6  O   UNL A   1      37.783  21.826  24.813  1.00  0.00    -0.463 OA
BRANCH   6   7
ATOM      7  C   UNL A   1      36.905  20.802  24.907  1.00  0.00     0.308 C 
ATOM      8  O   UNL A   1      37.351  19.667  25.023  1.00  0.00    -0.252 OA
BRANCH   7   9
ATOM      9  C   UNL A   1      35.434  21.107  24.687  1.00  0.00     0.156 C 
BRANCH   9  10
ATOM     10  C   UNL A   1      34.490  21.238  25.854  1.00  0.00     0.144 C 
ATOM     11  C   UNL A   1      34.006  22.697  25.990  1.00  0.00     0.136 C 
ATOM     12  O   UNL A   1      33.424  20.300  25.892  1.00  0.00    -0.375 OA
ATOM     13  N   UNL A   1      32.933  23.061  25.031  1.00  0.00    -0.184 NA
ATOM     14  C   UNL A   1      32.370  20.604  24.972  1.00  0.00     0.177 C 
ATOM     15  C   UNL A   1      31.840  22.032  25.115  1.00  0.00     0.132 C 
BRANCH  13  16
ATOM     16  S   UNL A   1      33.187  23.704  23.484  1.00  0.00     0.282 S 
ATOM     17  O   UNL A   1      34.531  24.187  23.368  1.00  0.00    -0.195 OA
ATOM     18  O   UNL A   1      32.712  22.691  22.555  1.00  0.00    -0.195 OA
BRANCH  16  19
ATOM     19  N   UNL A   1      32.133  25.013  23.370  1.00  0.00    -0.189 NA
ATOM     20  C   UNL A   1      32.321  25.925  22.229  1.00  0.00     0.103 C 
ATOM     21  C   UNL A   1      30.769  24.938  23.944  1.00  0.00     0.103 C 
ATOM     22  C   UNL A   1      31.752  27.303  22.548  1.00  0.00     0.017 C 
ATOM     23  C   UNL A   1      30.132  26.314  24.142  1.00  0.00     0.017 C 
ATOM     24  C   UNL A   1      30.278  27.195  22.908  1.00  0.00     0.003 C 
ENDBRANCH  16  19
ENDBRANCH  13  16
ENDBRANCH   9  10
ENDBRANCH   7   9
ENDBRANCH   6   7
ENDBRANCH   5   6
ENDBRANCH   4   5
ENDBRANCH   3   4
ENDBRANCH   2   3
ENDBRANCH   1   2
BRANCH   1  25
ATOM     25  O   UNL A   1      42.643  19.282  24.999  1.00  0.00    -0.377 OA
BRANCH  25  26
ATOM     26  C   UNL A   1      43.927  18.788  25.291  1.00  0.00     0.188 C 
BRANCH  26  27
ATOM     27  C   UNL A   1      45.056  19.731  24.819  1.00  0.00     0.188 C 
BRANCH  27  28
ATOM     28  O   UNL A   1      44.841  20.613  23.733  1.00  0.00    -0.376 OA
BRANCH  28  29
ATOM     29  C   UNL A   1      44.643  22.003  23.954  1.00  0.00     0.202 C 
BRANCH  29  30
ATOM     30  C   UNL A   1      45.357  22.825  25.049  1.00  0.00     0.261 C 
BRANCH  30  31
ATOM     31  O   UNL A   1      44.565  23.710  25.844  1.00  0.00    -0.460 OA
BRANCH  31  32
ATOM     32  C   UNL A   1      44.761  25.035  25.654  1.00  0.00     0.338 C 
ATOM     33  O   UNL A   1      45.311  25.579  24.714  1.00  0.00    -0.246 OA
BRANCH  32  34
ATOM     34  C   UNL A   1      43.960  25.748  26.673  1.00  0.00     0.060 A 
ATOM     35  C   UNL A   1      44.199  27.116  26.898  1.00  0.00     0.016 A 
ATOM     36  C   UNL A   1      42.931  25.087  27.344  1.00  0.00     0.016 A 
ATOM     37  C   UNL A   1      43.409  27.829  27.797  1.00  0.00     0.010 A 
ATOM     38  C   UNL A   1      42.183  25.784  28.290  1.00  0.00     0.010 A 
ATOM     39  C   UNL A   1      42.443  27.144  28.541  1.00  0.00    -0.014 A 
BRANCH  39  40
ATOM     40  C   UNL A   1      41.932  27.732  29.796  1.00  0.00     0.031 A 
ATOM     41  C   UNL A   1      40.706  28.589  29.686  1.00  0.00     0.074 A 
ATOM     42  C   UNL A   1      42.561  27.572  30.970  1.00  0.00     0.049 A 
ATOM     43  N   UNL A   1      40.165  29.388  30.566  1.00  0.00    -0.248 NA
ATOM     44  C   UNL A   1      40.011  28.556  28.388  1.00  0.00     0.031 C 
ATOM     45  C   UNL A   1      43.725  26.723  31.202  1.00  0.00     0.029 A 
ATOM     46  N   UNL A   1      42.318  28.163  32.184  1.00  0.00    -0.354 N 
ATOM     47  C   UNL A   1      39.087  29.975  29.917  1.00  0.00     0.074 A 
ATOM     48  C   UNL A   1      39.060  29.456  28.569  1.00  0.00     0.031 C 
ATOM     49  C   UNL A   1      44.127  26.883  32.475  1.00  0.00     0.029 A 
ATOM     50  C   UNL A   1      43.275  27.880  33.124  1.00  0.00     0.049 A 
ATOM     51  H   UNL A   1      41.536  28.733  32.361  1.00  0.00     0.167 HD
ATOM     52  C   UNL A   1      38.204  30.878  30.400  1.00  0.00     0.037 A 
ATOM     53  C   UNL A   1      43.466  28.410  34.349  1.00  0.00     0.037 A 
ATOM     54  C   UNL A   1      38.259  31.404  31.735  1.00  0.00     0.049 A 
ATOM     55  C   UNL A   1      42.518  29.468  34.852  1.00  0.00     0.074 A 
ATOM     56  C   UNL A   1      37.406  32.307  32.341  1.00  0.00     0.029 A 
ATOM     57  N   UNL A   1      39.240  31.086  32.665  1.00  0.00    -0.354 N 
ATOM     58  N   UNL A   1      41.486  30.008  34.248  1.00  0.00    -0.248 NA
ATOM     59  C   UNL A   1      42.761  29.991  36.203  1.00  0.00     0.031 C 
ATOM     60  C   UNL A   1      37.909  32.586  33.616  1.00  0.00     0.029 A 
ATOM     61  C   UNL A   1      39.031  31.799  33.832  1.00  0.00     0.049 A 
ATOM     62  H   UNL A   1      39.974  30.448  32.516  1.00  0.00     0.167 HD
ATOM     63  C   UNL A   1      40.937  30.908  35.155  1.00  0.00     0.074 A 
ATOM     64  C   UNL A   1      41.753  30.842  36.350  1.00  0.00     0.031 C 
ATOM     65  C   UNL A   1      39.851  31.710  35.016  1.00  0.00     0.037 A 
BRANCH  52  66
ATOM     66  C   UNL A   1      37.161  31.388  29.449  1.00  0.00     0.057 A 
ATOM     67  C   UNL A   1      37.217  32.673  28.893  1.00  0.00     0.134 A 
ATOM     68  C   UNL A   1      36.060  30.588  29.114  1.00  0.00     0.134 A 
ATOM     69  F   UNL A   1      38.231  33.499  29.191  1.00  0.00    -0.206 F 
ATOM     70  C   UNL A   1      36.196  33.161  28.075  1.00  0.00     0.040 A 
ATOM     71  C   UNL A   1      35.051  31.052  28.269  1.00  0.00     0.040 A 
ATOM     72  F   UNL A   1      35.941  29.348  29.610  1.00  0.00    -0.206 F 
ATOM     73  C   UNL A   1      35.111  32.347  27.758  1.00  0.00     0.006 A 
ENDBRANCH  52  66
BRANCH  53  74
ATOM     74  C   UNL A   1      44.622  27.963  35.165  1.00  0.00     0.057 A 
ATOM     75  C   UNL A   1      44.546  26.816  35.964  1.00  0.00     0.134 A 
ATOM     76  C   UNL A   1      45.840  28.655  35.145  1.00  0.00     0.134 A 
ATOM     77  F   UNL A   1      43.401  26.124  36.043  1.00  0.00    -0.206 F 
ATOM     78  C   UNL A   1      45.639  26.374  36.713  1.00  0.00     0.040 A 
ATOM     79  C   UNL A   1      46.947  28.211  35.869  1.00  0.00     0.040 A 
ATOM     80  F   UNL A   1      45.977  29.763  34.401  1.00  0.00    -0.206 F 
ATOM     81  C   UNL A   1      46.847  27.066  36.658  1.00  0.00     0.006 A 
ENDBRANCH  53  74
BRANCH  65  82
ATOM     82  C   UNL A   1      39.435  32.538  36.198  1.00  0.00     0.057 A 
ATOM     83  C   UNL A   1      39.952  33.817  36.433  1.00  0.00     0.134 A 
ATOM     84  C   UNL A   1      38.435  32.076  37.065  1.00  0.00     0.134 A 
ATOM     85  F   UNL A   1      40.918  34.316  35.646  1.00  0.00    -0.206 F 
ATOM     86  C   UNL A   1      39.499  34.602  37.495  1.00  0.00     0.040 A 
ATOM     87  C   UNL A   1      37.952  32.863  38.111  1.00  0.00     0.040 A 
ATOM     88  F   UNL A   1      37.888  30.863  36.888  1.00  0.00    -0.206 F 
ATOM     89  C   UNL A   1      38.487  34.129  38.330  1.00  0.00     0.006 A 
ENDBRANCH  65  82
ENDBRANCH  39  40
ENDBRANCH  32  34
ENDBRANCH  31  32
ENDBRANCH  30  31
ENDBRANCH  29  30
ENDBRANCH  28  29
ENDBRANCH  27  28
ENDBRANCH  26  27
ENDBRANCH  25  26
ENDBRANCH   1  25
TORSDOF 23
ENDMDL
