MODEL 1
REMARK VINA RESULT:      -9.8      0.000      0.000
REMARK SMILES Nc1ccc(SCc2ccc(C(=O)OCCOCCOCCOCCOC(=O)c3ccc(-c4c5nc(c(-c6c(F)cccc6F)c6ccc([nH]6)c(-c6c(F)cccc6F)c6nc(c(-c7c(F)cccc7F)c7ccc4[nH]7)C=C6)C=C5)cc3)o2)cc1
REMARK SMILES IDX 19 1 18 2 17 3 16 4 15 5 14 6 12 7 13 8 11 9 8 10 9 11 83 12
REMARK SMILES IDX 10 13 7 14 6 15 5 16 2 17 3 18 85 19 4 20 84 21 1 22 20 25
REMARK SMILES IDX 21 26 22 27 23 28 24 29 25 30 26 31 27 32 28 33 29 34 30 35
REMARK SMILES IDX 82 36 31 37 81 38 32 39 33 40 34 41 75 42 35 43 80 44 74 45
REMARK SMILES IDX 76 46 36 47 79 48 73 49 72 50 37 52 63 53 46 54 62 55 47 56
REMARK SMILES IDX 50 57 61 58 77 59 48 60 49 61 60 63 78 64 51 65 38 66 39 67
REMARK SMILES IDX 44 68 40 69 41 70 43 71 45 72 42 73 64 74 65 75 70 76 66 77
REMARK SMILES IDX 67 78 69 79 71 80 68 81 52 82 53 83 58 84 54 85 55 86 57 87
REMARK SMILES IDX 59 88 56 89
REMARK H PARENT 1 23 1 24 76 51 50 62
REMARK Flexibility Score: inf
ROOT
ATOM      1  C   UNL A   1      41.829  19.774  26.850  1.00  0.00     0.188 C 
ENDROOT
BRANCH   1   2
ATOM      2  C   UNL A   1      40.496  20.379  26.388  1.00  0.00     0.188 C 
BRANCH   2   3
ATOM      3  O   UNL A   1      40.105  21.535  27.132  1.00  0.00    -0.376 OA
BRANCH   3   4
ATOM      4  C   UNL A   1      39.187  22.401  26.473  1.00  0.00     0.202 C 
BRANCH   4   5
ATOM      5  C   UNL A   1      38.288  21.672  25.465  1.00  0.00     0.261 C 
BRANCH   5   6
ATOM      6  O   UNL A   1      37.189  22.451  24.974  1.00  0.00    -0.457 OA
BRANCH   6   7
ATOM      7  C   UNL A   1      35.943  22.053  25.346  1.00  0.00     0.374 C 
ATOM      8  O   UNL A   1      35.686  21.473  26.395  1.00  0.00    -0.242 OA
BRANCH   7   9
ATOM      9  C   UNL A   1      34.994  22.534  24.373  1.00  0.00     0.211 A 
ATOM     10  C   UNL A   1      32.964  23.098  23.696  1.00  0.00     0.115 A 
ATOM     11  C   UNL A   1      33.838  23.506  22.708  1.00  0.00     0.047 A 
ATOM     12  O   UNL A   1      33.667  22.491  24.696  1.00  0.00    -0.453 OA
ATOM     13  C   UNL A   1      35.139  23.157  23.147  1.00  0.00     0.058 A 
BRANCH  10  14
ATOM     14  C   UNL A   1      31.477  23.166  23.810  1.00  0.00     0.150 C 
BRANCH  14  15
ATOM     15  S   UNL A   1      30.805  24.491  24.865  1.00  0.00    -0.118 SA
BRANCH  15  16
ATOM     16  C   UNL A   1      31.789  25.934  24.468  1.00  0.00     0.008 A 
ATOM     17  C   UNL A   1      33.364  28.104  23.554  1.00  0.00     0.031 A 
ATOM     18  C   UNL A   1      32.222  27.712  22.857  1.00  0.00     0.026 A 
ATOM     19  C   UNL A   1      33.653  27.471  24.759  1.00  0.00     0.026 A 
ATOM     20  C   UNL A   1      31.455  26.625  23.298  1.00  0.00     0.017 A 
ATOM     21  C   UNL A   1      32.873  26.402  25.215  1.00  0.00     0.017 A 
BRANCH  17  22
ATOM     22  N   UNL A   1      34.116  29.190  23.133  1.00  0.00    -0.399 N 
ATOM     23  H   UNL A   1      34.954  29.418  23.594  1.00  0.00     0.156 HD
ATOM     24  H   UNL A   1      33.810  29.734  22.371  1.00  0.00     0.156 HD
ENDBRANCH  17  22
ENDBRANCH  15  16
ENDBRANCH  14  15
ENDBRANCH  10  14
ENDBRANCH   7   9
ENDBRANCH   6   7
ENDBRANCH   5   6
ENDBRANCH   4   5
ENDBRANCH   3   4
ENDBRANCH   2   3
ENDBRANCH   1   2
BRANCH   1  25
ATOM     25  O   UNL A   1      42.242  18.604  26.167  1.00  0.00    -0.377 OA
BRANCH  25  26
ATOM     26  C   UNL A   1      43.632  18.402  25.922  1.00  0.00     0.188 C 
BRANCH  26  27
ATOM     27  C   UNL A   1      44.407  19.189  24.843  1.00  0.00     0.188 C 
BRANCH  27  28
ATOM     28  O   UNL A   1      45.612  19.797  25.295  1.00  0.00    -0.376 OA
BRANCH  28  29
ATOM     29  C   UNL A   1      45.614  21.217  25.366  1.00  0.00     0.202 C 
BRANCH  29  30
ATOM     30  C   UNL A   1      44.322  21.842  24.835  1.00  0.00     0.261 C 
BRANCH  30  31
ATOM     31  O   UNL A   1      43.788  22.881  25.669  1.00  0.00    -0.460 OA
BRANCH  31  32
ATOM     32  C   UNL A   1      44.208  24.138  25.409  1.00  0.00     0.338 C 
ATOM     33  O   UNL A   1      44.966  24.500  24.527  1.00  0.00    -0.246 OA
BRANCH  32  34
ATOM     34  C   UNL A   1      43.462  25.056  26.286  1.00  0.00     0.060 A 
ATOM     35  C   UNL A   1      43.837  26.404  26.317  1.00  0.00     0.016 A 
ATOM     36  C   UNL A   1      42.417  24.584  27.084  1.00  0.00     0.016 A 
ATOM     37  C   UNL A   1      43.189  27.281  27.186  1.00  0.00     0.010 A 
ATOM     38  C   UNL A   1      41.779  25.458  27.963  1.00  0.00     0.010 A 
ATOM     39  C   UNL A   1      42.187  26.800  28.043  1.00  0.00    -0.014 A 
BRANCH  39  40
ATOM     40  C   UNL A   1      41.701  27.647  29.154  1.00  0.00     0.031 A 
ATOM     41  C   UNL A   1      42.403  27.557  30.479  1.00  0.00     0.074 A 
ATOM     42  C   UNL A   1      40.655  28.474  28.993  1.00  0.00     0.049 A 
ATOM     43  N   UNL A   1      42.145  28.180  31.600  1.00  0.00    -0.248 NA
ATOM     44  C   UNL A   1      43.549  26.634  30.551  1.00  0.00     0.031 C 
ATOM     45  C   UNL A   1      39.903  28.659  27.754  1.00  0.00     0.029 A 
ATOM     46  N   UNL A   1      40.039  29.307  29.892  1.00  0.00    -0.354 N 
ATOM     47  C   UNL A   1      43.097  27.731  32.505  1.00  0.00     0.074 A 
ATOM     48  C   UNL A   1      43.918  26.760  31.816  1.00  0.00     0.031 C 
ATOM     49  C   UNL A   1      38.914  29.544  27.974  1.00  0.00     0.029 A 
ATOM     50  C   UNL A   1      38.956  29.970  29.373  1.00  0.00     0.049 A 
ATOM     51  H   UNL A   1      40.346  29.419  30.820  1.00  0.00     0.167 HD
ATOM     52  C   UNL A   1      43.279  28.101  33.794  1.00  0.00     0.037 A 
ATOM     53  C   UNL A   1      38.090  30.812  29.969  1.00  0.00     0.037 A 
ATOM     54  C   UNL A   1      42.456  29.055  34.487  1.00  0.00     0.049 A 
ATOM     55  C   UNL A   1      38.272  31.159  31.422  1.00  0.00     0.074 A 
ATOM     56  C   UNL A   1      42.573  29.513  35.786  1.00  0.00     0.029 A 
ATOM     57  N   UNL A   1      41.353  29.686  33.935  1.00  0.00    -0.354 N 
ATOM     58  N   UNL A   1      39.204  30.765  32.257  1.00  0.00    -0.248 NA
ATOM     59  C   UNL A   1      37.282  32.070  32.015  1.00  0.00     0.031 C 
ATOM     60  C   UNL A   1      41.515  30.395  36.033  1.00  0.00     0.029 A 
ATOM     61  C   UNL A   1      40.762  30.512  34.875  1.00  0.00     0.049 A 
ATOM     62  H   UNL A   1      41.035  29.565  33.011  1.00  0.00     0.167 HD
ATOM     63  C   UNL A   1      38.925  31.395  33.464  1.00  0.00     0.074 A 
ATOM     64  C   UNL A   1      37.744  32.206  33.251  1.00  0.00     0.031 C 
ATOM     65  C   UNL A   1      39.588  31.312  34.644  1.00  0.00     0.037 A 
BRANCH  52  66
ATOM     66  C   UNL A   1      44.406  27.452  34.537  1.00  0.00     0.057 A 
ATOM     67  C   UNL A   1      44.249  26.212  35.169  1.00  0.00     0.134 A 
ATOM     68  C   UNL A   1      45.659  28.069  34.616  1.00  0.00     0.134 A 
ATOM     69  F   UNL A   1      43.065  25.581  35.146  1.00  0.00    -0.206 F 
ATOM     70  C   UNL A   1      45.297  25.617  35.873  1.00  0.00     0.040 A 
ATOM     71  C   UNL A   1      46.721  27.474  35.299  1.00  0.00     0.040 A 
ATOM     72  F   UNL A   1      45.872  29.258  34.033  1.00  0.00    -0.206 F 
ATOM     73  C   UNL A   1      46.539  26.246  35.934  1.00  0.00     0.006 A 
ENDBRANCH  52  66
BRANCH  53  74
ATOM     74  C   UNL A   1      36.962  31.386  29.196  1.00  0.00     0.057 A 
ATOM     75  C   UNL A   1      35.842  30.613  28.868  1.00  0.00     0.134 A 
ATOM     76  C   UNL A   1      36.988  32.711  28.747  1.00  0.00     0.134 A 
ATOM     77  F   UNL A   1      35.774  29.329  29.250  1.00  0.00    -0.206 F 
ATOM     78  C   UNL A   1      34.794  31.132  28.107  1.00  0.00     0.040 A 
ATOM     79  C   UNL A   1      35.937  33.249  28.002  1.00  0.00     0.040 A 
ATOM     80  F   UNL A   1      38.034  33.501  29.028  1.00  0.00    -0.206 F 
ATOM     81  C   UNL A   1      34.838  32.456  27.675  1.00  0.00     0.006 A 
ENDBRANCH  53  74
BRANCH  65  82
ATOM     82  C   UNL A   1      39.065  32.132  35.785  1.00  0.00     0.057 A 
ATOM     83  C   UNL A   1      38.203  31.590  36.746  1.00  0.00     0.134 A 
ATOM     84  C   UNL A   1      39.463  33.464  35.947  1.00  0.00     0.134 A 
ATOM     85  F   UNL A   1      37.777  30.322  36.639  1.00  0.00    -0.206 F 
ATOM     86  C   UNL A   1      37.742  32.351  37.821  1.00  0.00     0.040 A 
ATOM     87  C   UNL A   1      39.025  34.230  37.029  1.00  0.00     0.040 A 
ATOM     88  F   UNL A   1      40.293  34.040  35.065  1.00  0.00    -0.206 F 
ATOM     89  C   UNL A   1      38.158  33.674  37.967  1.00  0.00     0.006 A 
ENDBRANCH  65  82
ENDBRANCH  39  40
ENDBRANCH  32  34
ENDBRANCH  31  32
ENDBRANCH  30  31
ENDBRANCH  29  30
ENDBRANCH  28  29
ENDBRANCH  27  28
ENDBRANCH  26  27
ENDBRANCH  25  26
ENDBRANCH   1  25
TORSDOF 24
ENDMDL
MODEL 2
REMARK VINA RESULT:      -9.5      4.141      9.050
REMARK SMILES Nc1ccc(SCc2ccc(C(=O)OCCOCCOCCOCCOC(=O)c3ccc(-c4c5nc(c(-c6c(F)cccc6F)c6ccc([nH]6)c(-c6c(F)cccc6F)c6nc(c(-c7c(F)cccc7F)c7ccc4[nH]7)C=C6)C=C5)cc3)o2)cc1
REMARK SMILES IDX 19 1 18 2 17 3 16 4 15 5 14 6 12 7 13 8 11 9 8 10 9 11 83 12
REMARK SMILES IDX 10 13 7 14 6 15 5 16 2 17 3 18 85 19 4 20 84 21 1 22 20 25
REMARK SMILES IDX 21 26 22 27 23 28 24 29 25 30 26 31 27 32 28 33 29 34 30 35
REMARK SMILES IDX 82 36 31 37 81 38 32 39 33 40 34 41 75 42 35 43 80 44 74 45
REMARK SMILES IDX 76 46 36 47 79 48 73 49 72 50 37 52 63 53 46 54 62 55 47 56
REMARK SMILES IDX 50 57 61 58 77 59 48 60 49 61 60 63 78 64 51 65 38 66 39 67
REMARK SMILES IDX 44 68 40 69 41 70 43 71 45 72 42 73 64 74 65 75 70 76 66 77
REMARK SMILES IDX 67 78 69 79 71 80 68 81 52 82 53 83 58 84 54 85 55 86 57 87
REMARK SMILES IDX 59 88 56 89
REMARK H PARENT 1 23 1 24 76 51 50 62
REMARK Flexibility Score: inf
ROOT
ATOM      1  C   UNL A   1      32.617  23.560  23.600  1.00  0.00     0.188 C 
ENDROOT
BRANCH   1   2
ATOM      2  C   UNL A   1      32.781  24.785  22.690  1.00  0.00     0.188 C 
BRANCH   2   3
ATOM      3  O   UNL A   1      32.647  26.031  23.378  1.00  0.00    -0.376 OA
BRANCH   3   4
ATOM      4  C   UNL A   1      31.310  26.488  23.554  1.00  0.00     0.202 C 
BRANCH   4   5
ATOM      5  C   UNL A   1      31.060  27.095  24.941  1.00  0.00     0.261 C 
BRANCH   5   6
ATOM      6  O   UNL A   1      32.227  27.635  25.575  1.00  0.00    -0.457 OA
BRANCH   6   7
ATOM      7  C   UNL A   1      32.074  28.098  26.845  1.00  0.00     0.374 C 
ATOM      8  O   UNL A   1      31.280  27.639  27.657  1.00  0.00    -0.242 OA
BRANCH   7   9
ATOM      9  C   UNL A   1      33.071  29.110  27.091  1.00  0.00     0.211 A 
ATOM     10  C   UNL A   1      33.728  31.164  27.585  1.00  0.00     0.115 A 
ATOM     11  C   UNL A   1      34.857  30.369  27.620  1.00  0.00     0.047 A 
ATOM     12  O   UNL A   1      32.650  30.401  27.245  1.00  0.00    -0.453 OA
ATOM     13  C   UNL A   1      34.434  29.052  27.316  1.00  0.00     0.058 A 
BRANCH  10  14
ATOM     14  C   UNL A   1      33.527  32.629  27.795  1.00  0.00     0.150 C 
BRANCH  14  15
ATOM     15  S   UNL A   1      34.944  33.552  28.474  1.00  0.00    -0.118 SA
BRANCH  15  16
ATOM     16  C   UNL A   1      34.258  34.515  29.821  1.00  0.00     0.008 A 
ATOM     17  C   UNL A   1      33.144  35.771  32.102  1.00  0.00     0.031 A 
ATOM     18  C   UNL A   1      34.213  34.885  32.230  1.00  0.00     0.026 A 
ATOM     19  C   UNL A   1      32.706  36.099  30.822  1.00  0.00     0.026 A 
ATOM     20  C   UNL A   1      34.751  34.248  31.104  1.00  0.00     0.017 A 
ATOM     21  C   UNL A   1      33.259  35.483  29.694  1.00  0.00     0.017 A 
BRANCH  17  22
ATOM     22  N   UNL A   1      32.621  36.419  33.211  1.00  0.00    -0.399 N 
ATOM     23  H   UNL A   1      33.066  37.221  33.569  1.00  0.00     0.156 HD
ATOM     24  H   UNL A   1      31.804  36.077  33.640  1.00  0.00     0.156 HD
ENDBRANCH  17  22
ENDBRANCH  15  16
ENDBRANCH  14  15
ENDBRANCH  10  14
ENDBRANCH   7   9
ENDBRANCH   6   7
ENDBRANCH   5   6
ENDBRANCH   4   5
ENDBRANCH   3   4
ENDBRANCH   2   3
ENDBRANCH   1   2
BRANCH   1  25
ATOM     25  O   UNL A   1      32.830  23.788  24.981  1.00  0.00    -0.377 OA
BRANCH  25  26
ATOM     26  C   UNL A   1      32.594  22.724  25.900  1.00  0.00     0.188 C 
BRANCH  26  27
ATOM     27  C   UNL A   1      33.227  21.326  25.732  1.00  0.00     0.188 C 
BRANCH  27  28
ATOM     28  O   UNL A   1      34.638  21.282  25.914  1.00  0.00    -0.376 OA
BRANCH  28  29
ATOM     29  C   UNL A   1      35.421  21.077  24.744  1.00  0.00     0.202 C 
BRANCH  29  30
ATOM     30  C   UNL A   1      36.727  20.330  25.024  1.00  0.00     0.261 C 
BRANCH  30  31
ATOM     31  O   UNL A   1      37.897  21.160  24.983  1.00  0.00    -0.460 OA
BRANCH  31  32
ATOM     32  C   UNL A   1      38.924  20.793  25.779  1.00  0.00     0.338 C 
ATOM     33  O   UNL A   1      39.410  19.683  25.901  1.00  0.00    -0.246 OA
BRANCH  32  34
ATOM     34  C   UNL A   1      39.488  22.013  26.382  1.00  0.00     0.060 A 
ATOM     35  C   UNL A   1      38.902  23.245  26.073  1.00  0.00     0.016 A 
ATOM     36  C   UNL A   1      40.597  21.938  27.228  1.00  0.00     0.016 A 
ATOM     37  C   UNL A   1      39.458  24.420  26.579  1.00  0.00     0.010 A 
ATOM     38  C   UNL A   1      41.161  23.114  27.722  1.00  0.00     0.010 A 
ATOM     39  C   UNL A   1      40.615  24.359  27.371  1.00  0.00    -0.014 A 
BRANCH  39  40
ATOM     40  C   UNL A   1      41.367  25.597  27.670  1.00  0.00     0.031 A 
ATOM     41  C   UNL A   1      40.678  26.676  28.457  1.00  0.00     0.074 A 
ATOM     42  C   UNL A   1      42.631  25.764  27.249  1.00  0.00     0.049 A 
ATOM     43  N   UNL A   1      41.123  27.851  28.820  1.00  0.00    -0.248 NA
ATOM     44  C   UNL A   1      39.299  26.393  28.889  1.00  0.00     0.031 C 
ATOM     45  C   UNL A   1      43.408  24.785  26.492  1.00  0.00     0.029 A 
ATOM     46  N   UNL A   1      43.479  26.832  27.394  1.00  0.00    -0.354 N 
ATOM     47  C   UNL A   1      40.084  28.443  29.526  1.00  0.00     0.074 A 
ATOM     48  C   UNL A   1      38.976  27.514  29.513  1.00  0.00     0.031 C 
ATOM     49  C   UNL A   1      44.620  25.304  26.226  1.00  0.00     0.029 A 
ATOM     50  C   UNL A   1      44.693  26.657  26.779  1.00  0.00     0.049 A 
ATOM     51  H   UNL A   1      43.239  27.646  27.893  1.00  0.00     0.167 HD
ATOM     52  C   UNL A   1      40.058  29.649  30.139  1.00  0.00     0.037 A 
ATOM     53  C   UNL A   1      45.735  27.502  26.665  1.00  0.00     0.037 A 
ATOM     54  C   UNL A   1      41.152  30.581  30.141  1.00  0.00     0.049 A 
ATOM     55  C   UNL A   1      45.658  28.865  27.299  1.00  0.00     0.074 A 
ATOM     56  C   UNL A   1      41.231  31.819  30.752  1.00  0.00     0.029 A 
ATOM     57  N   UNL A   1      42.357  30.378  29.486  1.00  0.00    -0.354 N 
ATOM     58  N   UNL A   1      44.689  29.397  28.004  1.00  0.00    -0.248 NA
ATOM     59  C   UNL A   1      46.823  29.745  27.122  1.00  0.00     0.031 C 
ATOM     60  C   UNL A   1      42.471  32.383  30.435  1.00  0.00     0.029 A 
ATOM     61  C   UNL A   1      43.177  31.480  29.656  1.00  0.00     0.049 A 
ATOM     62  H   UNL A   1      42.594  29.571  28.975  1.00  0.00     0.167 HD
ATOM     63  C   UNL A   1      45.134  30.662  28.372  1.00  0.00     0.074 A 
ATOM     64  C   UNL A   1      46.465  30.813  27.822  1.00  0.00     0.031 C 
ATOM     65  C   UNL A   1      44.500  31.612  29.102  1.00  0.00     0.037 A 
BRANCH  52  66
ATOM     66  C   UNL A   1      38.791  30.028  30.842  1.00  0.00     0.057 A 
ATOM     67  C   UNL A   1      37.790  30.769  30.202  1.00  0.00     0.134 A 
ATOM     68  C   UNL A   1      38.568  29.645  32.169  1.00  0.00     0.134 A 
ATOM     69  F   UNL A   1      37.955  31.183  28.936  1.00  0.00    -0.206 F 
ATOM     70  C   UNL A   1      36.617  31.133  30.865  1.00  0.00     0.040 A 
ATOM     71  C   UNL A   1      37.390  29.985  32.837  1.00  0.00     0.040 A 
ATOM     72  F   UNL A   1      39.490  28.936  32.839  1.00  0.00    -0.206 F 
ATOM     73  C   UNL A   1      36.413  30.736  32.185  1.00  0.00     0.006 A 
ENDBRANCH  52  66
BRANCH  53  74
ATOM     74  C   UNL A   1      46.945  27.092  25.913  1.00  0.00     0.057 A 
ATOM     75  C   UNL A   1      47.097  27.408  24.558  1.00  0.00     0.134 A 
ATOM     76  C   UNL A   1      47.965  26.353  26.524  1.00  0.00     0.134 A 
ATOM     77  F   UNL A   1      46.140  28.092  23.914  1.00  0.00    -0.206 F 
ATOM     78  C   UNL A   1      48.213  26.991  23.832  1.00  0.00     0.040 A 
ATOM     79  C   UNL A   1      49.096  25.947  25.814  1.00  0.00     0.040 A 
ATOM     80  F   UNL A   1      47.876  26.018  27.819  1.00  0.00    -0.206 F 
ATOM     81  C   UNL A   1      49.219  26.261  24.462  1.00  0.00     0.006 A 
ENDBRANCH  53  74
BRANCH  65  82
ATOM     82  C   UNL A   1      45.242  32.887  29.363  1.00  0.00     0.057 A 
ATOM     83  C   UNL A   1      46.011  33.068  30.520  1.00  0.00     0.134 A 
ATOM     84  C   UNL A   1      45.222  33.929  28.428  1.00  0.00     0.134 A 
ATOM     85  F   UNL A   1      46.060  32.111  31.459  1.00  0.00    -0.206 F 
ATOM     86  C   UNL A   1      46.721  34.248  30.744  1.00  0.00     0.040 A 
ATOM     87  C   UNL A   1      45.945  35.105  28.631  1.00  0.00     0.040 A 
ATOM     88  F   UNL A   1      44.511  33.815  27.296  1.00  0.00    -0.206 F 
ATOM     89  C   UNL A   1      46.694  35.268  29.794  1.00  0.00     0.006 A 
ENDBRANCH  65  82
ENDBRANCH  39  40
ENDBRANCH  32  34
ENDBRANCH  31  32
ENDBRANCH  30  31
ENDBRANCH  29  30
ENDBRANCH  28  29
ENDBRANCH  27  28
ENDBRANCH  26  27
ENDBRANCH  25  26
ENDBRANCH   1  25
TORSDOF 24
ENDMDL
MODEL 3
REMARK VINA RESULT:      -9.4      2.501      3.654
REMARK SMILES Nc1ccc(SCc2ccc(C(=O)OCCOCCOCCOCCOC(=O)c3ccc(-c4c5nc(c(-c6c(F)cccc6F)c6ccc([nH]6)c(-c6c(F)cccc6F)c6nc(c(-c7c(F)cccc7F)c7ccc4[nH]7)C=C6)C=C5)cc3)o2)cc1
REMARK SMILES IDX 19 1 18 2 17 3 16 4 15 5 14 6 12 7 13 8 11 9 8 10 9 11 83 12
REMARK SMILES IDX 10 13 7 14 6 15 5 16 2 17 3 18 85 19 4 20 84 21 1 22 20 25
REMARK SMILES IDX 21 26 22 27 23 28 24 29 25 30 26 31 27 32 28 33 29 34 30 35
REMARK SMILES IDX 82 36 31 37 81 38 32 39 33 40 34 41 75 42 35 43 80 44 74 45
REMARK SMILES IDX 76 46 36 47 79 48 73 49 72 50 37 52 63 53 46 54 62 55 47 56
REMARK SMILES IDX 50 57 61 58 77 59 48 60 49 61 60 63 78 64 51 65 38 66 39 67
REMARK SMILES IDX 44 68 40 69 41 70 43 71 45 72 42 73 64 74 65 75 70 76 66 77
REMARK SMILES IDX 67 78 69 79 71 80 68 81 52 82 53 83 58 84 54 85 55 86 57 87
REMARK SMILES IDX 59 88 56 89
REMARK H PARENT 1 23 1 24 76 51 50 62
REMARK Flexibility Score: inf
ROOT
ATOM      1  C   UNL A   1      39.485  21.460  26.361  1.00  0.00     0.188 C 
ENDROOT
BRANCH   1   2
ATOM      2  C   UNL A   1      38.323  21.996  25.514  1.00  0.00     0.188 C 
BRANCH   2   3
ATOM      3  O   UNL A   1      37.035  21.605  25.995  1.00  0.00    -0.376 OA
BRANCH   3   4
ATOM      4  C   UNL A   1      36.132  22.674  26.257  1.00  0.00     0.202 C 
BRANCH   4   5
ATOM      5  C   UNL A   1      36.379  23.901  25.369  1.00  0.00     0.261 C 
BRANCH   5   6
ATOM      6  O   UNL A   1      35.216  24.380  24.678  1.00  0.00    -0.457 OA
BRANCH   6   7
ATOM      7  C   UNL A   1      34.310  25.074  25.416  1.00  0.00     0.374 C 
ATOM      8  O   UNL A   1      34.407  26.264  25.691  1.00  0.00    -0.242 OA
BRANCH   7   9
ATOM      9  C   UNL A   1      33.188  24.213  25.700  1.00  0.00     0.211 A 
ATOM     10  C   UNL A   1      32.066  22.311  25.561  1.00  0.00     0.115 A 
ATOM     11  C   UNL A   1      31.416  23.086  26.503  1.00  0.00     0.047 A 
ATOM     12  O   UNL A   1      33.128  23.007  25.063  1.00  0.00    -0.453 OA
ATOM     13  C   UNL A   1      32.143  24.298  26.601  1.00  0.00     0.058 A 
BRANCH  10  14
ATOM     14  C   UNL A   1      31.778  20.955  25.008  1.00  0.00     0.150 C 
BRANCH  14  15
ATOM     15  S   UNL A   1      33.009  20.276  23.848  1.00  0.00    -0.118 SA
BRANCH  15  16
ATOM     16  C   UNL A   1      33.034  18.516  24.188  1.00  0.00     0.008 A 
ATOM     17  C   UNL A   1      33.171  15.809  25.010  1.00  0.00     0.031 A 
ATOM     18  C   UNL A   1      32.492  16.752  25.781  1.00  0.00     0.026 A 
ATOM     19  C   UNL A   1      33.690  16.209  23.782  1.00  0.00     0.026 A 
ATOM     20  C   UNL A   1      32.442  18.095  25.385  1.00  0.00     0.017 A 
ATOM     21  C   UNL A   1      33.619  17.545  23.373  1.00  0.00     0.017 A 
BRANCH  17  22
ATOM     22  N   UNL A   1      33.206  14.475  25.387  1.00  0.00    -0.399 N 
ATOM     23  H   UNL A   1      32.471  14.093  25.917  1.00  0.00     0.156 HD
ATOM     24  H   UNL A   1      33.968  13.910  25.123  1.00  0.00     0.156 HD
ENDBRANCH  17  22
ENDBRANCH  15  16
ENDBRANCH  14  15
ENDBRANCH  10  14
ENDBRANCH   7   9
ENDBRANCH   6   7
ENDBRANCH   5   6
ENDBRANCH   4   5
ENDBRANCH   3   4
ENDBRANCH   2   3
ENDBRANCH   1   2
BRANCH   1  25
ATOM     25  O   UNL A   1      39.699  20.061  26.295  1.00  0.00    -0.377 OA
BRANCH  25  26
ATOM     26  C   UNL A   1      41.028  19.575  26.117  1.00  0.00     0.188 C 
BRANCH  26  27
ATOM     27  C   UNL A   1      42.273  20.456  26.355  1.00  0.00     0.188 C 
BRANCH  27  28
ATOM     28  O   UNL A   1      43.215  20.462  25.287  1.00  0.00    -0.376 OA
BRANCH  28  29
ATOM     29  C   UNL A   1      44.271  21.409  25.383  1.00  0.00     0.202 C 
BRANCH  29  30
ATOM     30  C   UNL A   1      44.262  22.429  24.240  1.00  0.00     0.261 C 
BRANCH  30  31
ATOM     31  O   UNL A   1      43.616  23.668  24.567  1.00  0.00    -0.460 OA
BRANCH  31  32
ATOM     32  C   UNL A   1      44.410  24.659  25.026  1.00  0.00     0.338 C 
ATOM     33  O   UNL A   1      45.541  24.931  24.665  1.00  0.00    -0.246 OA
BRANCH  32  34
ATOM     34  C   UNL A   1      43.615  25.487  25.948  1.00  0.00     0.060 A 
ATOM     35  C   UNL A   1      43.836  26.869  25.966  1.00  0.00     0.016 A 
ATOM     36  C   UNL A   1      42.677  24.900  26.800  1.00  0.00     0.016 A 
ATOM     37  C   UNL A   1      43.143  27.667  26.876  1.00  0.00     0.010 A 
ATOM     38  C   UNL A   1      41.995  25.696  27.719  1.00  0.00     0.010 A 
ATOM     39  C   UNL A   1      42.252  27.076  27.784  1.00  0.00    -0.014 A 
BRANCH  39  40
ATOM     40  C   UNL A   1      41.736  27.862  28.925  1.00  0.00     0.031 A 
ATOM     41  C   UNL A   1      42.439  27.744  30.248  1.00  0.00     0.074 A 
ATOM     42  C   UNL A   1      40.664  28.660  28.794  1.00  0.00     0.049 A 
ATOM     43  N   UNL A   1      42.159  28.314  31.391  1.00  0.00    -0.248 NA
ATOM     44  C   UNL A   1      43.614  26.858  30.287  1.00  0.00     0.031 C 
ATOM     45  C   UNL A   1      39.908  28.868  27.561  1.00  0.00     0.029 A 
ATOM     46  N   UNL A   1      40.019  29.437  29.723  1.00  0.00    -0.354 N 
ATOM     47  C   UNL A   1      43.124  27.862  32.281  1.00  0.00     0.074 A 
ATOM     48  C   UNL A   1      43.978  26.946  31.557  1.00  0.00     0.031 C 
ATOM     49  C   UNL A   1      38.890  29.710  27.812  1.00  0.00     0.029 A 
ATOM     50  C   UNL A   1      38.915  30.083  29.227  1.00  0.00     0.049 A 
ATOM     51  H   UNL A   1      40.321  29.523  30.656  1.00  0.00     0.167 HD
ATOM     52  C   UNL A   1      43.292  28.188  33.584  1.00  0.00     0.037 A 
ATOM     53  C   UNL A   1      38.022  30.872  29.852  1.00  0.00     0.037 A 
ATOM     54  C   UNL A   1      42.436  29.086  34.311  1.00  0.00     0.049 A 
ATOM     55  C   UNL A   1      38.190  31.169  31.318  1.00  0.00     0.074 A 
ATOM     56  C   UNL A   1      42.536  29.497  35.627  1.00  0.00     0.029 A 
ATOM     57  N   UNL A   1      41.314  29.702  33.781  1.00  0.00    -0.354 N 
ATOM     58  N   UNL A   1      39.133  30.774  32.140  1.00  0.00    -0.248 NA
ATOM     59  C   UNL A   1      37.169  32.022  31.944  1.00  0.00     0.031 C 
ATOM     60  C   UNL A   1      41.449  30.334  35.906  1.00  0.00     0.029 A 
ATOM     61  C   UNL A   1      40.695  30.471  34.751  1.00  0.00     0.049 A 
ATOM     62  H   UNL A   1      41.002  29.607  32.852  1.00  0.00     0.167 HD
ATOM     63  C   UNL A   1      38.832  31.347  33.370  1.00  0.00     0.074 A 
ATOM     64  C   UNL A   1      37.625  32.126  33.185  1.00  0.00     0.031 C 
ATOM     65  C   UNL A   1      39.495  31.240  34.547  1.00  0.00     0.037 A 
BRANCH  52  66
ATOM     66  C   UNL A   1      44.438  27.548  34.304  1.00  0.00     0.057 A 
ATOM     67  C   UNL A   1      44.300  26.314  34.952  1.00  0.00     0.134 A 
ATOM     68  C   UNL A   1      45.692  28.168  34.346  1.00  0.00     0.134 A 
ATOM     69  F   UNL A   1      43.118  25.680  34.963  1.00  0.00    -0.206 F 
ATOM     70  C   UNL A   1      45.367  25.728  35.635  1.00  0.00     0.040 A 
ATOM     71  C   UNL A   1      46.771  27.582  35.008  1.00  0.00     0.040 A 
ATOM     72  F   UNL A   1      45.887  29.353  33.748  1.00  0.00    -0.206 F 
ATOM     73  C   UNL A   1      46.609  26.360  35.659  1.00  0.00     0.006 A 
ENDBRANCH  52  66
BRANCH  53  74
ATOM     74  C   UNL A   1      36.876  31.438  29.100  1.00  0.00     0.057 A 
ATOM     75  C   UNL A   1      36.876  32.773  28.678  1.00  0.00     0.134 A 
ATOM     76  C   UNL A   1      35.746  30.667  28.807  1.00  0.00     0.134 A 
ATOM     77  F   UNL A   1      37.921  33.567  28.953  1.00  0.00    -0.206 F 
ATOM     78  C   UNL A   1      35.785  33.326  28.006  1.00  0.00     0.040 A 
ATOM     79  C   UNL A   1      34.656  31.202  28.117  1.00  0.00     0.040 A 
ATOM     80  F   UNL A   1      35.686  29.382  29.186  1.00  0.00    -0.206 F 
ATOM     81  C   UNL A   1      34.672  32.537  27.720  1.00  0.00     0.006 A 
ENDBRANCH  53  74
BRANCH  65  82
ATOM     82  C   UNL A   1      38.944  31.997  35.718  1.00  0.00     0.057 A 
ATOM     83  C   UNL A   1      38.137  31.378  36.680  1.00  0.00     0.134 A 
ATOM     84  C   UNL A   1      39.259  33.348  35.906  1.00  0.00     0.134 A 
ATOM     85  F   UNL A   1      37.790  30.089  36.550  1.00  0.00    -0.206 F 
ATOM     86  C   UNL A   1      37.649  32.083  37.782  1.00  0.00     0.040 A 
ATOM     87  C   UNL A   1      38.795  34.058  37.014  1.00  0.00     0.040 A 
ATOM     88  F   UNL A   1      40.034  33.997  35.024  1.00  0.00    -0.206 F 
ATOM     89  C   UNL A   1      37.984  33.426  37.954  1.00  0.00     0.006 A 
ENDBRANCH  65  82
ENDBRANCH  39  40
ENDBRANCH  32  34
ENDBRANCH  31  32
ENDBRANCH  30  31
ENDBRANCH  29  30
ENDBRANCH  28  29
ENDBRANCH  27  28
ENDBRANCH  26  27
ENDBRANCH  25  26
ENDBRANCH   1  25
TORSDOF 24
ENDMDL
