MODEL 1
REMARK VINA RESULT:     -10.6      0.000      0.000
REMARK SMILES O=C(OCCOCCOCCOCCOC(=O)[C@@H]1[C@H](C(=O)Nc2ccccc2OC(F)F)[C@@H]2C=C[C@H]1C2)c1ccc(-c2c3nc(c(-c4c(F)cccc4F)c4ccc([nH]4)c(-c4c(F)cccc4F)c4nc(c(-c5c(F)cccc5F)c5ccc2[nH]5)C=C4)C=C3)cc1
REMARK SMILES IDX 10 1 9 2 8 3 7 4 6 5 5 6 4 7 3 8 2 9 1 10 38 11 39 12 91 13
REMARK SMILES IDX 40 14 90 15 41 16 42 17 43 18 84 19 44 20 89 21 83 22 85 23
REMARK SMILES IDX 45 24 88 25 82 26 81 27 46 29 72 30 55 31 71 32 56 33 59 34
REMARK SMILES IDX 70 35 86 36 57 37 58 38 69 40 87 41 60 42 47 43 48 44 53 45
REMARK SMILES IDX 49 46 50 47 52 48 54 49 51 50 73 51 74 52 79 53 75 54 76 55
REMARK SMILES IDX 78 56 80 57 77 58 61 59 62 60 67 61 63 62 64 63 66 64 68 65
REMARK SMILES IDX 65 66 11 67 12 68 13 69 14 70 15 71 16 72 17 73 18 74 19 75
REMARK SMILES IDX 36 76 33 77 35 78 37 79 34 80 20 81 21 82 22 83 23 85 24 86
REMARK SMILES IDX 28 87 25 88 27 89 26 90 29 91 30 92 31 93 32 94
REMARK H PARENT 85 28 59 39 22 84
REMARK Flexibility Score: inf
ROOT
ATOM      1  C   UNL A   1      39.400  21.998  25.970  1.00  0.00     0.188 C 
ENDROOT
BRANCH   1   2
ATOM      2  O   UNL A   1      39.930  20.693  26.190  1.00  0.00    -0.377 OA
BRANCH   2   3
ATOM      3  C   UNL A   1      40.934  20.627  27.199  1.00  0.00     0.188 C 
BRANCH   3   4
ATOM      4  C   UNL A   1      42.234  20.007  26.694  1.00  0.00     0.188 C 
BRANCH   4   5
ATOM      5  O   UNL A   1      42.771  20.641  25.536  1.00  0.00    -0.376 OA
BRANCH   5   6
ATOM      6  C   UNL A   1      44.134  20.369  25.231  1.00  0.00     0.202 C 
BRANCH   6   7
ATOM      7  C   UNL A   1      45.130  21.519  25.457  1.00  0.00     0.261 C 
BRANCH   7   8
ATOM      8  O   UNL A   1      44.591  22.658  26.151  1.00  0.00    -0.460 OA
BRANCH   8   9
ATOM      9  C   UNL A   1      44.014  23.792  25.698  1.00  0.00     0.338 C 
ATOM     10  O   UNL A   1      44.167  24.096  24.518  1.00  0.00    -0.246 OA
BRANCH   9  11
ATOM     11  C   UNL A   1      43.333  24.785  26.590  1.00  0.00     0.060 A 
ATOM     12  C   UNL A   1      43.676  26.134  26.697  1.00  0.00     0.016 A 
ATOM     13  C   UNL A   1      42.205  24.338  27.304  1.00  0.00     0.016 A 
ATOM     14  C   UNL A   1      42.888  27.035  27.391  1.00  0.00     0.010 A 
ATOM     15  C   UNL A   1      41.460  25.216  28.097  1.00  0.00     0.010 A 
ATOM     16  C   UNL A   1      41.820  26.564  28.143  1.00  0.00    -0.014 A 
BRANCH  16  17
ATOM     17  C   UNL A   1      41.383  27.456  29.221  1.00  0.00     0.031 A 
ATOM     18  C   UNL A   1      42.270  27.503  30.431  1.00  0.00     0.074 A 
ATOM     19  C   UNL A   1      40.394  28.339  29.016  1.00  0.00     0.049 A 
ATOM     20  N   UNL A   1      42.147  28.195  31.526  1.00  0.00    -0.248 NA
ATOM     21  C   UNL A   1      43.493  26.677  30.374  1.00  0.00     0.031 C 
ATOM     22  C   UNL A   1      39.632  28.482  27.773  1.00  0.00     0.029 A 
ATOM     23  N   UNL A   1      39.890  29.308  29.834  1.00  0.00    -0.354 N 
ATOM     24  C   UNL A   1      43.256  27.868  32.295  1.00  0.00     0.074 A 
ATOM     25  C   UNL A   1      44.058  26.937  31.542  1.00  0.00     0.031 C 
ATOM     26  C   UNL A   1      38.749  29.485  27.918  1.00  0.00     0.029 A 
ATOM     27  C   UNL A   1      38.844  30.003  29.279  1.00  0.00     0.049 A 
ATOM     28  H   UNL A   1      40.243  29.492  30.736  1.00  0.00     0.167 HD
ATOM     29  C   UNL A   1      43.559  28.295  33.540  1.00  0.00     0.037 A 
ATOM     30  C   UNL A   1      38.038  30.917  29.848  1.00  0.00     0.037 A 
ATOM     31  C   UNL A   1      42.715  29.201  34.262  1.00  0.00     0.049 A 
ATOM     32  C   UNL A   1      38.308  31.276  31.287  1.00  0.00     0.074 A 
ATOM     33  C   UNL A   1      42.818  29.634  35.567  1.00  0.00     0.029 A 
ATOM     34  N   UNL A   1      41.592  29.811  33.715  1.00  0.00    -0.354 N 
ATOM     35  N   UNL A   1      39.288  30.878  32.068  1.00  0.00    -0.248 NA
ATOM     36  C   UNL A   1      37.357  32.186  31.934  1.00  0.00     0.031 C 
ATOM     37  C   UNL A   1      41.729  30.476  35.822  1.00  0.00     0.029 A 
ATOM     38  C   UNL A   1      40.980  30.607  34.660  1.00  0.00     0.049 A 
ATOM     39  H   UNL A   1      41.280  29.693  32.789  1.00  0.00     0.167 HD
ATOM     40  C   UNL A   1      39.082  31.497  33.291  1.00  0.00     0.074 A 
ATOM     41  C   UNL A   1      37.891  32.313  33.141  1.00  0.00     0.031 C 
ATOM     42  C   UNL A   1      39.797  31.404  34.441  1.00  0.00     0.037 A 
BRANCH  29  43
ATOM     43  C   UNL A   1      44.766  27.689  34.188  1.00  0.00     0.057 A 
ATOM     44  C   UNL A   1      46.039  28.266  34.095  1.00  0.00     0.134 A 
ATOM     45  C   UNL A   1      44.663  26.453  34.841  1.00  0.00     0.134 A 
ATOM     46  F   UNL A   1      46.215  29.422  33.438  1.00  0.00    -0.206 F 
ATOM     47  C   UNL A   1      47.170  27.625  34.608  1.00  0.00     0.040 A 
ATOM     48  C   UNL A   1      45.782  25.814  35.376  1.00  0.00     0.040 A 
ATOM     49  F   UNL A   1      43.478  25.833  34.942  1.00  0.00    -0.206 F 
ATOM     50  C   UNL A   1      47.042  26.396  35.254  1.00  0.00     0.006 A 
ENDBRANCH  29  43
BRANCH  30  51
ATOM     51  C   UNL A   1      36.881  31.478  29.101  1.00  0.00     0.057 A 
ATOM     52  C   UNL A   1      36.864  32.803  28.654  1.00  0.00     0.134 A 
ATOM     53  C   UNL A   1      35.749  30.697  28.827  1.00  0.00     0.134 A 
ATOM     54  F   UNL A   1      37.904  33.613  28.901  1.00  0.00    -0.206 F 
ATOM     55  C   UNL A   1      35.764  33.334  27.973  1.00  0.00     0.040 A 
ATOM     56  C   UNL A   1      34.655  31.205  28.125  1.00  0.00     0.040 A 
ATOM     57  F   UNL A   1      35.693  29.419  29.229  1.00  0.00    -0.206 F 
ATOM     58  C   UNL A   1      34.658  32.531  27.701  1.00  0.00     0.006 A 
ENDBRANCH  30  51
BRANCH  42  59
ATOM     59  C   UNL A   1      39.324  32.230  35.596  1.00  0.00     0.057 A 
ATOM     60  C   UNL A   1      39.710  33.565  35.750  1.00  0.00     0.134 A 
ATOM     61  C   UNL A   1      38.420  31.695  36.520  1.00  0.00     0.134 A 
ATOM     62  F   UNL A   1      40.582  34.126  34.898  1.00  0.00    -0.206 F 
ATOM     63  C   UNL A   1      39.222  34.340  36.801  1.00  0.00     0.040 A 
ATOM     64  C   UNL A   1      37.906  32.467  37.559  1.00  0.00     0.040 A 
ATOM     65  F   UNL A   1      38.005  30.423  36.412  1.00  0.00    -0.206 F 
ATOM     66  C   UNL A   1      38.311  33.793  37.704  1.00  0.00     0.006 A 
ENDBRANCH  42  59
ENDBRANCH  16  17
ENDBRANCH   9  11
ENDBRANCH   8   9
ENDBRANCH   7   8
ENDBRANCH   6   7
ENDBRANCH   5   6
ENDBRANCH   4   5
ENDBRANCH   3   4
ENDBRANCH   2   3
ENDBRANCH   1   2
BRANCH   1  67
ATOM     67  C   UNL A   1      37.886  21.988  25.752  1.00  0.00     0.188 C 
BRANCH  67  68
ATOM     68  O   UNL A   1      37.436  21.144  24.694  1.00  0.00    -0.376 OA
BRANCH  68  69
ATOM     69  C   UNL A   1      36.314  20.309  24.996  1.00  0.00     0.202 C 
BRANCH  69  70
ATOM     70  C   UNL A   1      34.971  21.023  25.252  1.00  0.00     0.261 C 
BRANCH  70  71
ATOM     71  O   UNL A   1      34.405  21.704  24.102  1.00  0.00    -0.463 OA
BRANCH  71  72
ATOM     72  C   UNL A   1      33.078  21.475  23.911  1.00  0.00     0.310 C 
ATOM     73  O   UNL A   1      32.648  20.407  23.483  1.00  0.00    -0.252 OA
BRANCH  72  74
ATOM     74  C   UNL A   1      32.139  22.542  24.454  1.00  0.00     0.119 C 
ATOM     75  C   UNL A   1      32.039  24.019  23.945  1.00  0.00     0.100 C 
ATOM     76  C   UNL A   1      31.779  22.673  25.955  1.00  0.00     0.027 C 
ATOM     77  C   UNL A   1      31.453  24.770  25.186  1.00  0.00     0.025 C 
ATOM     78  C   UNL A   1      32.696  23.596  26.713  1.00  0.00    -0.027 C 
ATOM     79  C   UNL A   1      30.592  23.665  25.824  1.00  0.00     0.017 C 
ATOM     80  C   UNL A   1      32.458  24.848  26.298  1.00  0.00    -0.027 C 
BRANCH  75  81
ATOM     81  C   UNL A   1      32.977  24.833  23.023  1.00  0.00     0.229 C 
ATOM     82  O   UNL A   1      33.746  24.211  22.274  1.00  0.00    -0.274 OA
ATOM     83  N   UNL A   1      32.852  26.168  22.757  1.00  0.00    -0.323 N 
ATOM     84  H   UNL A   1      33.004  26.406  21.814  1.00  0.00     0.170 HD
BRANCH  83  85
ATOM     85  C   UNL A   1      32.549  27.258  23.579  1.00  0.00     0.084 A 
ATOM     86  C   UNL A   1      33.529  27.741  24.462  1.00  0.00     0.030 A 
ATOM     87  C   UNL A   1      31.294  27.843  23.596  1.00  0.00     0.149 A 
ATOM     88  C   UNL A   1      33.312  28.914  25.198  1.00  0.00     0.002 A 
ATOM     89  C   UNL A   1      31.086  28.996  24.337  1.00  0.00     0.049 A 
ATOM     90  C   UNL A   1      32.094  29.568  25.103  1.00  0.00     0.004 A 
BRANCH  87  91
ATOM     91  O   UNL A   1      30.243  27.354  22.890  1.00  0.00    -0.433 OA
BRANCH  91  92
ATOM     92  C   UNL A   1      29.025  27.305  23.633  1.00  0.00     0.542 C 
ATOM     93  F   UNL A   1      28.131  28.113  23.018  1.00  0.00    -0.167 F 
ATOM     94  F   UNL A   1      28.486  26.064  23.671  1.00  0.00    -0.167 F 
ENDBRANCH  91  92
ENDBRANCH  87  91
ENDBRANCH  83  85
ENDBRANCH  75  81
ENDBRANCH  72  74
ENDBRANCH  71  72
ENDBRANCH  70  71
ENDBRANCH  69  70
ENDBRANCH  68  69
ENDBRANCH  67  68
ENDBRANCH   1  67
TORSDOF 24
ENDMDL
MODEL 2
REMARK VINA RESULT:     -10.6      3.621      8.574
REMARK SMILES O=C(OCCOCCOCCOCCOC(=O)[C@@H]1[C@H](C(=O)Nc2ccccc2OC(F)F)[C@@H]2C=C[C@H]1C2)c1ccc(-c2c3nc(c(-c4c(F)cccc4F)c4ccc([nH]4)c(-c4c(F)cccc4F)c4nc(c(-c5c(F)cccc5F)c5ccc2[nH]5)C=C4)C=C3)cc1
REMARK SMILES IDX 10 1 9 2 8 3 7 4 6 5 5 6 4 7 3 8 2 9 1 10 38 11 39 12 91 13
REMARK SMILES IDX 40 14 90 15 41 16 42 17 43 18 84 19 44 20 89 21 83 22 85 23
REMARK SMILES IDX 45 24 88 25 82 26 81 27 46 29 72 30 55 31 71 32 56 33 59 34
REMARK SMILES IDX 70 35 86 36 57 37 58 38 69 40 87 41 60 42 47 43 48 44 53 45
REMARK SMILES IDX 49 46 50 47 52 48 54 49 51 50 73 51 74 52 79 53 75 54 76 55
REMARK SMILES IDX 78 56 80 57 77 58 61 59 62 60 67 61 63 62 64 63 66 64 68 65
REMARK SMILES IDX 65 66 11 67 12 68 13 69 14 70 15 71 16 72 17 73 18 74 19 75
REMARK SMILES IDX 36 76 33 77 35 78 37 79 34 80 20 81 21 82 22 83 23 85 24 86
REMARK SMILES IDX 28 87 25 88 27 89 26 90 29 91 30 92 31 93 32 94
REMARK H PARENT 85 28 59 39 22 84
REMARK Flexibility Score: inf
ROOT
ATOM      1  C   UNL A   1      34.754  29.423  27.550  1.00  0.00     0.188 C 
ENDROOT
BRANCH   1   2
ATOM      2  O   UNL A   1      35.300  30.733  27.681  1.00  0.00    -0.377 OA
BRANCH   2   3
ATOM      3  C   UNL A   1      34.333  31.753  27.915  1.00  0.00     0.188 C 
BRANCH   3   4
ATOM      4  C   UNL A   1      34.761  32.730  29.007  1.00  0.00     0.188 C 
BRANCH   4   5
ATOM      5  O   UNL A   1      33.727  33.613  29.436  1.00  0.00    -0.376 OA
BRANCH   5   6
ATOM      6  C   UNL A   1      33.593  34.837  28.723  1.00  0.00     0.202 C 
BRANCH   6   7
ATOM      7  C   UNL A   1      32.898  35.991  29.465  1.00  0.00     0.261 C 
BRANCH   7   8
ATOM      8  O   UNL A   1      32.245  35.615  30.690  1.00  0.00    -0.460 OA
BRANCH   8   9
ATOM      9  C   UNL A   1      32.644  35.690  31.978  1.00  0.00     0.338 C 
ATOM     10  O   UNL A   1      32.037  36.441  32.736  1.00  0.00    -0.246 OA
BRANCH   9  11
ATOM     11  C   UNL A   1      33.887  35.034  32.497  1.00  0.00     0.060 A 
ATOM     12  C   UNL A   1      35.159  35.609  32.493  1.00  0.00     0.016 A 
ATOM     13  C   UNL A   1      33.739  33.778  33.116  1.00  0.00     0.016 A 
ATOM     14  C   UNL A   1      36.225  35.030  33.159  1.00  0.00     0.010 A 
ATOM     15  C   UNL A   1      34.830  33.128  33.699  1.00  0.00     0.010 A 
ATOM     16  C   UNL A   1      36.075  33.761  33.704  1.00  0.00    -0.014 A 
BRANCH  16  17
ATOM     17  C   UNL A   1      37.327  33.026  33.909  1.00  0.00     0.031 A 
ATOM     18  C   UNL A   1      37.989  33.219  35.242  1.00  0.00     0.074 A 
ATOM     19  C   UNL A   1      37.702  32.067  33.049  1.00  0.00     0.049 A 
ATOM     20  N   UNL A   1      39.088  32.702  35.709  1.00  0.00    -0.248 NA
ATOM     21  C   UNL A   1      37.281  34.095  36.199  1.00  0.00     0.031 C 
ATOM     22  C   UNL A   1      36.975  31.687  31.835  1.00  0.00     0.029 A 
ATOM     23  N   UNL A   1      38.764  31.210  33.088  1.00  0.00    -0.354 N 
ATOM     24  C   UNL A   1      39.216  33.208  36.995  1.00  0.00     0.074 A 
ATOM     25  C   UNL A   1      38.079  34.054  37.254  1.00  0.00     0.031 C 
ATOM     26  C   UNL A   1      37.624  30.671  31.241  1.00  0.00     0.029 A 
ATOM     27  C   UNL A   1      38.836  30.379  31.998  1.00  0.00     0.049 A 
ATOM     28  H   UNL A   1      39.416  31.191  33.826  1.00  0.00     0.167 HD
ATOM     29  C   UNL A   1      40.221  32.999  37.873  1.00  0.00     0.037 A 
ATOM     30  C   UNL A   1      39.812  29.521  31.651  1.00  0.00     0.037 A 
ATOM     31  C   UNL A   1      41.349  32.171  37.559  1.00  0.00     0.049 A 
ATOM     32  C   UNL A   1      40.995  29.408  32.578  1.00  0.00     0.074 A 
ATOM     33  C   UNL A   1      42.500  31.955  38.288  1.00  0.00     0.029 A 
ATOM     34  N   UNL A   1      41.454  31.420  36.395  1.00  0.00    -0.354 N 
ATOM     35  N   UNL A   1      41.186  29.979  33.746  1.00  0.00    -0.248 NA
ATOM     36  C   UNL A   1      42.106  28.558  32.137  1.00  0.00     0.031 C 
ATOM     37  C   UNL A   1      43.321  31.103  37.540  1.00  0.00     0.029 A 
ATOM     38  C   UNL A   1      42.658  30.749  36.373  1.00  0.00     0.049 A 
ATOM     39  H   UNL A   1      40.769  31.374  35.689  1.00  0.00     0.167 HD
ATOM     40  C   UNL A   1      42.428  29.549  34.188  1.00  0.00     0.074 A 
ATOM     41  C   UNL A   1      42.937  28.653  33.166  1.00  0.00     0.031 C 
ATOM     42  C   UNL A   1      43.100  29.862  35.325  1.00  0.00     0.037 A 
BRANCH  29  43
ATOM     43  C   UNL A   1      40.167  33.768  39.157  1.00  0.00     0.057 A 
ATOM     44  C   UNL A   1      40.862  34.970  39.343  1.00  0.00     0.134 A 
ATOM     45  C   UNL A   1      39.477  33.244  40.259  1.00  0.00     0.134 A 
ATOM     46  F   UNL A   1      41.585  35.499  38.345  1.00  0.00    -0.206 F 
ATOM     47  C   UNL A   1      40.891  35.611  40.585  1.00  0.00     0.040 A 
ATOM     48  C   UNL A   1      39.482  33.887  41.498  1.00  0.00     0.040 A 
ATOM     49  F   UNL A   1      38.814  32.083  40.156  1.00  0.00    -0.206 F 
ATOM     50  C   UNL A   1      40.197  35.070  41.666  1.00  0.00     0.006 A 
ENDBRANCH  29  43
BRANCH  30  51
ATOM     51  C   UNL A   1      39.751  28.785  30.360  1.00  0.00     0.057 A 
ATOM     52  C   UNL A   1      40.283  29.318  29.181  1.00  0.00     0.134 A 
ATOM     53  C   UNL A   1      39.140  27.525  30.273  1.00  0.00     0.134 A 
ATOM     54  F   UNL A   1      40.862  30.527  29.188  1.00  0.00    -0.206 F 
ATOM     55  C   UNL A   1      40.202  28.633  27.965  1.00  0.00     0.040 A 
ATOM     56  C   UNL A   1      39.075  26.818  29.071  1.00  0.00     0.040 A 
ATOM     57  F   UNL A   1      38.604  26.955  31.361  1.00  0.00    -0.206 F 
ATOM     58  C   UNL A   1      39.602  27.377  27.909  1.00  0.00     0.006 A 
ENDBRANCH  30  51
BRANCH  42  59
ATOM     59  C   UNL A   1      44.428  29.201  35.524  1.00  0.00     0.057 A 
ATOM     60  C   UNL A   1      45.615  29.788  35.072  1.00  0.00     0.134 A 
ATOM     61  C   UNL A   1      44.517  27.999  36.235  1.00  0.00     0.134 A 
ATOM     62  F   UNL A   1      45.587  30.935  34.377  1.00  0.00    -0.206 F 
ATOM     63  C   UNL A   1      46.851  29.188  35.308  1.00  0.00     0.040 A 
ATOM     64  C   UNL A   1      45.749  27.405  36.500  1.00  0.00     0.040 A 
ATOM     65  F   UNL A   1      43.412  27.400  36.704  1.00  0.00    -0.206 F 
ATOM     66  C   UNL A   1      46.920  27.998  36.031  1.00  0.00     0.006 A 
ENDBRANCH  42  59
ENDBRANCH  16  17
ENDBRANCH   9  11
ENDBRANCH   8   9
ENDBRANCH   7   8
ENDBRANCH   6   7
ENDBRANCH   5   6
ENDBRANCH   4   5
ENDBRANCH   3   4
ENDBRANCH   2   3
ENDBRANCH   1   2
BRANCH   1  67
ATOM     67  C   UNL A   1      33.393  29.420  26.853  1.00  0.00     0.188 C 
BRANCH  67  68
ATOM     68  O   UNL A   1      32.369  28.700  27.535  1.00  0.00    -0.376 OA
BRANCH  68  69
ATOM     69  C   UNL A   1      31.627  27.768  26.742  1.00  0.00     0.202 C 
BRANCH  69  70
ATOM     70  C   UNL A   1      32.332  26.440  26.398  1.00  0.00     0.261 C 
BRANCH  70  71
ATOM     71  O   UNL A   1      31.666  25.244  26.881  1.00  0.00    -0.463 OA
BRANCH  71  72
ATOM     72  C   UNL A   1      32.048  24.097  26.258  1.00  0.00     0.310 C 
ATOM     73  O   UNL A   1      31.262  23.184  26.017  1.00  0.00    -0.252 OA
BRANCH  72  74
ATOM     74  C   UNL A   1      33.459  24.094  25.690  1.00  0.00     0.119 C 
ATOM     75  C   UNL A   1      33.835  24.005  24.173  1.00  0.00     0.100 C 
ATOM     76  C   UNL A   1      34.651  23.384  26.379  1.00  0.00     0.027 C 
ATOM     77  C   UNL A   1      35.285  23.419  24.213  1.00  0.00     0.025 C 
ATOM     78  C   UNL A   1      34.845  21.961  25.926  1.00  0.00    -0.027 C 
ATOM     79  C   UNL A   1      35.804  23.999  25.541  1.00  0.00     0.017 C 
ATOM     80  C   UNL A   1      35.280  21.986  24.658  1.00  0.00    -0.027 C 
BRANCH  75  81
ATOM     81  C   UNL A   1      32.974  23.639  22.941  1.00  0.00     0.229 C 
ATOM     82  O   UNL A   1      33.363  22.717  22.208  1.00  0.00    -0.274 OA
ATOM     83  N   UNL A   1      31.689  24.054  22.730  1.00  0.00    -0.323 N 
ATOM     84  H   UNL A   1      31.094  23.355  22.375  1.00  0.00     0.170 HD
BRANCH  83  85
ATOM     85  C   UNL A   1      31.064  25.289  22.926  1.00  0.00     0.084 A 
ATOM     86  C   UNL A   1      29.867  25.340  23.660  1.00  0.00     0.030 A 
ATOM     87  C   UNL A   1      31.552  26.460  22.371  1.00  0.00     0.149 A 
ATOM     88  C   UNL A   1      29.286  26.571  23.996  1.00  0.00     0.002 A 
ATOM     89  C   UNL A   1      30.964  27.671  22.701  1.00  0.00     0.049 A 
ATOM     90  C   UNL A   1      29.863  27.747  23.545  1.00  0.00     0.004 A 
BRANCH  87  91
ATOM     91  O   UNL A   1      32.615  26.489  21.527  1.00  0.00    -0.433 OA
BRANCH  91  92
ATOM     92  C   UNL A   1      33.791  27.056  22.105  1.00  0.00     0.542 C 
ATOM     93  F   UNL A   1      33.896  28.330  21.663  1.00  0.00    -0.167 F 
ATOM     94  F   UNL A   1      33.739  27.102  23.457  1.00  0.00    -0.167 F 
ENDBRANCH  91  92
ENDBRANCH  87  91
ENDBRANCH  83  85
ENDBRANCH  75  81
ENDBRANCH  72  74
ENDBRANCH  71  72
ENDBRANCH  70  71
ENDBRANCH  69  70
ENDBRANCH  68  69
ENDBRANCH  67  68
ENDBRANCH   1  67
TORSDOF 24
ENDMDL
MODEL 3
REMARK VINA RESULT:     -10.3      3.513      9.108
REMARK SMILES O=C(OCCOCCOCCOCCOC(=O)[C@@H]1[C@H](C(=O)Nc2ccccc2OC(F)F)[C@@H]2C=C[C@H]1C2)c1ccc(-c2c3nc(c(-c4c(F)cccc4F)c4ccc([nH]4)c(-c4c(F)cccc4F)c4nc(c(-c5c(F)cccc5F)c5ccc2[nH]5)C=C4)C=C3)cc1
REMARK SMILES IDX 10 1 9 2 8 3 7 4 6 5 5 6 4 7 3 8 2 9 1 10 38 11 39 12 91 13
REMARK SMILES IDX 40 14 90 15 41 16 42 17 43 18 84 19 44 20 89 21 83 22 85 23
REMARK SMILES IDX 45 24 88 25 82 26 81 27 46 29 72 30 55 31 71 32 56 33 59 34
REMARK SMILES IDX 70 35 86 36 57 37 58 38 69 40 87 41 60 42 47 43 48 44 53 45
REMARK SMILES IDX 49 46 50 47 52 48 54 49 51 50 73 51 74 52 79 53 75 54 76 55
REMARK SMILES IDX 78 56 80 57 77 58 61 59 62 60 67 61 63 62 64 63 66 64 68 65
REMARK SMILES IDX 65 66 11 67 12 68 13 69 14 70 15 71 16 72 17 73 18 74 19 75
REMARK SMILES IDX 36 76 33 77 35 78 37 79 34 80 20 81 21 82 22 83 23 85 24 86
REMARK SMILES IDX 28 87 25 88 27 89 26 90 29 91 30 92 31 93 32 94
REMARK H PARENT 85 28 59 39 22 84
REMARK Flexibility Score: inf
ROOT
ATOM      1  C   UNL A   1      34.655  29.916  27.674  1.00  0.00     0.188 C 
ENDROOT
BRANCH   1   2
ATOM      2  O   UNL A   1      35.270  31.196  27.540  1.00  0.00    -0.377 OA
BRANCH   2   3
ATOM      3  C   UNL A   1      34.391  32.297  27.750  1.00  0.00     0.188 C 
BRANCH   3   4
ATOM      4  C   UNL A   1      34.553  32.922  29.134  1.00  0.00     0.188 C 
BRANCH   4   5
ATOM      5  O   UNL A   1      33.461  33.747  29.531  1.00  0.00    -0.376 OA
BRANCH   5   6
ATOM      6  C   UNL A   1      33.407  35.053  28.968  1.00  0.00     0.202 C 
BRANCH   6   7
ATOM      7  C   UNL A   1      32.782  36.152  29.845  1.00  0.00     0.261 C 
BRANCH   7   8
ATOM      8  O   UNL A   1      32.346  35.714  31.143  1.00  0.00    -0.460 OA
BRANCH   8   9
ATOM      9  C   UNL A   1      32.984  35.663  32.333  1.00  0.00     0.338 C 
ATOM     10  O   UNL A   1      32.641  36.445  33.215  1.00  0.00    -0.246 OA
BRANCH   9  11
ATOM     11  C   UNL A   1      34.195  34.818  32.584  1.00  0.00     0.060 A 
ATOM     12  C   UNL A   1      34.189  33.580  33.230  1.00  0.00     0.016 A 
ATOM     13  C   UNL A   1      35.415  35.270  32.046  1.00  0.00     0.016 A 
ATOM     14  C   UNL A   1      35.307  32.766  33.259  1.00  0.00     0.010 A 
ATOM     15  C   UNL A   1      36.580  34.506  32.162  1.00  0.00     0.010 A 
ATOM     16  C   UNL A   1      36.517  33.257  32.783  1.00  0.00    -0.014 A 
BRANCH  16  17
ATOM     17  C   UNL A   1      37.706  32.581  33.309  1.00  0.00     0.031 A 
ATOM     18  C   UNL A   1      38.314  31.538  32.417  1.00  0.00     0.074 A 
ATOM     19  C   UNL A   1      38.330  33.052  34.400  1.00  0.00     0.049 A 
ATOM     20  N   UNL A   1      39.361  30.789  32.607  1.00  0.00    -0.248 NA
ATOM     21  C   UNL A   1      37.665  31.345  31.104  1.00  0.00     0.031 C 
ATOM     22  C   UNL A   1      37.897  34.207  35.190  1.00  0.00     0.029 A 
ATOM     23  N   UNL A   1      39.483  32.641  35.005  1.00  0.00    -0.354 N 
ATOM     24  C   UNL A   1      39.478  30.021  31.456  1.00  0.00     0.074 A 
ATOM     25  C   UNL A   1      38.417  30.404  30.559  1.00  0.00     0.031 C 
ATOM     26  C   UNL A   1      38.778  34.406  36.186  1.00  0.00     0.029 A 
ATOM     27  C   UNL A   1      39.792  33.358  36.134  1.00  0.00     0.049 A 
ATOM     28  H   UNL A   1      40.039  31.903  34.664  1.00  0.00     0.167 HD
ATOM     29  C   UNL A   1      40.386  29.057  31.189  1.00  0.00     0.037 A 
ATOM     30  C   UNL A   1      40.766  33.138  37.036  1.00  0.00     0.037 A 
ATOM     31  C   UNL A   1      41.407  28.691  32.126  1.00  0.00     0.049 A 
ATOM     32  C   UNL A   1      41.683  31.967  36.791  1.00  0.00     0.074 A 
ATOM     33  C   UNL A   1      42.322  27.662  32.058  1.00  0.00     0.029 A 
ATOM     34  N   UNL A   1      41.634  29.363  33.322  1.00  0.00    -0.354 N 
ATOM     35  N   UNL A   1      41.726  31.153  35.760  1.00  0.00    -0.248 NA
ATOM     36  C   UNL A   1      42.668  31.665  37.836  1.00  0.00     0.031 C 
ATOM     37  C   UNL A   1      43.077  27.686  33.236  1.00  0.00     0.029 A 
ATOM     38  C   UNL A   1      42.666  28.762  34.012  1.00  0.00     0.049 A 
ATOM     39  H   UNL A   1      41.132  30.151  33.630  1.00  0.00     0.167 HD
ATOM     40  C   UNL A   1      42.747  30.252  36.021  1.00  0.00     0.074 A 
ATOM     41  C   UNL A   1      43.310  30.634  37.304  1.00  0.00     0.031 C 
ATOM     42  C   UNL A   1      43.185  29.200  35.284  1.00  0.00     0.037 A 
BRANCH  29  43
ATOM     43  C   UNL A   1      40.210  28.299  29.910  1.00  0.00     0.057 A 
ATOM     44  C   UNL A   1      39.341  27.205  29.798  1.00  0.00     0.134 A 
ATOM     45  C   UNL A   1      40.995  28.616  28.793  1.00  0.00     0.134 A 
ATOM     46  F   UNL A   1      38.599  26.816  30.845  1.00  0.00    -0.206 F 
ATOM     47  C   UNL A   1      39.278  26.441  28.630  1.00  0.00     0.040 A 
ATOM     48  C   UNL A   1      40.925  27.873  27.614  1.00  0.00     0.040 A 
ATOM     49  F   UNL A   1      41.867  29.634  28.842  1.00  0.00    -0.206 F 
ATOM     50  C   UNL A   1      40.070  26.776  27.533  1.00  0.00     0.006 A 
ENDBRANCH  29  43
BRANCH  30  51
ATOM     51  C   UNL A   1      40.866  33.973  38.262  1.00  0.00     0.057 A 
ATOM     52  C   UNL A   1      40.098  33.707  39.401  1.00  0.00     0.134 A 
ATOM     53  C   UNL A   1      41.731  35.076  38.319  1.00  0.00     0.134 A 
ATOM     54  F   UNL A   1      39.235  32.681  39.409  1.00  0.00    -0.206 F 
ATOM     55  C   UNL A   1      40.178  34.509  40.543  1.00  0.00     0.040 A 
ATOM     56  C   UNL A   1      41.840  35.870  39.462  1.00  0.00     0.040 A 
ATOM     57  F   UNL A   1      42.493  35.394  37.263  1.00  0.00    -0.206 F 
ATOM     58  C   UNL A   1      41.056  35.590  40.578  1.00  0.00     0.006 A 
ENDBRANCH  30  51
BRANCH  42  59
ATOM     59  C   UNL A   1      44.341  28.427  35.837  1.00  0.00     0.057 A 
ATOM     60  C   UNL A   1      44.151  27.305  36.650  1.00  0.00     0.134 A 
ATOM     61  C   UNL A   1      45.651  28.776  35.492  1.00  0.00     0.134 A 
ATOM     62  F   UNL A   1      42.917  26.931  37.020  1.00  0.00    -0.206 F 
ATOM     63  C   UNL A   1      45.235  26.562  37.117  1.00  0.00     0.040 A 
ATOM     64  C   UNL A   1      46.739  28.026  35.931  1.00  0.00     0.040 A 
ATOM     65  F   UNL A   1      45.890  29.835  34.703  1.00  0.00    -0.206 F 
ATOM     66  C   UNL A   1      46.532  26.918  36.750  1.00  0.00     0.006 A 
ENDBRANCH  42  59
ENDBRANCH  16  17
ENDBRANCH   9  11
ENDBRANCH   8   9
ENDBRANCH   7   8
ENDBRANCH   6   7
ENDBRANCH   5   6
ENDBRANCH   4   5
ENDBRANCH   3   4
ENDBRANCH   2   3
ENDBRANCH   1   2
BRANCH   1  67
ATOM     67  C   UNL A   1      33.356  29.803  26.875  1.00  0.00     0.188 C 
BRANCH  67  68
ATOM     68  O   UNL A   1      32.365  28.957  27.455  1.00  0.00    -0.376 OA
BRANCH  68  69
ATOM     69  C   UNL A   1      31.751  28.016  26.569  1.00  0.00     0.202 C 
BRANCH  69  70
ATOM     70  C   UNL A   1      32.397  26.617  26.492  1.00  0.00     0.261 C 
BRANCH  70  71
ATOM     71  O   UNL A   1      31.620  25.545  27.087  1.00  0.00    -0.463 OA
BRANCH  71  72
ATOM     72  C   UNL A   1      31.732  24.349  26.448  1.00  0.00     0.310 C 
ATOM     73  O   UNL A   1      30.754  23.672  26.140  1.00  0.00    -0.252 OA
BRANCH  72  74
ATOM     74  C   UNL A   1      33.126  23.995  25.952  1.00  0.00     0.119 C 
ATOM     75  C   UNL A   1      33.508  23.628  24.479  1.00  0.00     0.100 C 
ATOM     76  C   UNL A   1      34.140  23.169  26.783  1.00  0.00     0.027 C 
ATOM     77  C   UNL A   1      34.811  22.784  24.663  1.00  0.00     0.025 C 
ATOM     78  C   UNL A   1      34.057  21.687  26.529  1.00  0.00    -0.027 C 
ATOM     79  C   UNL A   1      35.408  23.428  25.927  1.00  0.00     0.017 C 
ATOM     80  C   UNL A   1      34.513  21.453  25.290  1.00  0.00    -0.027 C 
BRANCH  75  81
ATOM     81  C   UNL A   1      32.617  23.270  23.266  1.00  0.00     0.229 C 
ATOM     82  O   UNL A   1      32.808  22.184  22.699  1.00  0.00    -0.274 OA
ATOM     83  N   UNL A   1      31.460  23.915  22.924  1.00  0.00    -0.323 N 
ATOM     84  H   UNL A   1      30.734  23.314  22.641  1.00  0.00     0.170 HD
BRANCH  83  85
ATOM     85  C   UNL A   1      31.120  25.271  22.903  1.00  0.00     0.084 A 
ATOM     86  C   UNL A   1      29.912  25.682  23.493  1.00  0.00     0.030 A 
ATOM     87  C   UNL A   1      31.904  26.219  22.268  1.00  0.00     0.149 A 
ATOM     88  C   UNL A   1      29.603  27.043  23.615  1.00  0.00     0.002 A 
ATOM     89  C   UNL A   1      31.583  27.563  22.385  1.00  0.00     0.049 A 
ATOM     90  C   UNL A   1      30.467  27.992  23.091  1.00  0.00     0.004 A 
BRANCH  87  91
ATOM     91  O   UNL A   1      33.009  25.899  21.546  1.00  0.00    -0.433 OA
BRANCH  91  92
ATOM     92  C   UNL A   1      32.728  25.558  20.188  1.00  0.00     0.542 C 
ATOM     93  F   UNL A   1      32.972  24.237  20.035  1.00  0.00    -0.167 F 
ATOM     94  F   UNL A   1      31.433  25.770  19.854  1.00  0.00    -0.167 F 
ENDBRANCH  91  92
ENDBRANCH  87  91
ENDBRANCH  83  85
ENDBRANCH  75  81
ENDBRANCH  72  74
ENDBRANCH  71  72
ENDBRANCH  70  71
ENDBRANCH  69  70
ENDBRANCH  68  69
ENDBRANCH  67  68
ENDBRANCH   1  67
TORSDOF 24
ENDMDL
