MODEL 1
REMARK VINA RESULT:     -10.1      0.000      0.000
REMARK SMILES CSc1ncccc1C(=O)N1CSC[C@H]1C(=O)OCCOCCOCCOCCOC(=O)c1ccc(-c2c3nc(c(-c4c(F)cccc4F)c4ccc([nH]4)c(-c4c(F)cccc4F)c4nc(c(-c5c(F)cccc5F)c5ccc2[nH]5)C=C4)C=C3)cc1
REMARK SMILES IDX 23 1 22 2 21 3 20 4 19 5 18 6 16 7 17 8 15 9 11 10 12 11
REMARK SMILES IDX 13 12 14 13 9 14 10 15 8 16 3 17 4 18 5 19 7 20 6 21 2 22
REMARK SMILES IDX 1 23 24 24 25 25 26 26 27 27 28 28 29 29 30 30 31 31 32 32
REMARK SMILES IDX 33 33 34 34 86 35 35 36 85 37 36 38 37 39 38 40 79 41 39 42
REMARK SMILES IDX 84 43 78 44 80 45 40 46 83 47 77 48 76 49 41 51 67 52 50 53
REMARK SMILES IDX 66 54 51 55 54 56 65 57 81 58 52 59 53 60 64 62 82 63 55 64
REMARK SMILES IDX 42 65 43 66 48 67 44 68 45 69 47 70 49 71 46 72 68 73 69 74
REMARK SMILES IDX 74 75 70 76 71 77 73 78 75 79 72 80 56 81 57 82 62 83 58 84
REMARK SMILES IDX 59 85 61 86 63 87 60 88
REMARK H PARENT 80 50 54 61
REMARK Flexibility Score: inf
ROOT
ATOM      1  C   UNL A   1      37.629  21.877  25.129  1.00  0.00     0.188 C 
ENDROOT
BRANCH   1   2
ATOM      2  C   UNL A   1      36.272  21.266  25.554  1.00  0.00     0.188 C 
BRANCH   2   3
ATOM      3  O   UNL A   1      35.280  20.944  24.583  1.00  0.00    -0.376 OA
BRANCH   3   4
ATOM      4  C   UNL A   1      34.244  20.033  24.907  1.00  0.00     0.202 C 
BRANCH   4   5
ATOM      5  C   UNL A   1      32.916  20.559  25.485  1.00  0.00     0.261 C 
BRANCH   5   6
ATOM      6  O   UNL A   1      32.259  21.605  24.734  1.00  0.00    -0.462 OA
BRANCH   6   7
ATOM      7  C   UNL A   1      31.861  22.685  25.448  1.00  0.00     0.329 C 
ATOM      8  O   UNL A   1      31.477  22.625  26.615  1.00  0.00    -0.250 OA
BRANCH   7   9
ATOM      9  C   UNL A   1      31.745  23.995  24.638  1.00  0.00     0.206 C 
ATOM     10  N   UNL A   1      32.142  25.358  25.082  1.00  0.00    -0.315 N 
ATOM     11  C   UNL A   1      33.534  25.658  24.833  1.00  0.00     0.191 C 
ATOM     12  S   UNL A   1      33.917  24.863  23.261  1.00  0.00    -0.138 SA
ATOM     13  C   UNL A   1      32.502  23.718  23.330  1.00  0.00     0.108 C 
BRANCH  10  14
ATOM     14  C   UNL A   1      31.159  26.264  25.518  1.00  0.00     0.258 C 
ATOM     15  O   UNL A   1      30.554  26.057  26.566  1.00  0.00    -0.269 OA
BRANCH  14  16
ATOM     16  C   UNL A   1      30.666  27.358  24.616  1.00  0.00     0.072 A 
ATOM     17  C   UNL A   1      31.068  28.706  24.588  1.00  0.00     0.108 A 
ATOM     18  N   UNL A   1      30.398  29.613  23.803  1.00  0.00    -0.249 NA
ATOM     19  C   UNL A   1      29.326  29.243  23.083  1.00  0.00     0.112 A 
ATOM     20  C   UNL A   1      29.520  27.021  23.857  1.00  0.00     0.018 A 
ATOM     21  C   UNL A   1      28.852  27.958  23.075  1.00  0.00     0.021 A 
BRANCH  17  22
ATOM     22  S   UNL A   1      32.390  29.633  25.334  1.00  0.00    -0.109 SA
ATOM     23  C   UNL A   1      31.665  30.924  26.333  1.00  0.00     0.092 C 
ENDBRANCH  17  22
ENDBRANCH  14  16
ENDBRANCH  10  14
ENDBRANCH   7   9
ENDBRANCH   6   7
ENDBRANCH   5   6
ENDBRANCH   4   5
ENDBRANCH   3   4
ENDBRANCH   2   3
ENDBRANCH   1   2
BRANCH   1  24
ATOM     24  O   UNL A   1      38.782  21.189  25.581  1.00  0.00    -0.377 OA
BRANCH  24  25
ATOM     25  C   UNL A   1      39.676  21.967  26.366  1.00  0.00     0.188 C 
BRANCH  25  26
ATOM     26  C   UNL A   1      41.027  21.313  26.725  1.00  0.00     0.188 C 
BRANCH  26  27
ATOM     27  O   UNL A   1      41.869  21.105  25.597  1.00  0.00    -0.376 OA
BRANCH  27  28
ATOM     28  C   UNL A   1      43.251  20.859  25.799  1.00  0.00     0.202 C 
BRANCH  28  29
ATOM     29  C   UNL A   1      44.231  21.950  25.339  1.00  0.00     0.261 C 
BRANCH  29  30
ATOM     30  O   UNL A   1      43.625  23.164  24.889  1.00  0.00    -0.460 OA
BRANCH  30  31
ATOM     31  C   UNL A   1      44.321  24.291  25.130  1.00  0.00     0.338 C 
ATOM     32  O   UNL A   1      45.379  24.629  24.626  1.00  0.00    -0.246 OA
BRANCH  31  33
ATOM     33  C   UNL A   1      43.470  25.167  25.951  1.00  0.00     0.060 A 
ATOM     34  C   UNL A   1      43.892  26.487  26.141  1.00  0.00     0.016 A 
ATOM     35  C   UNL A   1      42.278  24.703  26.516  1.00  0.00     0.016 A 
ATOM     36  C   UNL A   1      43.159  27.333  26.961  1.00  0.00     0.010 A 
ATOM     37  C   UNL A   1      41.554  25.544  27.360  1.00  0.00     0.010 A 
ATOM     38  C   UNL A   1      42.029  26.838  27.626  1.00  0.00    -0.014 A 
BRANCH  38  39
ATOM     39  C   UNL A   1      41.552  27.585  28.807  1.00  0.00     0.031 A 
ATOM     40  C   UNL A   1      42.338  27.442  30.081  1.00  0.00     0.074 A 
ATOM     41  C   UNL A   1      40.520  28.440  28.716  1.00  0.00     0.049 A 
ATOM     42  N   UNL A   1      42.164  28.021  31.239  1.00  0.00    -0.248 NA
ATOM     43  C   UNL A   1      43.488  26.520  30.039  1.00  0.00     0.031 C 
ATOM     44  C   UNL A   1      39.736  28.691  27.509  1.00  0.00     0.029 A 
ATOM     45  N   UNL A   1      39.967  29.262  29.660  1.00  0.00    -0.354 N 
ATOM     46  C   UNL A   1      43.177  27.535  32.057  1.00  0.00     0.074 A 
ATOM     47  C   UNL A   1      43.939  26.586  31.280  1.00  0.00     0.031 C 
ATOM     48  C   UNL A   1      38.795  29.611  27.787  1.00  0.00     0.029 A 
ATOM     49  C   UNL A   1      38.898  29.987  29.195  1.00  0.00     0.049 A 
ATOM     50  H   UNL A   1      40.304  29.328  30.583  1.00  0.00     0.167 HD
ATOM     51  C   UNL A   1      43.451  27.862  33.340  1.00  0.00     0.037 A 
ATOM     52  C   UNL A   1      38.092  30.844  29.849  1.00  0.00     0.037 A 
ATOM     53  C   UNL A   1      42.677  28.806  34.099  1.00  0.00     0.049 A 
ATOM     54  C   UNL A   1      38.373  31.137  31.300  1.00  0.00     0.074 A 
ATOM     55  C   UNL A   1      42.852  29.211  35.409  1.00  0.00     0.029 A 
ATOM     56  N   UNL A   1      41.572  29.487  33.610  1.00  0.00    -0.354 N 
ATOM     57  N   UNL A   1      39.335  30.679  32.067  1.00  0.00    -0.248 NA
ATOM     58  C   UNL A   1      37.464  32.073  31.974  1.00  0.00     0.031 C 
ATOM     59  C   UNL A   1      41.818  30.098  35.729  1.00  0.00     0.029 A 
ATOM     60  C   UNL A   1      41.040  30.295  34.598  1.00  0.00     0.049 A 
ATOM     61  H   UNL A   1      41.218  29.407  32.694  1.00  0.00     0.167 HD
ATOM     62  C   UNL A   1      39.169  31.298  33.300  1.00  0.00     0.074 A 
ATOM     63  C   UNL A   1      38.020  32.171  33.172  1.00  0.00     0.031 C 
ATOM     64  C   UNL A   1      39.900  31.162  34.436  1.00  0.00     0.037 A 
BRANCH  51  65
ATOM     65  C   UNL A   1      44.604  27.164  34.000  1.00  0.00     0.057 A 
ATOM     66  C   UNL A   1      44.443  25.974  34.723  1.00  0.00     0.134 A 
ATOM     67  C   UNL A   1      45.899  27.691  33.910  1.00  0.00     0.134 A 
ATOM     68  F   UNL A   1      43.226  25.428  34.870  1.00  0.00    -0.206 F 
ATOM     69  C   UNL A   1      45.522  25.348  35.351  1.00  0.00     0.040 A 
ATOM     70  C   UNL A   1      46.990  27.059  34.509  1.00  0.00     0.040 A 
ATOM     71  F   UNL A   1      46.126  28.830  33.238  1.00  0.00    -0.206 F 
ATOM     72  C   UNL A   1      46.801  25.887  35.238  1.00  0.00     0.006 A 
ENDBRANCH  51  65
BRANCH  52  73
ATOM     73  C   UNL A   1      36.948  31.477  29.145  1.00  0.00     0.057 A 
ATOM     74  C   UNL A   1      35.760  30.778  28.900  1.00  0.00     0.134 A 
ATOM     75  C   UNL A   1      37.021  32.798  28.684  1.00  0.00     0.134 A 
ATOM     76  F   UNL A   1      35.633  29.504  29.301  1.00  0.00    -0.206 F 
ATOM     77  C   UNL A   1      34.697  31.359  28.207  1.00  0.00     0.040 A 
ATOM     78  C   UNL A   1      35.956  33.401  28.013  1.00  0.00     0.040 A 
ATOM     79  F   UNL A   1      38.129  33.526  28.889  1.00  0.00    -0.206 F 
ATOM     80  C   UNL A   1      34.792  32.678  27.766  1.00  0.00     0.006 A 
ENDBRANCH  52  73
BRANCH  64  81
ATOM     81  C   UNL A   1      39.511  32.018  35.605  1.00  0.00     0.057 A 
ATOM     82  C   UNL A   1      40.049  33.296  35.807  1.00  0.00     0.134 A 
ATOM     83  C   UNL A   1      38.554  31.566  36.525  1.00  0.00     0.134 A 
ATOM     84  F   UNL A   1      40.976  33.783  34.968  1.00  0.00    -0.206 F 
ATOM     85  C   UNL A   1      39.674  34.079  36.900  1.00  0.00     0.040 A 
ATOM     86  C   UNL A   1      38.147  32.354  37.601  1.00  0.00     0.040 A 
ATOM     87  F   UNL A   1      37.988  30.359  36.381  1.00  0.00    -0.206 F 
ATOM     88  C   UNL A   1      38.715  33.611  37.797  1.00  0.00     0.006 A 
ENDBRANCH  64  81
ENDBRANCH  38  39
ENDBRANCH  31  33
ENDBRANCH  30  31
ENDBRANCH  29  30
ENDBRANCH  28  29
ENDBRANCH  27  28
ENDBRANCH  26  27
ENDBRANCH  25  26
ENDBRANCH  24  25
ENDBRANCH   1  24
TORSDOF 23
ENDMDL
MODEL 2
REMARK VINA RESULT:     -10.0      0.808      6.060
REMARK SMILES CSc1ncccc1C(=O)N1CSC[C@H]1C(=O)OCCOCCOCCOCCOC(=O)c1ccc(-c2c3nc(c(-c4c(F)cccc4F)c4ccc([nH]4)c(-c4c(F)cccc4F)c4nc(c(-c5c(F)cccc5F)c5ccc2[nH]5)C=C4)C=C3)cc1
REMARK SMILES IDX 23 1 22 2 21 3 20 4 19 5 18 6 16 7 17 8 15 9 11 10 12 11
REMARK SMILES IDX 13 12 14 13 9 14 10 15 8 16 3 17 4 18 5 19 7 20 6 21 2 22
REMARK SMILES IDX 1 23 24 24 25 25 26 26 27 27 28 28 29 29 30 30 31 31 32 32
REMARK SMILES IDX 33 33 34 34 86 35 35 36 85 37 36 38 37 39 38 40 79 41 39 42
REMARK SMILES IDX 84 43 78 44 80 45 40 46 83 47 77 48 76 49 41 51 67 52 50 53
REMARK SMILES IDX 66 54 51 55 54 56 65 57 81 58 52 59 53 60 64 62 82 63 55 64
REMARK SMILES IDX 42 65 43 66 48 67 44 68 45 69 47 70 49 71 46 72 68 73 69 74
REMARK SMILES IDX 74 75 70 76 71 77 73 78 75 79 72 80 56 81 57 82 62 83 58 84
REMARK SMILES IDX 59 85 61 86 63 87 60 88
REMARK H PARENT 80 50 54 61
REMARK Flexibility Score: inf
ROOT
ATOM      1  C   UNL A   1      37.618  22.032  25.262  1.00  0.00     0.188 C 
ENDROOT
BRANCH   1   2
ATOM      2  C   UNL A   1      36.223  21.576  25.752  1.00  0.00     0.188 C 
BRANCH   2   3
ATOM      3  O   UNL A   1      35.098  21.601  24.879  1.00  0.00    -0.376 OA
BRANCH   3   4
ATOM      4  C   UNL A   1      34.369  20.412  24.631  1.00  0.00     0.202 C 
BRANCH   4   5
ATOM      5  C   UNL A   1      32.870  20.345  24.980  1.00  0.00     0.261 C 
BRANCH   5   6
ATOM      6  O   UNL A   1      32.015  21.307  24.322  1.00  0.00    -0.462 OA
BRANCH   6   7
ATOM      7  C   UNL A   1      31.364  22.174  25.135  1.00  0.00     0.329 C 
ATOM      8  O   UNL A   1      30.666  21.822  26.084  1.00  0.00    -0.250 OA
BRANCH   7   9
ATOM      9  C   UNL A   1      31.406  23.650  24.681  1.00  0.00     0.206 C 
ATOM     10  N   UNL A   1      31.908  24.810  25.464  1.00  0.00    -0.315 N 
ATOM     11  C   UNL A   1      33.331  25.022  25.327  1.00  0.00     0.191 C 
ATOM     12  S   UNL A   1      33.709  24.610  23.611  1.00  0.00    -0.138 SA
ATOM     13  C   UNL A   1      32.192  23.634  23.361  1.00  0.00     0.108 C 
BRANCH  10  14
ATOM     14  C   UNL A   1      30.994  25.673  26.095  1.00  0.00     0.258 C 
ATOM     15  O   UNL A   1      29.957  25.225  26.575  1.00  0.00    -0.269 OA
BRANCH  14  16
ATOM     16  C   UNL A   1      31.145  27.163  25.994  1.00  0.00     0.072 A 
ATOM     17  C   UNL A   1      31.083  27.966  24.842  1.00  0.00     0.108 A 
ATOM     18  N   UNL A   1      31.402  29.301  24.907  1.00  0.00    -0.249 NA
ATOM     19  C   UNL A   1      31.819  29.854  26.058  1.00  0.00     0.112 A 
ATOM     20  C   UNL A   1      31.609  27.787  27.178  1.00  0.00     0.018 A 
ATOM     21  C   UNL A   1      31.935  29.138  27.220  1.00  0.00     0.021 A 
BRANCH  17  22
ATOM     22  S   UNL A   1      30.591  27.694  23.154  1.00  0.00    -0.109 SA
ATOM     23  C   UNL A   1      30.631  29.265  22.306  1.00  0.00     0.092 C 
ENDBRANCH  17  22
ENDBRANCH  14  16
ENDBRANCH  10  14
ENDBRANCH   7   9
ENDBRANCH   6   7
ENDBRANCH   5   6
ENDBRANCH   4   5
ENDBRANCH   3   4
ENDBRANCH   2   3
ENDBRANCH   1   2
BRANCH   1  24
ATOM     24  O   UNL A   1      38.708  21.226  25.676  1.00  0.00    -0.377 OA
BRANCH  24  25
ATOM     25  C   UNL A   1      39.643  21.874  26.529  1.00  0.00     0.188 C 
BRANCH  25  26
ATOM     26  C   UNL A   1      40.937  21.098  26.850  1.00  0.00     0.188 C 
BRANCH  26  27
ATOM     27  O   UNL A   1      41.783  20.921  25.719  1.00  0.00    -0.376 OA
BRANCH  27  28
ATOM     28  C   UNL A   1      43.186  20.837  25.909  1.00  0.00     0.202 C 
BRANCH  28  29
ATOM     29  C   UNL A   1      44.008  22.105  25.629  1.00  0.00     0.261 C 
BRANCH  29  30
ATOM     30  O   UNL A   1      43.245  23.261  25.278  1.00  0.00    -0.460 OA
BRANCH  30  31
ATOM     31  C   UNL A   1      43.900  24.436  25.333  1.00  0.00     0.338 C 
ATOM     32  O   UNL A   1      44.828  24.799  24.629  1.00  0.00    -0.246 OA
BRANCH  31  33
ATOM     33  C   UNL A   1      43.158  25.313  26.252  1.00  0.00     0.060 A 
ATOM     34  C   UNL A   1      43.510  26.666  26.283  1.00  0.00     0.016 A 
ATOM     35  C   UNL A   1      42.130  24.816  27.061  1.00  0.00     0.016 A 
ATOM     36  C   UNL A   1      42.884  27.519  27.180  1.00  0.00     0.010 A 
ATOM     37  C   UNL A   1      41.519  25.667  27.981  1.00  0.00     0.010 A 
ATOM     38  C   UNL A   1      41.939  27.004  28.077  1.00  0.00    -0.014 A 
BRANCH  38  39
ATOM     39  C   UNL A   1      41.639  27.800  29.284  1.00  0.00     0.031 A 
ATOM     40  C   UNL A   1      40.441  28.708  29.233  1.00  0.00     0.074 A 
ATOM     41  C   UNL A   1      42.344  27.638  30.414  1.00  0.00     0.049 A 
ATOM     42  N   UNL A   1      39.934  29.472  30.163  1.00  0.00    -0.248 NA
ATOM     43  C   UNL A   1      39.709  28.754  27.954  1.00  0.00     0.031 C 
ATOM     44  C   UNL A   1      43.483  26.736  30.578  1.00  0.00     0.029 A 
ATOM     45  N   UNL A   1      42.193  28.222  31.643  1.00  0.00    -0.354 N 
ATOM     46  C   UNL A   1      38.830  30.086  29.582  1.00  0.00     0.074 A 
ATOM     47  C   UNL A   1      38.761  29.639  28.211  1.00  0.00     0.031 C 
ATOM     48  C   UNL A   1      43.931  26.828  31.843  1.00  0.00     0.029 A 
ATOM     49  C   UNL A   1      43.128  27.815  32.562  1.00  0.00     0.049 A 
ATOM     50  H   UNL A   1      41.481  28.872  31.848  1.00  0.00     0.167 HD
ATOM     51  C   UNL A   1      37.946  30.938  30.150  1.00  0.00     0.037 A 
ATOM     52  C   UNL A   1      43.312  28.213  33.834  1.00  0.00     0.037 A 
ATOM     53  C   UNL A   1      38.034  31.376  31.515  1.00  0.00     0.049 A 
ATOM     54  C   UNL A   1      42.358  29.220  34.422  1.00  0.00     0.074 A 
ATOM     55  C   UNL A   1      37.204  32.245  32.198  1.00  0.00     0.029 A 
ATOM     56  N   UNL A   1      39.022  30.979  32.404  1.00  0.00    -0.354 N 
ATOM     57  N   UNL A   1      41.314  29.793  33.870  1.00  0.00    -0.248 NA
ATOM     58  C   UNL A   1      42.602  29.629  35.811  1.00  0.00     0.031 C 
ATOM     59  C   UNL A   1      37.723  32.415  33.487  1.00  0.00     0.029 A 
ATOM     60  C   UNL A   1      38.837  31.601  33.625  1.00  0.00     0.049 A 
ATOM     61  H   UNL A   1      39.749  30.347  32.196  1.00  0.00     0.167 HD
ATOM     62  C   UNL A   1      40.755  30.600  34.854  1.00  0.00     0.074 A 
ATOM     63  C   UNL A   1      41.573  30.432  36.039  1.00  0.00     0.031 C 
ATOM     64  C   UNL A   1      39.664  31.404  34.790  1.00  0.00     0.037 A 
BRANCH  51  65
ATOM     65  C   UNL A   1      36.846  31.473  29.279  1.00  0.00     0.057 A 
ATOM     66  C   UNL A   1      35.733  30.700  28.922  1.00  0.00     0.134 A 
ATOM     67  C   UNL A   1      36.902  32.785  28.791  1.00  0.00     0.134 A 
ATOM     68  F   UNL A   1      35.628  29.427  29.334  1.00  0.00    -0.206 F 
ATOM     69  C   UNL A   1      34.728  31.204  28.092  1.00  0.00     0.040 A 
ATOM     70  C   UNL A   1      35.890  33.309  27.985  1.00  0.00     0.040 A 
ATOM     71  F   UNL A   1      37.940  33.579  29.088  1.00  0.00    -0.206 F 
ATOM     72  C   UNL A   1      34.803  32.515  27.628  1.00  0.00     0.006 A 
ENDBRANCH  51  65
BRANCH  52  73
ATOM     73  C   UNL A   1      44.440  27.667  34.631  1.00  0.00     0.057 A 
ATOM     74  C   UNL A   1      44.315  26.478  35.358  1.00  0.00     0.134 A 
ATOM     75  C   UNL A   1      45.671  28.333  34.696  1.00  0.00     0.134 A 
ATOM     76  F   UNL A   1      43.157  25.801  35.352  1.00  0.00    -0.206 F 
ATOM     77  C   UNL A   1      45.363  25.981  36.137  1.00  0.00     0.040 A 
ATOM     78  C   UNL A   1      46.735  27.835  35.449  1.00  0.00     0.040 A 
ATOM     79  F   UNL A   1      45.859  29.476  34.020  1.00  0.00    -0.206 F 
ATOM     80  C   UNL A   1      46.581  26.659  36.179  1.00  0.00     0.006 A 
ENDBRANCH  52  73
BRANCH  64  81
ATOM     81  C   UNL A   1      39.264  32.115  36.049  1.00  0.00     0.057 A 
ATOM     82  C   UNL A   1      39.778  33.372  36.393  1.00  0.00     0.134 A 
ATOM     83  C   UNL A   1      38.320  31.544  36.914  1.00  0.00     0.134 A 
ATOM     84  F   UNL A   1      40.692  33.969  35.612  1.00  0.00    -0.206 F 
ATOM     85  C   UNL A   1      39.393  34.020  37.568  1.00  0.00     0.040 A 
ATOM     86  C   UNL A   1      37.903  32.198  38.073  1.00  0.00     0.040 A 
ATOM     87  F   UNL A   1      37.777  30.349  36.636  1.00  0.00    -0.206 F 
ATOM     88  C   UNL A   1      38.448  33.434  38.408  1.00  0.00     0.006 A 
ENDBRANCH  64  81
ENDBRANCH  38  39
ENDBRANCH  31  33
ENDBRANCH  30  31
ENDBRANCH  29  30
ENDBRANCH  28  29
ENDBRANCH  27  28
ENDBRANCH  26  27
ENDBRANCH  25  26
ENDBRANCH  24  25
ENDBRANCH   1  24
TORSDOF 23
ENDMDL
MODEL 3
REMARK VINA RESULT:      -9.4      4.480      6.801
REMARK SMILES CSc1ncccc1C(=O)N1CSC[C@H]1C(=O)OCCOCCOCCOCCOC(=O)c1ccc(-c2c3nc(c(-c4c(F)cccc4F)c4ccc([nH]4)c(-c4c(F)cccc4F)c4nc(c(-c5c(F)cccc5F)c5ccc2[nH]5)C=C4)C=C3)cc1
REMARK SMILES IDX 23 1 22 2 21 3 20 4 19 5 18 6 16 7 17 8 15 9 11 10 12 11
REMARK SMILES IDX 13 12 14 13 9 14 10 15 8 16 3 17 4 18 5 19 7 20 6 21 2 22
REMARK SMILES IDX 1 23 24 24 25 25 26 26 27 27 28 28 29 29 30 30 31 31 32 32
REMARK SMILES IDX 33 33 34 34 86 35 35 36 85 37 36 38 37 39 38 40 79 41 39 42
REMARK SMILES IDX 84 43 78 44 80 45 40 46 83 47 77 48 76 49 41 51 67 52 50 53
REMARK SMILES IDX 66 54 51 55 54 56 65 57 81 58 52 59 53 60 64 62 82 63 55 64
REMARK SMILES IDX 42 65 43 66 48 67 44 68 45 69 47 70 49 71 46 72 68 73 69 74
REMARK SMILES IDX 74 75 70 76 71 77 73 78 75 79 72 80 56 81 57 82 62 83 58 84
REMARK SMILES IDX 59 85 61 86 63 87 60 88
REMARK H PARENT 80 50 54 61
REMARK Flexibility Score: inf
ROOT
ATOM      1  C   UNL A   1      37.364  21.818  24.995  1.00  0.00     0.188 C 
ENDROOT
BRANCH   1   2
ATOM      2  C   UNL A   1      36.093  21.254  25.675  1.00  0.00     0.188 C 
BRANCH   2   3
ATOM      3  O   UNL A   1      35.257  20.319  24.999  1.00  0.00    -0.376 OA
BRANCH   3   4
ATOM      4  C   UNL A   1      33.857  20.341  25.212  1.00  0.00     0.202 C 
BRANCH   4   5
ATOM      5  C   UNL A   1      33.226  21.477  26.040  1.00  0.00     0.261 C 
BRANCH   5   6
ATOM      6  O   UNL A   1      31.821  21.730  25.817  1.00  0.00    -0.462 OA
BRANCH   6   7
ATOM      7  C   UNL A   1      31.391  22.982  26.107  1.00  0.00     0.329 C 
ATOM      8  O   UNL A   1      31.169  23.376  27.250  1.00  0.00    -0.250 OA
BRANCH   7   9
ATOM      9  C   UNL A   1      31.018  23.844  24.880  1.00  0.00     0.206 C 
ATOM     10  N   UNL A   1      31.405  25.258  24.631  1.00  0.00    -0.315 N 
ATOM     11  C   UNL A   1      32.690  25.394  23.982  1.00  0.00     0.191 C 
ATOM     12  S   UNL A   1      32.787  24.010  22.828  1.00  0.00    -0.138 SA
ATOM     13  C   UNL A   1      31.500  23.033  23.668  1.00  0.00     0.108 C 
BRANCH  10  14
ATOM     14  C   UNL A   1      30.476  26.287  24.864  1.00  0.00     0.258 C 
ATOM     15  O   UNL A   1      29.315  26.162  24.488  1.00  0.00    -0.269 OA
BRANCH  14  16
ATOM     16  C   UNL A   1      30.924  27.633  25.356  1.00  0.00     0.072 A 
ATOM     17  C   UNL A   1      31.093  28.816  24.614  1.00  0.00     0.108 A 
ATOM     18  N   UNL A   1      31.665  29.923  25.194  1.00  0.00    -0.249 NA
ATOM     19  C   UNL A   1      32.110  29.885  26.460  1.00  0.00     0.112 A 
ATOM     20  C   UNL A   1      31.427  27.636  26.679  1.00  0.00     0.018 A 
ATOM     21  C   UNL A   1      32.010  28.766  27.244  1.00  0.00     0.021 A 
BRANCH  17  22
ATOM     22  S   UNL A   1      30.663  29.330  22.967  1.00  0.00    -0.109 SA
ATOM     23  C   UNL A   1      29.147  30.270  23.059  1.00  0.00     0.092 C 
ENDBRANCH  17  22
ENDBRANCH  14  16
ENDBRANCH  10  14
ENDBRANCH   7   9
ENDBRANCH   6   7
ENDBRANCH   5   6
ENDBRANCH   4   5
ENDBRANCH   3   4
ENDBRANCH   2   3
ENDBRANCH   1   2
BRANCH   1  24
ATOM     24  O   UNL A   1      38.597  21.335  25.499  1.00  0.00    -0.377 OA
BRANCH  24  25
ATOM     25  C   UNL A   1      39.288  22.235  26.355  1.00  0.00     0.188 C 
BRANCH  25  26
ATOM     26  C   UNL A   1      40.499  21.664  27.123  1.00  0.00     0.188 C 
BRANCH  26  27
ATOM     27  O   UNL A   1      40.612  20.249  27.024  1.00  0.00    -0.376 OA
BRANCH  27  28
ATOM     28  C   UNL A   1      41.851  19.629  27.329  1.00  0.00     0.202 C 
BRANCH  28  29
ATOM     29  C   UNL A   1      42.569  18.899  26.182  1.00  0.00     0.261 C 
BRANCH  29  30
ATOM     30  O   UNL A   1      42.847  19.697  25.030  1.00  0.00    -0.460 OA
BRANCH  30  31
ATOM     31  C   UNL A   1      44.131  19.715  24.625  1.00  0.00     0.338 C 
ATOM     32  O   UNL A   1      44.718  18.854  23.992  1.00  0.00    -0.246 OA
BRANCH  31  33
ATOM     33  C   UNL A   1      44.657  21.064  24.884  1.00  0.00     0.060 A 
ATOM     34  C   UNL A   1      45.262  21.297  26.123  1.00  0.00     0.016 A 
ATOM     35  C   UNL A   1      44.564  22.079  23.925  1.00  0.00     0.016 A 
ATOM     36  C   UNL A   1      45.714  22.570  26.440  1.00  0.00     0.010 A 
ATOM     37  C   UNL A   1      44.995  23.364  24.252  1.00  0.00     0.010 A 
ATOM     38  C   UNL A   1      45.515  23.618  25.532  1.00  0.00    -0.014 A 
BRANCH  38  39
ATOM     39  C   UNL A   1      45.578  24.997  26.056  1.00  0.00     0.031 A 
ATOM     40  C   UNL A   1      46.903  25.705  25.979  1.00  0.00     0.074 A 
ATOM     41  C   UNL A   1      44.473  25.627  26.484  1.00  0.00     0.049 A 
ATOM     42  N   UNL A   1      47.216  26.927  26.321  1.00  0.00    -0.248 NA
ATOM     43  C   UNL A   1      48.030  24.928  25.432  1.00  0.00     0.031 C 
ATOM     44  C   UNL A   1      43.135  25.042  26.537  1.00  0.00     0.029 A 
ATOM     45  N   UNL A   1      44.306  26.905  26.944  1.00  0.00    -0.354 N 
ATOM     46  C   UNL A   1      48.569  27.060  26.032  1.00  0.00     0.074 A 
ATOM     47  C   UNL A   1      49.029  25.789  25.524  1.00  0.00     0.031 C 
ATOM     48  C   UNL A   1      42.277  25.965  27.008  1.00  0.00     0.029 A 
ATOM     49  C   UNL A   1      43.014  27.190  27.313  1.00  0.00     0.049 A 
ATOM     50  H   UNL A   1      45.041  27.558  27.003  1.00  0.00     0.167 HD
ATOM     51  C   UNL A   1      49.354  28.153  26.169  1.00  0.00     0.037 A 
ATOM     52  C   UNL A   1      42.502  28.313  27.848  1.00  0.00     0.037 A 
ATOM     53  C   UNL A   1      48.880  29.409  26.682  1.00  0.00     0.049 A 
ATOM     54  C   UNL A   1      43.413  29.494  28.060  1.00  0.00     0.074 A 
ATOM     55  C   UNL A   1      49.583  30.583  26.877  1.00  0.00     0.029 A 
ATOM     56  N   UNL A   1      47.575  29.647  27.090  1.00  0.00    -0.354 N 
ATOM     57  N   UNL A   1      44.690  29.617  27.781  1.00  0.00    -0.248 NA
ATOM     58  C   UNL A   1      42.811  30.695  28.653  1.00  0.00     0.031 C 
ATOM     59  C   UNL A   1      48.714  31.516  27.454  1.00  0.00     0.029 A 
ATOM     60  C   UNL A   1      47.456  30.944  27.556  1.00  0.00     0.049 A 
ATOM     61  H   UNL A   1      46.843  28.990  27.053  1.00  0.00     0.167 HD
ATOM     62  C   UNL A   1      45.035  30.918  28.128  1.00  0.00     0.074 A 
ATOM     63  C   UNL A   1      43.827  31.544  28.629  1.00  0.00     0.031 C 
ATOM     64  C   UNL A   1      46.236  31.542  28.039  1.00  0.00     0.037 A 
BRANCH  51  65
ATOM     65  C   UNL A   1      50.802  28.015  25.797  1.00  0.00     0.057 A 
ATOM     66  C   UNL A   1      51.238  28.058  24.465  1.00  0.00     0.134 A 
ATOM     67  C   UNL A   1      51.776  27.837  26.788  1.00  0.00     0.134 A 
ATOM     68  F   UNL A   1      50.356  28.201  23.464  1.00  0.00    -0.206 F 
ATOM     69  C   UNL A   1      52.586  27.905  24.133  1.00  0.00     0.040 A 
ATOM     70  C   UNL A   1      53.129  27.712  26.469  1.00  0.00     0.040 A 
ATOM     71  F   UNL A   1      51.429  27.781  28.082  1.00  0.00    -0.206 F 
ATOM     72  C   UNL A   1      53.536  27.738  25.137  1.00  0.00     0.006 A 
ENDBRANCH  51  65
BRANCH  52  73
ATOM     73  C   UNL A   1      41.066  28.372  28.224  1.00  0.00     0.057 A 
ATOM     74  C   UNL A   1      40.099  28.874  27.345  1.00  0.00     0.134 A 
ATOM     75  C   UNL A   1      40.628  27.941  29.482  1.00  0.00     0.134 A 
ATOM     76  F   UNL A   1      40.457  29.320  26.131  1.00  0.00    -0.206 F 
ATOM     77  C   UNL A   1      38.754  28.965  27.709  1.00  0.00     0.040 A 
ATOM     78  C   UNL A   1      39.282  28.001  29.850  1.00  0.00     0.040 A 
ATOM     79  F   UNL A   1      41.501  27.446  30.371  1.00  0.00    -0.206 F 
ATOM     80  C   UNL A   1      38.342  28.521  28.965  1.00  0.00     0.006 A 
ENDBRANCH  52  73
BRANCH  64  81
ATOM     81  C   UNL A   1      46.287  32.987  28.439  1.00  0.00     0.057 A 
ATOM     82  C   UNL A   1      46.593  33.390  29.745  1.00  0.00     0.134 A 
ATOM     83  C   UNL A   1      46.058  33.992  27.489  1.00  0.00     0.134 A 
ATOM     84  F   UNL A   1      46.814  32.478  30.704  1.00  0.00    -0.206 F 
ATOM     85  C   UNL A   1      46.638  34.739  30.099  1.00  0.00     0.040 A 
ATOM     86  C   UNL A   1      46.133  35.344  27.824  1.00  0.00     0.040 A 
ATOM     87  F   UNL A   1      45.774  33.675  26.217  1.00  0.00    -0.206 F 
ATOM     88  C   UNL A   1      46.413  35.720  29.135  1.00  0.00     0.006 A 
ENDBRANCH  64  81
ENDBRANCH  38  39
ENDBRANCH  31  33
ENDBRANCH  30  31
ENDBRANCH  29  30
ENDBRANCH  28  29
ENDBRANCH  27  28
ENDBRANCH  26  27
ENDBRANCH  25  26
ENDBRANCH  24  25
ENDBRANCH   1  24
TORSDOF 23
ENDMDL
