MODEL 1
REMARK VINA RESULT:      -9.2      0.000      0.000
REMARK SMILES C[C@@](NC(=O)CSCc1ccccc1)(C(=O)OCCOCCOCCOCCOC(=O)c1ccc(-c2c3nc(c(-c4c(F)cccc4F)c4ccc([nH]4)c(-c4c(F)cccc4F)c4nc(c(-c5c(F)cccc5F)c5ccc2[nH]5)C=C4)C=C3)cc1)C1CC1
REMARK SMILES IDX 21 1 20 2 19 3 18 4 17 5 15 6 16 7 2 8 1 9 3 10 4 11 5 13
REMARK SMILES IDX 6 14 7 15 8 16 9 17 10 18 14 19 11 20 13 21 12 22 86 23
REMARK SMILES IDX 87 24 88 25 22 26 23 27 24 28 25 29 26 30 27 31 28 32 29 33
REMARK SMILES IDX 30 34 31 35 32 36 33 37 85 38 34 39 84 40 35 41 36 42 37 43
REMARK SMILES IDX 78 44 38 45 83 46 77 47 79 48 39 49 82 50 76 51 75 52 40 54
REMARK SMILES IDX 66 55 49 56 65 57 50 58 53 59 64 60 80 61 51 62 52 63 63 65
REMARK SMILES IDX 81 66 54 67 41 68 42 69 47 70 43 71 44 72 46 73 48 74 45 75
REMARK SMILES IDX 67 76 68 77 73 78 69 79 70 80 72 81 74 82 71 83 55 84 56 85
REMARK SMILES IDX 61 86 57 87 58 88 60 89 62 90 59 91
REMARK H PARENT 3 12 79 53 53 64
REMARK Flexibility Score: inf
ROOT
ATOM      1  C   UNL A   1      38.860  23.815  26.493  1.00  0.00     0.188 C 
ENDROOT
BRANCH   1   2
ATOM      2  O   UNL A   1      37.502  23.721  26.112  1.00  0.00    -0.376 OA
BRANCH   2   3
ATOM      3  C   UNL A   1      37.060  22.683  25.252  1.00  0.00     0.202 C 
BRANCH   3   4
ATOM      4  C   UNL A   1      36.287  21.463  25.758  1.00  0.00     0.261 C 
BRANCH   4   5
ATOM      5  O   UNL A   1      35.019  21.232  25.126  1.00  0.00    -0.461 OA
BRANCH   5   6
ATOM      6  C   UNL A   1      33.943  21.804  25.708  1.00  0.00     0.331 C 
ATOM      7  O   UNL A   1      33.973  22.285  26.842  1.00  0.00    -0.249 OA
BRANCH   6   8
ATOM      8  C   UNL A   1      32.615  21.736  24.870  1.00  0.00     0.138 C 
ATOM      9  C   UNL A   1      32.200  20.483  24.075  1.00  0.00     0.048 C 
BRANCH   8  10
ATOM     10  N   UNL A   1      31.528  21.993  25.856  1.00  0.00    -0.340 N 
ATOM     11  C   UNL A   1      31.243  23.115  26.590  1.00  0.00     0.230 C 
ATOM     12  H   UNL A   1      30.917  21.235  26.004  1.00  0.00     0.164 HD
ATOM     13  O   UNL A   1      30.584  22.955  27.624  1.00  0.00    -0.274 OA
BRANCH  11  14
ATOM     14  C   UNL A   1      31.582  24.529  26.119  1.00  0.00     0.169 C 
BRANCH  14  15
ATOM     15  S   UNL A   1      30.135  25.568  25.750  1.00  0.00    -0.147 SA
BRANCH  15  16
ATOM     16  C   UNL A   1      30.862  27.148  25.278  1.00  0.00     0.105 C 
BRANCH  16  17
ATOM     17  C   UNL A   1      31.608  27.046  23.980  1.00  0.00    -0.038 A 
ATOM     18  C   UNL A   1      30.988  26.451  22.877  1.00  0.00     0.004 A 
ATOM     19  C   UNL A   1      32.946  27.462  23.877  1.00  0.00     0.004 A 
ATOM     20  C   UNL A   1      31.707  26.228  21.706  1.00  0.00     0.000 A 
ATOM     21  C   UNL A   1      33.664  27.233  22.705  1.00  0.00     0.000 A 
ATOM     22  C   UNL A   1      33.045  26.608  21.625  1.00  0.00     0.000 A 
ENDBRANCH  16  17
ENDBRANCH  15  16
ENDBRANCH  14  15
ENDBRANCH  11  14
ENDBRANCH   8  10
BRANCH   8  23
ATOM     23  C   UNL A   1      32.674  22.972  23.935  1.00  0.00     0.026 C 
ATOM     24  C   UNL A   1      33.986  23.580  23.458  1.00  0.00     0.007 C 
ATOM     25  C   UNL A   1      33.045  22.950  22.469  1.00  0.00     0.007 C 
ENDBRANCH   8  23
ENDBRANCH   6   8
ENDBRANCH   5   6
ENDBRANCH   4   5
ENDBRANCH   3   4
ENDBRANCH   2   3
ENDBRANCH   1   2
BRANCH   1  26
ATOM     26  C   UNL A   1      39.672  22.536  26.777  1.00  0.00     0.188 C 
BRANCH  26  27
ATOM     27  O   UNL A   1      40.678  22.557  27.767  1.00  0.00    -0.377 OA
BRANCH  27  28
ATOM     28  C   UNL A   1      41.835  21.749  27.628  1.00  0.00     0.188 C 
BRANCH  28  29
ATOM     29  C   UNL A   1      43.214  22.256  28.091  1.00  0.00     0.188 C 
BRANCH  29  30
ATOM     30  O   UNL A   1      44.149  22.468  27.051  1.00  0.00    -0.376 OA
BRANCH  30  31
ATOM     31  C   UNL A   1      43.856  21.993  25.748  1.00  0.00     0.202 C 
BRANCH  31  32
ATOM     32  C   UNL A   1      43.957  22.973  24.570  1.00  0.00     0.261 C 
BRANCH  32  33
ATOM     33  O   UNL A   1      43.392  24.276  24.770  1.00  0.00    -0.460 OA
BRANCH  33  34
ATOM     34  C   UNL A   1      44.211  25.276  25.156  1.00  0.00     0.338 C 
ATOM     35  O   UNL A   1      45.248  25.637  24.626  1.00  0.00    -0.246 OA
BRANCH  34  36
ATOM     36  C   UNL A   1      43.536  25.977  26.265  1.00  0.00     0.060 A 
ATOM     37  C   UNL A   1      44.040  27.200  26.724  1.00  0.00     0.016 A 
ATOM     38  C   UNL A   1      42.383  25.425  26.825  1.00  0.00     0.016 A 
ATOM     39  C   UNL A   1      43.390  27.876  27.757  1.00  0.00     0.010 A 
ATOM     40  C   UNL A   1      41.751  26.089  27.876  1.00  0.00     0.010 A 
ATOM     41  C   UNL A   1      42.261  27.307  28.358  1.00  0.00    -0.014 A 
BRANCH  41  42
ATOM     42  C   UNL A   1      41.690  27.887  29.595  1.00  0.00     0.031 A 
ATOM     43  C   UNL A   1      40.467  28.750  29.474  1.00  0.00     0.074 A 
ATOM     44  C   UNL A   1      42.276  27.691  30.788  1.00  0.00     0.049 A 
ATOM     45  N   UNL A   1      39.889  29.503  30.373  1.00  0.00    -0.248 NA
ATOM     46  C   UNL A   1      39.811  28.775  28.155  1.00  0.00     0.031 C 
ATOM     47  C   UNL A   1      43.437  26.836  31.034  1.00  0.00     0.029 A 
ATOM     48  N   UNL A   1      41.988  28.232  32.018  1.00  0.00    -0.354 N 
ATOM     49  C   UNL A   1      38.821  30.110  29.723  1.00  0.00     0.074 A 
ATOM     50  C   UNL A   1      38.831  29.643  28.356  1.00  0.00     0.031 C 
ATOM     51  C   UNL A   1      43.786  26.940  32.328  1.00  0.00     0.029 A 
ATOM     52  C   UNL A   1      42.907  27.906  32.986  1.00  0.00     0.049 A 
ATOM     53  H   UNL A   1      41.200  28.797  32.188  1.00  0.00     0.167 HD
ATOM     54  C   UNL A   1      37.922  30.984  30.227  1.00  0.00     0.037 A 
ATOM     55  C   UNL A   1      43.051  28.379  34.240  1.00  0.00     0.037 A 
ATOM     56  C   UNL A   1      37.915  31.433  31.594  1.00  0.00     0.049 A 
ATOM     57  C   UNL A   1      42.079  29.414  34.753  1.00  0.00     0.074 A 
ATOM     58  C   UNL A   1      37.012  32.275  32.217  1.00  0.00     0.029 A 
ATOM     59  N   UNL A   1      38.866  31.090  32.542  1.00  0.00    -0.354 N 
ATOM     60  N   UNL A   1      41.042  29.947  34.151  1.00  0.00    -0.248 NA
ATOM     61  C   UNL A   1      42.301  29.920  36.115  1.00  0.00     0.031 C 
ATOM     62  C   UNL A   1      37.457  32.498  33.523  1.00  0.00     0.029 A 
ATOM     63  C   UNL A   1      38.600  31.743  33.732  1.00  0.00     0.049 A 
ATOM     64  H   UNL A   1      39.620  30.474  32.390  1.00  0.00     0.167 HD
ATOM     65  C   UNL A   1      40.478  30.829  35.067  1.00  0.00     0.074 A 
ATOM     66  C   UNL A   1      41.275  30.745  36.272  1.00  0.00     0.031 C 
ATOM     67  C   UNL A   1      39.399  31.637  34.926  1.00  0.00     0.037 A 
BRANCH  54  68
ATOM     68  C   UNL A   1      36.891  31.551  29.299  1.00  0.00     0.057 A 
ATOM     69  C   UNL A   1      35.722  30.857  28.965  1.00  0.00     0.134 A 
ATOM     70  C   UNL A   1      37.040  32.849  28.789  1.00  0.00     0.134 A 
ATOM     71  F   UNL A   1      35.525  29.606  29.408  1.00  0.00    -0.206 F 
ATOM     72  C   UNL A   1      34.740  31.430  28.155  1.00  0.00     0.040 A 
ATOM     73  C   UNL A   1      36.055  33.442  28.000  1.00  0.00     0.040 A 
ATOM     74  F   UNL A   1      38.137  33.568  29.072  1.00  0.00    -0.206 F 
ATOM     75  C   UNL A   1      34.902  32.731  27.680  1.00  0.00     0.006 A 
ENDBRANCH  54  68
BRANCH  55  76
ATOM     76  C   UNL A   1      44.192  27.935  35.086  1.00  0.00     0.057 A 
ATOM     77  C   UNL A   1      44.090  26.813  35.916  1.00  0.00     0.134 A 
ATOM     78  C   UNL A   1      45.392  28.657  35.127  1.00  0.00     0.134 A 
ATOM     79  F   UNL A   1      42.958  26.094  35.944  1.00  0.00    -0.206 F 
ATOM     80  C   UNL A   1      45.124  26.444  36.778  1.00  0.00     0.040 A 
ATOM     81  C   UNL A   1      46.446  28.281  35.960  1.00  0.00     0.040 A 
ATOM     82  F   UNL A   1      45.556  29.745  34.360  1.00  0.00    -0.206 F 
ATOM     83  C   UNL A   1      46.309  27.178  36.800  1.00  0.00     0.006 A 
ENDBRANCH  55  76
BRANCH  67  84
ATOM     84  C   UNL A   1      38.995  32.474  36.105  1.00  0.00     0.057 A 
ATOM     85  C   UNL A   1      38.211  31.956  37.144  1.00  0.00     0.134 A 
ATOM     86  C   UNL A   1      39.455  33.791  36.238  1.00  0.00     0.134 A 
ATOM     87  F   UNL A   1      37.731  30.705  37.076  1.00  0.00    -0.206 F 
ATOM     88  C   UNL A   1      37.886  32.724  38.264  1.00  0.00     0.040 A 
ATOM     89  C   UNL A   1      39.162  34.558  37.365  1.00  0.00     0.040 A 
ATOM     90  F   UNL A   1      40.221  34.343  35.285  1.00  0.00    -0.206 F 
ATOM     91  C   UNL A   1      38.372  34.026  38.381  1.00  0.00     0.006 A 
ENDBRANCH  67  84
ENDBRANCH  41  42
ENDBRANCH  34  36
ENDBRANCH  33  34
ENDBRANCH  32  33
ENDBRANCH  31  32
ENDBRANCH  30  31
ENDBRANCH  29  30
ENDBRANCH  28  29
ENDBRANCH  27  28
ENDBRANCH  26  27
ENDBRANCH   1  26
TORSDOF 26
ENDMDL
MODEL 2
REMARK VINA RESULT:      -8.9      1.285      6.470
REMARK SMILES C[C@@](NC(=O)CSCc1ccccc1)(C(=O)OCCOCCOCCOCCOC(=O)c1ccc(-c2c3nc(c(-c4c(F)cccc4F)c4ccc([nH]4)c(-c4c(F)cccc4F)c4nc(c(-c5c(F)cccc5F)c5ccc2[nH]5)C=C4)C=C3)cc1)C1CC1
REMARK SMILES IDX 21 1 20 2 19 3 18 4 17 5 15 6 16 7 2 8 1 9 3 10 4 11 5 13
REMARK SMILES IDX 6 14 7 15 8 16 9 17 10 18 14 19 11 20 13 21 12 22 86 23
REMARK SMILES IDX 87 24 88 25 22 26 23 27 24 28 25 29 26 30 27 31 28 32 29 33
REMARK SMILES IDX 30 34 31 35 32 36 33 37 85 38 34 39 84 40 35 41 36 42 37 43
REMARK SMILES IDX 78 44 38 45 83 46 77 47 79 48 39 49 82 50 76 51 75 52 40 54
REMARK SMILES IDX 66 55 49 56 65 57 50 58 53 59 64 60 80 61 51 62 52 63 63 65
REMARK SMILES IDX 81 66 54 67 41 68 42 69 47 70 43 71 44 72 46 73 48 74 45 75
REMARK SMILES IDX 67 76 68 77 73 78 69 79 70 80 72 81 74 82 71 83 55 84 56 85
REMARK SMILES IDX 61 86 57 87 58 88 60 89 62 90 59 91
REMARK H PARENT 3 12 79 53 53 64
REMARK Flexibility Score: inf
ROOT
ATOM      1  C   UNL A   1      34.774  25.102  25.394  1.00  0.00     0.188 C 
ENDROOT
BRANCH   1   2
ATOM      2  O   UNL A   1      34.640  25.099  23.987  1.00  0.00    -0.376 OA
BRANCH   2   3
ATOM      3  C   UNL A   1      33.454  24.622  23.372  1.00  0.00     0.202 C 
BRANCH   3   4
ATOM      4  C   UNL A   1      33.338  23.219  22.774  1.00  0.00     0.261 C 
BRANCH   4   5
ATOM      5  O   UNL A   1      33.233  22.151  23.728  1.00  0.00    -0.461 OA
BRANCH   5   6
ATOM      6  C   UNL A   1      34.371  21.479  24.009  1.00  0.00     0.331 C 
ATOM      7  O   UNL A   1      35.483  21.867  23.647  1.00  0.00    -0.249 OA
BRANCH   6   8
ATOM      8  C   UNL A   1      34.172  20.113  24.761  1.00  0.00     0.138 C 
ATOM      9  C   UNL A   1      35.179  18.952  24.649  1.00  0.00     0.048 C 
BRANCH   8  10
ATOM     10  N   UNL A   1      34.105  20.479  26.204  1.00  0.00    -0.340 N 
ATOM     11  C   UNL A   1      33.425  21.491  26.832  1.00  0.00     0.230 C 
ATOM     12  H   UNL A   1      34.633  19.902  26.802  1.00  0.00     0.164 HD
ATOM     13  O   UNL A   1      33.851  21.851  27.935  1.00  0.00    -0.274 OA
BRANCH  11  14
ATOM     14  C   UNL A   1      32.119  22.076  26.296  1.00  0.00     0.169 C 
BRANCH  14  15
ATOM     15  S   UNL A   1      31.754  23.761  26.876  1.00  0.00    -0.147 SA
BRANCH  15  16
ATOM     16  C   UNL A   1      30.396  24.286  25.815  1.00  0.00     0.105 C 
BRANCH  16  17
ATOM     17  C   UNL A   1      30.537  25.723  25.408  1.00  0.00    -0.038 A 
ATOM     18  C   UNL A   1      30.053  26.135  24.163  1.00  0.00     0.004 A 
ATOM     19  C   UNL A   1      31.219  26.644  26.221  1.00  0.00     0.004 A 
ATOM     20  C   UNL A   1      30.291  27.430  23.712  1.00  0.00     0.000 A 
ATOM     21  C   UNL A   1      31.460  27.939  25.766  1.00  0.00     0.000 A 
ATOM     22  C   UNL A   1      31.004  28.326  24.508  1.00  0.00     0.000 A 
ENDBRANCH  16  17
ENDBRANCH  15  16
ENDBRANCH  14  15
ENDBRANCH  11  14
ENDBRANCH   8  10
BRANCH   8  23
ATOM     23  C   UNL A   1      32.754  19.639  24.351  1.00  0.00     0.026 C 
ATOM     24  C   UNL A   1      32.495  18.805  23.104  1.00  0.00     0.007 C 
ATOM     25  C   UNL A   1      32.232  18.225  24.466  1.00  0.00     0.007 C 
ENDBRANCH   8  23
ENDBRANCH   6   8
ENDBRANCH   5   6
ENDBRANCH   4   5
ENDBRANCH   3   4
ENDBRANCH   2   3
ENDBRANCH   1   2
BRANCH   1  26
ATOM     26  C   UNL A   1      35.758  24.133  26.077  1.00  0.00     0.188 C 
BRANCH  26  27
ATOM     27  O   UNL A   1      36.873  23.652  25.356  1.00  0.00    -0.377 OA
BRANCH  27  28
ATOM     28  C   UNL A   1      38.031  23.208  26.043  1.00  0.00     0.188 C 
BRANCH  28  29
ATOM     29  C   UNL A   1      38.559  21.773  25.857  1.00  0.00     0.188 C 
BRANCH  29  30
ATOM     30  O   UNL A   1      39.613  21.409  26.728  1.00  0.00    -0.376 OA
BRANCH  30  31
ATOM     31  C   UNL A   1      40.715  20.680  26.215  1.00  0.00     0.202 C 
BRANCH  31  32
ATOM     32  C   UNL A   1      41.965  21.454  25.773  1.00  0.00     0.261 C 
BRANCH  32  33
ATOM     33  O   UNL A   1      41.781  22.841  25.455  1.00  0.00    -0.460 OA
BRANCH  33  34
ATOM     34  C   UNL A   1      42.856  23.654  25.490  1.00  0.00     0.338 C 
ATOM     35  O   UNL A   1      43.781  23.702  24.697  1.00  0.00    -0.246 OA
BRANCH  34  36
ATOM     36  C   UNL A   1      42.635  24.607  26.594  1.00  0.00     0.060 A 
ATOM     37  C   UNL A   1      41.639  24.350  27.546  1.00  0.00     0.016 A 
ATOM     38  C   UNL A   1      43.441  25.741  26.693  1.00  0.00     0.016 A 
ATOM     39  C   UNL A   1      41.443  25.238  28.604  1.00  0.00     0.010 A 
ATOM     40  C   UNL A   1      43.224  26.642  27.736  1.00  0.00     0.010 A 
ATOM     41  C   UNL A   1      42.213  26.404  28.685  1.00  0.00    -0.014 A 
BRANCH  41  42
ATOM     42  C   UNL A   1      41.877  27.467  29.659  1.00  0.00     0.031 A 
ATOM     43  C   UNL A   1      42.589  27.467  30.982  1.00  0.00     0.074 A 
ATOM     44  C   UNL A   1      40.925  28.377  29.392  1.00  0.00     0.049 A 
ATOM     45  N   UNL A   1      42.349  28.176  32.053  1.00  0.00    -0.248 NA
ATOM     46  C   UNL A   1      43.719  26.531  31.117  1.00  0.00     0.031 C 
ATOM     47  C   UNL A   1      40.203  28.504  28.127  1.00  0.00     0.029 A 
ATOM     48  N   UNL A   1      40.380  29.351  30.192  1.00  0.00    -0.354 N 
ATOM     49  C   UNL A   1      43.279  27.754  32.997  1.00  0.00     0.074 A 
ATOM     50  C   UNL A   1      44.084  26.727  32.375  1.00  0.00     0.031 C 
ATOM     51  C   UNL A   1      39.281  29.475  28.249  1.00  0.00     0.029 A 
ATOM     52  C   UNL A   1      39.315  30.000  29.614  1.00  0.00     0.049 A 
ATOM     53  H   UNL A   1      40.719  29.564  31.091  1.00  0.00     0.167 HD
ATOM     54  C   UNL A   1      43.436  28.185  34.268  1.00  0.00     0.037 A 
ATOM     55  C   UNL A   1      38.438  30.874  30.146  1.00  0.00     0.037 A 
ATOM     56  C   UNL A   1      42.636  29.217  34.873  1.00  0.00     0.049 A 
ATOM     57  C   UNL A   1      38.589  31.279  31.593  1.00  0.00     0.074 A 
ATOM     58  C   UNL A   1      42.753  29.763  36.138  1.00  0.00     0.029 A 
ATOM     59  N   UNL A   1      41.562  29.842  34.260  1.00  0.00    -0.354 N 
ATOM     60  N   UNL A   1      39.499  30.915  32.465  1.00  0.00    -0.248 NA
ATOM     61  C   UNL A   1      37.586  32.209  32.133  1.00  0.00     0.031 C 
ATOM     62  C   UNL A   1      41.704  30.670  36.316  1.00  0.00     0.029 A 
ATOM     63  C   UNL A   1      40.975  30.735  35.139  1.00  0.00     0.049 A 
ATOM     64  H   UNL A   1      41.261  29.676  33.338  1.00  0.00     0.167 HD
ATOM     65  C   UNL A   1      39.193  31.588  33.643  1.00  0.00     0.074 A 
ATOM     66  C   UNL A   1      38.024  32.398  33.369  1.00  0.00     0.031 C 
ATOM     67  C   UNL A   1      39.818  31.541  34.844  1.00  0.00     0.037 A 
BRANCH  54  68
ATOM     68  C   UNL A   1      44.481  27.522  35.114  1.00  0.00     0.057 A 
ATOM     69  C   UNL A   1      45.799  27.991  35.178  1.00  0.00     0.134 A 
ATOM     70  C   UNL A   1      44.138  26.441  35.938  1.00  0.00     0.134 A 
ATOM     71  F   UNL A   1      46.195  29.013  34.405  1.00  0.00    -0.206 F 
ATOM     72  C   UNL A   1      46.740  27.404  36.026  1.00  0.00     0.040 A 
ATOM     73  C   UNL A   1      45.063  25.863  36.807  1.00  0.00     0.040 A 
ATOM     74  F   UNL A   1      42.892  25.945  35.925  1.00  0.00    -0.206 F 
ATOM     75  C   UNL A   1      46.369  26.344  36.852  1.00  0.00     0.006 A 
ENDBRANCH  54  68
BRANCH  55  76
ATOM     76  C   UNL A   1      37.298  31.383  29.338  1.00  0.00     0.057 A 
ATOM     77  C   UNL A   1      37.291  32.686  28.826  1.00  0.00     0.134 A 
ATOM     78  C   UNL A   1      36.161  30.597  29.107  1.00  0.00     0.134 A 
ATOM     79  F   UNL A   1      38.337  33.499  29.036  1.00  0.00    -0.206 F 
ATOM     80  C   UNL A   1      36.186  33.198  28.144  1.00  0.00     0.040 A 
ATOM     81  C   UNL A   1      35.062  31.085  28.399  1.00  0.00     0.040 A 
ATOM     82  F   UNL A   1      36.099  29.340  29.572  1.00  0.00    -0.206 F 
ATOM     83  C   UNL A   1      35.067  32.395  27.926  1.00  0.00     0.006 A 
ENDBRANCH  55  76
BRANCH  67  84
ATOM     84  C   UNL A   1      39.278  32.406  35.947  1.00  0.00     0.057 A 
ATOM     85  C   UNL A   1      39.710  33.726  36.130  1.00  0.00     0.134 A 
ATOM     86  C   UNL A   1      38.263  31.936  36.790  1.00  0.00     0.134 A 
ATOM     87  F   UNL A   1      40.686  34.235  35.363  1.00  0.00    -0.206 F 
ATOM     88  C   UNL A   1      39.163  34.541  37.123  1.00  0.00     0.040 A 
ATOM     89  C   UNL A   1      37.687  32.750  37.766  1.00  0.00     0.040 A 
ATOM     90  F   UNL A   1      37.794  30.685  36.660  1.00  0.00    -0.206 F 
ATOM     91  C   UNL A   1      38.140  34.056  37.937  1.00  0.00     0.006 A 
ENDBRANCH  67  84
ENDBRANCH  41  42
ENDBRANCH  34  36
ENDBRANCH  33  34
ENDBRANCH  32  33
ENDBRANCH  31  32
ENDBRANCH  30  31
ENDBRANCH  29  30
ENDBRANCH  28  29
ENDBRANCH  27  28
ENDBRANCH  26  27
ENDBRANCH   1  26
TORSDOF 26
ENDMDL
MODEL 3
REMARK VINA RESULT:      -8.7      1.724      3.074
REMARK SMILES C[C@@](NC(=O)CSCc1ccccc1)(C(=O)OCCOCCOCCOCCOC(=O)c1ccc(-c2c3nc(c(-c4c(F)cccc4F)c4ccc([nH]4)c(-c4c(F)cccc4F)c4nc(c(-c5c(F)cccc5F)c5ccc2[nH]5)C=C4)C=C3)cc1)C1CC1
REMARK SMILES IDX 21 1 20 2 19 3 18 4 17 5 15 6 16 7 2 8 1 9 3 10 4 11 5 13
REMARK SMILES IDX 6 14 7 15 8 16 9 17 10 18 14 19 11 20 13 21 12 22 86 23
REMARK SMILES IDX 87 24 88 25 22 26 23 27 24 28 25 29 26 30 27 31 28 32 29 33
REMARK SMILES IDX 30 34 31 35 32 36 33 37 85 38 34 39 84 40 35 41 36 42 37 43
REMARK SMILES IDX 78 44 38 45 83 46 77 47 79 48 39 49 82 50 76 51 75 52 40 54
REMARK SMILES IDX 66 55 49 56 65 57 50 58 53 59 64 60 80 61 51 62 52 63 63 65
REMARK SMILES IDX 81 66 54 67 41 68 42 69 47 70 43 71 44 72 46 73 48 74 45 75
REMARK SMILES IDX 67 76 68 77 73 78 69 79 70 80 72 81 74 82 71 83 55 84 56 85
REMARK SMILES IDX 61 86 57 87 58 88 60 89 62 90 59 91
REMARK H PARENT 3 12 79 53 53 64
REMARK Flexibility Score: inf
ROOT
ATOM      1  C   UNL A   1      34.093  25.506  24.302  1.00  0.00     0.188 C 
ENDROOT
BRANCH   1   2
ATOM      2  O   UNL A   1      34.061  24.941  23.006  1.00  0.00    -0.376 OA
BRANCH   2   3
ATOM      3  C   UNL A   1      32.925  24.221  22.556  1.00  0.00     0.202 C 
BRANCH   3   4
ATOM      4  C   UNL A   1      32.911  22.697  22.422  1.00  0.00     0.261 C 
BRANCH   4   5
ATOM      5  O   UNL A   1      32.980  21.971  23.659  1.00  0.00    -0.461 OA
BRANCH   5   6
ATOM      6  C   UNL A   1      34.182  21.445  23.982  1.00  0.00     0.331 C 
ATOM      7  O   UNL A   1      35.248  21.926  23.596  1.00  0.00    -0.249 OA
BRANCH   6   8
ATOM      8  C   UNL A   1      34.125  20.116  24.820  1.00  0.00     0.138 C 
ATOM      9  C   UNL A   1      35.198  19.016  24.702  1.00  0.00     0.048 C 
BRANCH   8  10
ATOM     10  N   UNL A   1      34.128  20.562  26.242  1.00  0.00    -0.340 N 
ATOM     11  C   UNL A   1      33.504  21.626  26.840  1.00  0.00     0.230 C 
ATOM     12  H   UNL A   1      34.665  20.003  26.849  1.00  0.00     0.164 HD
ATOM     13  O   UNL A   1      33.986  22.034  27.903  1.00  0.00    -0.274 OA
BRANCH  11  14
ATOM     14  C   UNL A   1      32.193  22.221  26.325  1.00  0.00     0.169 C 
BRANCH  14  15
ATOM     15  S   UNL A   1      31.834  23.897  26.935  1.00  0.00    -0.147 SA
BRANCH  15  16
ATOM     16  C   UNL A   1      30.442  24.424  25.921  1.00  0.00     0.105 C 
BRANCH  16  17
ATOM     17  C   UNL A   1      30.582  25.856  25.494  1.00  0.00    -0.038 A 
ATOM     18  C   UNL A   1      30.074  26.255  24.255  1.00  0.00     0.004 A 
ATOM     19  C   UNL A   1      31.285  26.783  26.281  1.00  0.00     0.004 A 
ATOM     20  C   UNL A   1      30.308  27.544  23.783  1.00  0.00     0.000 A 
ATOM     21  C   UNL A   1      31.523  28.071  25.806  1.00  0.00     0.000 A 
ATOM     22  C   UNL A   1      31.042  28.446  24.553  1.00  0.00     0.000 A 
ENDBRANCH  16  17
ENDBRANCH  15  16
ENDBRANCH  14  15
ENDBRANCH  11  14
ENDBRANCH   8  10
BRANCH   8  23
ATOM     23  C   UNL A   1      32.718  19.529  24.537  1.00  0.00     0.026 C 
ATOM     24  C   UNL A   1      32.430  18.623  23.348  1.00  0.00     0.007 C 
ATOM     25  C   UNL A   1      32.306  18.090  24.749  1.00  0.00     0.007 C 
ENDBRANCH   8  23
ENDBRANCH   6   8
ENDBRANCH   5   6
ENDBRANCH   4   5
ENDBRANCH   3   4
ENDBRANCH   2   3
ENDBRANCH   1   2
BRANCH   1  26
ATOM     26  C   UNL A   1      34.966  24.869  25.400  1.00  0.00     0.188 C 
BRANCH  26  27
ATOM     27  O   UNL A   1      36.109  24.125  25.035  1.00  0.00    -0.377 OA
BRANCH  27  28
ATOM     28  C   UNL A   1      36.964  23.592  26.032  1.00  0.00     0.188 C 
BRANCH  28  29
ATOM     29  C   UNL A   1      38.081  22.596  25.667  1.00  0.00     0.188 C 
BRANCH  29  30
ATOM     30  O   UNL A   1      39.005  22.331  26.705  1.00  0.00    -0.376 OA
BRANCH  30  31
ATOM     31  C   UNL A   1      40.315  21.903  26.375  1.00  0.00     0.202 C 
BRANCH  31  32
ATOM     32  C   UNL A   1      41.412  22.963  26.199  1.00  0.00     0.261 C 
BRANCH  32  33
ATOM     33  O   UNL A   1      40.979  24.331  26.157  1.00  0.00    -0.460 OA
BRANCH  33  34
ATOM     34  C   UNL A   1      41.917  25.299  26.208  1.00  0.00     0.338 C 
ATOM     35  O   UNL A   1      42.837  25.488  25.431  1.00  0.00    -0.246 OA
BRANCH  34  36
ATOM     36  C   UNL A   1      41.532  26.208  27.304  1.00  0.00     0.060 A 
ATOM     37  C   UNL A   1      42.235  27.404  27.496  1.00  0.00     0.016 A 
ATOM     38  C   UNL A   1      40.451  25.877  28.123  1.00  0.00     0.016 A 
ATOM     39  C   UNL A   1      41.859  28.277  28.518  1.00  0.00     0.010 A 
ATOM     40  C   UNL A   1      40.095  26.737  29.161  1.00  0.00     0.010 A 
ATOM     41  C   UNL A   1      40.807  27.931  29.374  1.00  0.00    -0.014 A 
BRANCH  41  42
ATOM     42  C   UNL A   1      40.535  28.722  30.595  1.00  0.00     0.031 A 
ATOM     43  C   UNL A   1      39.454  29.764  30.539  1.00  0.00     0.074 A 
ATOM     44  C   UNL A   1      41.267  28.553  31.710  1.00  0.00     0.049 A 
ATOM     45  N   UNL A   1      39.149  30.691  31.407  1.00  0.00    -0.248 NA
ATOM     46  C   UNL A   1      38.608  29.764  29.332  1.00  0.00     0.031 C 
ATOM     47  C   UNL A   1      42.308  27.542  31.897  1.00  0.00     0.029 A 
ATOM     48  N   UNL A   1      41.264  29.257  32.889  1.00  0.00    -0.354 N 
ATOM     49  C   UNL A   1      38.096  31.402  30.843  1.00  0.00     0.074 A 
ATOM     50  C   UNL A   1      37.817  30.802  29.557  1.00  0.00     0.031 C 
ATOM     51  C   UNL A   1      42.871  27.717  33.105  1.00  0.00     0.029 A 
ATOM     52  C   UNL A   1      42.265  28.881  33.752  1.00  0.00     0.049 A 
ATOM     53  H   UNL A   1      40.609  29.963  33.095  1.00  0.00     0.167 HD
ATOM     54  C   UNL A   1      37.432  32.462  31.353  1.00  0.00     0.037 A 
ATOM     55  C   UNL A   1      42.677  29.448  34.903  1.00  0.00     0.037 A 
ATOM     56  C   UNL A   1      37.711  33.044  32.639  1.00  0.00     0.049 A 
ATOM     57  C   UNL A   1      41.969  30.681  35.412  1.00  0.00     0.074 A 
ATOM     58  C   UNL A   1      37.058  34.086  33.271  1.00  0.00     0.029 A 
ATOM     59  N   UNL A   1      38.738  32.642  33.480  1.00  0.00    -0.354 N 
ATOM     60  N   UNL A   1      40.942  31.318  34.898  1.00  0.00    -0.248 NA
ATOM     61  C   UNL A   1      42.479  31.278  36.654  1.00  0.00     0.031 C 
ATOM     62  C   UNL A   1      37.734  34.362  34.463  1.00  0.00     0.029 A 
ATOM     63  C   UNL A   1      38.768  33.449  34.603  1.00  0.00     0.049 A 
ATOM     64  H   UNL A   1      39.355  31.895  33.303  1.00  0.00     0.167 HD
ATOM     65  C   UNL A   1      40.672  32.371  35.766  1.00  0.00     0.074 A 
ATOM     66  C   UNL A   1      41.629  32.277  36.848  1.00  0.00     0.031 C 
ATOM     67  C   UNL A   1      39.721  33.332  35.676  1.00  0.00     0.037 A 
BRANCH  54  68
ATOM     68  C   UNL A   1      36.366  33.099  30.514  1.00  0.00     0.057 A 
ATOM     69  C   UNL A   1      35.002  32.902  30.763  1.00  0.00     0.134 A 
ATOM     70  C   UNL A   1      36.714  33.985  29.485  1.00  0.00     0.134 A 
ATOM     71  F   UNL A   1      34.601  32.055  31.724  1.00  0.00    -0.206 F 
ATOM     72  C   UNL A   1      34.023  33.558  30.015  1.00  0.00     0.040 A 
ATOM     73  C   UNL A   1      35.746  34.666  28.748  1.00  0.00     0.040 A 
ATOM     74  F   UNL A   1      38.003  34.218  29.196  1.00  0.00    -0.206 F 
ATOM     75  C   UNL A   1      34.395  34.453  29.012  1.00  0.00     0.006 A 
ENDBRANCH  54  68
BRANCH  55  76
ATOM     76  C   UNL A   1      43.857  28.906  35.630  1.00  0.00     0.057 A 
ATOM     77  C   UNL A   1      45.155  29.343  35.341  1.00  0.00     0.134 A 
ATOM     78  C   UNL A   1      43.718  27.895  36.590  1.00  0.00     0.134 A 
ATOM     79  F   UNL A   1      45.358  30.289  34.413  1.00  0.00    -0.206 F 
ATOM     80  C   UNL A   1      46.272  28.774  35.956  1.00  0.00     0.040 A 
ATOM     81  C   UNL A   1      44.824  27.339  37.236  1.00  0.00     0.040 A 
ATOM     82  F   UNL A   1      42.504  27.426  36.912  1.00  0.00    -0.206 F 
ATOM     83  C   UNL A   1      46.108  27.770  36.909  1.00  0.00     0.006 A 
ENDBRANCH  55  76
BRANCH  67  84
ATOM     84  C   UNL A   1      39.642  34.342  36.785  1.00  0.00     0.057 A 
ATOM     85  C   UNL A   1      40.165  35.634  36.646  1.00  0.00     0.134 A 
ATOM     86  C   UNL A   1      38.972  34.041  37.978  1.00  0.00     0.134 A 
ATOM     87  F   UNL A   1      40.826  35.985  35.532  1.00  0.00    -0.206 F 
ATOM     88  C   UNL A   1      40.038  36.585  37.661  1.00  0.00     0.040 A 
ATOM     89  C   UNL A   1      38.813  34.991  38.987  1.00  0.00     0.040 A 
ATOM     90  F   UNL A   1      38.437  32.826  38.170  1.00  0.00    -0.206 F 
ATOM     91  C   UNL A   1      39.350  36.266  38.832  1.00  0.00     0.006 A 
ENDBRANCH  67  84
ENDBRANCH  41  42
ENDBRANCH  34  36
ENDBRANCH  33  34
ENDBRANCH  32  33
ENDBRANCH  31  32
ENDBRANCH  30  31
ENDBRANCH  29  30
ENDBRANCH  28  29
ENDBRANCH  27  28
ENDBRANCH  26  27
ENDBRANCH   1  26
TORSDOF 26
ENDMDL
