MODEL 1
REMARK VINA RESULT:     -10.6      0.000      0.000
REMARK SMILES Cc1cc(C(=O)OCCOCCOCCOCCOC(=O)c2ccc(-c3c4nc(c(-c5c(F)cccc5F)c5ccc([nH]5)c(-c5c(F)cccc5F)c5nc(c(-c6c(F)cccc6F)c6ccc3[nH]6)C=C5)C=C4)cc2)c(NC(=O)c2nc(C(C)(C)C)n[nH]2)s1
REMARK SMILES IDX 12 1 11 2 10 3 9 4 8 5 7 6 5 7 6 8 4 9 1 10 2 11 3 12 89 13
REMARK SMILES IDX 76 14 77 15 78 16 79 18 80 19 81 20 88 21 82 22 87 23 83 25
REMARK SMILES IDX 84 26 85 27 86 28 13 29 14 30 15 31 16 32 17 33 18 34 19 35
REMARK SMILES IDX 20 36 21 37 22 38 23 39 75 40 24 41 74 42 25 43 26 44 27 45
REMARK SMILES IDX 68 46 28 47 73 48 67 49 69 50 29 51 72 52 66 53 65 54 30 56
REMARK SMILES IDX 56 57 39 58 55 59 40 60 43 61 54 62 70 63 41 64 42 65 53 67
REMARK SMILES IDX 71 68 44 69 31 70 32 71 37 72 33 73 34 74 36 75 38 76 35 77
REMARK SMILES IDX 57 78 58 79 63 80 59 81 60 82 62 83 64 84 61 85 45 86 46 87
REMARK SMILES IDX 51 88 47 89 48 90 50 91 52 92 49 93
REMARK H PARENT 77 17 88 24 69 55 43 66
REMARK Flexibility Score: inf
ROOT
ATOM      1  C   UNL A   1      39.794  22.239  26.795  1.00  0.00     0.188 C 
ENDROOT
BRANCH   1   2
ATOM      2  C   UNL A   1      38.946  21.391  25.832  1.00  0.00     0.188 C 
BRANCH   2   3
ATOM      3  O   UNL A   1      37.821  22.104  25.317  1.00  0.00    -0.376 OA
BRANCH   3   4
ATOM      4  C   UNL A   1      36.565  21.439  25.359  1.00  0.00     0.202 C 
BRANCH   4   5
ATOM      5  C   UNL A   1      35.536  21.835  24.286  1.00  0.00     0.261 C 
BRANCH   5   6
ATOM      6  O   UNL A   1      35.450  23.231  23.949  1.00  0.00    -0.460 OA
BRANCH   6   7
ATOM      7  C   UNL A   1      34.907  24.096  24.840  1.00  0.00     0.341 C 
ATOM      8  O   UNL A   1      35.522  24.963  25.449  1.00  0.00    -0.246 OA
BRANCH   7   9
ATOM      9  C   UNL A   1      33.452  23.998  24.845  1.00  0.00     0.095 A 
ATOM     10  C   UNL A   1      30.185  23.047  26.528  1.00  0.00     0.056 C 
ATOM     11  C   UNL A   1      31.320  23.452  25.651  1.00  0.00     0.004 A 
ATOM     12  C   UNL A   1      32.652  23.589  25.968  1.00  0.00     0.033 A 
ATOM     13  S   UNL A   1      31.046  23.777  24.005  1.00  0.00    -0.122 S 
ATOM     14  C   UNL A   1      32.672  24.175  23.709  1.00  0.00     0.110 A 
BRANCH  14  15
ATOM     15  N   UNL A   1      33.133  24.471  22.434  1.00  0.00    -0.310 N 
ATOM     16  C   UNL A   1      32.782  25.459  21.531  1.00  0.00     0.293 C 
ATOM     17  H   UNL A   1      33.840  23.865  22.112  1.00  0.00     0.171 HD
ATOM     18  O   UNL A   1      33.011  25.220  20.342  1.00  0.00    -0.265 OA
BRANCH  16  19
ATOM     19  C   UNL A   1      32.286  26.733  21.985  1.00  0.00     0.214 A 
ATOM     20  N   UNL A   1      31.020  27.100  22.044  1.00  0.00    -0.207 NA
ATOM     21  N   UNL A   1      33.061  27.791  22.355  1.00  0.00    -0.255 N 
ATOM     22  C   UNL A   1      31.078  28.384  22.535  1.00  0.00     0.156 A 
ATOM     23  N   UNL A   1      32.322  28.846  22.723  1.00  0.00    -0.158 NA
ATOM     24  H   UNL A   1      34.046  27.782  22.352  1.00  0.00     0.192 HD
BRANCH  22  25
ATOM     25  C   UNL A   1      29.840  29.208  22.792  1.00  0.00     0.024 C 
ATOM     26  C   UNL A   1      30.086  30.134  23.997  1.00  0.00     0.019 C 
ATOM     27  C   UNL A   1      29.500  30.073  21.560  1.00  0.00     0.019 C 
ATOM     28  C   UNL A   1      28.619  28.315  23.091  1.00  0.00     0.019 C 
ENDBRANCH  22  25
ENDBRANCH  16  19
ENDBRANCH  14  15
ENDBRANCH   7   9
ENDBRANCH   6   7
ENDBRANCH   5   6
ENDBRANCH   4   5
ENDBRANCH   3   4
ENDBRANCH   2   3
ENDBRANCH   1   2
BRANCH   1  29
ATOM     29  O   UNL A   1      40.976  21.553  27.194  1.00  0.00    -0.377 OA
BRANCH  29  30
ATOM     30  C   UNL A   1      40.987  20.151  26.929  1.00  0.00     0.188 C 
BRANCH  30  31
ATOM     31  C   UNL A   1      42.264  19.529  26.332  1.00  0.00     0.188 C 
BRANCH  31  32
ATOM     32  O   UNL A   1      42.852  20.348  25.317  1.00  0.00    -0.376 OA
BRANCH  32  33
ATOM     33  C   UNL A   1      44.271  20.473  25.353  1.00  0.00     0.202 C 
BRANCH  33  34
ATOM     34  C   UNL A   1      44.757  21.883  24.994  1.00  0.00     0.261 C 
BRANCH  34  35
ATOM     35  O   UNL A   1      43.986  22.944  25.581  1.00  0.00    -0.460 OA
BRANCH  35  36
ATOM     36  C   UNL A   1      44.427  24.203  25.375  1.00  0.00     0.338 C 
ATOM     37  O   UNL A   1      45.211  24.583  24.526  1.00  0.00    -0.246 OA
BRANCH  36  38
ATOM     38  C   UNL A   1      43.645  25.106  26.241  1.00  0.00     0.060 A 
ATOM     39  C   UNL A   1      43.954  26.472  26.234  1.00  0.00     0.016 A 
ATOM     40  C   UNL A   1      42.626  24.610  27.058  1.00  0.00     0.016 A 
ATOM     41  C   UNL A   1      43.274  27.341  27.087  1.00  0.00     0.010 A 
ATOM     42  C   UNL A   1      41.959  25.477  27.924  1.00  0.00     0.010 A 
ATOM     43  C   UNL A   1      42.307  26.837  27.968  1.00  0.00    -0.014 A 
BRANCH  43  44
ATOM     44  C   UNL A   1      41.814  27.680  29.079  1.00  0.00     0.031 A 
ATOM     45  C   UNL A   1      42.524  27.594  30.401  1.00  0.00     0.074 A 
ATOM     46  C   UNL A   1      40.760  28.497  28.925  1.00  0.00     0.049 A 
ATOM     47  N   UNL A   1      42.256  28.199  31.530  1.00  0.00    -0.248 NA
ATOM     48  C   UNL A   1      43.691  26.698  30.458  1.00  0.00     0.031 C 
ATOM     49  C   UNL A   1      40.005  28.683  27.688  1.00  0.00     0.029 A 
ATOM     50  N   UNL A   1      40.135  29.315  29.831  1.00  0.00    -0.354 N 
ATOM     51  C   UNL A   1      43.221  27.760  32.427  1.00  0.00     0.074 A 
ATOM     52  C   UNL A   1      44.061  26.816  31.724  1.00  0.00     0.031 C 
ATOM     53  C   UNL A   1      39.004  29.553  27.918  1.00  0.00     0.029 A 
ATOM     54  C   UNL A   1      39.039  29.964  29.321  1.00  0.00     0.049 A 
ATOM     55  H   UNL A   1      40.442  29.427  30.760  1.00  0.00     0.167 HD
ATOM     56  C   UNL A   1      43.397  28.117  33.720  1.00  0.00     0.037 A 
ATOM     57  C   UNL A   1      38.157  30.782  29.926  1.00  0.00     0.037 A 
ATOM     58  C   UNL A   1      42.554  29.042  34.426  1.00  0.00     0.049 A 
ATOM     59  C   UNL A   1      38.333  31.114  31.385  1.00  0.00     0.074 A 
ATOM     60  C   UNL A   1      42.656  29.479  35.734  1.00  0.00     0.029 A 
ATOM     61  N   UNL A   1      41.442  29.663  33.879  1.00  0.00    -0.354 N 
ATOM     62  N   UNL A   1      39.269  30.723  32.215  1.00  0.00    -0.248 NA
ATOM     63  C   UNL A   1      37.327  32.000  31.990  1.00  0.00     0.031 C 
ATOM     64  C   UNL A   1      41.582  30.338  35.992  1.00  0.00     0.029 A 
ATOM     65  C   UNL A   1      40.834  30.465  34.831  1.00  0.00     0.049 A 
ATOM     66  H   UNL A   1      41.130  29.551  32.952  1.00  0.00     0.167 HD
ATOM     67  C   UNL A   1      38.983  31.335  33.429  1.00  0.00     0.074 A 
ATOM     68  C   UNL A   1      37.788  32.128  33.226  1.00  0.00     0.031 C 
ATOM     69  C   UNL A   1      39.650  31.253  34.606  1.00  0.00     0.037 A 
BRANCH  56  70
ATOM     70  C   UNL A   1      44.537  27.479  34.453  1.00  0.00     0.057 A 
ATOM     71  C   UNL A   1      45.806  28.069  34.495  1.00  0.00     0.134 A 
ATOM     72  C   UNL A   1      44.363  26.263  35.125  1.00  0.00     0.134 A 
ATOM     73  F   UNL A   1      46.041  29.224  33.852  1.00  0.00    -0.206 F 
ATOM     74  C   UNL A   1      46.870  27.461  35.163  1.00  0.00     0.040 A 
ATOM     75  C   UNL A   1      45.413  25.656  35.814  1.00  0.00     0.040 A 
ATOM     76  F   UNL A   1      43.172  25.646  35.119  1.00  0.00    -0.206 F 
ATOM     77  C   UNL A   1      46.673  26.252  35.828  1.00  0.00     0.006 A 
ENDBRANCH  56  70
BRANCH  57  78
ATOM     78  C   UNL A   1      37.019  31.346  29.159  1.00  0.00     0.057 A 
ATOM     79  C   UNL A   1      37.041  32.667  28.700  1.00  0.00     0.134 A 
ATOM     80  C   UNL A   1      35.877  30.584  28.885  1.00  0.00     0.134 A 
ATOM     81  F   UNL A   1      38.098  33.452  28.954  1.00  0.00    -0.206 F 
ATOM     82  C   UNL A   1      35.961  33.216  28.007  1.00  0.00     0.040 A 
ATOM     83  C   UNL A   1      34.799  31.114  28.177  1.00  0.00     0.040 A 
ATOM     84  F   UNL A   1      35.796  29.312  29.302  1.00  0.00    -0.206 F 
ATOM     85  C   UNL A   1      34.836  32.437  27.740  1.00  0.00     0.006 A 
ENDBRANCH  57  78
BRANCH  69  86
ATOM     86  C   UNL A   1      39.126  32.061  35.754  1.00  0.00     0.057 A 
ATOM     87  C   UNL A   1      38.263  31.511  36.710  1.00  0.00     0.134 A 
ATOM     88  C   UNL A   1      39.533  33.388  35.935  1.00  0.00     0.134 A 
ATOM     89  F   UNL A   1      37.827  30.248  36.586  1.00  0.00    -0.206 F 
ATOM     90  C   UNL A   1      37.810  32.260  37.797  1.00  0.00     0.040 A 
ATOM     91  C   UNL A   1      39.105  34.140  37.030  1.00  0.00     0.040 A 
ATOM     92  F   UNL A   1      40.367  33.970  35.059  1.00  0.00    -0.206 F 
ATOM     93  C   UNL A   1      38.237  33.577  37.963  1.00  0.00     0.006 A 
ENDBRANCH  69  86
ENDBRANCH  43  44
ENDBRANCH  36  38
ENDBRANCH  35  36
ENDBRANCH  34  35
ENDBRANCH  33  34
ENDBRANCH  32  33
ENDBRANCH  31  32
ENDBRANCH  30  31
ENDBRANCH  29  30
ENDBRANCH   1  29
TORSDOF 23
ENDMDL
MODEL 2
REMARK VINA RESULT:     -10.5      4.858     10.365
REMARK SMILES Cc1cc(C(=O)OCCOCCOCCOCCOC(=O)c2ccc(-c3c4nc(c(-c5c(F)cccc5F)c5ccc([nH]5)c(-c5c(F)cccc5F)c5nc(c(-c6c(F)cccc6F)c6ccc3[nH]6)C=C5)C=C4)cc2)c(NC(=O)c2nc(C(C)(C)C)n[nH]2)s1
REMARK SMILES IDX 12 1 11 2 10 3 9 4 8 5 7 6 5 7 6 8 4 9 1 10 2 11 3 12 89 13
REMARK SMILES IDX 76 14 77 15 78 16 79 18 80 19 81 20 88 21 82 22 87 23 83 25
REMARK SMILES IDX 84 26 85 27 86 28 13 29 14 30 15 31 16 32 17 33 18 34 19 35
REMARK SMILES IDX 20 36 21 37 22 38 23 39 75 40 24 41 74 42 25 43 26 44 27 45
REMARK SMILES IDX 68 46 28 47 73 48 67 49 69 50 29 51 72 52 66 53 65 54 30 56
REMARK SMILES IDX 56 57 39 58 55 59 40 60 43 61 54 62 70 63 41 64 42 65 53 67
REMARK SMILES IDX 71 68 44 69 31 70 32 71 37 72 33 73 34 74 36 75 38 76 35 77
REMARK SMILES IDX 57 78 58 79 63 80 59 81 60 82 62 83 64 84 61 85 45 86 46 87
REMARK SMILES IDX 51 88 47 89 48 90 50 91 52 92 49 93
REMARK H PARENT 77 17 88 24 69 55 43 66
REMARK Flexibility Score: inf
ROOT
ATOM      1  C   UNL A   1      33.940  33.876  28.759  1.00  0.00     0.188 C 
ENDROOT
BRANCH   1   2
ATOM      2  C   UNL A   1      33.636  32.634  27.904  1.00  0.00     0.188 C 
BRANCH   2   3
ATOM      3  O   UNL A   1      33.970  31.414  28.567  1.00  0.00    -0.376 OA
BRANCH   3   4
ATOM      4  C   UNL A   1      34.871  30.544  27.894  1.00  0.00     0.202 C 
BRANCH   4   5
ATOM      5  C   UNL A   1      34.247  29.439  27.024  1.00  0.00     0.261 C 
BRANCH   5   6
ATOM      6  O   UNL A   1      32.825  29.501  26.812  1.00  0.00    -0.460 OA
BRANCH   6   7
ATOM      7  C   UNL A   1      32.083  28.378  26.970  1.00  0.00     0.341 C 
ATOM      8  O   UNL A   1      31.838  27.836  28.041  1.00  0.00    -0.246 OA
BRANCH   7   9
ATOM      9  C   UNL A   1      31.442  27.995  25.717  1.00  0.00     0.095 A 
ATOM     10  C   UNL A   1      30.188  28.821  22.230  1.00  0.00     0.056 C 
ATOM     11  C   UNL A   1      30.549  28.270  23.567  1.00  0.00     0.004 A 
ATOM     12  C   UNL A   1      31.321  28.837  24.556  1.00  0.00     0.033 A 
ATOM     13  S   UNL A   1      29.947  26.757  24.052  1.00  0.00    -0.122 S 
ATOM     14  C   UNL A   1      30.759  26.798  25.544  1.00  0.00     0.110 A 
BRANCH  14  15
ATOM     15  N   UNL A   1      30.589  25.805  26.499  1.00  0.00    -0.310 N 
ATOM     16  C   UNL A   1      30.854  24.447  26.476  1.00  0.00     0.293 C 
ATOM     17  H   UNL A   1      30.208  26.126  27.349  1.00  0.00     0.171 HD
ATOM     18  O   UNL A   1      30.203  23.750  27.260  1.00  0.00    -0.265 OA
BRANCH  16  19
ATOM     19  C   UNL A   1      31.914  23.914  25.659  1.00  0.00     0.214 A 
ATOM     20  N   UNL A   1      33.183  23.802  26.005  1.00  0.00    -0.207 NA
ATOM     21  N   UNL A   1      31.782  23.512  24.364  1.00  0.00    -0.255 N 
ATOM     22  C   UNL A   1      33.773  23.246  24.894  1.00  0.00     0.156 A 
ATOM     23  N   UNL A   1      32.941  23.070  23.858  1.00  0.00    -0.158 NA
ATOM     24  H   UNL A   1      30.936  23.543  23.860  1.00  0.00     0.192 HD
BRANCH  22  25
ATOM     25  C   UNL A   1      35.244  22.913  24.840  1.00  0.00     0.024 C 
ATOM     26  C   UNL A   1      35.852  23.499  23.553  1.00  0.00     0.019 C 
ATOM     27  C   UNL A   1      35.980  23.513  26.056  1.00  0.00     0.019 C 
ATOM     28  C   UNL A   1      35.478  21.389  24.853  1.00  0.00     0.019 C 
ENDBRANCH  22  25
ENDBRANCH  16  19
ENDBRANCH  14  15
ENDBRANCH   7   9
ENDBRANCH   6   7
ENDBRANCH   5   6
ENDBRANCH   4   5
ENDBRANCH   3   4
ENDBRANCH   2   3
ENDBRANCH   1   2
BRANCH   1  29
ATOM     29  O   UNL A   1      32.777  34.669  28.965  1.00  0.00    -0.377 OA
BRANCH  29  30
ATOM     30  C   UNL A   1      32.963  35.825  29.779  1.00  0.00     0.188 C 
BRANCH  30  31
ATOM     31  C   UNL A   1      32.907  35.659  31.310  1.00  0.00     0.188 C 
BRANCH  31  32
ATOM     32  O   UNL A   1      34.207  35.628  31.908  1.00  0.00    -0.376 OA
BRANCH  32  33
ATOM     33  C   UNL A   1      34.377  34.731  33.000  1.00  0.00     0.202 C 
BRANCH  33  34
ATOM     34  C   UNL A   1      34.255  33.257  32.591  1.00  0.00     0.261 C 
BRANCH  34  35
ATOM     35  O   UNL A   1      35.439  32.708  31.992  1.00  0.00    -0.460 OA
BRANCH  35  36
ATOM     36  C   UNL A   1      36.371  32.209  32.833  1.00  0.00     0.338 C 
ATOM     37  O   UNL A   1      36.325  32.168  34.048  1.00  0.00    -0.246 OA
BRANCH  36  38
ATOM     38  C   UNL A   1      37.398  31.528  32.021  1.00  0.00     0.060 A 
ATOM     39  C   UNL A   1      38.418  30.831  32.681  1.00  0.00     0.016 A 
ATOM     40  C   UNL A   1      37.362  31.587  30.625  1.00  0.00     0.016 A 
ATOM     41  C   UNL A   1      39.437  30.230  31.943  1.00  0.00     0.010 A 
ATOM     42  C   UNL A   1      38.391  31.000  29.888  1.00  0.00     0.010 A 
ATOM     43  C   UNL A   1      39.451  30.353  30.547  1.00  0.00    -0.014 A 
BRANCH  43  44
ATOM     44  C   UNL A   1      40.671  30.000  29.789  1.00  0.00     0.031 A 
ATOM     45  C   UNL A   1      40.787  28.603  29.246  1.00  0.00     0.074 A 
ATOM     46  C   UNL A   1      41.657  30.889  29.594  1.00  0.00     0.049 A 
ATOM     47  N   UNL A   1      41.771  28.045  28.589  1.00  0.00    -0.248 NA
ATOM     48  C   UNL A   1      39.637  27.713  29.482  1.00  0.00     0.031 C 
ATOM     49  C   UNL A   1      41.651  32.277  30.052  1.00  0.00     0.029 A 
ATOM     50  N   UNL A   1      42.867  30.745  28.964  1.00  0.00    -0.354 N 
ATOM     51  C   UNL A   1      41.358  26.744  28.331  1.00  0.00     0.074 A 
ATOM     52  C   UNL A   1      40.050  26.584  28.926  1.00  0.00     0.031 C 
ATOM     53  C   UNL A   1      42.814  32.855  29.699  1.00  0.00     0.029 A 
ATOM     54  C   UNL A   1      43.649  31.871  29.012  1.00  0.00     0.049 A 
ATOM     55  H   UNL A   1      43.148  29.913  28.519  1.00  0.00     0.167 HD
ATOM     56  C   UNL A   1      42.008  25.771  27.652  1.00  0.00     0.037 A 
ATOM     57  C   UNL A   1      44.904  32.074  28.565  1.00  0.00     0.037 A 
ATOM     58  C   UNL A   1      43.314  25.922  27.073  1.00  0.00     0.049 A 
ATOM     59  C   UNL A   1      45.634  30.955  27.870  1.00  0.00     0.074 A 
ATOM     60  C   UNL A   1      44.052  24.999  26.354  1.00  0.00     0.029 A 
ATOM     61  N   UNL A   1      44.082  27.072  27.160  1.00  0.00    -0.354 N 
ATOM     62  N   UNL A   1      45.222  29.741  27.599  1.00  0.00    -0.248 NA
ATOM     63  C   UNL A   1      47.006  31.237  27.420  1.00  0.00     0.031 C 
ATOM     64  C   UNL A   1      45.285  25.579  26.037  1.00  0.00     0.029 A 
ATOM     65  C   UNL A   1      45.297  26.877  26.526  1.00  0.00     0.049 A 
ATOM     66  H   UNL A   1      43.805  27.905  27.607  1.00  0.00     0.167 HD
ATOM     67  C   UNL A   1      46.268  29.123  26.924  1.00  0.00     0.074 A 
ATOM     68  C   UNL A   1      47.334  30.100  26.823  1.00  0.00     0.031 C 
ATOM     69  C   UNL A   1      46.341  27.863  26.429  1.00  0.00     0.037 A 
BRANCH  56  70
ATOM     70  C   UNL A   1      41.312  24.450  27.524  1.00  0.00     0.057 A 
ATOM     71  C   UNL A   1      41.694  23.341  28.288  1.00  0.00     0.134 A 
ATOM     72  C   UNL A   1      40.247  24.287  26.630  1.00  0.00     0.134 A 
ATOM     73  F   UNL A   1      42.722  23.428  29.147  1.00  0.00    -0.206 F 
ATOM     74  C   UNL A   1      41.056  22.107  28.151  1.00  0.00     0.040 A 
ATOM     75  C   UNL A   1      39.586  23.065  26.500  1.00  0.00     0.040 A 
ATOM     76  F   UNL A   1      39.835  25.312  25.868  1.00  0.00    -0.206 F 
ATOM     77  C   UNL A   1      39.995  21.969  27.257  1.00  0.00     0.006 A 
ENDBRANCH  56  70
BRANCH  57  78
ATOM     78  C   UNL A   1      45.559  33.390  28.764  1.00  0.00     0.057 A 
ATOM     79  C   UNL A   1      45.496  34.384  27.782  1.00  0.00     0.134 A 
ATOM     80  C   UNL A   1      46.279  33.676  29.930  1.00  0.00     0.134 A 
ATOM     81  F   UNL A   1      44.841  34.158  26.634  1.00  0.00    -0.206 F 
ATOM     82  C   UNL A   1      46.137  35.613  27.946  1.00  0.00     0.040 A 
ATOM     83  C   UNL A   1      46.909  34.907  30.115  1.00  0.00     0.040 A 
ATOM     84  F   UNL A   1      46.377  32.762  30.906  1.00  0.00    -0.206 F 
ATOM     85  C   UNL A   1      46.843  35.879  29.118  1.00  0.00     0.006 A 
ENDBRANCH  57  78
BRANCH  69  86
ATOM     86  C   UNL A   1      47.597  27.478  25.708  1.00  0.00     0.057 A 
ATOM     87  C   UNL A   1      48.701  26.945  26.383  1.00  0.00     0.134 A 
ATOM     88  C   UNL A   1      47.681  27.590  24.315  1.00  0.00     0.134 A 
ATOM     89  F   UNL A   1      48.687  26.822  27.719  1.00  0.00    -0.206 F 
ATOM     90  C   UNL A   1      49.852  26.552  25.699  1.00  0.00     0.040 A 
ATOM     91  C   UNL A   1      48.818  27.181  23.617  1.00  0.00     0.040 A 
ATOM     92  F   UNL A   1      46.652  28.085  23.609  1.00  0.00    -0.206 F 
ATOM     93  C   UNL A   1      49.909  26.664  24.310  1.00  0.00     0.006 A 
ENDBRANCH  69  86
ENDBRANCH  43  44
ENDBRANCH  36  38
ENDBRANCH  35  36
ENDBRANCH  34  35
ENDBRANCH  33  34
ENDBRANCH  32  33
ENDBRANCH  31  32
ENDBRANCH  30  31
ENDBRANCH  29  30
ENDBRANCH   1  29
TORSDOF 23
ENDMDL
MODEL 3
REMARK VINA RESULT:     -10.4      4.808     10.207
REMARK SMILES Cc1cc(C(=O)OCCOCCOCCOCCOC(=O)c2ccc(-c3c4nc(c(-c5c(F)cccc5F)c5ccc([nH]5)c(-c5c(F)cccc5F)c5nc(c(-c6c(F)cccc6F)c6ccc3[nH]6)C=C5)C=C4)cc2)c(NC(=O)c2nc(C(C)(C)C)n[nH]2)s1
REMARK SMILES IDX 12 1 11 2 10 3 9 4 8 5 7 6 5 7 6 8 4 9 1 10 2 11 3 12 89 13
REMARK SMILES IDX 76 14 77 15 78 16 79 18 80 19 81 20 88 21 82 22 87 23 83 25
REMARK SMILES IDX 84 26 85 27 86 28 13 29 14 30 15 31 16 32 17 33 18 34 19 35
REMARK SMILES IDX 20 36 21 37 22 38 23 39 75 40 24 41 74 42 25 43 26 44 27 45
REMARK SMILES IDX 68 46 28 47 73 48 67 49 69 50 29 51 72 52 66 53 65 54 30 56
REMARK SMILES IDX 56 57 39 58 55 59 40 60 43 61 54 62 70 63 41 64 42 65 53 67
REMARK SMILES IDX 71 68 44 69 31 70 32 71 37 72 33 73 34 74 36 75 38 76 35 77
REMARK SMILES IDX 57 78 58 79 63 80 59 81 60 82 62 83 64 84 61 85 45 86 46 87
REMARK SMILES IDX 51 88 47 89 48 90 50 91 52 92 49 93
REMARK H PARENT 77 17 88 24 69 55 43 66
REMARK Flexibility Score: inf
ROOT
ATOM      1  C   UNL A   1      34.263  33.204  28.210  1.00  0.00     0.188 C 
ENDROOT
BRANCH   1   2
ATOM      2  C   UNL A   1      33.964  31.723  27.922  1.00  0.00     0.188 C 
BRANCH   2   3
ATOM      3  O   UNL A   1      35.076  30.873  28.204  1.00  0.00    -0.376 OA
BRANCH   3   4
ATOM      4  C   UNL A   1      35.363  29.854  27.253  1.00  0.00     0.202 C 
BRANCH   4   5
ATOM      5  C   UNL A   1      34.320  28.733  27.104  1.00  0.00     0.261 C 
BRANCH   5   6
ATOM      6  O   UNL A   1      32.943  29.134  26.981  1.00  0.00    -0.460 OA
BRANCH   6   7
ATOM      7  C   UNL A   1      31.967  28.209  27.143  1.00  0.00     0.341 C 
ATOM      8  O   UNL A   1      31.478  27.877  28.216  1.00  0.00    -0.246 OA
BRANCH   7   9
ATOM      9  C   UNL A   1      31.424  27.790  25.855  1.00  0.00     0.095 A 
ATOM     10  C   UNL A   1      30.283  28.553  22.317  1.00  0.00     0.056 C 
ATOM     11  C   UNL A   1      30.621  28.017  23.665  1.00  0.00     0.004 A 
ATOM     12  C   UNL A   1      31.291  28.634  24.697  1.00  0.00     0.033 A 
ATOM     13  S   UNL A   1      30.125  26.452  24.105  1.00  0.00    -0.122 S 
ATOM     14  C   UNL A   1      30.855  26.542  25.638  1.00  0.00     0.110 A 
BRANCH  14  15
ATOM     15  N   UNL A   1      30.721  25.526  26.573  1.00  0.00    -0.310 N 
ATOM     16  C   UNL A   1      31.058  24.184  26.534  1.00  0.00     0.293 C 
ATOM     17  H   UNL A   1      30.310  25.812  27.421  1.00  0.00     0.171 HD
ATOM     18  O   UNL A   1      30.432  23.441  27.295  1.00  0.00    -0.265 OA
BRANCH  16  19
ATOM     19  C   UNL A   1      32.159  23.721  25.728  1.00  0.00     0.214 A 
ATOM     20  N   UNL A   1      33.428  23.689  26.087  1.00  0.00    -0.207 NA
ATOM     21  N   UNL A   1      32.065  23.314  24.430  1.00  0.00    -0.255 N 
ATOM     22  C   UNL A   1      34.064  23.174  24.981  1.00  0.00     0.156 A 
ATOM     23  N   UNL A   1      33.256  22.948  23.936  1.00  0.00    -0.158 NA
ATOM     24  H   UNL A   1      31.225  23.292  23.918  1.00  0.00     0.192 HD
BRANCH  22  25
ATOM     25  C   UNL A   1      35.554  22.936  24.943  1.00  0.00     0.024 C 
ATOM     26  C   UNL A   1      36.029  22.922  23.479  1.00  0.00     0.019 C 
ATOM     27  C   UNL A   1      36.301  24.053  25.699  1.00  0.00     0.019 C 
ATOM     28  C   UNL A   1      35.927  21.592  25.600  1.00  0.00     0.019 C 
ENDBRANCH  22  25
ENDBRANCH  16  19
ENDBRANCH  14  15
ENDBRANCH   7   9
ENDBRANCH   6   7
ENDBRANCH   5   6
ENDBRANCH   4   5
ENDBRANCH   3   4
ENDBRANCH   2   3
ENDBRANCH   1   2
BRANCH   1  29
ATOM     29  O   UNL A   1      33.482  33.694  29.294  1.00  0.00    -0.377 OA
BRANCH  29  30
ATOM     30  C   UNL A   1      34.008  34.847  29.951  1.00  0.00     0.188 C 
BRANCH  30  31
ATOM     31  C   UNL A   1      33.687  35.048  31.445  1.00  0.00     0.188 C 
BRANCH  31  32
ATOM     32  O   UNL A   1      34.836  35.427  32.208  1.00  0.00    -0.376 OA
BRANCH  32  33
ATOM     33  C   UNL A   1      34.838  35.039  33.579  1.00  0.00     0.202 C 
BRANCH  33  34
ATOM     34  C   UNL A   1      34.858  33.517  33.772  1.00  0.00     0.261 C 
BRANCH  34  35
ATOM     35  O   UNL A   1      36.037  32.871  33.267  1.00  0.00    -0.460 OA
BRANCH  35  36
ATOM     36  C   UNL A   1      35.876  32.049  32.208  1.00  0.00     0.338 C 
ATOM     37  O   UNL A   1      34.830  31.718  31.682  1.00  0.00    -0.246 OA
BRANCH  36  38
ATOM     38  C   UNL A   1      37.210  31.756  31.651  1.00  0.00     0.060 A 
ATOM     39  C   UNL A   1      37.451  32.046  30.303  1.00  0.00     0.016 A 
ATOM     40  C   UNL A   1      38.209  31.190  32.449  1.00  0.00     0.016 A 
ATOM     41  C   UNL A   1      38.682  31.723  29.733  1.00  0.00     0.010 A 
ATOM     42  C   UNL A   1      39.434  30.851  31.873  1.00  0.00     0.010 A 
ATOM     43  C   UNL A   1      39.660  31.082  30.506  1.00  0.00    -0.014 A 
BRANCH  43  44
ATOM     44  C   UNL A   1      40.827  30.459  29.845  1.00  0.00     0.031 A 
ATOM     45  C   UNL A   1      42.031  31.319  29.577  1.00  0.00     0.074 A 
ATOM     46  C   UNL A   1      40.821  29.167  29.482  1.00  0.00     0.049 A 
ATOM     47  N   UNL A   1      43.154  31.016  28.978  1.00  0.00    -0.248 NA
ATOM     48  C   UNL A   1      41.955  32.713  30.046  1.00  0.00     0.031 C 
ATOM     49  C   UNL A   1      39.724  28.229  29.707  1.00  0.00     0.029 A 
ATOM     50  N   UNL A   1      41.774  28.426  28.831  1.00  0.00    -0.354 N 
ATOM     51  C   UNL A   1      43.915  32.176  29.001  1.00  0.00     0.074 A 
ATOM     52  C   UNL A   1      43.120  33.198  29.644  1.00  0.00     0.031 C 
ATOM     53  C   UNL A   1      40.061  27.035  29.186  1.00  0.00     0.029 A 
ATOM     54  C   UNL A   1      41.386  27.135  28.576  1.00  0.00     0.049 A 
ATOM     55  H   UNL A   1      42.654  28.785  28.572  1.00  0.00     0.167 HD
ATOM     56  C   UNL A   1      45.170  32.373  28.534  1.00  0.00     0.037 A 
ATOM     57  C   UNL A   1      42.025  26.155  27.909  1.00  0.00     0.037 A 
ATOM     58  C   UNL A   1      45.957  31.364  27.881  1.00  0.00     0.049 A 
ATOM     59  C   UNL A   1      43.395  26.415  27.338  1.00  0.00     0.074 A 
ATOM     60  C   UNL A   1      47.244  31.460  27.383  1.00  0.00     0.029 A 
ATOM     61  N   UNL A   1      45.521  30.074  27.623  1.00  0.00    -0.354 N 
ATOM     62  N   UNL A   1      44.122  27.504  27.397  1.00  0.00    -0.248 NA
ATOM     63  C   UNL A   1      44.031  25.308  26.609  1.00  0.00     0.031 C 
ATOM     64  C   UNL A   1      47.575  30.237  26.790  1.00  0.00     0.029 A 
ATOM     65  C   UNL A   1      46.506  29.369  26.953  1.00  0.00     0.049 A 
ATOM     66  H   UNL A   1      44.642  29.713  27.878  1.00  0.00     0.167 HD
ATOM     67  C   UNL A   1      45.309  27.208  26.739  1.00  0.00     0.074 A 
ATOM     68  C   UNL A   1      45.207  25.833  26.293  1.00  0.00     0.031 C 
ATOM     69  C   UNL A   1      46.389  27.999  26.525  1.00  0.00     0.037 A 
BRANCH  56  70
ATOM     70  C   UNL A   1      45.751  33.744  28.701  1.00  0.00     0.057 A 
ATOM     71  C   UNL A   1      45.560  34.744  27.740  1.00  0.00     0.134 A 
ATOM     72  C   UNL A   1      46.506  34.067  29.834  1.00  0.00     0.134 A 
ATOM     73  F   UNL A   1      44.864  34.489  26.621  1.00  0.00    -0.206 F 
ATOM     74  C   UNL A   1      46.119  36.014  27.889  1.00  0.00     0.040 A 
ATOM     75  C   UNL A   1      47.053  35.339  30.006  1.00  0.00     0.040 A 
ATOM     76  F   UNL A   1      46.727  33.151  30.789  1.00  0.00    -0.206 F 
ATOM     77  C   UNL A   1      46.865  36.315  29.028  1.00  0.00     0.006 A 
ENDBRANCH  56  70
BRANCH  57  78
ATOM     78  C   UNL A   1      41.378  24.831  27.735  1.00  0.00     0.057 A 
ATOM     79  C   UNL A   1      41.768  23.729  28.504  1.00  0.00     0.134 A 
ATOM     80  C   UNL A   1      40.371  24.633  26.783  1.00  0.00     0.134 A 
ATOM     81  F   UNL A   1      42.745  23.853  29.414  1.00  0.00    -0.206 F 
ATOM     82  C   UNL A   1      41.188  22.473  28.324  1.00  0.00     0.040 A 
ATOM     83  C   UNL A   1      39.770  23.386  26.606  1.00  0.00     0.040 A 
ATOM     84  F   UNL A   1      39.956  25.650  26.014  1.00  0.00    -0.206 F 
ATOM     85  C   UNL A   1      40.182  22.299  27.374  1.00  0.00     0.006 A 
ENDBRANCH  57  78
BRANCH  69  86
ATOM     86  C   UNL A   1      47.556  27.393  25.807  1.00  0.00     0.057 A 
ATOM     87  C   UNL A   1      47.683  27.463  24.414  1.00  0.00     0.134 A 
ATOM     88  C   UNL A   1      48.592  26.780  26.523  1.00  0.00     0.134 A 
ATOM     89  F   UNL A   1      46.718  28.027  23.671  1.00  0.00    -0.206 F 
ATOM     90  C   UNL A   1      48.792  26.930  23.757  1.00  0.00     0.040 A 
ATOM     91  C   UNL A   1      49.717  26.263  25.879  1.00  0.00     0.040 A 
ATOM     92  F   UNL A   1      48.535  26.690  27.860  1.00  0.00    -0.206 F 
ATOM     93  C   UNL A   1      49.817  26.333  24.491  1.00  0.00     0.006 A 
ENDBRANCH  69  86
ENDBRANCH  43  44
ENDBRANCH  36  38
ENDBRANCH  35  36
ENDBRANCH  34  35
ENDBRANCH  33  34
ENDBRANCH  32  33
ENDBRANCH  31  32
ENDBRANCH  30  31
ENDBRANCH  29  30
ENDBRANCH   1  29
TORSDOF 23
ENDMDL
