MODEL 1
REMARK VINA RESULT:      -7.5      0.000      0.000
REMARK SMILES COc1ccc(S(=O)(=O)N2CCC[C@H](C(=O)N3CCC[C@H](C(=O)OCCOCCOCCOCCOC(=O)c4ccc(-c5c6nc(c(-c7c(F)cccc7F)c7ccc([nH]7)c(-c7c(F)cccc7F)c7nc(c(-c8c(F)cccc8F)c8ccc5[nH]8)C=C7)C=C6)cc4)C3)C2)cc1
REMARK SMILES IDX 28 1 27 2 26 3 25 4 24 5 22 6 23 7 21 8 17 9 18 10 93 11
REMARK SMILES IDX 19 12 20 13 15 14 16 15 14 16 10 17 11 18 94 19 12 20 13 21
REMARK SMILES IDX 7 22 8 23 9 24 6 25 3 26 4 27 96 28 5 29 95 30 2 31 1 32
REMARK SMILES IDX 29 33 30 34 31 35 32 36 33 37 34 38 35 39 36 40 37 41 38 42
REMARK SMILES IDX 39 43 40 44 92 45 41 46 91 47 42 48 43 49 44 50 85 51 45 52
REMARK SMILES IDX 90 53 84 54 86 55 46 56 89 57 83 58 82 59 47 61 73 62 56 63
REMARK SMILES IDX 72 64 57 65 60 66 71 67 87 68 58 69 59 70 70 72 88 73 61 74
REMARK SMILES IDX 48 75 49 76 54 77 50 78 51 79 53 80 55 81 52 82 74 83 75 84
REMARK SMILES IDX 80 85 76 86 77 87 79 88 81 89 78 90 62 91 63 92 68 93 64 94
REMARK SMILES IDX 65 95 67 96 69 97 66 98
REMARK H PARENT 86 60 60 71
REMARK Flexibility Score: inf
ROOT
ATOM      1  C   UNL A   1      33.635  34.583  29.473  1.00  0.00     0.188 C 
ENDROOT
BRANCH   1   2
ATOM      2  O   UNL A   1      34.623  33.715  28.931  1.00  0.00    -0.376 OA
BRANCH   2   3
ATOM      3  C   UNL A   1      35.899  33.816  29.547  1.00  0.00     0.202 C 
BRANCH   3   4
ATOM      4  C   UNL A   1      37.105  33.593  28.623  1.00  0.00     0.261 C 
BRANCH   4   5
ATOM      5  O   UNL A   1      38.038  32.583  29.033  1.00  0.00    -0.463 OA
BRANCH   5   6
ATOM      6  C   UNL A   1      37.538  31.386  29.396  1.00  0.00     0.310 C 
ATOM      7  O   UNL A   1      36.912  30.646  28.640  1.00  0.00    -0.252 OA
BRANCH   6   8
ATOM      8  C   UNL A   1      37.723  31.064  30.874  1.00  0.00     0.119 C 
ATOM      9  N   UNL A   1      39.662  29.611  30.522  1.00  0.00    -0.342 N 
ATOM     10  C   UNL A   1      39.015  28.421  31.060  1.00  0.00     0.119 C 
ATOM     11  C   UNL A   1      39.220  30.881  31.077  1.00  0.00     0.134 C 
ATOM     12  C   UNL A   1      37.497  28.512  31.012  1.00  0.00     0.022 C 
ATOM     13  C   UNL A   1      36.996  29.870  31.505  1.00  0.00     0.019 C 
BRANCH   9  14
ATOM     14  C   UNL A   1      40.484  29.493  29.422  1.00  0.00     0.227 C 
ATOM     15  O   UNL A   1      41.398  30.295  29.214  1.00  0.00    -0.275 OA
BRANCH  14  16
ATOM     16  C   UNL A   1      40.094  28.498  28.326  1.00  0.00     0.094 C 
ATOM     17  N   UNL A   1      42.244  27.337  27.929  1.00  0.00    -0.197 NA
ATOM     18  C   UNL A   1      42.423  27.881  26.572  1.00  0.00     0.102 C 
ATOM     19  C   UNL A   1      40.892  27.220  28.503  1.00  0.00     0.116 C 
ATOM     20  C   UNL A   1      41.230  28.629  25.987  1.00  0.00     0.018 C 
ATOM     21  C   UNL A   1      40.029  28.950  26.877  1.00  0.00     0.016 C 
BRANCH  17  22
ATOM     22  S   UNL A   1      43.429  26.241  28.473  1.00  0.00     0.243 S 
ATOM     23  O   UNL A   1      43.380  26.185  29.918  1.00  0.00    -0.207 OA
ATOM     24  O   UNL A   1      44.653  26.563  27.769  1.00  0.00    -0.207 OA
BRANCH  22  25
ATOM     25  C   UNL A   1      42.909  24.646  27.873  1.00  0.00     0.082 A 
ATOM     26  C   UNL A   1      42.407  22.062  26.953  1.00  0.00     0.118 A 
ATOM     27  C   UNL A   1      42.647  22.286  28.310  1.00  0.00     0.048 A 
ATOM     28  C   UNL A   1      42.341  23.136  26.072  1.00  0.00     0.048 A 
ATOM     29  C   UNL A   1      42.914  23.578  28.773  1.00  0.00     0.025 A 
ATOM     30  C   UNL A   1      42.596  24.425  26.530  1.00  0.00     0.025 A 
BRANCH  26  31
ATOM     31  O   UNL A   1      42.229  20.764  26.563  1.00  0.00    -0.497 OA
ATOM     32  C   UNL A   1      41.168  20.108  27.258  1.00  0.00     0.278 C 
ENDBRANCH  26  31
ENDBRANCH  22  25
ENDBRANCH  17  22
ENDBRANCH  14  16
ENDBRANCH   9  14
ENDBRANCH   6   8
ENDBRANCH   5   6
ENDBRANCH   4   5
ENDBRANCH   3   4
ENDBRANCH   2   3
ENDBRANCH   1   2
BRANCH   1  33
ATOM     33  C   UNL A   1      33.974  35.141  30.862  1.00  0.00     0.188 C 
BRANCH  33  34
ATOM     34  O   UNL A   1      33.348  34.579  32.007  1.00  0.00    -0.377 OA
BRANCH  34  35
ATOM     35  C   UNL A   1      34.125  33.835  32.939  1.00  0.00     0.188 C 
BRANCH  35  36
ATOM     36  C   UNL A   1      34.924  34.611  33.999  1.00  0.00     0.188 C 
BRANCH  36  37
ATOM     37  O   UNL A   1      36.210  35.033  33.566  1.00  0.00    -0.376 OA
BRANCH  37  38
ATOM     38  C   UNL A   1      37.290  34.136  33.787  1.00  0.00     0.202 C 
BRANCH  38  39
ATOM     39  C   UNL A   1      37.661  33.878  35.254  1.00  0.00     0.261 C 
BRANCH  39  40
ATOM     40  O   UNL A   1      37.314  32.573  35.754  1.00  0.00    -0.460 OA
BRANCH  40  41
ATOM     41  C   UNL A   1      38.137  32.007  36.660  1.00  0.00     0.338 C 
ATOM     42  O   UNL A   1      37.976  31.912  37.861  1.00  0.00    -0.246 OA
BRANCH  41  43
ATOM     43  C   UNL A   1      39.238  31.365  35.924  1.00  0.00     0.060 A 
ATOM     44  C   UNL A   1      40.558  31.715  36.234  1.00  0.00     0.016 A 
ATOM     45  C   UNL A   1      38.959  30.457  34.900  1.00  0.00     0.016 A 
ATOM     46  C   UNL A   1      41.607  31.190  35.482  1.00  0.00     0.010 A 
ATOM     47  C   UNL A   1      40.009  29.948  34.136  1.00  0.00     0.010 A 
ATOM     48  C   UNL A   1      41.331  30.343  34.400  1.00  0.00    -0.014 A 
BRANCH  48  49
ATOM     49  C   UNL A   1      42.392  30.046  33.411  1.00  0.00     0.031 A 
ATOM     50  C   UNL A   1      43.079  28.711  33.487  1.00  0.00     0.074 A 
ATOM     51  C   UNL A   1      42.738  30.937  32.467  1.00  0.00     0.049 A 
ATOM     52  N   UNL A   1      44.064  28.240  32.767  1.00  0.00    -0.248 NA
ATOM     53  C   UNL A   1      42.589  27.781  34.519  1.00  0.00     0.031 C 
ATOM     54  C   UNL A   1      42.123  32.248  32.272  1.00  0.00     0.029 A 
ATOM     55  N   UNL A   1      43.707  30.869  31.499  1.00  0.00    -0.354 N 
ATOM     56  C   UNL A   1      44.312  26.966  33.260  1.00  0.00     0.074 A 
ATOM     57  C   UNL A   1      43.394  26.743  34.354  1.00  0.00     0.031 C 
ATOM     58  C   UNL A   1      42.740  32.869  31.251  1.00  0.00     0.029 A 
ATOM     59  C   UNL A   1      43.808  32.009  30.742  1.00  0.00     0.049 A 
ATOM     60  H   UNL A   1      44.276  30.077  31.360  1.00  0.00     0.167 HD
ATOM     61  C   UNL A   1      45.221  26.058  32.833  1.00  0.00     0.037 A 
ATOM     62  C   UNL A   1      44.681  32.325  29.765  1.00  0.00     0.037 A 
ATOM     63  C   UNL A   1      46.139  26.280  31.750  1.00  0.00     0.049 A 
ATOM     64  C   UNL A   1      45.733  31.326  29.359  1.00  0.00     0.074 A 
ATOM     65  C   UNL A   1      47.083  25.415  31.228  1.00  0.00     0.029 A 
ATOM     66  N   UNL A   1      46.232  27.460  31.029  1.00  0.00    -0.354 N 
ATOM     67  N   UNL A   1      45.937  30.110  29.806  1.00  0.00    -0.248 NA
ATOM     68  C   UNL A   1      46.678  31.747  28.315  1.00  0.00     0.031 C 
ATOM     69  C   UNL A   1      47.779  26.087  30.219  1.00  0.00     0.029 A 
ATOM     70  C   UNL A   1      47.238  27.356  30.083  1.00  0.00     0.049 A 
ATOM     71  H   UNL A   1      45.667  28.255  31.169  1.00  0.00     0.167 HD
ATOM     72  C   UNL A   1      47.012  29.612  29.080  1.00  0.00     0.074 A 
ATOM     73  C   UNL A   1      47.412  30.654  28.157  1.00  0.00     0.031 C 
ATOM     74  C   UNL A   1      47.615  28.400  29.167  1.00  0.00     0.037 A 
BRANCH  61  75
ATOM     75  C   UNL A   1      45.281  24.752  33.566  1.00  0.00     0.057 A 
ATOM     76  C   UNL A   1      46.053  24.590  34.723  1.00  0.00     0.134 A 
ATOM     77  C   UNL A   1      44.541  23.651  33.119  1.00  0.00     0.134 A 
ATOM     78  F   UNL A   1      46.799  25.603  35.189  1.00  0.00    -0.206 F 
ATOM     79  C   UNL A   1      46.104  23.370  35.399  1.00  0.00     0.040 A 
ATOM     80  C   UNL A   1      44.566  22.433  33.800  1.00  0.00     0.040 A 
ATOM     81  F   UNL A   1      43.782  23.742  32.017  1.00  0.00    -0.206 F 
ATOM     82  C   UNL A   1      45.352  22.289  34.941  1.00  0.00     0.006 A 
ENDBRANCH  61  75
BRANCH  62  83
ATOM     83  C   UNL A   1      44.612  33.652  29.104  1.00  0.00     0.057 A 
ATOM     84  C   UNL A   1      45.143  34.794  29.715  1.00  0.00     0.134 A 
ATOM     85  C   UNL A   1      43.984  33.816  27.864  1.00  0.00     0.134 A 
ATOM     86  F   UNL A   1      45.731  34.703  30.917  1.00  0.00    -0.206 F 
ATOM     87  C   UNL A   1      45.038  36.054  29.125  1.00  0.00     0.040 A 
ATOM     88  C   UNL A   1      43.892  35.067  27.251  1.00  0.00     0.040 A 
ATOM     89  F   UNL A   1      43.449  32.761  27.231  1.00  0.00    -0.206 F 
ATOM     90  C   UNL A   1      44.415  36.192  27.886  1.00  0.00     0.006 A 
ENDBRANCH  62  83
BRANCH  74  91
ATOM     91  C   UNL A   1      48.743  28.122  28.220  1.00  0.00     0.057 A 
ATOM     92  C   UNL A   1      50.074  28.403  28.554  1.00  0.00     0.134 A 
ATOM     93  C   UNL A   1      48.499  27.520  26.979  1.00  0.00     0.134 A 
ATOM     94  F   UNL A   1      50.372  28.991  29.723  1.00  0.00    -0.206 F 
ATOM     95  C   UNL A   1      51.121  28.111  27.679  1.00  0.00     0.040 A 
ATOM     96  C   UNL A   1      49.540  27.201  26.106  1.00  0.00     0.040 A 
ATOM     97  F   UNL A   1      47.248  27.215  26.603  1.00  0.00    -0.206 F 
ATOM     98  C   UNL A   1      50.855  27.501  26.453  1.00  0.00     0.006 A 
ENDBRANCH  74  91
ENDBRANCH  48  49
ENDBRANCH  41  43
ENDBRANCH  40  41
ENDBRANCH  39  40
ENDBRANCH  38  39
ENDBRANCH  37  38
ENDBRANCH  36  37
ENDBRANCH  35  36
ENDBRANCH  34  35
ENDBRANCH  33  34
ENDBRANCH   1  33
TORSDOF 25
ENDMDL
MODEL 2
REMARK VINA RESULT:      -7.1      4.491      8.456
REMARK SMILES COc1ccc(S(=O)(=O)N2CCC[C@H](C(=O)N3CCC[C@H](C(=O)OCCOCCOCCOCCOC(=O)c4ccc(-c5c6nc(c(-c7c(F)cccc7F)c7ccc([nH]7)c(-c7c(F)cccc7F)c7nc(c(-c8c(F)cccc8F)c8ccc5[nH]8)C=C7)C=C6)cc4)C3)C2)cc1
REMARK SMILES IDX 28 1 27 2 26 3 25 4 24 5 22 6 23 7 21 8 17 9 18 10 93 11
REMARK SMILES IDX 19 12 20 13 15 14 16 15 14 16 10 17 11 18 94 19 12 20 13 21
REMARK SMILES IDX 7 22 8 23 9 24 6 25 3 26 4 27 96 28 5 29 95 30 2 31 1 32
REMARK SMILES IDX 29 33 30 34 31 35 32 36 33 37 34 38 35 39 36 40 37 41 38 42
REMARK SMILES IDX 39 43 40 44 92 45 41 46 91 47 42 48 43 49 44 50 85 51 45 52
REMARK SMILES IDX 90 53 84 54 86 55 46 56 89 57 83 58 82 59 47 61 73 62 56 63
REMARK SMILES IDX 72 64 57 65 60 66 71 67 87 68 58 69 59 70 70 72 88 73 61 74
REMARK SMILES IDX 48 75 49 76 54 77 50 78 51 79 53 80 55 81 52 82 74 83 75 84
REMARK SMILES IDX 80 85 76 86 77 87 79 88 81 89 78 90 62 91 63 92 68 93 64 94
REMARK SMILES IDX 65 95 67 96 69 97 66 98
REMARK H PARENT 86 60 60 71
REMARK Flexibility Score: inf
ROOT
ATOM      1  C   UNL A   1      34.397  34.564  27.759  1.00  0.00     0.188 C 
ENDROOT
BRANCH   1   2
ATOM      2  O   UNL A   1      35.567  33.842  27.395  1.00  0.00    -0.376 OA
BRANCH   2   3
ATOM      3  C   UNL A   1      35.774  32.644  28.130  1.00  0.00     0.202 C 
BRANCH   3   4
ATOM      4  C   UNL A   1      37.086  32.567  28.923  1.00  0.00     0.261 C 
BRANCH   4   5
ATOM      5  O   UNL A   1      37.718  31.280  28.977  1.00  0.00    -0.463 OA
BRANCH   5   6
ATOM      6  C   UNL A   1      37.357  30.451  29.974  1.00  0.00     0.310 C 
ATOM      7  O   UNL A   1      36.368  29.723  29.937  1.00  0.00    -0.252 OA
BRANCH   6   8
ATOM      8  C   UNL A   1      38.230  30.569  31.219  1.00  0.00     0.119 C 
ATOM      9  N   UNL A   1      39.872  28.915  30.470  1.00  0.00    -0.342 N 
ATOM     10  C   UNL A   1      39.630  28.000  31.577  1.00  0.00     0.119 C 
ATOM     11  C   UNL A   1      39.657  30.326  30.752  1.00  0.00     0.134 C 
ATOM     12  C   UNL A   1      38.261  28.203  32.211  1.00  0.00     0.022 C 
ATOM     13  C   UNL A   1      37.960  29.684  32.442  1.00  0.00     0.019 C 
BRANCH   9  14
ATOM     14  C   UNL A   1      40.093  28.404  29.209  1.00  0.00     0.227 C 
ATOM     15  O   UNL A   1      39.794  29.042  28.195  1.00  0.00    -0.275 OA
BRANCH  14  16
ATOM     16  C   UNL A   1      40.487  26.931  29.079  1.00  0.00     0.094 C 
ATOM     17  N   UNL A   1      42.146  27.026  27.244  1.00  0.00    -0.197 NA
ATOM     18  C   UNL A   1      41.304  26.290  26.286  1.00  0.00     0.102 C 
ATOM     19  C   UNL A   1      41.951  26.836  28.692  1.00  0.00     0.116 C 
ATOM     20  C   UNL A   1      40.039  25.656  26.855  1.00  0.00     0.018 C 
ATOM     21  C   UNL A   1      39.611  25.977  28.287  1.00  0.00     0.016 C 
BRANCH  17  22
ATOM     22  S   UNL A   1      43.701  27.467  26.708  1.00  0.00     0.243 S 
ATOM     23  O   UNL A   1      44.360  28.210  27.761  1.00  0.00    -0.207 OA
ATOM     24  O   UNL A   1      43.547  28.013  25.377  1.00  0.00    -0.207 OA
BRANCH  22  25
ATOM     25  C   UNL A   1      44.589  25.933  26.522  1.00  0.00     0.082 A 
ATOM     26  C   UNL A   1      45.693  23.400  26.148  1.00  0.00     0.118 A 
ATOM     27  C   UNL A   1      45.357  24.185  25.044  1.00  0.00     0.048 A 
ATOM     28  C   UNL A   1      45.550  23.910  27.434  1.00  0.00     0.048 A 
ATOM     29  C   UNL A   1      44.790  25.450  25.226  1.00  0.00     0.025 A 
ATOM     30  C   UNL A   1      44.995  25.173  27.620  1.00  0.00     0.025 A 
BRANCH  26  31
ATOM     31  O   UNL A   1      46.173  22.146  25.892  1.00  0.00    -0.497 OA
ATOM     32  C   UNL A   1      45.215  21.293  25.265  1.00  0.00     0.278 C 
ENDBRANCH  26  31
ENDBRANCH  22  25
ENDBRANCH  17  22
ENDBRANCH  14  16
ENDBRANCH   9  14
ENDBRANCH   6   8
ENDBRANCH   5   6
ENDBRANCH   4   5
ENDBRANCH   3   4
ENDBRANCH   2   3
ENDBRANCH   1   2
BRANCH   1  33
ATOM     33  C   UNL A   1      33.510  33.854  28.793  1.00  0.00     0.188 C 
BRANCH  33  34
ATOM     34  O   UNL A   1      33.292  34.467  30.056  1.00  0.00    -0.377 OA
BRANCH  34  35
ATOM     35  C   UNL A   1      32.879  35.827  30.116  1.00  0.00     0.188 C 
BRANCH  35  36
ATOM     36  C   UNL A   1      32.522  36.416  31.492  1.00  0.00     0.188 C 
BRANCH  36  37
ATOM     37  O   UNL A   1      33.525  37.260  32.042  1.00  0.00    -0.376 OA
BRANCH  37  38
ATOM     38  C   UNL A   1      34.085  36.867  33.287  1.00  0.00     0.202 C 
BRANCH  38  39
ATOM     39  C   UNL A   1      34.440  35.380  33.427  1.00  0.00     0.261 C 
BRANCH  39  40
ATOM     40  O   UNL A   1      35.487  34.915  32.554  1.00  0.00    -0.460 OA
BRANCH  40  41
ATOM     41  C   UNL A   1      35.854  33.620  32.647  1.00  0.00     0.338 C 
ATOM     42  O   UNL A   1      35.443  32.677  31.998  1.00  0.00    -0.246 OA
BRANCH  41  43
ATOM     43  C   UNL A   1      36.980  33.542  33.591  1.00  0.00     0.060 A 
ATOM     44  C   UNL A   1      38.265  33.870  33.144  1.00  0.00     0.016 A 
ATOM     45  C   UNL A   1      36.767  33.098  34.898  1.00  0.00     0.016 A 
ATOM     46  C   UNL A   1      39.356  33.709  33.996  1.00  0.00     0.010 A 
ATOM     47  C   UNL A   1      37.862  32.918  35.743  1.00  0.00     0.010 A 
ATOM     48  C   UNL A   1      39.162  33.185  35.282  1.00  0.00    -0.014 A 
BRANCH  48  49
ATOM     49  C   UNL A   1      40.326  32.710  36.064  1.00  0.00     0.031 A 
ATOM     50  C   UNL A   1      40.986  33.673  37.011  1.00  0.00     0.074 A 
ATOM     51  C   UNL A   1      40.786  31.454  35.940  1.00  0.00     0.049 A 
ATOM     52  N   UNL A   1      42.041  33.508  37.765  1.00  0.00    -0.248 NA
ATOM     53  C   UNL A   1      40.371  35.008  37.119  1.00  0.00     0.031 C 
ATOM     54  C   UNL A   1      40.211  30.421  35.083  1.00  0.00     0.029 A 
ATOM     55  N   UNL A   1      41.858  30.842  36.538  1.00  0.00    -0.354 N 
ATOM     56  C   UNL A   1      42.218  34.713  38.432  1.00  0.00     0.074 A 
ATOM     57  C   UNL A   1      41.179  35.610  37.978  1.00  0.00     0.031 C 
ATOM     58  C   UNL A   1      40.948  29.301  35.200  1.00  0.00     0.029 A 
ATOM     59  C   UNL A   1      42.057  29.551  36.118  1.00  0.00     0.049 A 
ATOM     60  H   UNL A   1      42.431  31.287  37.204  1.00  0.00     0.167 HD
ATOM     61  C   UNL A   1      43.160  35.041  39.346  1.00  0.00     0.037 A 
ATOM     62  C   UNL A   1      43.039  28.681  36.429  1.00  0.00     0.037 A 
ATOM     63  C   UNL A   1      44.197  34.153  39.793  1.00  0.00     0.049 A 
ATOM     64  C   UNL A   1      44.119  29.097  37.393  1.00  0.00     0.074 A 
ATOM     65  C   UNL A   1      45.185  34.385  40.733  1.00  0.00     0.029 A 
ATOM     66  N   UNL A   1      44.384  32.863  39.322  1.00  0.00    -0.354 N 
ATOM     67  N   UNL A   1      44.259  30.225  38.045  1.00  0.00    -0.248 NA
ATOM     68  C   UNL A   1      45.181  28.116  37.660  1.00  0.00     0.031 C 
ATOM     69  C   UNL A   1      45.999  33.249  40.798  1.00  0.00     0.029 A 
ATOM     70  C   UNL A   1      45.490  32.295  39.931  1.00  0.00     0.049 A 
ATOM     71  H   UNL A   1      43.816  32.418  38.652  1.00  0.00     0.167 HD
ATOM     72  C   UNL A   1      45.404  30.080  38.819  1.00  0.00     0.074 A 
ATOM     73  C   UNL A   1      45.917  28.752  38.561  1.00  0.00     0.031 C 
ATOM     74  C   UNL A   1      45.980  30.967  39.668  1.00  0.00     0.037 A 
BRANCH  61  75
ATOM     75  C   UNL A   1      43.122  36.434  39.899  1.00  0.00     0.057 A 
ATOM     76  C   UNL A   1      43.799  37.492  39.280  1.00  0.00     0.134 A 
ATOM     77  C   UNL A   1      42.383  36.722  41.053  1.00  0.00     0.134 A 
ATOM     78  F   UNL A   1      44.539  37.276  38.183  1.00  0.00    -0.206 F 
ATOM     79  C   UNL A   1      43.758  38.786  39.802  1.00  0.00     0.040 A 
ATOM     80  C   UNL A   1      42.317  38.015  41.571  1.00  0.00     0.040 A 
ATOM     81  F   UNL A   1      41.713  35.752  41.693  1.00  0.00    -0.206 F 
ATOM     82  C   UNL A   1      43.010  39.051  40.948  1.00  0.00     0.006 A 
ENDBRANCH  61  75
BRANCH  62  83
ATOM     83  C   UNL A   1      43.059  27.330  35.816  1.00  0.00     0.057 A 
ATOM     84  C   UNL A   1      43.759  27.084  34.629  1.00  0.00     0.134 A 
ATOM     85  C   UNL A   1      42.353  26.262  36.382  1.00  0.00     0.134 A 
ATOM     86  F   UNL A   1      44.431  28.076  34.025  1.00  0.00    -0.206 F 
ATOM     87  C   UNL A   1      43.743  25.830  34.017  1.00  0.00     0.040 A 
ATOM     88  C   UNL A   1      42.348  24.997  35.793  1.00  0.00     0.040 A 
ATOM     89  F   UNL A   1      41.658  26.436  37.515  1.00  0.00    -0.206 F 
ATOM     90  C   UNL A   1      43.039  24.780  34.603  1.00  0.00     0.006 A 
ENDBRANCH  62  83
BRANCH  74  91
ATOM     91  C   UNL A   1      47.206  30.519  40.406  1.00  0.00     0.057 A 
ATOM     92  C   UNL A   1      48.493  30.746  39.904  1.00  0.00     0.134 A 
ATOM     93  C   UNL A   1      47.097  29.897  41.656  1.00  0.00     0.134 A 
ATOM     94  F   UNL A   1      48.664  31.326  38.706  1.00  0.00    -0.206 F 
ATOM     95  C   UNL A   1      49.630  30.354  40.613  1.00  0.00     0.040 A 
ATOM     96  C   UNL A   1      48.226  29.522  42.385  1.00  0.00     0.040 A 
ATOM     97  F   UNL A   1      45.893  29.660  42.197  1.00  0.00    -0.206 F 
ATOM     98  C   UNL A   1      49.498  29.746  41.861  1.00  0.00     0.006 A 
ENDBRANCH  74  91
ENDBRANCH  48  49
ENDBRANCH  41  43
ENDBRANCH  40  41
ENDBRANCH  39  40
ENDBRANCH  38  39
ENDBRANCH  37  38
ENDBRANCH  36  37
ENDBRANCH  35  36
ENDBRANCH  34  35
ENDBRANCH  33  34
ENDBRANCH   1  33
TORSDOF 25
ENDMDL
MODEL 3
REMARK VINA RESULT:      -7.1      4.885      7.502
REMARK SMILES COc1ccc(S(=O)(=O)N2CCC[C@H](C(=O)N3CCC[C@H](C(=O)OCCOCCOCCOCCOC(=O)c4ccc(-c5c6nc(c(-c7c(F)cccc7F)c7ccc([nH]7)c(-c7c(F)cccc7F)c7nc(c(-c8c(F)cccc8F)c8ccc5[nH]8)C=C7)C=C6)cc4)C3)C2)cc1
REMARK SMILES IDX 28 1 27 2 26 3 25 4 24 5 22 6 23 7 21 8 17 9 18 10 93 11
REMARK SMILES IDX 19 12 20 13 15 14 16 15 14 16 10 17 11 18 94 19 12 20 13 21
REMARK SMILES IDX 7 22 8 23 9 24 6 25 3 26 4 27 96 28 5 29 95 30 2 31 1 32
REMARK SMILES IDX 29 33 30 34 31 35 32 36 33 37 34 38 35 39 36 40 37 41 38 42
REMARK SMILES IDX 39 43 40 44 92 45 41 46 91 47 42 48 43 49 44 50 85 51 45 52
REMARK SMILES IDX 90 53 84 54 86 55 46 56 89 57 83 58 82 59 47 61 73 62 56 63
REMARK SMILES IDX 72 64 57 65 60 66 71 67 87 68 58 69 59 70 70 72 88 73 61 74
REMARK SMILES IDX 48 75 49 76 54 77 50 78 51 79 53 80 55 81 52 82 74 83 75 84
REMARK SMILES IDX 80 85 76 86 77 87 79 88 81 89 78 90 62 91 63 92 68 93 64 94
REMARK SMILES IDX 65 95 67 96 69 97 66 98
REMARK H PARENT 86 60 60 71
REMARK Flexibility Score: inf
ROOT
ATOM      1  C   UNL A   1      34.350  32.994  27.912  1.00  0.00     0.188 C 
ENDROOT
BRANCH   1   2
ATOM      2  O   UNL A   1      33.535  31.846  27.712  1.00  0.00    -0.376 OA
BRANCH   2   3
ATOM      3  C   UNL A   1      34.244  30.683  27.309  1.00  0.00     0.202 C 
BRANCH   3   4
ATOM      4  C   UNL A   1      33.777  29.365  27.943  1.00  0.00     0.261 C 
BRANCH   4   5
ATOM      5  O   UNL A   1      33.415  28.317  27.031  1.00  0.00    -0.463 OA
BRANCH   5   6
ATOM      6  C   UNL A   1      32.103  28.085  26.840  1.00  0.00     0.310 C 
ATOM      7  O   UNL A   1      31.371  27.558  27.674  1.00  0.00    -0.252 OA
BRANCH   6   8
ATOM      8  C   UNL A   1      31.613  28.438  25.441  1.00  0.00     0.119 C 
ATOM      9  N   UNL A   1      31.767  26.148  24.589  1.00  0.00    -0.342 N 
ATOM     10  C   UNL A   1      32.755  26.470  23.567  1.00  0.00     0.119 C 
ATOM     11  C   UNL A   1      30.849  27.219  24.945  1.00  0.00     0.134 C 
ATOM     12  C   UNL A   1      33.532  27.739  23.889  1.00  0.00     0.022 C 
ATOM     13  C   UNL A   1      32.608  28.864  24.354  1.00  0.00     0.019 C 
BRANCH   9  14
ATOM     14  C   UNL A   1      31.872  24.959  25.278  1.00  0.00     0.227 C 
ATOM     15  O   UNL A   1      32.729  24.795  26.150  1.00  0.00    -0.275 OA
BRANCH  14  16
ATOM     16  C   UNL A   1      31.072  23.754  24.776  1.00  0.00     0.094 C 
ATOM     17  N   UNL A   1      32.761  21.950  24.921  1.00  0.00    -0.197 NA
ATOM     18  C   UNL A   1      32.859  21.764  23.463  1.00  0.00     0.102 C 
ATOM     19  C   UNL A   1      31.531  22.508  25.509  1.00  0.00     0.116 C 
ATOM     20  C   UNL A   1      31.824  22.501  22.622  1.00  0.00     0.018 C 
ATOM     21  C   UNL A   1      30.901  23.524  23.285  1.00  0.00     0.016 C 
BRANCH  17  22
ATOM     22  S   UNL A   1      33.693  20.902  25.887  1.00  0.00     0.243 S 
ATOM     23  O   UNL A   1      33.790  19.621  25.220  1.00  0.00    -0.207 OA
ATOM     24  O   UNL A   1      33.187  21.015  27.239  1.00  0.00    -0.207 OA
BRANCH  22  25
ATOM     25  C   UNL A   1      35.330  21.605  25.903  1.00  0.00     0.082 A 
ATOM     26  C   UNL A   1      37.786  22.910  25.698  1.00  0.00     0.118 A 
ATOM     27  C   UNL A   1      36.725  23.520  26.370  1.00  0.00     0.048 A 
ATOM     28  C   UNL A   1      37.643  21.619  25.198  1.00  0.00     0.048 A 
ATOM     29  C   UNL A   1      35.488  22.876  26.463  1.00  0.00     0.025 A 
ATOM     30  C   UNL A   1      36.415  20.970  25.297  1.00  0.00     0.025 A 
BRANCH  26  31
ATOM     31  O   UNL A   1      38.942  23.630  25.583  1.00  0.00    -0.497 OA
ATOM     32  C   UNL A   1      39.078  24.640  26.583  1.00  0.00     0.278 C 
ENDBRANCH  26  31
ENDBRANCH  22  25
ENDBRANCH  17  22
ENDBRANCH  14  16
ENDBRANCH   9  14
ENDBRANCH   6   8
ENDBRANCH   5   6
ENDBRANCH   4   5
ENDBRANCH   3   4
ENDBRANCH   2   3
ENDBRANCH   1   2
BRANCH   1  33
ATOM     33  C   UNL A   1      35.541  32.770  28.854  1.00  0.00     0.188 C 
BRANCH  33  34
ATOM     34  O   UNL A   1      35.298  32.436  30.214  1.00  0.00    -0.377 OA
BRANCH  34  35
ATOM     35  C   UNL A   1      34.547  33.325  31.033  1.00  0.00     0.188 C 
BRANCH  35  36
ATOM     36  C   UNL A   1      35.318  34.318  31.920  1.00  0.00     0.188 C 
BRANCH  36  37
ATOM     37  O   UNL A   1      35.687  33.798  33.190  1.00  0.00    -0.376 OA
BRANCH  37  38
ATOM     38  C   UNL A   1      36.918  33.092  33.263  1.00  0.00     0.202 C 
BRANCH  38  39
ATOM     39  C   UNL A   1      36.814  31.561  33.311  1.00  0.00     0.261 C 
BRANCH  39  40
ATOM     40  O   UNL A   1      38.033  30.874  33.650  1.00  0.00    -0.460 OA
BRANCH  40  41
ATOM     41  C   UNL A   1      38.193  29.615  33.193  1.00  0.00     0.338 C 
ATOM     42  O   UNL A   1      37.362  28.730  33.129  1.00  0.00    -0.246 OA
BRANCH  41  43
ATOM     43  C   UNL A   1      39.546  29.516  32.621  1.00  0.00     0.060 A 
ATOM     44  C   UNL A   1      39.774  30.003  31.328  1.00  0.00     0.016 A 
ATOM     45  C   UNL A   1      40.568  28.900  33.346  1.00  0.00     0.016 A 
ATOM     46  C   UNL A   1      41.023  29.830  30.735  1.00  0.00     0.010 A 
ATOM     47  C   UNL A   1      41.811  28.710  32.744  1.00  0.00     0.010 A 
ATOM     48  C   UNL A   1      42.030  29.139  31.423  1.00  0.00    -0.014 A 
BRANCH  48  49
ATOM     49  C   UNL A   1      43.230  28.671  30.693  1.00  0.00     0.031 A 
ATOM     50  C   UNL A   1      44.497  29.469  30.825  1.00  0.00     0.074 A 
ATOM     51  C   UNL A   1      43.199  27.564  29.933  1.00  0.00     0.049 A 
ATOM     52  N   UNL A   1      45.658  29.288  30.251  1.00  0.00    -0.248 NA
ATOM     53  C   UNL A   1      44.446  30.632  31.728  1.00  0.00     0.031 C 
ATOM     54  C   UNL A   1      42.042  26.690  29.755  1.00  0.00     0.029 A 
ATOM     55  N   UNL A   1      44.177  26.994  29.159  1.00  0.00    -0.354 N 
ATOM     56  C   UNL A   1      46.471  30.313  30.718  1.00  0.00     0.074 A 
ATOM     57  C   UNL A   1      45.668  31.126  31.604  1.00  0.00     0.031 C 
ATOM     58  C   UNL A   1      42.374  25.698  28.910  1.00  0.00     0.029 A 
ATOM     59  C   UNL A   1      43.755  25.885  28.471  1.00  0.00     0.049 A 
ATOM     60  H   UNL A   1      45.094  27.348  29.102  1.00  0.00     0.167 HD
ATOM     61  C   UNL A   1      47.773  30.551  30.438  1.00  0.00     0.037 A 
ATOM     62  C   UNL A   1      44.411  25.123  27.573  1.00  0.00     0.037 A 
ATOM     63  C   UNL A   1      48.570  29.747  29.553  1.00  0.00     0.049 A 
ATOM     64  C   UNL A   1      45.838  25.454  27.221  1.00  0.00     0.074 A 
ATOM     65  C   UNL A   1      49.905  29.893  29.222  1.00  0.00     0.029 A 
ATOM     66  N   UNL A   1      48.099  28.649  28.850  1.00  0.00    -0.354 N 
ATOM     67  N   UNL A   1      46.609  26.403  27.693  1.00  0.00    -0.248 NA
ATOM     68  C   UNL A   1      46.482  24.608  26.206  1.00  0.00     0.031 C 
ATOM     69  C   UNL A   1      50.231  28.910  28.282  1.00  0.00     0.029 A 
ATOM     70  C   UNL A   1      49.110  28.125  28.063  1.00  0.00     0.049 A 
ATOM     71  H   UNL A   1      47.181  28.296  28.901  1.00  0.00     0.167 HD
ATOM     72  C   UNL A   1      47.835  26.251  27.057  1.00  0.00     0.074 A 
ATOM     73  C   UNL A   1      47.708  25.113  26.170  1.00  0.00     0.031 C 
ATOM     74  C   UNL A   1      48.967  26.986  27.194  1.00  0.00     0.037 A 
BRANCH  61  75
ATOM     75  C   UNL A   1      48.403  31.750  31.079  1.00  0.00     0.057 A 
ATOM     76  C   UNL A   1      48.976  31.688  32.355  1.00  0.00     0.134 A 
ATOM     77  C   UNL A   1      48.454  32.975  30.402  1.00  0.00     0.134 A 
ATOM     78  F   UNL A   1      48.942  30.548  33.061  1.00  0.00    -0.206 F 
ATOM     79  C   UNL A   1      49.562  32.810  32.945  1.00  0.00     0.040 A 
ATOM     80  C   UNL A   1      49.056  34.096  30.973  1.00  0.00     0.040 A 
ATOM     81  F   UNL A   1      47.922  33.099  29.178  1.00  0.00    -0.206 F 
ATOM     82  C   UNL A   1      49.608  34.018  32.250  1.00  0.00     0.006 A 
ENDBRANCH  61  75
BRANCH  62  83
ATOM     83  C   UNL A   1      43.726  23.975  26.928  1.00  0.00     0.057 A 
ATOM     84  C   UNL A   1      43.537  22.768  27.611  1.00  0.00     0.134 A 
ATOM     85  C   UNL A   1      43.275  24.046  25.605  1.00  0.00     0.134 A 
ATOM     86  F   UNL A   1      43.973  22.631  28.872  1.00  0.00    -0.206 F 
ATOM     87  C   UNL A   1      42.939  21.667  26.997  1.00  0.00     0.040 A 
ATOM     88  C   UNL A   1      42.654  22.960  24.986  1.00  0.00     0.040 A 
ATOM     89  F   UNL A   1      43.432  25.173  24.895  1.00  0.00    -0.206 F 
ATOM     90  C   UNL A   1      42.491  21.763  25.681  1.00  0.00     0.006 A 
ENDBRANCH  62  83
BRANCH  74  91
ATOM     91  C   UNL A   1      50.164  26.563  26.398  1.00  0.00     0.057 A 
ATOM     92  C   UNL A   1      50.424  27.084  25.124  1.00  0.00     0.134 A 
ATOM     93  C   UNL A   1      51.093  25.662  26.932  1.00  0.00     0.134 A 
ATOM     94  F   UNL A   1      49.567  27.942  24.551  1.00  0.00    -0.206 F 
ATOM     95  C   UNL A   1      51.559  26.709  24.402  1.00  0.00     0.040 A 
ATOM     96  C   UNL A   1      52.243  25.297  26.230  1.00  0.00     0.040 A 
ATOM     97  F   UNL A   1      50.908  25.134  28.151  1.00  0.00    -0.206 F 
ATOM     98  C   UNL A   1      52.476  25.818  24.959  1.00  0.00     0.006 A 
ENDBRANCH  74  91
ENDBRANCH  48  49
ENDBRANCH  41  43
ENDBRANCH  40  41
ENDBRANCH  39  40
ENDBRANCH  38  39
ENDBRANCH  37  38
ENDBRANCH  36  37
ENDBRANCH  35  36
ENDBRANCH  34  35
ENDBRANCH  33  34
ENDBRANCH   1  33
TORSDOF 25
ENDMDL
