MODEL 1
REMARK VINA RESULT:     -10.8      0.000      0.000
REMARK SMILES COc1ccc2c(c1)[C@H]([NH2+][C@H]1CCC[C@H](C(=O)OCCOCCOCCOCCOC(=O)c3ccc(-c4c5nc(c(-c6c(F)cccc6F)c6ccc([nH]6)c(-c6c(F)cccc6F)c6nc(c(-c7c(F)cccc7F)c7ccc4[nH]7)C=C6)C=C5)cc3)C1)CC2
REMARK SMILES IDX 23 1 22 2 21 3 20 4 19 5 18 6 16 7 17 8 15 9 11 10 12 11
REMARK SMILES IDX 87 12 13 13 14 14 10 15 9 18 3 19 4 20 8 21 5 22 7 23 6 24
REMARK SMILES IDX 89 25 88 26 2 27 1 28 24 29 25 30 26 31 27 32 28 33 29 34
REMARK SMILES IDX 30 35 31 36 32 37 33 38 34 39 86 40 35 41 85 42 36 43 37 44
REMARK SMILES IDX 38 45 79 46 39 47 84 48 78 49 80 50 40 51 83 52 77 53 76 54
REMARK SMILES IDX 41 56 67 57 50 58 66 59 51 60 54 61 65 62 81 63 52 64 53 65
REMARK SMILES IDX 64 67 82 68 55 69 42 70 43 71 48 72 44 73 45 74 47 75 49 76
REMARK SMILES IDX 46 77 68 78 69 79 74 80 70 81 71 82 73 83 75 84 72 85 56 86
REMARK SMILES IDX 57 87 62 88 58 89 59 90 61 91 63 92 60 93
REMARK H PARENT 10 16 10 17 80 55 54 66
REMARK Flexibility Score: inf
ROOT
ATOM      1  C   UNL A   1      37.381  21.462  25.329  1.00  0.00     0.188 C 
ENDROOT
BRANCH   1   2
ATOM      2  C   UNL A   1      36.523  20.334  24.734  1.00  0.00     0.188 C 
BRANCH   2   3
ATOM      3  O   UNL A   1      35.157  20.200  25.098  1.00  0.00    -0.376 OA
BRANCH   3   4
ATOM      4  C   UNL A   1      34.412  19.020  24.820  1.00  0.00     0.202 C 
BRANCH   4   5
ATOM      5  C   UNL A   1      32.966  19.021  24.305  1.00  0.00     0.261 C 
BRANCH   5   6
ATOM      6  O   UNL A   1      32.285  20.271  24.420  1.00  0.00    -0.463 OA
BRANCH   6   7
ATOM      7  C   UNL A   1      32.253  21.046  23.308  1.00  0.00     0.309 C 
ATOM      8  O   UNL A   1      31.844  20.673  22.216  1.00  0.00    -0.252 OA
BRANCH   7   9
ATOM      9  C   UNL A   1      32.645  22.489  23.610  1.00  0.00     0.105 C 
ATOM     10  C   UNL A   1      31.800  24.922  23.195  1.00  0.00     0.183 C 
ATOM     11  C   UNL A   1      33.169  25.199  22.561  1.00  0.00     0.065 C 
ATOM     12  C   UNL A   1      31.513  23.409  23.134  1.00  0.00     0.080 C 
ATOM     13  C   UNL A   1      34.295  24.369  23.162  1.00  0.00     0.007 C 
ATOM     14  C   UNL A   1      34.005  22.887  23.014  1.00  0.00     0.016 C 
BRANCH  10  15
ATOM     15  N   UNL A   1      31.478  25.597  24.466  1.00  0.00    -0.338 N 
ATOM     16  H   UNL A   1      30.462  25.565  24.560  1.00  0.00     0.347 HD
ATOM     17  H   UNL A   1      32.046  25.080  25.139  1.00  0.00     0.347 HD
BRANCH  15  18
ATOM     18  C   UNL A   1      31.870  26.970  24.714  1.00  0.00     0.214 C 
ATOM     19  C   UNL A   1      29.663  29.455  22.829  1.00  0.00     0.119 A 
ATOM     20  C   UNL A   1      29.932  30.582  23.610  1.00  0.00     0.047 A 
ATOM     21  C   UNL A   1      30.083  28.189  23.226  1.00  0.00     0.056 A 
ATOM     22  C   UNL A   1      30.649  30.449  24.801  1.00  0.00     0.008 A 
ATOM     23  C   UNL A   1      30.921  28.078  24.320  1.00  0.00     0.016 A 
ATOM     24  C   UNL A   1      31.139  29.195  25.141  1.00  0.00    -0.038 A 
ATOM     25  C   UNL A   1      32.004  28.831  26.311  1.00  0.00     0.042 C 
ATOM     26  C   UNL A   1      31.997  27.292  26.221  1.00  0.00     0.075 C 
BRANCH  19  27
ATOM     27  O   UNL A   1      29.023  29.551  21.622  1.00  0.00    -0.497 OA
ATOM     28  C   UNL A   1      28.030  30.581  21.667  1.00  0.00     0.278 C 
ENDBRANCH  19  27
ENDBRANCH  15  18
ENDBRANCH  10  15
ENDBRANCH   7   9
ENDBRANCH   6   7
ENDBRANCH   5   6
ENDBRANCH   4   5
ENDBRANCH   3   4
ENDBRANCH   2   3
ENDBRANCH   1   2
BRANCH   1  29
ATOM     29  O   UNL A   1      38.745  21.128  25.478  1.00  0.00    -0.377 OA
BRANCH  29  30
ATOM     30  C   UNL A   1      39.527  21.835  26.429  1.00  0.00     0.188 C 
BRANCH  30  31
ATOM     31  C   UNL A   1      40.930  21.325  26.816  1.00  0.00     0.188 C 
BRANCH  31  32
ATOM     32  O   UNL A   1      41.693  20.807  25.737  1.00  0.00    -0.376 OA
BRANCH  32  33
ATOM     33  C   UNL A   1      43.106  20.772  25.867  1.00  0.00     0.202 C 
BRANCH  33  34
ATOM     34  C   UNL A   1      43.912  21.779  25.030  1.00  0.00     0.261 C 
BRANCH  34  35
ATOM     35  O   UNL A   1      43.284  23.049  24.783  1.00  0.00    -0.460 OA
BRANCH  35  36
ATOM     36  C   UNL A   1      44.005  24.160  25.023  1.00  0.00     0.338 C 
ATOM     37  O   UNL A   1      45.106  24.439  24.568  1.00  0.00    -0.246 OA
BRANCH  36  38
ATOM     38  C   UNL A   1      43.168  25.101  25.792  1.00  0.00     0.060 A 
ATOM     39  C   UNL A   1      43.549  26.448  25.854  1.00  0.00     0.016 A 
ATOM     40  C   UNL A   1      42.043  24.650  26.487  1.00  0.00     0.016 A 
ATOM     41  C   UNL A   1      42.845  27.336  26.664  1.00  0.00     0.010 A 
ATOM     42  C   UNL A   1      41.350  25.538  27.317  1.00  0.00     0.010 A 
ATOM     43  C   UNL A   1      41.783  26.871  27.450  1.00  0.00    -0.014 A 
BRANCH  43  44
ATOM     44  C   UNL A   1      41.313  27.695  28.590  1.00  0.00     0.031 A 
ATOM     45  C   UNL A   1      42.070  27.591  29.891  1.00  0.00     0.074 A 
ATOM     46  C   UNL A   1      40.287  28.556  28.473  1.00  0.00     0.049 A 
ATOM     47  N   UNL A   1      41.831  28.162  31.043  1.00  0.00    -0.248 NA
ATOM     48  C   UNL A   1      43.261  26.723  29.886  1.00  0.00     0.031 C 
ATOM     49  C   UNL A   1      39.514  28.796  27.255  1.00  0.00     0.029 A 
ATOM     50  N   UNL A   1      39.718  29.390  29.403  1.00  0.00    -0.354 N 
ATOM     51  C   UNL A   1      42.840  27.725  31.894  1.00  0.00     0.074 A 
ATOM     52  C   UNL A   1      43.668  26.808  31.143  1.00  0.00     0.031 C 
ATOM     53  C   UNL A   1      38.557  29.703  27.520  1.00  0.00     0.029 A 
ATOM     54  C   UNL A   1      38.630  30.083  28.930  1.00  0.00     0.049 A 
ATOM     55  H   UNL A   1      40.057  29.482  30.322  1.00  0.00     0.167 HD
ATOM     56  C   UNL A   1      43.070  28.070  33.182  1.00  0.00     0.037 A 
ATOM     57  C   UNL A   1      37.779  30.906  29.574  1.00  0.00     0.037 A 
ATOM     58  C   UNL A   1      42.245  28.978  33.932  1.00  0.00     0.049 A 
ATOM     59  C   UNL A   1      38.001  31.198  31.039  1.00  0.00     0.074 A 
ATOM     60  C   UNL A   1      42.376  29.371  35.253  1.00  0.00     0.029 A 
ATOM     61  N   UNL A   1      41.138  29.638  33.424  1.00  0.00    -0.354 N 
ATOM     62  N   UNL A   1      38.954  30.776  31.836  1.00  0.00    -0.248 NA
ATOM     63  C   UNL A   1      37.031  32.090  31.693  1.00  0.00     0.031 C 
ATOM     64  C   UNL A   1      41.322  30.237  35.557  1.00  0.00     0.029 A 
ATOM     65  C   UNL A   1      40.573  30.432  34.408  1.00  0.00     0.049 A 
ATOM     66  H   UNL A   1      40.804  29.556  32.502  1.00  0.00     0.167 HD
ATOM     67  C   UNL A   1      38.727  31.391  33.064  1.00  0.00     0.074 A 
ATOM     68  C   UNL A   1      37.552  32.220  32.904  1.00  0.00     0.031 C 
ATOM     69  C   UNL A   1      39.426  31.281  34.219  1.00  0.00     0.037 A 
BRANCH  56  70
ATOM     70  C   UNL A   1      44.256  27.456  33.866  1.00  0.00     0.057 A 
ATOM     71  C   UNL A   1      45.502  28.096  33.894  1.00  0.00     0.134 A 
ATOM     72  C   UNL A   1      44.139  26.238  34.548  1.00  0.00     0.134 A 
ATOM     73  F   UNL A   1      45.686  29.256  33.245  1.00  0.00    -0.206 F 
ATOM     74  C   UNL A   1      46.593  27.541  34.566  1.00  0.00     0.040 A 
ATOM     75  C   UNL A   1      45.214  25.687  35.246  1.00  0.00     0.040 A 
ATOM     76  F   UNL A   1      42.974  25.574  34.560  1.00  0.00    -0.206 F 
ATOM     77  C   UNL A   1      46.447  26.338  35.253  1.00  0.00     0.006 A 
ENDBRANCH  56  70
BRANCH  57  78
ATOM     78  C   UNL A   1      36.611  31.498  28.867  1.00  0.00     0.057 A 
ATOM     79  C   UNL A   1      36.563  32.862  28.549  1.00  0.00     0.134 A 
ATOM     80  C   UNL A   1      35.478  30.732  28.570  1.00  0.00     0.134 A 
ATOM     81  F   UNL A   1      37.606  33.657  28.828  1.00  0.00    -0.206 F 
ATOM     82  C   UNL A   1      35.419  33.448  28.004  1.00  0.00     0.040 A 
ATOM     83  C   UNL A   1      34.339  31.298  27.994  1.00  0.00     0.040 A 
ATOM     84  F   UNL A   1      35.455  29.419  28.846  1.00  0.00    -0.206 F 
ATOM     85  C   UNL A   1      34.302  32.664  27.725  1.00  0.00     0.006 A 
ENDBRANCH  57  78
BRANCH  69  86
ATOM     86  C   UNL A   1      38.997  32.139  35.376  1.00  0.00     0.057 A 
ATOM     87  C   UNL A   1      38.212  31.646  36.426  1.00  0.00     0.134 A 
ATOM     88  C   UNL A   1      39.409  33.477  35.453  1.00  0.00     0.134 A 
ATOM     89  F   UNL A   1      37.775  30.378  36.412  1.00  0.00    -0.206 F 
ATOM     90  C   UNL A   1      37.824  32.461  37.493  1.00  0.00     0.040 A 
ATOM     91  C   UNL A   1      39.057  34.291  36.530  1.00  0.00     0.040 A 
ATOM     92  F   UNL A   1      40.176  34.010  34.489  1.00  0.00    -0.206 F 
ATOM     93  C   UNL A   1      38.254  33.786  37.549  1.00  0.00     0.006 A 
ENDBRANCH  69  86
ENDBRANCH  43  44
ENDBRANCH  36  38
ENDBRANCH  35  36
ENDBRANCH  34  35
ENDBRANCH  33  34
ENDBRANCH  32  33
ENDBRANCH  31  32
ENDBRANCH  30  31
ENDBRANCH  29  30
ENDBRANCH   1  29
TORSDOF 23
ENDMDL
MODEL 2
REMARK VINA RESULT:     -10.4      0.545      5.904
REMARK SMILES COc1ccc2c(c1)[C@H]([NH2+][C@H]1CCC[C@H](C(=O)OCCOCCOCCOCCOC(=O)c3ccc(-c4c5nc(c(-c6c(F)cccc6F)c6ccc([nH]6)c(-c6c(F)cccc6F)c6nc(c(-c7c(F)cccc7F)c7ccc4[nH]7)C=C6)C=C5)cc3)C1)CC2
REMARK SMILES IDX 23 1 22 2 21 3 20 4 19 5 18 6 16 7 17 8 15 9 11 10 12 11
REMARK SMILES IDX 87 12 13 13 14 14 10 15 9 18 3 19 4 20 8 21 5 22 7 23 6 24
REMARK SMILES IDX 89 25 88 26 2 27 1 28 24 29 25 30 26 31 27 32 28 33 29 34
REMARK SMILES IDX 30 35 31 36 32 37 33 38 34 39 86 40 35 41 85 42 36 43 37 44
REMARK SMILES IDX 38 45 79 46 39 47 84 48 78 49 80 50 40 51 83 52 77 53 76 54
REMARK SMILES IDX 41 56 67 57 50 58 66 59 51 60 54 61 65 62 81 63 52 64 53 65
REMARK SMILES IDX 64 67 82 68 55 69 42 70 43 71 48 72 44 73 45 74 47 75 49 76
REMARK SMILES IDX 46 77 68 78 69 79 74 80 70 81 71 82 73 83 75 84 72 85 56 86
REMARK SMILES IDX 57 87 62 88 58 89 59 90 61 91 63 92 60 93
REMARK H PARENT 10 16 10 17 80 55 54 66
REMARK Flexibility Score: inf
ROOT
ATOM      1  C   UNL A   1      37.163  21.700  25.276  1.00  0.00     0.188 C 
ENDROOT
BRANCH   1   2
ATOM      2  C   UNL A   1      36.336  20.557  24.665  1.00  0.00     0.188 C 
BRANCH   2   3
ATOM      3  O   UNL A   1      35.084  20.194  25.229  1.00  0.00    -0.376 OA
BRANCH   3   4
ATOM      4  C   UNL A   1      34.338  19.077  24.757  1.00  0.00     0.202 C 
BRANCH   4   5
ATOM      5  C   UNL A   1      33.064  19.196  23.909  1.00  0.00     0.261 C 
BRANCH   5   6
ATOM      6  O   UNL A   1      32.307  20.388  24.120  1.00  0.00    -0.463 OA
BRANCH   6   7
ATOM      7  C   UNL A   1      32.293  21.283  23.101  1.00  0.00     0.309 C 
ATOM      8  O   UNL A   1      31.813  21.066  21.996  1.00  0.00    -0.252 OA
BRANCH   7   9
ATOM      9  C   UNL A   1      32.808  22.650  23.539  1.00  0.00     0.105 C 
ATOM     10  C   UNL A   1      32.207  25.179  23.325  1.00  0.00     0.183 C 
ATOM     11  C   UNL A   1      33.614  25.378  22.748  1.00  0.00     0.065 C 
ATOM     12  C   UNL A   1      31.782  23.712  23.123  1.00  0.00     0.080 C 
ATOM     13  C   UNL A   1      34.639  24.396  23.296  1.00  0.00     0.007 C 
ATOM     14  C   UNL A   1      34.217  22.966  23.010  1.00  0.00     0.016 C 
BRANCH  10  15
ATOM     15  N   UNL A   1      31.911  25.769  24.644  1.00  0.00    -0.338 N 
ATOM     16  H   UNL A   1      30.914  25.622  24.808  1.00  0.00     0.347 HD
ATOM     17  H   UNL A   1      32.580  25.294  25.251  1.00  0.00     0.347 HD
BRANCH  15  18
ATOM     18  C   UNL A   1      32.171  27.167  24.923  1.00  0.00     0.214 C 
ATOM     19  C   UNL A   1      29.853  29.480  22.954  1.00  0.00     0.119 A 
ATOM     20  C   UNL A   1      29.986  30.615  23.758  1.00  0.00     0.047 A 
ATOM     21  C   UNL A   1      30.360  28.250  23.360  1.00  0.00     0.056 A 
ATOM     22  C   UNL A   1      30.655  30.528  24.981  1.00  0.00     0.008 A 
ATOM     23  C   UNL A   1      31.151  28.196  24.493  1.00  0.00     0.016 A 
ATOM     24  C   UNL A   1      31.233  29.316  25.334  1.00  0.00    -0.038 A 
ATOM     25  C   UNL A   1      32.069  29.012  26.541  1.00  0.00     0.042 C 
ATOM     26  C   UNL A   1      32.198  27.479  26.437  1.00  0.00     0.075 C 
BRANCH  19  27
ATOM     27  O   UNL A   1      29.265  29.537  21.719  1.00  0.00    -0.497 OA
ATOM     28  C   UNL A   1      28.028  30.253  21.790  1.00  0.00     0.278 C 
ENDBRANCH  19  27
ENDBRANCH  15  18
ENDBRANCH  10  15
ENDBRANCH   7   9
ENDBRANCH   6   7
ENDBRANCH   5   6
ENDBRANCH   4   5
ENDBRANCH   3   4
ENDBRANCH   2   3
ENDBRANCH   1   2
BRANCH   1  29
ATOM     29  O   UNL A   1      38.508  21.358  25.536  1.00  0.00    -0.377 OA
BRANCH  29  30
ATOM     30  C   UNL A   1      39.241  22.121  26.484  1.00  0.00     0.188 C 
BRANCH  30  31
ATOM     31  C   UNL A   1      40.708  21.767  26.801  1.00  0.00     0.188 C 
BRANCH  31  32
ATOM     32  O   UNL A   1      41.467  21.326  25.686  1.00  0.00    -0.376 OA
BRANCH  32  33
ATOM     33  C   UNL A   1      42.856  21.092  25.867  1.00  0.00     0.202 C 
BRANCH  33  34
ATOM     34  C   UNL A   1      43.818  22.214  25.442  1.00  0.00     0.261 C 
BRANCH  34  35
ATOM     35  O   UNL A   1      43.212  23.455  25.044  1.00  0.00    -0.460 OA
BRANCH  35  36
ATOM     36  C   UNL A   1      43.928  24.583  25.211  1.00  0.00     0.338 C 
ATOM     37  O   UNL A   1      44.952  24.901  24.624  1.00  0.00    -0.246 OA
BRANCH  36  38
ATOM     38  C   UNL A   1      43.174  25.486  26.103  1.00  0.00     0.060 A 
ATOM     39  C   UNL A   1      43.636  26.795  26.286  1.00  0.00     0.016 A 
ATOM     40  C   UNL A   1      42.045  25.031  26.789  1.00  0.00     0.016 A 
ATOM     41  C   UNL A   1      43.013  27.634  27.208  1.00  0.00     0.010 A 
ATOM     42  C   UNL A   1      41.433  25.866  27.729  1.00  0.00     0.010 A 
ATOM     43  C   UNL A   1      41.949  27.151  27.980  1.00  0.00    -0.014 A 
BRANCH  43  44
ATOM     44  C   UNL A   1      41.565  27.879  29.215  1.00  0.00     0.031 A 
ATOM     45  C   UNL A   1      40.362  28.786  29.150  1.00  0.00     0.074 A 
ATOM     46  C   UNL A   1      42.218  27.703  30.377  1.00  0.00     0.049 A 
ATOM     47  N   UNL A   1      39.855  29.567  30.069  1.00  0.00    -0.248 NA
ATOM     48  C   UNL A   1      39.630  28.811  27.871  1.00  0.00     0.031 C 
ATOM     49  C   UNL A   1      43.356  26.810  30.587  1.00  0.00     0.029 A 
ATOM     50  N   UNL A   1      42.012  28.280  31.606  1.00  0.00    -0.354 N 
ATOM     51  C   UNL A   1      38.750  30.171  29.481  1.00  0.00     0.074 A 
ATOM     52  C   UNL A   1      38.683  29.702  28.115  1.00  0.00     0.031 C 
ATOM     53  C   UNL A   1      43.760  26.913  31.866  1.00  0.00     0.029 A 
ATOM     54  C   UNL A   1      42.931  27.901  32.554  1.00  0.00     0.049 A 
ATOM     55  H   UNL A   1      41.275  28.906  31.790  1.00  0.00     0.167 HD
ATOM     56  C   UNL A   1      37.858  31.024  30.033  1.00  0.00     0.037 A 
ATOM     57  C   UNL A   1      43.097  28.329  33.821  1.00  0.00     0.037 A 
ATOM     58  C   UNL A   1      37.926  31.495  31.390  1.00  0.00     0.049 A 
ATOM     59  C   UNL A   1      42.144  29.358  34.384  1.00  0.00     0.074 A 
ATOM     60  C   UNL A   1      37.087  32.385  32.037  1.00  0.00     0.029 A 
ATOM     61  N   UNL A   1      38.887  31.107  32.310  1.00  0.00    -0.354 N 
ATOM     62  N   UNL A   1      41.106  29.927  33.818  1.00  0.00    -0.248 NA
ATOM     63  C   UNL A   1      42.383  29.799  35.766  1.00  0.00     0.031 C 
ATOM     64  C   UNL A   1      37.566  32.569  33.338  1.00  0.00     0.029 A 
ATOM     65  C   UNL A   1      38.665  31.746  33.518  1.00  0.00     0.049 A 
ATOM     66  H   UNL A   1      39.618  30.473  32.131  1.00  0.00     0.167 HD
ATOM     67  C   UNL A   1      40.542  30.748  34.790  1.00  0.00     0.074 A 
ATOM     68  C   UNL A   1      41.348  30.597  35.981  1.00  0.00     0.031 C 
ATOM     69  C   UNL A   1      39.456  31.554  34.706  1.00  0.00     0.037 A 
BRANCH  56  70
ATOM     70  C   UNL A   1      36.734  31.514  29.167  1.00  0.00     0.057 A 
ATOM     71  C   UNL A   1      35.643  30.697  28.845  1.00  0.00     0.134 A 
ATOM     72  C   UNL A   1      36.718  32.832  28.692  1.00  0.00     0.134 A 
ATOM     73  F   UNL A   1      35.607  29.419  29.252  1.00  0.00    -0.206 F 
ATOM     74  C   UNL A   1      34.581  31.169  28.072  1.00  0.00     0.040 A 
ATOM     75  C   UNL A   1      35.649  33.324  27.942  1.00  0.00     0.040 A 
ATOM     76  F   UNL A   1      37.732  33.667  28.965  1.00  0.00    -0.206 F 
ATOM     77  C   UNL A   1      34.577  32.489  27.628  1.00  0.00     0.006 A 
ENDBRANCH  56  70
BRANCH  57  78
ATOM     78  C   UNL A   1      44.221  27.825  34.655  1.00  0.00     0.057 A 
ATOM     79  C   UNL A   1      45.443  28.508  34.727  1.00  0.00     0.134 A 
ATOM     80  C   UNL A   1      44.130  26.603  35.332  1.00  0.00     0.134 A 
ATOM     81  F   UNL A   1      45.604  29.672  34.082  1.00  0.00    -0.206 F 
ATOM     82  C   UNL A   1      46.542  27.974  35.402  1.00  0.00     0.040 A 
ATOM     83  C   UNL A   1      45.212  26.074  36.039  1.00  0.00     0.040 A 
ATOM     84  F   UNL A   1      42.990  25.897  35.307  1.00  0.00    -0.206 F 
ATOM     85  C   UNL A   1      46.428  26.752  36.061  1.00  0.00     0.006 A 
ENDBRANCH  57  78
BRANCH  69  86
ATOM     86  C   UNL A   1      39.020  32.267  35.955  1.00  0.00     0.057 A 
ATOM     87  C   UNL A   1      38.213  31.658  36.924  1.00  0.00     0.134 A 
ATOM     88  C   UNL A   1      39.449  33.578  36.204  1.00  0.00     0.134 A 
ATOM     89  F   UNL A   1      37.760  30.408  36.746  1.00  0.00    -0.206 F 
ATOM     90  C   UNL A   1      37.819  32.340  38.079  1.00  0.00     0.040 A 
ATOM     91  C   UNL A   1      39.090  34.257  37.370  1.00  0.00     0.040 A 
ATOM     92  F   UNL A   1      40.237  34.216  35.325  1.00  0.00    -0.206 F 
ATOM     93  C   UNL A   1      38.265  33.641  38.306  1.00  0.00     0.006 A 
ENDBRANCH  69  86
ENDBRANCH  43  44
ENDBRANCH  36  38
ENDBRANCH  35  36
ENDBRANCH  34  35
ENDBRANCH  33  34
ENDBRANCH  32  33
ENDBRANCH  31  32
ENDBRANCH  30  31
ENDBRANCH  29  30
ENDBRANCH   1  29
TORSDOF 23
ENDMDL
MODEL 3
REMARK VINA RESULT:      -9.2      6.695     11.393
REMARK SMILES COc1ccc2c(c1)[C@H]([NH2+][C@H]1CCC[C@H](C(=O)OCCOCCOCCOCCOC(=O)c3ccc(-c4c5nc(c(-c6c(F)cccc6F)c6ccc([nH]6)c(-c6c(F)cccc6F)c6nc(c(-c7c(F)cccc7F)c7ccc4[nH]7)C=C6)C=C5)cc3)C1)CC2
REMARK SMILES IDX 23 1 22 2 21 3 20 4 19 5 18 6 16 7 17 8 15 9 11 10 12 11
REMARK SMILES IDX 87 12 13 13 14 14 10 15 9 18 3 19 4 20 8 21 5 22 7 23 6 24
REMARK SMILES IDX 89 25 88 26 2 27 1 28 24 29 25 30 26 31 27 32 28 33 29 34
REMARK SMILES IDX 30 35 31 36 32 37 33 38 34 39 86 40 35 41 85 42 36 43 37 44
REMARK SMILES IDX 38 45 79 46 39 47 84 48 78 49 80 50 40 51 83 52 77 53 76 54
REMARK SMILES IDX 41 56 67 57 50 58 66 59 51 60 54 61 65 62 81 63 52 64 53 65
REMARK SMILES IDX 64 67 82 68 55 69 42 70 43 71 48 72 44 73 45 74 47 75 49 76
REMARK SMILES IDX 46 77 68 78 69 79 74 80 70 81 71 82 73 83 75 84 72 85 56 86
REMARK SMILES IDX 57 87 62 88 58 89 59 90 61 91 63 92 60 93
REMARK H PARENT 10 16 10 17 80 55 54 66
REMARK Flexibility Score: inf
ROOT
ATOM      1  C   UNL A   1      39.531  30.058  29.039  1.00  0.00     0.188 C 
ENDROOT
BRANCH   1   2
ATOM      2  C   UNL A   1      39.424  30.267  30.558  1.00  0.00     0.188 C 
BRANCH   2   3
ATOM      3  O   UNL A   1      39.317  31.576  31.098  1.00  0.00    -0.376 OA
BRANCH   3   4
ATOM      4  C   UNL A   1      38.946  31.806  32.453  1.00  0.00     0.202 C 
BRANCH   4   5
ATOM      5  C   UNL A   1      37.988  32.919  32.901  1.00  0.00     0.261 C 
BRANCH   5   6
ATOM      6  O   UNL A   1      36.966  33.252  31.960  1.00  0.00    -0.463 OA
BRANCH   6   7
ATOM      7  C   UNL A   1      35.758  32.664  32.147  1.00  0.00     0.309 C 
ATOM      8  O   UNL A   1      35.299  32.362  33.241  1.00  0.00    -0.252 OA
BRANCH   7   9
ATOM      9  C   UNL A   1      34.968  32.563  30.847  1.00  0.00     0.105 C 
ATOM     10  C   UNL A   1      35.180  31.562  28.447  1.00  0.00     0.183 C 
ATOM     11  C   UNL A   1      34.916  32.980  27.925  1.00  0.00     0.065 C 
ATOM     12  C   UNL A   1      35.735  31.649  29.882  1.00  0.00     0.080 C 
ATOM     13  C   UNL A   1      34.029  33.809  28.842  1.00  0.00     0.007 C 
ATOM     14  C   UNL A   1      34.649  33.930  30.222  1.00  0.00     0.016 C 
BRANCH  10  15
ATOM     15  N   UNL A   1      34.150  30.535  28.207  1.00  0.00    -0.338 N 
ATOM     16  H   UNL A   1      34.594  29.634  28.391  1.00  0.00     0.347 HD
ATOM     17  H   UNL A   1      33.391  30.837  28.818  1.00  0.00     0.347 HD
BRANCH  15  18
ATOM     18  C   UNL A   1      33.490  30.412  26.923  1.00  0.00     0.214 C 
ATOM     19  C   UNL A   1      33.347  26.787  25.722  1.00  0.00     0.119 A 
ATOM     20  C   UNL A   1      32.296  26.927  24.812  1.00  0.00     0.047 A 
ATOM     21  C   UNL A   1      33.673  27.811  26.605  1.00  0.00     0.056 A 
ATOM     22  C   UNL A   1      31.569  28.119  24.766  1.00  0.00     0.008 A 
ATOM     23  C   UNL A   1      33.058  29.040  26.457  1.00  0.00     0.016 A 
ATOM     24  C   UNL A   1      31.961  29.165  25.590  1.00  0.00    -0.038 A 
ATOM     25  C   UNL A   1      31.396  30.553  25.647  1.00  0.00     0.042 C 
ATOM     26  C   UNL A   1      32.114  31.118  26.889  1.00  0.00     0.075 C 
BRANCH  19  27
ATOM     27  O   UNL A   1      34.127  25.663  25.754  1.00  0.00    -0.497 OA
ATOM     28  C   UNL A   1      33.350  24.528  26.149  1.00  0.00     0.278 C 
ENDBRANCH  19  27
ENDBRANCH  15  18
ENDBRANCH  10  15
ENDBRANCH   7   9
ENDBRANCH   6   7
ENDBRANCH   5   6
ENDBRANCH   4   5
ENDBRANCH   3   4
ENDBRANCH   2   3
ENDBRANCH   1   2
BRANCH   1  29
ATOM     29  O   UNL A   1      38.447  29.346  28.480  1.00  0.00    -0.377 OA
BRANCH  29  30
ATOM     30  C   UNL A   1      38.524  27.931  28.393  1.00  0.00     0.188 C 
BRANCH  30  31
ATOM     31  C   UNL A   1      39.896  27.227  28.360  1.00  0.00     0.188 C 
BRANCH  31  32
ATOM     32  O   UNL A   1      39.837  25.810  28.386  1.00  0.00    -0.376 OA
BRANCH  32  33
ATOM     33  C   UNL A   1      39.294  25.137  27.260  1.00  0.00     0.202 C 
BRANCH  33  34
ATOM     34  C   UNL A   1      39.696  23.666  27.060  1.00  0.00     0.261 C 
BRANCH  34  35
ATOM     35  O   UNL A   1      41.025  23.308  27.473  1.00  0.00    -0.460 OA
BRANCH  35  36
ATOM     36  C   UNL A   1      41.993  23.311  26.538  1.00  0.00     0.338 C 
ATOM     37  O   UNL A   1      42.182  22.473  25.668  1.00  0.00    -0.246 OA
BRANCH  36  38
ATOM     38  C   UNL A   1      42.702  24.603  26.606  1.00  0.00     0.060 A 
ATOM     39  C   UNL A   1      43.001  25.273  25.413  1.00  0.00     0.016 A 
ATOM     40  C   UNL A   1      43.111  25.129  27.835  1.00  0.00     0.016 A 
ATOM     41  C   UNL A   1      43.769  26.436  25.438  1.00  0.00     0.010 A 
ATOM     42  C   UNL A   1      43.899  26.284  27.858  1.00  0.00     0.010 A 
ATOM     43  C   UNL A   1      44.276  26.910  26.654  1.00  0.00    -0.014 A 
BRANCH  43  44
ATOM     44  C   UNL A   1      45.400  27.877  26.640  1.00  0.00     0.031 A 
ATOM     45  C   UNL A   1      45.066  29.345  26.726  1.00  0.00     0.074 A 
ATOM     46  C   UNL A   1      46.684  27.477  26.612  1.00  0.00     0.049 A 
ATOM     47  N   UNL A   1      45.858  30.386  26.680  1.00  0.00    -0.248 NA
ATOM     48  C   UNL A   1      43.641  29.682  26.889  1.00  0.00     0.031 C 
ATOM     49  C   UNL A   1      47.141  26.088  26.590  1.00  0.00     0.029 A 
ATOM     50  N   UNL A   1      47.843  28.213  26.594  1.00  0.00    -0.354 N 
ATOM     51  C   UNL A   1      45.029  31.494  26.810  1.00  0.00     0.074 A 
ATOM     52  C   UNL A   1      43.671  31.006  26.893  1.00  0.00     0.031 C 
ATOM     53  C   UNL A   1      48.485  26.074  26.542  1.00  0.00     0.029 A 
ATOM     54  C   UNL A   1      48.980  27.448  26.497  1.00  0.00     0.049 A 
ATOM     55  H   UNL A   1      47.857  29.196  26.645  1.00  0.00     0.167 HD
ATOM     56  C   UNL A   1      45.368  32.802  26.875  1.00  0.00     0.037 A 
ATOM     57  C   UNL A   1      50.268  27.823  26.360  1.00  0.00     0.037 A 
ATOM     58  C   UNL A   1      46.718  33.289  26.788  1.00  0.00     0.049 A 
ATOM     59  C   UNL A   1      50.610  29.294  26.336  1.00  0.00     0.074 A 
ATOM     60  C   UNL A   1      47.165  34.599  26.814  1.00  0.00     0.029 A 
ATOM     61  N   UNL A   1      47.839  32.484  26.665  1.00  0.00    -0.354 N 
ATOM     62  N   UNL A   1      49.819  30.334  26.454  1.00  0.00    -0.248 NA
ATOM     63  C   UNL A   1      52.029  29.643  26.168  1.00  0.00     0.031 C 
ATOM     64  C   UNL A   1      48.555  34.588  26.662  1.00  0.00     0.029 A 
ATOM     65  C   UNL A   1      48.978  33.271  26.607  1.00  0.00     0.049 A 
ATOM     66  H   UNL A   1      47.828  31.501  26.625  1.00  0.00     0.167 HD
ATOM     67  C   UNL A   1      50.648  31.451  26.427  1.00  0.00     0.074 A 
ATOM     68  C   UNL A   1      52.003  30.962  26.290  1.00  0.00     0.031 C 
ATOM     69  C   UNL A   1      50.322  32.764  26.509  1.00  0.00     0.037 A 
BRANCH  56  70
ATOM     70  C   UNL A   1      44.261  33.801  27.038  1.00  0.00     0.057 A 
ATOM     71  C   UNL A   1      43.793  34.182  28.302  1.00  0.00     0.134 A 
ATOM     72  C   UNL A   1      43.691  34.428  25.923  1.00  0.00     0.134 A 
ATOM     73  F   UNL A   1      44.283  33.605  29.411  1.00  0.00    -0.206 F 
ATOM     74  C   UNL A   1      42.790  35.141  28.451  1.00  0.00     0.040 A 
ATOM     75  C   UNL A   1      42.708  35.409  26.059  1.00  0.00     0.040 A 
ATOM     76  F   UNL A   1      44.093  34.109  24.683  1.00  0.00    -0.206 F 
ATOM     77  C   UNL A   1      42.252  35.765  27.328  1.00  0.00     0.006 A 
ENDBRANCH  56  70
BRANCH  57  78
ATOM     78  C   UNL A   1      51.343  26.807  26.199  1.00  0.00     0.057 A 
ATOM     79  C   UNL A   1      52.105  26.370  27.291  1.00  0.00     0.134 A 
ATOM     80  C   UNL A   1      51.691  26.313  24.937  1.00  0.00     0.134 A 
ATOM     81  F   UNL A   1      51.839  26.823  28.525  1.00  0.00    -0.206 F 
ATOM     82  C   UNL A   1      53.199  25.517  27.127  1.00  0.00     0.040 A 
ATOM     83  C   UNL A   1      52.761  25.433  24.763  1.00  0.00     0.040 A 
ATOM     84  F   UNL A   1      51.003  26.688  23.848  1.00  0.00    -0.206 F 
ATOM     85  C   UNL A   1      53.529  25.046  25.858  1.00  0.00     0.006 A 
ENDBRANCH  57  78
BRANCH  69  86
ATOM     86  C   UNL A   1      51.446  33.761  26.542  1.00  0.00     0.057 A 
ATOM     87  C   UNL A   1      51.952  34.359  25.381  1.00  0.00     0.134 A 
ATOM     88  C   UNL A   1      52.006  34.151  27.765  1.00  0.00     0.134 A 
ATOM     89  F   UNL A   1      51.467  34.025  24.176  1.00  0.00    -0.206 F 
ATOM     90  C   UNL A   1      52.998  35.284  25.433  1.00  0.00     0.040 A 
ATOM     91  C   UNL A   1      53.028  35.099  27.833  1.00  0.00     0.040 A 
ATOM     92  F   UNL A   1      51.559  33.629  28.918  1.00  0.00    -0.206 F 
ATOM     93  C   UNL A   1      53.533  35.661  26.664  1.00  0.00     0.006 A 
ENDBRANCH  69  86
ENDBRANCH  43  44
ENDBRANCH  36  38
ENDBRANCH  35  36
ENDBRANCH  34  35
ENDBRANCH  33  34
ENDBRANCH  32  33
ENDBRANCH  31  32
ENDBRANCH  30  31
ENDBRANCH  29  30
ENDBRANCH   1  29
TORSDOF 23
ENDMDL
