MODEL 1
REMARK VINA RESULT:      -9.3      0.000      0.000
REMARK SMILES Cc1ccc(/[NH+]=C2/S[C@@H](CC(=O)Nc3ccc(C(=O)OCCOCCOCCOCCOC(=O)c4ccc(-c5c6nc(c(-c7c(F)cccc7F)c7ccc([nH]7)c(-c7c(F)cccc7F)c7nc(c(-c8c(F)cccc8F)c8ccc5[nH]8)C=C7)C=C6)cc4)cc3)C(=O)N2C)cc1
REMARK SMILES IDX 25 1 24 2 23 3 22 4 21 5 20 6 18 7 19 8 17 9 14 10 15 11
REMARK SMILES IDX 90 12 16 13 89 14 13 15 11 16 12 17 10 19 9 20 6 21 7 22
REMARK SMILES IDX 8 24 93 25 91 26 94 27 92 28 5 29 1 30 2 31 3 32 96 33 4 34
REMARK SMILES IDX 95 35 26 36 27 37 28 38 29 39 30 40 31 41 32 42 33 43 34 44
REMARK SMILES IDX 35 45 36 46 88 47 37 48 87 49 38 50 39 51 40 52 81 53 41 54
REMARK SMILES IDX 86 55 80 56 82 57 42 58 85 59 79 60 78 61 43 63 69 64 52 65
REMARK SMILES IDX 68 66 53 67 56 68 67 69 83 70 54 71 55 72 66 74 84 75 57 76
REMARK SMILES IDX 44 77 45 78 50 79 46 80 47 81 49 82 51 83 48 84 70 85 71 86
REMARK SMILES IDX 76 87 72 88 73 89 75 90 77 91 74 92 58 93 59 94 64 95 60 96
REMARK SMILES IDX 61 97 63 98 65 99 62 100
REMARK H PARENT 13 18 6 23 82 62 56 73
REMARK Flexibility Score: inf
ROOT
ATOM      1  C   UNL A   1      34.474  32.711  32.814  1.00  0.00     0.188 C 
ENDROOT
BRANCH   1   2
ATOM      2  C   UNL A   1      34.661  33.310  31.430  1.00  0.00     0.188 C 
BRANCH   2   3
ATOM      3  O   UNL A   1      34.897  32.400  30.352  1.00  0.00    -0.376 OA
BRANCH   3   4
ATOM      4  C   UNL A   1      35.673  32.963  29.301  1.00  0.00     0.202 C 
BRANCH   4   5
ATOM      5  C   UNL A   1      35.434  32.373  27.913  1.00  0.00     0.261 C 
BRANCH   5   6
ATOM      6  O   UNL A   1      34.350  31.452  27.914  1.00  0.00    -0.460 OA
BRANCH   6   7
ATOM      7  C   UNL A   1      34.671  30.165  27.734  1.00  0.00     0.338 C 
ATOM      8  O   UNL A   1      35.368  29.459  28.457  1.00  0.00    -0.246 OA
BRANCH   7   9
ATOM      9  C   UNL A   1      33.787  29.665  26.665  1.00  0.00     0.060 A 
ATOM     10  C   UNL A   1      32.168  29.054  24.455  1.00  0.00     0.041 A 
ATOM     11  C   UNL A   1      33.418  28.457  24.600  1.00  0.00     0.027 A 
ATOM     12  C   UNL A   1      31.791  30.047  25.374  1.00  0.00     0.027 A 
ATOM     13  C   UNL A   1      34.216  28.734  25.713  1.00  0.00     0.018 A 
ATOM     14  C   UNL A   1      32.584  30.342  26.479  1.00  0.00     0.018 A 
BRANCH  10  15
ATOM     15  N   UNL A   1      31.211  28.739  23.479  1.00  0.00    -0.326 N 
ATOM     16  C   UNL A   1      30.156  27.883  23.403  1.00  0.00     0.226 C 
ATOM     17  O   UNL A   1      29.461  27.922  22.380  1.00  0.00    -0.275 OA
ATOM     18  H   UNL A   1      31.331  29.261  22.653  1.00  0.00     0.169 HD
BRANCH  16  19
ATOM     19  C   UNL A   1      29.793  26.904  24.491  1.00  0.00     0.128 C 
BRANCH  19  20
ATOM     20  C   UNL A   1      30.346  25.514  24.189  1.00  0.00     0.183 C 
ATOM     21  N   UNL A   1      32.775  22.991  25.663  1.00  0.00    -0.235 N 
ATOM     22  C   UNL A   1      32.288  23.997  25.027  1.00  0.00     0.319 C 
ATOM     23  H   UNL A   1      32.259  22.764  26.470  1.00  0.00     0.313 HD
ATOM     24  S   UNL A   1      30.783  24.626  25.706  1.00  0.00    -0.022 SA
ATOM     25  N   UNL A   1      32.626  24.752  23.939  1.00  0.00    -0.193 N 
ATOM     26  C   UNL A   1      31.610  25.492  23.358  1.00  0.00     0.324 C 
ATOM     27  C   UNL A   1      33.935  24.962  23.371  1.00  0.00     0.301 C 
ATOM     28  O   UNL A   1      31.707  26.030  22.258  1.00  0.00    -0.245 OA
BRANCH  21  29
ATOM     29  C   UNL A   1      33.871  22.150  25.469  1.00  0.00     0.125 A 
ATOM     30  C   UNL A   1      37.596  20.019  24.804  1.00  0.00     0.044 C 
ATOM     31  C   UNL A   1      36.294  20.674  25.180  1.00  0.00    -0.051 A 
ATOM     32  C   UNL A   1      36.297  21.919  25.809  1.00  0.00     0.008 A 
ATOM     33  C   UNL A   1      35.054  20.113  24.826  1.00  0.00     0.008 A 
ATOM     34  C   UNL A   1      35.102  22.638  25.942  1.00  0.00     0.052 A 
ATOM     35  C   UNL A   1      33.851  20.842  24.981  1.00  0.00     0.052 A 
ENDBRANCH  21  29
ENDBRANCH  19  20
ENDBRANCH  16  19
ENDBRANCH  10  15
ENDBRANCH   7   9
ENDBRANCH   6   7
ENDBRANCH   5   6
ENDBRANCH   4   5
ENDBRANCH   3   4
ENDBRANCH   2   3
ENDBRANCH   1   2
BRANCH   1  36
ATOM     36  O   UNL A   1      35.404  33.274  33.745  1.00  0.00    -0.377 OA
BRANCH  36  37
ATOM     37  C   UNL A   1      36.722  33.298  33.220  1.00  0.00     0.188 C 
BRANCH  37  38
ATOM     38  C   UNL A   1      37.515  32.129  33.754  1.00  0.00     0.188 C 
BRANCH  38  39
ATOM     39  O   UNL A   1      37.358  31.767  35.112  1.00  0.00    -0.376 OA
BRANCH  39  40
ATOM     40  C   UNL A   1      37.853  32.636  36.121  1.00  0.00     0.202 C 
BRANCH  40  41
ATOM     41  C   UNL A   1      39.374  32.605  36.341  1.00  0.00     0.261 C 
BRANCH  41  42
ATOM     42  O   UNL A   1      39.955  33.817  35.801  1.00  0.00    -0.460 OA
BRANCH  42  43
ATOM     43  C   UNL A   1      41.189  33.712  35.228  1.00  0.00     0.338 C 
ATOM     44  O   UNL A   1      42.195  33.312  35.794  1.00  0.00    -0.246 OA
BRANCH  43  45
ATOM     45  C   UNL A   1      41.220  34.537  33.966  1.00  0.00     0.060 A 
ATOM     46  C   UNL A   1      40.621  34.023  32.802  1.00  0.00     0.016 A 
ATOM     47  C   UNL A   1      42.189  35.526  33.836  1.00  0.00     0.016 A 
ATOM     48  C   UNL A   1      41.174  34.303  31.535  1.00  0.00     0.010 A 
ATOM     49  C   UNL A   1      42.765  35.739  32.588  1.00  0.00     0.010 A 
ATOM     50  C   UNL A   1      42.342  35.051  31.437  1.00  0.00    -0.014 A 
BRANCH  50  51
ATOM     51  C   UNL A   1      43.284  35.052  30.278  1.00  0.00     0.031 A 
ATOM     52  C   UNL A   1      44.152  33.857  30.084  1.00  0.00     0.074 A 
ATOM     53  C   UNL A   1      43.092  35.924  29.245  1.00  0.00     0.049 A 
ATOM     54  N   UNL A   1      44.938  33.669  29.085  1.00  0.00    -0.248 NA
ATOM     55  C   UNL A   1      44.153  32.709  30.984  1.00  0.00     0.031 C 
ATOM     56  C   UNL A   1      43.520  35.894  27.826  1.00  0.00     0.029 A 
ATOM     57  N   UNL A   1      42.417  37.147  29.274  1.00  0.00    -0.354 N 
ATOM     58  C   UNL A   1      45.184  32.309  28.970  1.00  0.00     0.074 A 
ATOM     59  C   UNL A   1      44.779  31.783  30.247  1.00  0.00     0.031 C 
ATOM     60  C   UNL A   1      43.377  37.105  27.255  1.00  0.00     0.029 A 
ATOM     61  C   UNL A   1      43.116  37.976  28.361  1.00  0.00     0.049 A 
ATOM     62  H   UNL A   1      41.627  37.382  29.813  1.00  0.00     0.167 HD
ATOM     63  C   UNL A   1      45.545  31.812  27.739  1.00  0.00     0.037 A 
ATOM     64  C   UNL A   1      43.968  38.918  28.857  1.00  0.00     0.037 A 
ATOM     65  C   UNL A   1      45.810  32.916  26.776  1.00  0.00     0.049 A 
ATOM     66  C   UNL A   1      45.402  38.540  28.438  1.00  0.00     0.074 A 
ATOM     67  C   UNL A   1      45.472  33.222  25.467  1.00  0.00     0.029 A 
ATOM     68  N   UNL A   1      46.453  34.061  27.246  1.00  0.00    -0.354 N 
ATOM     69  N   UNL A   1      45.765  37.303  28.146  1.00  0.00    -0.248 NA
ATOM     70  C   UNL A   1      46.464  39.478  28.084  1.00  0.00     0.031 C 
ATOM     71  C   UNL A   1      45.869  34.573  25.197  1.00  0.00     0.029 A 
ATOM     72  C   UNL A   1      46.486  35.082  26.331  1.00  0.00     0.049 A 
ATOM     73  H   UNL A   1      46.847  34.129  28.146  1.00  0.00     0.167 HD
ATOM     74  C   UNL A   1      46.904  37.295  27.379  1.00  0.00     0.074 A 
ATOM     75  C   UNL A   1      47.381  38.665  27.514  1.00  0.00     0.031 C 
ATOM     76  C   UNL A   1      47.337  36.232  26.611  1.00  0.00     0.037 A 
BRANCH  63  77
ATOM     77  C   UNL A   1      45.510  30.330  27.311  1.00  0.00     0.057 A 
ATOM     78  C   UNL A   1      44.283  29.678  27.040  1.00  0.00     0.134 A 
ATOM     79  C   UNL A   1      46.619  29.462  27.212  1.00  0.00     0.134 A 
ATOM     80  F   UNL A   1      43.120  30.339  27.034  1.00  0.00    -0.206 F 
ATOM     81  C   UNL A   1      44.172  28.306  26.739  1.00  0.00     0.040 A 
ATOM     82  C   UNL A   1      46.527  28.100  26.855  1.00  0.00     0.040 A 
ATOM     83  F   UNL A   1      47.865  29.852  27.486  1.00  0.00    -0.206 F 
ATOM     84  C   UNL A   1      45.298  27.510  26.631  1.00  0.00     0.006 A 
ENDBRANCH  63  77
BRANCH  64  85
ATOM     85  C   UNL A   1      43.247  39.552  30.030  1.00  0.00     0.057 A 
ATOM     86  C   UNL A   1      43.932  39.385  31.270  1.00  0.00     0.134 A 
ATOM     87  C   UNL A   1      42.380  40.635  30.019  1.00  0.00     0.134 A 
ATOM     88  F   UNL A   1      44.844  38.419  31.365  1.00  0.00    -0.206 F 
ATOM     89  C   UNL A   1      43.922  40.285  32.338  1.00  0.00     0.040 A 
ATOM     90  C   UNL A   1      42.312  41.536  31.121  1.00  0.00     0.040 A 
ATOM     91  F   UNL A   1      41.704  40.961  28.909  1.00  0.00    -0.206 F 
ATOM     92  C   UNL A   1      43.130  41.402  32.249  1.00  0.00     0.006 A 
ENDBRANCH  64  85
BRANCH  76  93
ATOM     93  C   UNL A   1      48.759  36.076  26.134  1.00  0.00     0.057 A 
ATOM     94  C   UNL A   1      49.682  35.189  26.671  1.00  0.00     0.134 A 
ATOM     95  C   UNL A   1      49.218  36.829  25.021  1.00  0.00     0.134 A 
ATOM     96  F   UNL A   1      49.481  34.621  27.867  1.00  0.00    -0.206 F 
ATOM     97  C   UNL A   1      50.867  34.877  25.995  1.00  0.00     0.040 A 
ATOM     98  C   UNL A   1      50.416  36.567  24.370  1.00  0.00     0.040 A 
ATOM     99  F   UNL A   1      48.525  37.843  24.487  1.00  0.00    -0.206 F 
ATOM    100  C   UNL A   1      51.213  35.535  24.817  1.00  0.00     0.006 A 
ENDBRANCH  76  93
ENDBRANCH  50  51
ENDBRANCH  43  45
ENDBRANCH  42  43
ENDBRANCH  41  42
ENDBRANCH  40  41
ENDBRANCH  39  40
ENDBRANCH  38  39
ENDBRANCH  37  38
ENDBRANCH  36  37
ENDBRANCH   1  36
TORSDOF 24
ENDMDL
MODEL 2
REMARK VINA RESULT:      -8.8      5.589     10.017
REMARK SMILES Cc1ccc(/[NH+]=C2/S[C@@H](CC(=O)Nc3ccc(C(=O)OCCOCCOCCOCCOC(=O)c4ccc(-c5c6nc(c(-c7c(F)cccc7F)c7ccc([nH]7)c(-c7c(F)cccc7F)c7nc(c(-c8c(F)cccc8F)c8ccc5[nH]8)C=C7)C=C6)cc4)cc3)C(=O)N2C)cc1
REMARK SMILES IDX 25 1 24 2 23 3 22 4 21 5 20 6 18 7 19 8 17 9 14 10 15 11
REMARK SMILES IDX 90 12 16 13 89 14 13 15 11 16 12 17 10 19 9 20 6 21 7 22
REMARK SMILES IDX 8 24 93 25 91 26 94 27 92 28 5 29 1 30 2 31 3 32 96 33 4 34
REMARK SMILES IDX 95 35 26 36 27 37 28 38 29 39 30 40 31 41 32 42 33 43 34 44
REMARK SMILES IDX 35 45 36 46 88 47 37 48 87 49 38 50 39 51 40 52 81 53 41 54
REMARK SMILES IDX 86 55 80 56 82 57 42 58 85 59 79 60 78 61 43 63 69 64 52 65
REMARK SMILES IDX 68 66 53 67 56 68 67 69 83 70 54 71 55 72 66 74 84 75 57 76
REMARK SMILES IDX 44 77 45 78 50 79 46 80 47 81 49 82 51 83 48 84 70 85 71 86
REMARK SMILES IDX 76 87 72 88 73 89 75 90 77 91 74 92 58 93 59 94 64 95 60 96
REMARK SMILES IDX 61 97 63 98 65 99 62 100
REMARK H PARENT 13 18 6 23 82 62 56 73
REMARK Flexibility Score: inf
ROOT
ATOM      1  C   UNL A   1      33.890  34.962  30.600  1.00  0.00     0.188 C 
ENDROOT
BRANCH   1   2
ATOM      2  C   UNL A   1      33.106  35.867  31.538  1.00  0.00     0.188 C 
BRANCH   2   3
ATOM      3  O   UNL A   1      33.460  35.832  32.923  1.00  0.00    -0.376 OA
BRANCH   3   4
ATOM      4  C   UNL A   1      34.841  35.573  33.144  1.00  0.00     0.202 C 
BRANCH   4   5
ATOM      5  C   UNL A   1      35.155  34.492  34.174  1.00  0.00     0.261 C 
BRANCH   5   6
ATOM      6  O   UNL A   1      36.437  33.915  33.955  1.00  0.00    -0.460 OA
BRANCH   6   7
ATOM      7  C   UNL A   1      36.446  32.664  33.479  1.00  0.00     0.338 C 
ATOM      8  O   UNL A   1      35.951  32.257  32.432  1.00  0.00    -0.246 OA
BRANCH   7   9
ATOM      9  C   UNL A   1      37.423  31.919  34.295  1.00  0.00     0.060 A 
ATOM     10  C   UNL A   1      39.502  30.492  35.528  1.00  0.00     0.041 A 
ATOM     11  C   UNL A   1      39.309  31.842  35.812  1.00  0.00     0.027 A 
ATOM     12  C   UNL A   1      38.710  29.898  34.531  1.00  0.00     0.027 A 
ATOM     13  C   UNL A   1      38.258  32.550  35.225  1.00  0.00     0.018 A 
ATOM     14  C   UNL A   1      37.669  30.599  33.929  1.00  0.00     0.018 A 
BRANCH  10  15
ATOM     15  N   UNL A   1      40.410  29.636  36.169  1.00  0.00    -0.326 N 
ATOM     16  C   UNL A   1      41.764  29.500  36.180  1.00  0.00     0.226 C 
ATOM     17  O   UNL A   1      42.246  28.654  36.943  1.00  0.00    -0.275 OA
ATOM     18  H   UNL A   1      39.962  28.976  36.746  1.00  0.00     0.169 HD
BRANCH  16  19
ATOM     19  C   UNL A   1      42.694  30.323  35.326  1.00  0.00     0.128 C 
BRANCH  19  20
ATOM     20  C   UNL A   1      43.230  29.507  34.151  1.00  0.00     0.183 C 
ATOM     21  N   UNL A   1      43.593  29.775  30.379  1.00  0.00    -0.235 N 
ATOM     22  C   UNL A   1      43.107  29.575  31.553  1.00  0.00     0.319 C 
ATOM     23  H   UNL A   1      44.259  30.500  30.359  1.00  0.00     0.313 HD
ATOM     24  S   UNL A   1      43.831  30.574  32.818  1.00  0.00    -0.022 SA
ATOM     25  N   UNL A   1      42.143  28.787  32.116  1.00  0.00    -0.193 N 
ATOM     26  C   UNL A   1      42.218  28.600  33.486  1.00  0.00     0.324 C 
ATOM     27  C   UNL A   1      40.988  28.201  31.482  1.00  0.00     0.301 C 
ATOM     28  O   UNL A   1      41.571  27.749  34.090  1.00  0.00    -0.245 OA
BRANCH  21  29
ATOM     29  C   UNL A   1      43.390  29.195  29.126  1.00  0.00     0.125 A 
ATOM     30  C   UNL A   1      42.494  27.892  25.082  1.00  0.00     0.044 C 
ATOM     31  C   UNL A   1      42.966  28.312  26.448  1.00  0.00    -0.051 A 
ATOM     32  C   UNL A   1      43.210  29.659  26.716  1.00  0.00     0.008 A 
ATOM     33  C   UNL A   1      43.076  27.395  27.507  1.00  0.00     0.008 A 
ATOM     34  C   UNL A   1      43.414  30.083  28.036  1.00  0.00     0.052 A 
ATOM     35  C   UNL A   1      43.298  27.834  28.834  1.00  0.00     0.052 A 
ENDBRANCH  21  29
ENDBRANCH  19  20
ENDBRANCH  16  19
ENDBRANCH  10  15
ENDBRANCH   7   9
ENDBRANCH   6   7
ENDBRANCH   5   6
ENDBRANCH   4   5
ENDBRANCH   3   4
ENDBRANCH   2   3
ENDBRANCH   1   2
BRANCH   1  36
ATOM     36  O   UNL A   1      33.100  34.593  29.465  1.00  0.00    -0.377 OA
BRANCH  36  37
ATOM     37  C   UNL A   1      33.769  33.647  28.647  1.00  0.00     0.188 C 
BRANCH  37  38
ATOM     38  C   UNL A   1      35.263  33.838  28.746  1.00  0.00     0.188 C 
BRANCH  38  39
ATOM     39  O   UNL A   1      36.111  32.794  28.308  1.00  0.00    -0.376 OA
BRANCH  39  40
ATOM     40  C   UNL A   1      35.753  31.448  28.588  1.00  0.00     0.202 C 
BRANCH  40  41
ATOM     41  C   UNL A   1      36.905  30.528  29.023  1.00  0.00     0.261 C 
BRANCH  41  42
ATOM     42  O   UNL A   1      38.125  30.957  28.371  1.00  0.00    -0.460 OA
BRANCH  42  43
ATOM     43  C   UNL A   1      39.280  30.859  29.091  1.00  0.00     0.338 C 
ATOM     44  O   UNL A   1      40.091  29.950  28.999  1.00  0.00    -0.246 OA
BRANCH  43  45
ATOM     45  C   UNL A   1      39.199  31.780  30.282  1.00  0.00     0.060 A 
ATOM     46  C   UNL A   1      38.944  33.146  30.069  1.00  0.00     0.016 A 
ATOM     47  C   UNL A   1      39.809  31.393  31.471  1.00  0.00     0.016 A 
ATOM     48  C   UNL A   1      39.529  34.119  30.907  1.00  0.00     0.010 A 
ATOM     49  C   UNL A   1      40.434  32.361  32.248  1.00  0.00     0.010 A 
ATOM     50  C   UNL A   1      40.399  33.728  31.920  1.00  0.00    -0.014 A 
BRANCH  50  51
ATOM     51  C   UNL A   1      41.426  34.595  32.572  1.00  0.00     0.031 A 
ATOM     52  C   UNL A   1      41.046  35.302  33.827  1.00  0.00     0.074 A 
ATOM     53  C   UNL A   1      42.745  34.448  32.251  1.00  0.00     0.049 A 
ATOM     54  N   UNL A   1      41.844  36.001  34.553  1.00  0.00    -0.248 NA
ATOM     55  C   UNL A   1      39.718  35.219  34.427  1.00  0.00     0.031 C 
ATOM     56  C   UNL A   1      43.989  34.786  32.983  1.00  0.00     0.029 A 
ATOM     57  N   UNL A   1      43.283  33.926  31.073  1.00  0.00    -0.354 N 
ATOM     58  C   UNL A   1      41.320  36.077  35.834  1.00  0.00     0.074 A 
ATOM     59  C   UNL A   1      39.944  35.687  35.661  1.00  0.00     0.031 C 
ATOM     60  C   UNL A   1      45.053  34.754  32.159  1.00  0.00     0.029 A 
ATOM     61  C   UNL A   1      44.474  34.664  30.853  1.00  0.00     0.049 A 
ATOM     62  H   UNL A   1      42.915  33.202  30.516  1.00  0.00     0.167 HD
ATOM     63  C   UNL A   1      42.182  36.304  36.882  1.00  0.00     0.037 A 
ATOM     64  C   UNL A   1      44.464  35.649  29.910  1.00  0.00     0.037 A 
ATOM     65  C   UNL A   1      43.545  36.641  36.384  1.00  0.00     0.049 A 
ATOM     66  C   UNL A   1      44.658  37.001  30.623  1.00  0.00     0.074 A 
ATOM     67  C   UNL A   1      44.848  36.266  36.668  1.00  0.00     0.029 A 
ATOM     68  N   UNL A   1      43.652  37.442  35.248  1.00  0.00    -0.354 N 
ATOM     69  N   UNL A   1      44.347  37.197  31.893  1.00  0.00    -0.248 NA
ATOM     70  C   UNL A   1      45.401  38.144  30.100  1.00  0.00     0.031 C 
ATOM     71  C   UNL A   1      45.709  36.804  35.655  1.00  0.00     0.029 A 
ATOM     72  C   UNL A   1      44.934  37.542  34.771  1.00  0.00     0.049 A 
ATOM     73  H   UNL A   1      42.883  37.893  34.829  1.00  0.00     0.167 HD
ATOM     74  C   UNL A   1      45.021  38.280  32.401  1.00  0.00     0.074 A 
ATOM     75  C   UNL A   1      45.530  38.923  31.197  1.00  0.00     0.031 C 
ATOM     76  C   UNL A   1      45.213  38.538  33.744  1.00  0.00     0.037 A 
BRANCH  63  77
ATOM     77  C   UNL A   1      41.880  36.069  38.376  1.00  0.00     0.057 A 
ATOM     78  C   UNL A   1      41.789  34.758  38.904  1.00  0.00     0.134 A 
ATOM     79  C   UNL A   1      41.599  37.062  39.339  1.00  0.00     0.134 A 
ATOM     80  F   UNL A   1      42.068  33.679  38.164  1.00  0.00    -0.206 F 
ATOM     81  C   UNL A   1      41.423  34.470  40.234  1.00  0.00     0.040 A 
ATOM     82  C   UNL A   1      41.288  36.789  40.687  1.00  0.00     0.040 A 
ATOM     83  F   UNL A   1      41.568  38.363  39.043  1.00  0.00    -0.206 F 
ATOM     84  C   UNL A   1      41.183  35.488  41.139  1.00  0.00     0.006 A 
ENDBRANCH  63  77
BRANCH  64  85
ATOM     85  C   UNL A   1      43.716  35.078  28.721  1.00  0.00     0.057 A 
ATOM     86  C   UNL A   1      42.767  35.984  28.163  1.00  0.00     0.134 A 
ATOM     87  C   UNL A   1      44.141  34.104  27.829  1.00  0.00     0.134 A 
ATOM     88  F   UNL A   1      42.349  37.004  28.912  1.00  0.00    -0.206 F 
ATOM     89  C   UNL A   1      42.400  36.060  26.818  1.00  0.00     0.040 A 
ATOM     90  C   UNL A   1      43.735  34.128  26.464  1.00  0.00     0.040 A 
ATOM     91  F   UNL A   1      45.075  33.211  28.183  1.00  0.00    -0.206 F 
ATOM     92  C   UNL A   1      42.923  35.142  25.942  1.00  0.00     0.006 A 
ENDBRANCH  64  85
BRANCH  76  93
ATOM     93  C   UNL A   1      45.560  39.902  34.287  1.00  0.00     0.057 A 
ATOM     94  C   UNL A   1      44.655  40.939  34.461  1.00  0.00     0.134 A 
ATOM     95  C   UNL A   1      46.886  40.174  34.717  1.00  0.00     0.134 A 
ATOM     96  F   UNL A   1      43.456  40.919  33.865  1.00  0.00    -0.206 F 
ATOM     97  C   UNL A   1      44.971  42.055  35.245  1.00  0.00     0.040 A 
ATOM     98  C   UNL A   1      47.228  41.302  35.451  1.00  0.00     0.040 A 
ATOM     99  F   UNL A   1      47.918  39.357  34.474  1.00  0.00    -0.206 F 
ATOM    100  C   UNL A   1      46.248  42.215  35.779  1.00  0.00     0.006 A 
ENDBRANCH  76  93
ENDBRANCH  50  51
ENDBRANCH  43  45
ENDBRANCH  42  43
ENDBRANCH  41  42
ENDBRANCH  40  41
ENDBRANCH  39  40
ENDBRANCH  38  39
ENDBRANCH  37  38
ENDBRANCH  36  37
ENDBRANCH   1  36
TORSDOF 24
ENDMDL
MODEL 3
REMARK VINA RESULT:      -8.7      5.399     12.993
REMARK SMILES Cc1ccc(/[NH+]=C2/S[C@@H](CC(=O)Nc3ccc(C(=O)OCCOCCOCCOCCOC(=O)c4ccc(-c5c6nc(c(-c7c(F)cccc7F)c7ccc([nH]7)c(-c7c(F)cccc7F)c7nc(c(-c8c(F)cccc8F)c8ccc5[nH]8)C=C7)C=C6)cc4)cc3)C(=O)N2C)cc1
REMARK SMILES IDX 25 1 24 2 23 3 22 4 21 5 20 6 18 7 19 8 17 9 14 10 15 11
REMARK SMILES IDX 90 12 16 13 89 14 13 15 11 16 12 17 10 19 9 20 6 21 7 22
REMARK SMILES IDX 8 24 93 25 91 26 94 27 92 28 5 29 1 30 2 31 3 32 96 33 4 34
REMARK SMILES IDX 95 35 26 36 27 37 28 38 29 39 30 40 31 41 32 42 33 43 34 44
REMARK SMILES IDX 35 45 36 46 88 47 37 48 87 49 38 50 39 51 40 52 81 53 41 54
REMARK SMILES IDX 86 55 80 56 82 57 42 58 85 59 79 60 78 61 43 63 69 64 52 65
REMARK SMILES IDX 68 66 53 67 56 68 67 69 83 70 54 71 55 72 66 74 84 75 57 76
REMARK SMILES IDX 44 77 45 78 50 79 46 80 47 81 49 82 51 83 48 84 70 85 71 86
REMARK SMILES IDX 76 87 72 88 73 89 75 90 77 91 74 92 58 93 59 94 64 95 60 96
REMARK SMILES IDX 61 97 63 98 65 99 62 100
REMARK H PARENT 13 18 6 23 82 62 56 73
REMARK Flexibility Score: inf
ROOT
ATOM      1  C   UNL A   1      46.905  26.752  31.695  1.00  0.00     0.188 C 
ENDROOT
BRANCH   1   2
ATOM      2  C   UNL A   1      48.092  25.802  31.715  1.00  0.00     0.188 C 
BRANCH   2   3
ATOM      3  O   UNL A   1      49.120  26.065  32.673  1.00  0.00    -0.376 OA
BRANCH   3   4
ATOM      4  C   UNL A   1      50.423  26.104  32.104  1.00  0.00     0.202 C 
BRANCH   4   5
ATOM      5  C   UNL A   1      50.614  25.286  30.830  1.00  0.00     0.261 C 
BRANCH   5   6
ATOM      6  O   UNL A   1      51.528  25.910  29.937  1.00  0.00    -0.460 OA
BRANCH   6   7
ATOM      7  C   UNL A   1      51.287  27.195  29.650  1.00  0.00     0.338 C 
ATOM      8  O   UNL A   1      52.043  28.151  29.798  1.00  0.00    -0.246 OA
BRANCH   7   9
ATOM      9  C   UNL A   1      50.055  27.212  28.840  1.00  0.00     0.060 A 
ATOM     10  C   UNL A   1      47.843  27.578  27.150  1.00  0.00     0.041 A 
ATOM     11  C   UNL A   1      48.805  26.614  26.854  1.00  0.00     0.027 A 
ATOM     12  C   UNL A   1      48.067  28.433  28.242  1.00  0.00     0.027 A 
ATOM     13  C   UNL A   1      49.891  26.407  27.708  1.00  0.00     0.018 A 
ATOM     14  C   UNL A   1      49.155  28.245  29.091  1.00  0.00     0.018 A 
BRANCH  10  15
ATOM     15  N   UNL A   1      46.632  27.772  26.469  1.00  0.00    -0.326 N 
ATOM     16  C   UNL A   1      45.641  28.703  26.512  1.00  0.00     0.226 C 
ATOM     17  O   UNL A   1      44.722  28.596  25.689  1.00  0.00    -0.275 OA
ATOM     18  H   UNL A   1      46.458  27.068  25.804  1.00  0.00     0.169 HD
BRANCH  16  19
ATOM     19  C   UNL A   1      45.607  29.846  27.494  1.00  0.00     0.128 C 
BRANCH  19  20
ATOM     20  C   UNL A   1      44.625  30.927  27.048  1.00  0.00     0.183 C 
ATOM     21  N   UNL A   1      44.486  34.699  26.613  1.00  0.00    -0.235 N 
ATOM     22  C   UNL A   1      44.459  33.522  27.133  1.00  0.00     0.319 C 
ATOM     23  H   UNL A   1      45.122  34.771  25.865  1.00  0.00     0.313 HD
ATOM     24  S   UNL A   1      45.481  32.340  26.308  1.00  0.00    -0.022 SA
ATOM     25  N   UNL A   1      43.848  32.910  28.191  1.00  0.00    -0.193 N 
ATOM     26  C   UNL A   1      43.785  31.527  28.154  1.00  0.00     0.324 C 
ATOM     27  C   UNL A   1      43.346  33.511  29.401  1.00  0.00     0.301 C 
ATOM     28  O   UNL A   1      43.079  30.860  28.906  1.00  0.00    -0.245 OA
BRANCH  21  29
ATOM     29  C   UNL A   1      43.818  35.896  26.871  1.00  0.00     0.125 A 
ATOM     30  C   UNL A   1      42.213  39.777  27.975  1.00  0.00     0.044 C 
ATOM     31  C   UNL A   1      42.744  38.478  27.432  1.00  0.00    -0.051 A 
ATOM     32  C   UNL A   1      44.117  38.309  27.248  1.00  0.00     0.008 A 
ATOM     33  C   UNL A   1      41.903  37.377  27.194  1.00  0.00     0.008 A 
ATOM     34  C   UNL A   1      44.634  37.036  26.977  1.00  0.00     0.052 A 
ATOM     35  C   UNL A   1      42.437  36.099  26.904  1.00  0.00     0.052 A 
ENDBRANCH  21  29
ENDBRANCH  19  20
ENDBRANCH  16  19
ENDBRANCH  10  15
ENDBRANCH   7   9
ENDBRANCH   6   7
ENDBRANCH   5   6
ENDBRANCH   4   5
ENDBRANCH   3   4
ENDBRANCH   2   3
ENDBRANCH   1   2
BRANCH   1  36
ATOM     36  O   UNL A   1      45.854  26.240  30.869  1.00  0.00    -0.377 OA
BRANCH  36  37
ATOM     37  C   UNL A   1      46.363  25.612  29.703  1.00  0.00     0.188 C 
BRANCH  37  38
ATOM     38  C   UNL A   1      45.227  25.081  28.861  1.00  0.00     0.188 C 
BRANCH  38  39
ATOM     39  O   UNL A   1      45.269  25.281  27.462  1.00  0.00    -0.376 OA
BRANCH  39  40
ATOM     40  C   UNL A   1      44.134  24.937  26.680  1.00  0.00     0.202 C 
BRANCH  40  41
ATOM     41  C   UNL A   1      42.883  24.516  27.468  1.00  0.00     0.261 C 
BRANCH  41  42
ATOM     42  O   UNL A   1      41.817  25.459  27.202  1.00  0.00    -0.460 OA
BRANCH  42  43
ATOM     43  C   UNL A   1      40.613  25.217  27.797  1.00  0.00     0.338 C 
ATOM     44  O   UNL A   1      40.050  24.133  27.829  1.00  0.00    -0.246 OA
BRANCH  43  45
ATOM     45  C   UNL A   1      39.902  26.527  28.025  1.00  0.00     0.060 A 
ATOM     46  C   UNL A   1      40.423  27.694  27.438  1.00  0.00     0.016 A 
ATOM     47  C   UNL A   1      39.066  26.653  29.129  1.00  0.00     0.016 A 
ATOM     48  C   UNL A   1      40.322  28.933  28.106  1.00  0.00     0.010 A 
ATOM     49  C   UNL A   1      39.033  27.865  29.809  1.00  0.00     0.010 A 
ATOM     50  C   UNL A   1      39.748  28.994  29.371  1.00  0.00    -0.014 A 
BRANCH  50  51
ATOM     51  C   UNL A   1      39.965  30.075  30.378  1.00  0.00     0.031 A 
ATOM     52  C   UNL A   1      41.068  29.898  31.364  1.00  0.00     0.074 A 
ATOM     53  C   UNL A   1      39.437  31.317  30.170  1.00  0.00     0.049 A 
ATOM     54  N   UNL A   1      41.439  30.778  32.224  1.00  0.00    -0.248 NA
ATOM     55  C   UNL A   1      41.917  28.713  31.416  1.00  0.00     0.031 C 
ATOM     56  C   UNL A   1      39.811  32.656  30.685  1.00  0.00     0.029 A 
ATOM     57  N   UNL A   1      38.332  31.653  29.384  1.00  0.00    -0.354 N 
ATOM     58  C   UNL A   1      42.744  30.499  32.602  1.00  0.00     0.074 A 
ATOM     59  C   UNL A   1      42.938  29.139  32.170  1.00  0.00     0.031 C 
ATOM     60  C   UNL A   1      38.826  33.547  30.465  1.00  0.00     0.029 A 
ATOM     61  C   UNL A   1      37.718  32.739  30.057  1.00  0.00     0.049 A 
ATOM     62  H   UNL A   1      38.043  31.228  28.543  1.00  0.00     0.167 HD
ATOM     63  C   UNL A   1      43.520  31.529  33.082  1.00  0.00     0.037 A 
ATOM     64  C   UNL A   1      36.590  32.499  30.786  1.00  0.00     0.037 A 
ATOM     65  C   UNL A   1      42.702  32.753  33.302  1.00  0.00     0.049 A 
ATOM     66  C   UNL A   1      36.913  32.747  32.271  1.00  0.00     0.074 A 
ATOM     67  C   UNL A   1      42.806  34.106  33.018  1.00  0.00     0.029 A 
ATOM     68  N   UNL A   1      41.410  32.601  33.806  1.00  0.00    -0.354 N 
ATOM     69  N   UNL A   1      38.137  32.669  32.766  1.00  0.00    -0.248 NA
ATOM     70  C   UNL A   1      36.002  33.315  33.261  1.00  0.00     0.031 C 
ATOM     71  C   UNL A   1      41.547  34.730  33.303  1.00  0.00     0.029 A 
ATOM     72  C   UNL A   1      40.683  33.764  33.799  1.00  0.00     0.049 A 
ATOM     73  H   UNL A   1      41.056  31.744  34.136  1.00  0.00     0.167 HD
ATOM     74  C   UNL A   1      38.236  33.365  33.945  1.00  0.00     0.074 A 
ATOM     75  C   UNL A   1      36.839  33.604  34.283  1.00  0.00     0.031 C 
ATOM     76  C   UNL A   1      39.417  33.790  34.521  1.00  0.00     0.037 A 
BRANCH  63  77
ATOM     77  C   UNL A   1      45.057  31.525  33.212  1.00  0.00     0.057 A 
ATOM     78  C   UNL A   1      45.682  31.563  34.482  1.00  0.00     0.134 A 
ATOM     79  C   UNL A   1      45.986  31.557  32.149  1.00  0.00     0.134 A 
ATOM     80  F   UNL A   1      44.976  31.492  35.617  1.00  0.00    -0.206 F 
ATOM     81  C   UNL A   1      47.075  31.658  34.670  1.00  0.00     0.040 A 
ATOM     82  C   UNL A   1      47.385  31.594  32.324  1.00  0.00     0.040 A 
ATOM     83  F   UNL A   1      45.613  31.591  30.868  1.00  0.00    -0.206 F 
ATOM     84  C   UNL A   1      47.937  31.661  33.589  1.00  0.00     0.006 A 
ENDBRANCH  63  77
BRANCH  64  85
ATOM     85  C   UNL A   1      35.738  31.574  29.938  1.00  0.00     0.057 A 
ATOM     86  C   UNL A   1      35.070  32.243  28.870  1.00  0.00     0.134 A 
ATOM     87  C   UNL A   1      35.905  30.215  29.720  1.00  0.00     0.134 A 
ATOM     88  F   UNL A   1      34.923  33.565  28.944  1.00  0.00    -0.206 F 
ATOM     89  C   UNL A   1      34.759  31.691  27.626  1.00  0.00     0.040 A 
ATOM     90  C   UNL A   1      35.542  29.618  28.478  1.00  0.00     0.040 A 
ATOM     91  F   UNL A   1      36.565  29.454  30.604  1.00  0.00    -0.206 F 
ATOM     92  C   UNL A   1      35.035  30.365  27.409  1.00  0.00     0.006 A 
ENDBRANCH  64  85
BRANCH  76  93
ATOM     93  C   UNL A   1      39.545  34.157  35.978  1.00  0.00     0.057 A 
ATOM     94  C   UNL A   1      39.661  35.452  36.462  1.00  0.00     0.134 A 
ATOM     95  C   UNL A   1      39.492  33.142  36.970  1.00  0.00     0.134 A 
ATOM     96  F   UNL A   1      39.989  36.467  35.651  1.00  0.00    -0.206 F 
ATOM     97  C   UNL A   1      39.467  35.742  37.817  1.00  0.00     0.040 A 
ATOM     98  C   UNL A   1      39.352  33.411  38.325  1.00  0.00     0.040 A 
ATOM     99  F   UNL A   1      39.548  31.835  36.684  1.00  0.00    -0.206 F 
ATOM    100  C   UNL A   1      39.266  34.722  38.745  1.00  0.00     0.006 A 
ENDBRANCH  76  93
ENDBRANCH  50  51
ENDBRANCH  43  45
ENDBRANCH  42  43
ENDBRANCH  41  42
ENDBRANCH  40  41
ENDBRANCH  39  40
ENDBRANCH  38  39
ENDBRANCH  37  38
ENDBRANCH  36  37
ENDBRANCH   1  36
TORSDOF 24
ENDMDL
