MODEL 1
REMARK VINA RESULT:     -10.5      0.000      0.000
REMARK SMILES C[C@]1(Cn2c(=O)[nH]c3cc(C(=O)OCCOCCOCCOCCOC(=O)c4ccc(-c5c6nc(c(-c7c(F)cccc7F)c7ccc([nH]7)c(-c7c(F)cccc7F)c7nc(c(-c8c(F)cccc8F)c8ccc5[nH]8)C=C7)C=C6)cc4)ccc32)CCCO1
REMARK SMILES IDX 19 1 18 2 17 3 16 4 15 5 14 6 13 7 11 8 12 9 10 10 4 11 5 12
REMARK SMILES IDX 84 13 6 14 7 15 8 16 83 17 9 19 82 20 3 21 2 22 1 23 85 24
REMARK SMILES IDX 88 25 86 26 87 27 20 28 21 29 22 30 23 31 24 32 25 33 26 34
REMARK SMILES IDX 27 35 28 36 29 37 81 38 30 39 80 40 31 41 32 42 33 43 74 44
REMARK SMILES IDX 34 45 79 46 73 47 75 48 35 49 78 50 72 51 71 52 36 54 62 55
REMARK SMILES IDX 45 56 61 57 46 58 49 59 60 60 76 61 47 62 48 63 59 65 77 66
REMARK SMILES IDX 50 67 37 68 38 69 43 70 39 71 40 72 42 73 44 74 41 75 63 76
REMARK SMILES IDX 64 77 69 78 65 79 66 80 68 81 70 82 67 83 51 84 52 85 57 86
REMARK SMILES IDX 53 87 54 88 56 89 58 90 55 91
REMARK H PARENT 7 18 75 53 49 64
REMARK Flexibility Score: inf
ROOT
ATOM      1  O   UNL A   1      40.742  21.731  26.484  1.00  0.00    -0.377 OA
ENDROOT
BRANCH   1   2
ATOM      2  C   UNL A   1      39.416  22.218  26.443  1.00  0.00     0.188 C 
BRANCH   2   3
ATOM      3  C   UNL A   1      38.458  21.440  25.526  1.00  0.00     0.188 C 
BRANCH   3   4
ATOM      4  O   UNL A   1      37.112  21.882  25.609  1.00  0.00    -0.376 OA
BRANCH   4   5
ATOM      5  C   UNL A   1      36.149  21.436  24.668  1.00  0.00     0.202 C 
BRANCH   5   6
ATOM      6  C   UNL A   1      35.223  20.249  24.987  1.00  0.00     0.261 C 
BRANCH   6   7
ATOM      7  O   UNL A   1      34.096  20.544  25.809  1.00  0.00    -0.460 OA
BRANCH   7   8
ATOM      8  C   UNL A   1      32.913  20.704  25.189  1.00  0.00     0.338 C 
ATOM      9  O   UNL A   1      32.057  19.857  25.008  1.00  0.00    -0.246 OA
BRANCH   8  10
ATOM     10  C   UNL A   1      32.720  22.155  24.954  1.00  0.00     0.062 A 
ATOM     11  N   UNL A   1      32.343  26.076  23.810  1.00  0.00    -0.289 N 
ATOM     12  C   UNL A   1      31.586  25.925  22.617  1.00  0.00     0.326 A 
ATOM     13  C   UNL A   1      32.420  24.836  24.455  1.00  0.00     0.069 A 
ATOM     14  O   UNL A   1      31.311  26.755  21.793  1.00  0.00    -0.248 OA
ATOM     15  N   UNL A   1      31.277  24.551  22.532  1.00  0.00    -0.306 N 
ATOM     16  C   UNL A   1      31.859  23.887  23.601  1.00  0.00     0.067 A 
ATOM     17  C   UNL A   1      32.995  24.478  25.652  1.00  0.00     0.029 A 
ATOM     18  H   UNL A   1      30.733  24.130  21.827  1.00  0.00     0.171 HD
ATOM     19  C   UNL A   1      32.001  22.539  23.811  1.00  0.00     0.044 A 
ATOM     20  C   UNL A   1      33.167  23.115  25.894  1.00  0.00     0.018 A 
BRANCH  11  21
ATOM     21  C   UNL A   1      33.193  27.219  24.087  1.00  0.00     0.162 C 
BRANCH  21  22
ATOM     22  C   UNL A   1      32.681  28.158  25.225  1.00  0.00     0.083 C 
ATOM     23  C   UNL A   1      31.144  28.277  25.249  1.00  0.00     0.044 C 
ATOM     24  C   UNL A   1      33.241  27.815  26.607  1.00  0.00     0.039 C 
ATOM     25  O   UNL A   1      33.169  29.504  24.998  1.00  0.00    -0.373 OA
ATOM     26  C   UNL A   1      33.071  29.112  27.359  1.00  0.00     0.031 C 
ATOM     27  C   UNL A   1      33.302  30.155  26.279  1.00  0.00     0.161 C 
ENDBRANCH  21  22
ENDBRANCH  11  21
ENDBRANCH   8  10
ENDBRANCH   7   8
ENDBRANCH   6   7
ENDBRANCH   5   6
ENDBRANCH   4   5
ENDBRANCH   3   4
ENDBRANCH   2   3
ENDBRANCH   1   2
BRANCH   1  28
ATOM     28  C   UNL A   1      40.931  20.321  26.595  1.00  0.00     0.188 C 
BRANCH  28  29
ATOM     29  C   UNL A   1      42.171  19.715  27.294  1.00  0.00     0.188 C 
BRANCH  29  30
ATOM     30  O   UNL A   1      42.660  18.555  26.646  1.00  0.00    -0.376 OA
BRANCH  30  31
ATOM     31  C   UNL A   1      43.301  18.740  25.394  1.00  0.00     0.202 C 
BRANCH  31  32
ATOM     32  C   UNL A   1      44.840  18.740  25.376  1.00  0.00     0.261 C 
BRANCH  32  33
ATOM     33  O   UNL A   1      45.441  20.041  25.227  1.00  0.00    -0.460 OA
BRANCH  33  34
ATOM     34  C   UNL A   1      44.907  20.937  24.364  1.00  0.00     0.338 C 
ATOM     35  O   UNL A   1      44.663  20.759  23.187  1.00  0.00    -0.246 OA
BRANCH  34  36
ATOM     36  C   UNL A   1      44.340  22.031  25.210  1.00  0.00     0.060 A 
ATOM     37  C   UNL A   1      43.382  22.918  24.714  1.00  0.00     0.016 A 
ATOM     38  C   UNL A   1      45.027  22.337  26.396  1.00  0.00     0.016 A 
ATOM     39  C   UNL A   1      43.210  24.155  25.341  1.00  0.00     0.010 A 
ATOM     40  C   UNL A   1      44.854  23.579  27.020  1.00  0.00     0.010 A 
ATOM     41  C   UNL A   1      43.970  24.511  26.477  1.00  0.00    -0.014 A 
BRANCH  41  42
ATOM     42  C   UNL A   1      43.567  25.734  27.202  1.00  0.00     0.031 A 
ATOM     43  C   UNL A   1      44.532  26.845  26.960  1.00  0.00     0.074 A 
ATOM     44  C   UNL A   1      42.426  26.017  27.873  1.00  0.00     0.049 A 
ATOM     45  N   UNL A   1      45.271  27.473  27.815  1.00  0.00    -0.248 NA
ATOM     46  C   UNL A   1      44.802  27.188  25.552  1.00  0.00     0.031 C 
ATOM     47  C   UNL A   1      41.207  25.216  27.966  1.00  0.00     0.029 A 
ATOM     48  N   UNL A   1      42.091  27.161  28.563  1.00  0.00    -0.354 N 
ATOM     49  C   UNL A   1      45.976  28.414  27.069  1.00  0.00     0.074 A 
ATOM     50  C   UNL A   1      45.771  28.089  25.683  1.00  0.00     0.031 C 
ATOM     51  C   UNL A   1      40.216  25.962  28.510  1.00  0.00     0.029 A 
ATOM     52  C   UNL A   1      40.740  27.266  28.891  1.00  0.00     0.049 A 
ATOM     53  H   UNL A   1      42.752  27.849  28.806  1.00  0.00     0.167 HD
ATOM     54  C   UNL A   1      46.481  29.542  27.634  1.00  0.00     0.037 A 
ATOM     55  C   UNL A   1      40.082  28.350  29.387  1.00  0.00     0.037 A 
ATOM     56  C   UNL A   1      46.644  29.407  29.057  1.00  0.00     0.049 A 
ATOM     57  C   UNL A   1      41.080  29.296  29.930  1.00  0.00     0.074 A 
ATOM     58  C   UNL A   1      47.342  28.557  29.892  1.00  0.00     0.029 A 
ATOM     59  N   UNL A   1      45.762  30.073  29.865  1.00  0.00    -0.354 N 
ATOM     60  N   UNL A   1      41.722  29.133  31.049  1.00  0.00    -0.248 NA
ATOM     61  C   UNL A   1      41.618  30.315  29.044  1.00  0.00     0.031 C 
ATOM     62  C   UNL A   1      46.529  28.422  31.056  1.00  0.00     0.029 A 
ATOM     63  C   UNL A   1      45.402  29.219  30.873  1.00  0.00     0.049 A 
ATOM     64  H   UNL A   1      45.445  30.998  29.745  1.00  0.00     0.167 HD
ATOM     65  C   UNL A   1      42.971  29.676  30.810  1.00  0.00     0.074 A 
ATOM     66  C   UNL A   1      42.805  30.505  29.622  1.00  0.00     0.031 C 
ATOM     67  C   UNL A   1      44.074  29.171  31.433  1.00  0.00     0.037 A 
BRANCH  54  68
ATOM     68  C   UNL A   1      46.435  30.884  26.944  1.00  0.00     0.057 A 
ATOM     69  C   UNL A   1      45.240  31.545  26.585  1.00  0.00     0.134 A 
ATOM     70  C   UNL A   1      47.589  31.684  26.919  1.00  0.00     0.134 A 
ATOM     71  F   UNL A   1      44.041  30.951  26.643  1.00  0.00    -0.206 F 
ATOM     72  C   UNL A   1      45.192  32.898  26.245  1.00  0.00     0.040 A 
ATOM     73  C   UNL A   1      47.544  33.055  26.635  1.00  0.00     0.040 A 
ATOM     74  F   UNL A   1      48.783  31.179  27.262  1.00  0.00    -0.206 F 
ATOM     75  C   UNL A   1      46.341  33.667  26.304  1.00  0.00     0.006 A 
ENDBRANCH  54  68
BRANCH  55  76
ATOM     76  C   UNL A   1      38.657  28.760  29.288  1.00  0.00     0.057 A 
ATOM     77  C   UNL A   1      38.163  29.402  28.143  1.00  0.00     0.134 A 
ATOM     78  C   UNL A   1      37.820  28.794  30.418  1.00  0.00     0.134 A 
ATOM     79  F   UNL A   1      38.905  29.496  27.031  1.00  0.00    -0.206 F 
ATOM     80  C   UNL A   1      36.925  30.057  28.125  1.00  0.00     0.040 A 
ATOM     81  C   UNL A   1      36.583  29.455  30.417  1.00  0.00     0.040 A 
ATOM     82  F   UNL A   1      38.209  28.245  31.577  1.00  0.00    -0.206 F 
ATOM     83  C   UNL A   1      36.138  30.101  29.268  1.00  0.00     0.006 A 
ENDBRANCH  55  76
BRANCH  67  84
ATOM     84  C   UNL A   1      43.848  28.307  32.640  1.00  0.00     0.057 A 
ATOM     85  C   UNL A   1      43.864  28.913  33.902  1.00  0.00     0.134 A 
ATOM     86  C   UNL A   1      43.674  26.914  32.607  1.00  0.00     0.134 A 
ATOM     87  F   UNL A   1      44.082  30.233  34.017  1.00  0.00    -0.206 F 
ATOM     88  C   UNL A   1      43.678  28.181  35.075  1.00  0.00     0.040 A 
ATOM     89  C   UNL A   1      43.444  26.175  33.771  1.00  0.00     0.040 A 
ATOM     90  F   UNL A   1      43.756  26.227  31.456  1.00  0.00    -0.206 F 
ATOM     91  C   UNL A   1      43.446  26.809  35.011  1.00  0.00     0.006 A 
ENDBRANCH  67  84
ENDBRANCH  41  42
ENDBRANCH  34  36
ENDBRANCH  33  34
ENDBRANCH  32  33
ENDBRANCH  31  32
ENDBRANCH  30  31
ENDBRANCH  29  30
ENDBRANCH  28  29
ENDBRANCH   1  28
TORSDOF 22
ENDMDL
MODEL 2
REMARK VINA RESULT:     -10.2      3.603      9.825
REMARK SMILES C[C@]1(Cn2c(=O)[nH]c3cc(C(=O)OCCOCCOCCOCCOC(=O)c4ccc(-c5c6nc(c(-c7c(F)cccc7F)c7ccc([nH]7)c(-c7c(F)cccc7F)c7nc(c(-c8c(F)cccc8F)c8ccc5[nH]8)C=C7)C=C6)cc4)ccc32)CCCO1
REMARK SMILES IDX 19 1 18 2 17 3 16 4 15 5 14 6 13 7 11 8 12 9 10 10 4 11 5 12
REMARK SMILES IDX 84 13 6 14 7 15 8 16 83 17 9 19 82 20 3 21 2 22 1 23 85 24
REMARK SMILES IDX 88 25 86 26 87 27 20 28 21 29 22 30 23 31 24 32 25 33 26 34
REMARK SMILES IDX 27 35 28 36 29 37 81 38 30 39 80 40 31 41 32 42 33 43 74 44
REMARK SMILES IDX 34 45 79 46 73 47 75 48 35 49 78 50 72 51 71 52 36 54 62 55
REMARK SMILES IDX 45 56 61 57 46 58 49 59 60 60 76 61 47 62 48 63 59 65 77 66
REMARK SMILES IDX 50 67 37 68 38 69 43 70 39 71 40 72 42 73 44 74 41 75 63 76
REMARK SMILES IDX 64 77 69 78 65 79 66 80 68 81 70 82 67 83 51 84 52 85 57 86
REMARK SMILES IDX 53 87 54 88 56 89 58 90 55 91
REMARK H PARENT 7 18 75 53 49 64
REMARK Flexibility Score: inf
ROOT
ATOM      1  O   UNL A   1      35.377  34.338  28.905  1.00  0.00    -0.377 OA
ENDROOT
BRANCH   1   2
ATOM      2  C   UNL A   1      35.536  33.135  28.178  1.00  0.00     0.188 C 
BRANCH   2   3
ATOM      3  C   UNL A   1      34.729  31.938  28.704  1.00  0.00     0.188 C 
BRANCH   3   4
ATOM      4  O   UNL A   1      33.528  31.705  27.984  1.00  0.00    -0.376 OA
BRANCH   4   5
ATOM      5  C   UNL A   1      33.369  30.524  27.215  1.00  0.00     0.202 C 
BRANCH   5   6
ATOM      6  C   UNL A   1      32.223  30.394  26.195  1.00  0.00     0.261 C 
BRANCH   6   7
ATOM      7  O   UNL A   1      31.601  29.113  26.119  1.00  0.00    -0.460 OA
BRANCH   7   8
ATOM      8  C   UNL A   1      31.126  28.735  24.919  1.00  0.00     0.338 C 
ATOM      9  O   UNL A   1      30.530  29.427  24.112  1.00  0.00    -0.246 OA
BRANCH   8  10
ATOM     10  C   UNL A   1      31.646  27.376  24.636  1.00  0.00     0.062 A 
ATOM     11  N   UNL A   1      32.793  23.631  23.414  1.00  0.00    -0.289 N 
ATOM     12  C   UNL A   1      33.165  23.902  22.070  1.00  0.00     0.326 A 
ATOM     13  C   UNL A   1      32.538  24.845  24.064  1.00  0.00     0.069 A 
ATOM     14  O   UNL A   1      33.448  23.123  21.199  1.00  0.00    -0.248 OA
ATOM     15  N   UNL A   1      33.055  25.300  21.916  1.00  0.00    -0.306 N 
ATOM     16  C   UNL A   1      32.592  25.852  23.101  1.00  0.00     0.067 A 
ATOM     17  C   UNL A   1      32.196  25.114  25.369  1.00  0.00     0.029 A 
ATOM     18  H   UNL A   1      33.274  25.804  21.099  1.00  0.00     0.171 HD
ATOM     19  C   UNL A   1      32.141  27.124  23.347  1.00  0.00     0.044 A 
ATOM     20  C   UNL A   1      31.721  26.394  25.653  1.00  0.00     0.018 A 
BRANCH  11  21
ATOM     21  C   UNL A   1      32.382  22.323  23.890  1.00  0.00     0.162 C 
BRANCH  21  22
ATOM     22  C   UNL A   1      33.449  21.573  24.750  1.00  0.00     0.083 C 
ATOM     23  C   UNL A   1      33.375  20.043  24.584  1.00  0.00     0.044 C 
ATOM     24  C   UNL A   1      34.874  22.094  24.555  1.00  0.00     0.039 C 
ATOM     25  O   UNL A   1      33.198  21.822  26.156  1.00  0.00    -0.373 OA
ATOM     26  C   UNL A   1      35.562  21.640  25.820  1.00  0.00     0.031 C 
ATOM     27  C   UNL A   1      34.458  21.748  26.856  1.00  0.00     0.161 C 
ENDBRANCH  21  22
ENDBRANCH  11  21
ENDBRANCH   8  10
ENDBRANCH   7   8
ENDBRANCH   6   7
ENDBRANCH   5   6
ENDBRANCH   4   5
ENDBRANCH   3   4
ENDBRANCH   2   3
ENDBRANCH   1   2
BRANCH   1  28
ATOM     28  C   UNL A   1      34.403  35.272  28.441  1.00  0.00     0.188 C 
BRANCH  28  29
ATOM     29  C   UNL A   1      32.917  35.179  28.862  1.00  0.00     0.188 C 
BRANCH  29  30
ATOM     30  O   UNL A   1      32.462  36.332  29.547  1.00  0.00    -0.376 OA
BRANCH  30  31
ATOM     31  C   UNL A   1      33.001  36.565  30.838  1.00  0.00     0.202 C 
BRANCH  31  32
ATOM     32  C   UNL A   1      32.432  35.741  32.007  1.00  0.00     0.261 C 
BRANCH  32  33
ATOM     33  O   UNL A   1      33.325  34.739  32.529  1.00  0.00    -0.460 OA
BRANCH  33  34
ATOM     34  C   UNL A   1      34.487  35.110  33.117  1.00  0.00     0.338 C 
ATOM     35  O   UNL A   1      34.612  35.771  34.130  1.00  0.00    -0.246 OA
BRANCH  34  36
ATOM     36  C   UNL A   1      35.546  34.250  32.508  1.00  0.00     0.060 A 
ATOM     37  C   UNL A   1      35.332  32.894  32.253  1.00  0.00     0.016 A 
ATOM     38  C   UNL A   1      36.854  34.764  32.499  1.00  0.00     0.016 A 
ATOM     39  C   UNL A   1      36.433  32.045  32.114  1.00  0.00     0.010 A 
ATOM     40  C   UNL A   1      37.954  33.910  32.363  1.00  0.00     0.010 A 
ATOM     41  C   UNL A   1      37.753  32.539  32.204  1.00  0.00    -0.014 A 
BRANCH  41  42
ATOM     42  C   UNL A   1      38.845  31.618  31.825  1.00  0.00     0.031 A 
ATOM     43  C   UNL A   1      39.665  31.238  33.012  1.00  0.00     0.074 A 
ATOM     44  C   UNL A   1      39.084  30.979  30.656  1.00  0.00     0.049 A 
ATOM     45  N   UNL A   1      40.921  31.455  33.229  1.00  0.00    -0.248 NA
ATOM     46  C   UNL A   1      38.936  30.671  34.160  1.00  0.00     0.031 C 
ATOM     47  C   UNL A   1      38.244  30.932  29.461  1.00  0.00     0.029 A 
ATOM     48  N   UNL A   1      40.129  30.145  30.325  1.00  0.00    -0.354 N 
ATOM     49  C   UNL A   1      41.179  30.893  34.476  1.00  0.00     0.074 A 
ATOM     50  C   UNL A   1      39.906  30.574  35.065  1.00  0.00     0.031 C 
ATOM     51  C   UNL A   1      38.714  29.985  28.614  1.00  0.00     0.029 A 
ATOM     52  C   UNL A   1      39.939  29.412  29.154  1.00  0.00     0.049 A 
ATOM     53  H   UNL A   1      40.946  30.074  30.870  1.00  0.00     0.167 HD
ATOM     54  C   UNL A   1      42.429  30.503  34.841  1.00  0.00     0.037 A 
ATOM     55  C   UNL A   1      40.690  28.380  28.684  1.00  0.00     0.037 A 
ATOM     56  C   UNL A   1      43.447  31.160  34.065  1.00  0.00     0.049 A 
ATOM     57  C   UNL A   1      41.998  28.399  29.374  1.00  0.00     0.074 A 
ATOM     58  C   UNL A   1      43.816  32.471  33.832  1.00  0.00     0.029 A 
ATOM     59  N   UNL A   1      44.103  30.420  33.117  1.00  0.00    -0.354 N 
ATOM     60  N   UNL A   1      42.951  29.247  29.128  1.00  0.00    -0.248 NA
ATOM     61  C   UNL A   1      42.139  27.638  30.604  1.00  0.00     0.031 C 
ATOM     62  C   UNL A   1      44.290  32.495  32.487  1.00  0.00     0.029 A 
ATOM     63  C   UNL A   1      44.210  31.194  31.993  1.00  0.00     0.049 A 
ATOM     64  H   UNL A   1      44.437  29.500  33.224  1.00  0.00     0.167 HD
ATOM     65  C   UNL A   1      43.546  29.459  30.359  1.00  0.00     0.074 A 
ATOM     66  C   UNL A   1      43.102  28.349  31.193  1.00  0.00     0.031 C 
ATOM     67  C   UNL A   1      44.108  30.666  30.655  1.00  0.00     0.037 A 
BRANCH  54  68
ATOM     68  C   UNL A   1      42.688  29.232  35.614  1.00  0.00     0.057 A 
ATOM     69  C   UNL A   1      42.302  27.948  35.172  1.00  0.00     0.134 A 
ATOM     70  C   UNL A   1      43.619  29.246  36.666  1.00  0.00     0.134 A 
ATOM     71  F   UNL A   1      41.494  27.759  34.121  1.00  0.00    -0.206 F 
ATOM     72  C   UNL A   1      42.814  26.770  35.719  1.00  0.00     0.040 A 
ATOM     73  C   UNL A   1      44.180  28.072  37.183  1.00  0.00     0.040 A 
ATOM     74  F   UNL A   1      44.082  30.405  37.158  1.00  0.00    -0.206 F 
ATOM     75  C   UNL A   1      43.783  26.830  36.705  1.00  0.00     0.006 A 
ENDBRANCH  54  68
BRANCH  55  76
ATOM     76  C   UNL A   1      40.338  27.234  27.805  1.00  0.00     0.057 A 
ATOM     77  C   UNL A   1      39.611  26.139  28.293  1.00  0.00     0.134 A 
ATOM     78  C   UNL A   1      40.951  27.052  26.552  1.00  0.00     0.134 A 
ATOM     79  F   UNL A   1      39.046  26.174  29.508  1.00  0.00    -0.206 F 
ATOM     80  C   UNL A   1      39.515  24.929  27.594  1.00  0.00     0.040 A 
ATOM     81  C   UNL A   1      40.871  25.843  25.845  1.00  0.00     0.040 A 
ATOM     82  F   UNL A   1      41.703  28.019  26.007  1.00  0.00    -0.206 F 
ATOM     83  C   UNL A   1      40.160  24.771  26.374  1.00  0.00     0.006 A 
ENDBRANCH  55  76
BRANCH  67  84
ATOM     84  C   UNL A   1      44.404  31.589  29.507  1.00  0.00     0.057 A 
ATOM     85  C   UNL A   1      45.671  31.525  28.915  1.00  0.00     0.134 A 
ATOM     86  C   UNL A   1      43.519  32.559  29.011  1.00  0.00     0.134 A 
ATOM     87  F   UNL A   1      46.591  30.661  29.374  1.00  0.00    -0.206 F 
ATOM     88  C   UNL A   1      46.033  32.356  27.855  1.00  0.00     0.040 A 
ATOM     89  C   UNL A   1      43.854  33.368  27.921  1.00  0.00     0.040 A 
ATOM     90  F   UNL A   1      42.324  32.773  29.584  1.00  0.00    -0.206 F 
ATOM     91  C   UNL A   1      45.115  33.268  27.340  1.00  0.00     0.006 A 
ENDBRANCH  67  84
ENDBRANCH  41  42
ENDBRANCH  34  36
ENDBRANCH  33  34
ENDBRANCH  32  33
ENDBRANCH  31  32
ENDBRANCH  30  31
ENDBRANCH  29  30
ENDBRANCH  28  29
ENDBRANCH   1  28
TORSDOF 22
ENDMDL
MODEL 3
REMARK VINA RESULT:     -10.0      3.368      6.180
REMARK SMILES C[C@]1(Cn2c(=O)[nH]c3cc(C(=O)OCCOCCOCCOCCOC(=O)c4ccc(-c5c6nc(c(-c7c(F)cccc7F)c7ccc([nH]7)c(-c7c(F)cccc7F)c7nc(c(-c8c(F)cccc8F)c8ccc5[nH]8)C=C7)C=C6)cc4)ccc32)CCCO1
REMARK SMILES IDX 19 1 18 2 17 3 16 4 15 5 14 6 13 7 11 8 12 9 10 10 4 11 5 12
REMARK SMILES IDX 84 13 6 14 7 15 8 16 83 17 9 19 82 20 3 21 2 22 1 23 85 24
REMARK SMILES IDX 88 25 86 26 87 27 20 28 21 29 22 30 23 31 24 32 25 33 26 34
REMARK SMILES IDX 27 35 28 36 29 37 81 38 30 39 80 40 31 41 32 42 33 43 74 44
REMARK SMILES IDX 34 45 79 46 73 47 75 48 35 49 78 50 72 51 71 52 36 54 62 55
REMARK SMILES IDX 45 56 61 57 46 58 49 59 60 60 76 61 47 62 48 63 59 65 77 66
REMARK SMILES IDX 50 67 37 68 38 69 43 70 39 71 40 72 42 73 44 74 41 75 63 76
REMARK SMILES IDX 64 77 69 78 65 79 66 80 68 81 70 82 67 83 51 84 52 85 57 86
REMARK SMILES IDX 53 87 54 88 56 89 58 90 55 91
REMARK H PARENT 7 18 75 53 49 64
REMARK Flexibility Score: inf
ROOT
ATOM      1  O   UNL A   1      35.016  23.783  24.857  1.00  0.00    -0.377 OA
ENDROOT
BRANCH   1   2
ATOM      2  C   UNL A   1      34.457  24.952  24.290  1.00  0.00     0.188 C 
BRANCH   2   3
ATOM      3  C   UNL A   1      34.137  26.078  25.286  1.00  0.00     0.188 C 
BRANCH   3   4
ATOM      4  O   UNL A   1      33.642  27.255  24.667  1.00  0.00    -0.376 OA
BRANCH   4   5
ATOM      5  C   UNL A   1      32.937  27.180  23.439  1.00  0.00     0.202 C 
BRANCH   5   6
ATOM      6  C   UNL A   1      31.475  27.652  23.336  1.00  0.00     0.261 C 
BRANCH   6   7
ATOM      7  O   UNL A   1      30.524  26.654  22.971  1.00  0.00    -0.460 OA
BRANCH   7   8
ATOM      8  C   UNL A   1      29.859  26.048  23.972  1.00  0.00     0.338 C 
ATOM      9  O   UNL A   1      28.798  26.391  24.463  1.00  0.00    -0.246 OA
BRANCH   8  10
ATOM     10  C   UNL A   1      30.526  24.752  24.237  1.00  0.00     0.062 A 
ATOM     11  N   UNL A   1      32.736  21.441  25.231  1.00  0.00    -0.289 N 
ATOM     12  C   UNL A   1      32.907  21.654  26.625  1.00  0.00     0.326 A 
ATOM     13  C   UNL A   1      31.836  22.393  24.737  1.00  0.00     0.069 A 
ATOM     14  O   UNL A   1      33.604  21.051  27.396  1.00  0.00    -0.248 OA
ATOM     15  N   UNL A   1      32.143  22.800  26.933  1.00  0.00    -0.306 N 
ATOM     16  C   UNL A   1      31.570  23.290  25.769  1.00  0.00     0.067 A 
ATOM     17  C   UNL A   1      31.317  22.572  23.475  1.00  0.00     0.029 A 
ATOM     18  H   UNL A   1      32.033  23.188  27.831  1.00  0.00     0.171 HD
ATOM     19  C   UNL A   1      30.931  24.484  25.554  1.00  0.00     0.044 A 
ATOM     20  C   UNL A   1      30.671  23.781  23.217  1.00  0.00     0.018 A 
BRANCH  11  21
ATOM     21  C   UNL A   1      33.631  20.634  24.422  1.00  0.00     0.162 C 
BRANCH  21  22
ATOM     22  C   UNL A   1      33.217  19.135  24.280  1.00  0.00     0.083 C 
ATOM     23  C   UNL A   1      32.406  18.862  22.998  1.00  0.00     0.044 C 
ATOM     24  C   UNL A   1      34.383  18.156  24.428  1.00  0.00     0.039 C 
ATOM     25  O   UNL A   1      32.341  18.770  25.376  1.00  0.00    -0.373 OA
ATOM     26  C   UNL A   1      33.685  16.872  24.804  1.00  0.00     0.031 C 
ATOM     27  C   UNL A   1      32.516  17.362  25.640  1.00  0.00     0.161 C 
ENDBRANCH  21  22
ENDBRANCH  11  21
ENDBRANCH   8  10
ENDBRANCH   7   8
ENDBRANCH   6   7
ENDBRANCH   5   6
ENDBRANCH   4   5
ENDBRANCH   3   4
ENDBRANCH   2   3
ENDBRANCH   1   2
BRANCH   1  28
ATOM     28  C   UNL A   1      36.422  23.586  24.723  1.00  0.00     0.188 C 
BRANCH  28  29
ATOM     29  C   UNL A   1      37.013  22.284  24.130  1.00  0.00     0.188 C 
BRANCH  29  30
ATOM     30  O   UNL A   1      38.003  21.700  24.957  1.00  0.00    -0.376 OA
BRANCH  30  31
ATOM     31  C   UNL A   1      38.347  22.400  26.141  1.00  0.00     0.202 C 
BRANCH  31  32
ATOM     32  C   UNL A   1      39.828  22.403  26.562  1.00  0.00     0.261 C 
BRANCH  32  33
ATOM     33  O   UNL A   1      40.444  23.705  26.587  1.00  0.00    -0.460 OA
BRANCH  33  34
ATOM     34  C   UNL A   1      41.360  24.000  27.539  1.00  0.00     0.338 C 
ATOM     35  O   UNL A   1      42.479  23.535  27.644  1.00  0.00    -0.246 OA
BRANCH  34  36
ATOM     36  C   UNL A   1      40.880  25.254  28.194  1.00  0.00     0.060 A 
ATOM     37  C   UNL A   1      39.835  26.008  27.654  1.00  0.00     0.016 A 
ATOM     38  C   UNL A   1      41.712  25.817  29.176  1.00  0.00     0.016 A 
ATOM     39  C   UNL A   1      39.711  27.353  28.011  1.00  0.00     0.010 A 
ATOM     40  C   UNL A   1      41.585  27.165  29.530  1.00  0.00     0.010 A 
ATOM     41  C   UNL A   1      40.607  27.953  28.924  1.00  0.00    -0.014 A 
BRANCH  41  42
ATOM     42  C   UNL A   1      40.268  29.306  29.411  1.00  0.00     0.031 A 
ATOM     43  C   UNL A   1      41.461  30.201  29.388  1.00  0.00     0.074 A 
ATOM     44  C   UNL A   1      39.064  29.857  29.694  1.00  0.00     0.049 A 
ATOM     45  N   UNL A   1      42.043  30.796  30.377  1.00  0.00    -0.248 NA
ATOM     46  C   UNL A   1      42.170  30.318  28.102  1.00  0.00     0.031 C 
ATOM     47  C   UNL A   1      37.734  29.290  29.479  1.00  0.00     0.029 A 
ATOM     48  N   UNL A   1      38.782  31.118  30.173  1.00  0.00    -0.354 N 
ATOM     49  C   UNL A   1      43.096  31.507  29.808  1.00  0.00     0.074 A 
ATOM     50  C   UNL A   1      43.223  31.052  28.449  1.00  0.00     0.031 C 
ATOM     51  C   UNL A   1      36.798  30.254  29.654  1.00  0.00     0.029 A 
ATOM     52  C   UNL A   1      37.441  31.488  30.081  1.00  0.00     0.049 A 
ATOM     53  H   UNL A   1      39.472  31.709  30.552  1.00  0.00     0.167 HD
ATOM     54  C   UNL A   1      43.637  32.595  30.416  1.00  0.00     0.037 A 
ATOM     55  C   UNL A   1      36.899  32.719  30.284  1.00  0.00     0.037 A 
ATOM     56  C   UNL A   1      43.370  32.611  31.829  1.00  0.00     0.049 A 
ATOM     57  C   UNL A   1      37.873  33.544  31.030  1.00  0.00     0.074 A 
ATOM     58  C   UNL A   1      43.629  31.765  32.891  1.00  0.00     0.029 A 
ATOM     59  N   UNL A   1      42.448  33.511  32.294  1.00  0.00    -0.354 N 
ATOM     60  N   UNL A   1      38.135  33.415  32.296  1.00  0.00    -0.248 NA
ATOM     61  C   UNL A   1      38.824  34.341  30.273  1.00  0.00     0.031 C 
ATOM     62  C   UNL A   1      42.516  31.913  33.770  1.00  0.00     0.029 A 
ATOM     63  C   UNL A   1      41.662  32.860  33.208  1.00  0.00     0.049 A 
ATOM     64  H   UNL A   1      42.365  34.454  32.022  1.00  0.00     0.167 HD
ATOM     65  C   UNL A   1      39.483  33.707  32.399  1.00  0.00     0.074 A 
ATOM     66  C   UNL A   1      39.818  34.399  31.161  1.00  0.00     0.031 C 
ATOM     67  C   UNL A   1      40.249  33.105  33.354  1.00  0.00     0.037 A 
BRANCH  54  68
ATOM     68  C   UNL A   1      44.048  33.830  29.651  1.00  0.00     0.057 A 
ATOM     69  C   UNL A   1      45.390  34.204  29.418  1.00  0.00     0.134 A 
ATOM     70  C   UNL A   1      43.098  34.495  28.859  1.00  0.00     0.134 A 
ATOM     71  F   UNL A   1      46.421  33.603  30.025  1.00  0.00    -0.206 F 
ATOM     72  C   UNL A   1      45.760  35.149  28.461  1.00  0.00     0.040 A 
ATOM     73  C   UNL A   1      43.463  35.403  27.857  1.00  0.00     0.040 A 
ATOM     74  F   UNL A   1      41.791  34.211  28.969  1.00  0.00    -0.206 F 
ATOM     75  C   UNL A   1      44.798  35.727  27.651  1.00  0.00     0.006 A 
ENDBRANCH  54  68
BRANCH  55  76
ATOM     76  C   UNL A   1      35.666  33.347  29.741  1.00  0.00     0.057 A 
ATOM     77  C   UNL A   1      35.528  33.614  28.371  1.00  0.00     0.134 A 
ATOM     78  C   UNL A   1      34.721  33.963  30.582  1.00  0.00     0.134 A 
ATOM     79  F   UNL A   1      36.415  33.140  27.485  1.00  0.00    -0.206 F 
ATOM     80  C   UNL A   1      34.529  34.455  27.866  1.00  0.00     0.040 A 
ATOM     81  C   UNL A   1      33.722  34.816  30.091  1.00  0.00     0.040 A 
ATOM     82  F   UNL A   1      34.781  33.808  31.912  1.00  0.00    -0.206 F 
ATOM     83  C   UNL A   1      33.632  35.074  28.728  1.00  0.00     0.006 A 
ENDBRANCH  55  76
BRANCH  67  84
ATOM     84  C   UNL A   1      39.533  32.447  34.498  1.00  0.00     0.057 A 
ATOM     85  C   UNL A   1      39.395  33.162  35.693  1.00  0.00     0.134 A 
ATOM     86  C   UNL A   1      39.033  31.134  34.481  1.00  0.00     0.134 A 
ATOM     87  F   UNL A   1      39.898  34.402  35.802  1.00  0.00    -0.206 F 
ATOM     88  C   UNL A   1      38.757  32.619  36.809  1.00  0.00     0.040 A 
ATOM     89  C   UNL A   1      38.354  30.594  35.577  1.00  0.00     0.040 A 
ATOM     90  F   UNL A   1      39.216  30.331  33.422  1.00  0.00    -0.206 F 
ATOM     91  C   UNL A   1      38.215  31.337  36.746  1.00  0.00     0.006 A 
ENDBRANCH  67  84
ENDBRANCH  41  42
ENDBRANCH  34  36
ENDBRANCH  33  34
ENDBRANCH  32  33
ENDBRANCH  31  32
ENDBRANCH  30  31
ENDBRANCH  29  30
ENDBRANCH  28  29
ENDBRANCH   1  28
TORSDOF 22
ENDMDL
