MODEL 1
REMARK VINA RESULT:      -8.2      0.000      0.000
REMARK SMILES Cc1ccc(Nc2c(F)cccc2I)c(CC(=O)OCCOCCOCCOCCOC(=O)c2ccc(-c3c4nc(c(-c5c(F)cccc5F)c5ccc([nH]5)c(-c5c(F)cccc5F)c5nc(c(-c6c(F)cccc6F)c6ccc3[nH]6)C=C5)C=C4)cc2)c1
REMARK SMILES IDX 24 1 23 2 22 3 21 4 20 5 19 6 17 7 18 8 16 9 15 10 1 11 2 12
REMARK SMILES IDX 3 13 88 14 4 15 5 16 6 17 7 19 8 20 13 21 9 22 10 23 12 24
REMARK SMILES IDX 14 25 11 26 25 27 26 28 27 29 28 30 29 31 30 32 31 33 32 34
REMARK SMILES IDX 33 35 34 36 35 37 87 38 36 39 86 40 37 41 38 42 39 43 80 44
REMARK SMILES IDX 40 45 85 46 79 47 81 48 41 49 84 50 78 51 77 52 42 54 68 55
REMARK SMILES IDX 51 56 67 57 52 58 55 59 66 60 82 61 53 62 54 63 65 65 83 66
REMARK SMILES IDX 56 67 43 68 44 69 49 70 45 71 46 72 48 73 50 74 47 75 69 76
REMARK SMILES IDX 70 77 75 78 71 79 72 80 74 81 76 82 73 83 57 84 58 85 63 86
REMARK SMILES IDX 59 87 60 88 62 89 64 90 61 91
REMARK H PARENT 6 18 81 53 55 64
REMARK Flexibility Score: inf
ROOT
ATOM      1  C   UNL A   1      49.851  27.484  31.652  1.00  0.00     0.188 C 
ENDROOT
BRANCH   1   2
ATOM      2  C   UNL A   1      48.803  27.128  30.599  1.00  0.00     0.188 C 
BRANCH   2   3
ATOM      3  O   UNL A   1      49.015  27.502  29.246  1.00  0.00    -0.376 OA
BRANCH   3   4
ATOM      4  C   UNL A   1      47.980  27.092  28.376  1.00  0.00     0.202 C 
BRANCH   4   5
ATOM      5  C   UNL A   1      48.373  26.575  26.993  1.00  0.00     0.261 C 
BRANCH   5   6
ATOM      6  O   UNL A   1      47.263  26.193  26.161  1.00  0.00    -0.463 OA
BRANCH   6   7
ATOM      7  C   UNL A   1      46.625  25.050  26.513  1.00  0.00     0.310 C 
ATOM      8  O   UNL A   1      47.162  23.948  26.587  1.00  0.00    -0.252 OA
BRANCH   7   9
ATOM      9  C   UNL A   1      45.144  25.222  26.736  1.00  0.00     0.160 C 
BRANCH   9  10
ATOM     10  C   UNL A   1      44.469  24.476  27.877  1.00  0.00    -0.013 A 
ATOM     11  C   UNL A   1      44.892  24.612  31.718  1.00  0.00     0.044 C 
ATOM     12  C   UNL A   1      44.414  24.242  30.346  1.00  0.00    -0.051 A 
ATOM     13  C   UNL A   1      43.404  23.310  30.205  1.00  0.00     0.005 A 
ATOM     14  C   UNL A   1      44.942  24.813  29.184  1.00  0.00     0.009 A 
ATOM     15  C   UNL A   1      42.943  22.953  28.933  1.00  0.00     0.026 A 
ATOM     16  C   UNL A   1      43.422  23.520  27.733  1.00  0.00     0.042 A 
BRANCH  16  17
ATOM     17  N   UNL A   1      42.942  23.071  26.457  1.00  0.00    -0.352 N 
ATOM     18  H   UNL A   1      42.918  23.763  25.756  1.00  0.00     0.167 HD
BRANCH  17  19
ATOM     19  C   UNL A   1      42.489  21.768  26.040  1.00  0.00     0.088 A 
ATOM     20  C   UNL A   1      41.162  21.340  26.192  1.00  0.00     0.147 A 
ATOM     21  C   UNL A   1      43.403  20.751  25.672  1.00  0.00     0.040 A 
ATOM     22  F   UNL A   1      40.164  22.237  26.245  1.00  0.00    -0.205 F 
ATOM     23  C   UNL A   1      40.803  19.991  26.266  1.00  0.00     0.041 A 
ATOM     24  C   UNL A   1      43.063  19.384  25.773  1.00  0.00     0.017 A 
ATOM     25  I   UNL A   1      45.324  21.174  24.907  1.00  0.00    -0.042 I 
ATOM     26  C   UNL A   1      41.771  19.007  26.125  1.00  0.00     0.004 A 
ENDBRANCH  17  19
ENDBRANCH  16  17
ENDBRANCH   9  10
ENDBRANCH   7   9
ENDBRANCH   6   7
ENDBRANCH   5   6
ENDBRANCH   4   5
ENDBRANCH   3   4
ENDBRANCH   2   3
ENDBRANCH   1   2
BRANCH   1  27
ATOM     27  O   UNL A   1      49.953  26.498  32.649  1.00  0.00    -0.377 OA
BRANCH  27  28
ATOM     28  C   UNL A   1      49.659  26.969  33.937  1.00  0.00     0.188 C 
BRANCH  28  29
ATOM     29  C   UNL A   1      48.180  27.279  34.231  1.00  0.00     0.188 C 
BRANCH  29  30
ATOM     30  O   UNL A   1      47.615  26.427  35.226  1.00  0.00    -0.376 OA
BRANCH  30  31
ATOM     31  C   UNL A   1      46.318  25.915  34.882  1.00  0.00     0.202 C 
BRANCH  31  32
ATOM     32  C   UNL A   1      45.934  24.518  35.467  1.00  0.00     0.261 C 
BRANCH  32  33
ATOM     33  O   UNL A   1      44.666  24.540  36.190  1.00  0.00    -0.460 OA
BRANCH  33  34
ATOM     34  C   UNL A   1      44.590  25.189  37.397  1.00  0.00     0.338 C 
ATOM     35  O   UNL A   1      45.317  25.031  38.345  1.00  0.00    -0.246 OA
BRANCH  34  36
ATOM     36  C   UNL A   1      43.533  26.256  37.268  1.00  0.00     0.060 A 
ATOM     37  C   UNL A   1      42.219  25.932  36.934  1.00  0.00     0.016 A 
ATOM     38  C   UNL A   1      43.945  27.590  37.162  1.00  0.00     0.016 A 
ATOM     39  C   UNL A   1      41.410  26.889  36.285  1.00  0.00     0.010 A 
ATOM     40  C   UNL A   1      43.181  28.497  36.406  1.00  0.00     0.010 A 
ATOM     41  C   UNL A   1      41.939  28.122  35.866  1.00  0.00    -0.014 A 
BRANCH  41  42
ATOM     42  C   UNL A   1      41.436  28.818  34.633  1.00  0.00     0.031 A 
ATOM     43  C   UNL A   1      41.905  28.514  33.229  1.00  0.00     0.074 A 
ATOM     44  C   UNL A   1      40.280  29.538  34.747  1.00  0.00     0.049 A 
ATOM     45  N   UNL A   1      41.479  29.143  32.173  1.00  0.00    -0.248 NA
ATOM     46  C   UNL A   1      42.878  27.484  32.864  1.00  0.00     0.031 C 
ATOM     47  C   UNL A   1      39.314  29.859  33.688  1.00  0.00     0.029 A 
ATOM     48  N   UNL A   1      39.654  30.080  35.887  1.00  0.00    -0.354 N 
ATOM     49  C   UNL A   1      41.763  28.383  31.058  1.00  0.00     0.074 A 
ATOM     50  C   UNL A   1      42.764  27.452  31.524  1.00  0.00     0.031 C 
ATOM     51  C   UNL A   1      38.287  30.564  34.174  1.00  0.00     0.029 A 
ATOM     52  C   UNL A   1      38.726  31.060  35.445  1.00  0.00     0.049 A 
ATOM     53  H   UNL A   1      39.829  29.825  36.822  1.00  0.00     0.167 HD
ATOM     54  C   UNL A   1      41.009  28.516  29.916  1.00  0.00     0.037 A 
ATOM     55  C   UNL A   1      38.982  32.389  35.654  1.00  0.00     0.037 A 
ATOM     56  C   UNL A   1      40.101  29.686  29.922  1.00  0.00     0.049 A 
ATOM     57  C   UNL A   1      39.385  33.145  34.386  1.00  0.00     0.074 A 
ATOM     58  C   UNL A   1      38.822  29.991  29.469  1.00  0.00     0.029 A 
ATOM     59  N   UNL A   1      40.518  30.836  30.568  1.00  0.00    -0.354 N 
ATOM     60  N   UNL A   1      39.158  32.733  33.160  1.00  0.00    -0.248 NA
ATOM     61  C   UNL A   1      40.153  34.390  34.395  1.00  0.00     0.031 C 
ATOM     62  C   UNL A   1      38.497  31.330  29.874  1.00  0.00     0.029 A 
ATOM     63  C   UNL A   1      39.605  31.858  30.503  1.00  0.00     0.049 A 
ATOM     64  H   UNL A   1      41.385  30.914  31.027  1.00  0.00     0.167 HD
ATOM     65  C   UNL A   1      39.878  33.491  32.273  1.00  0.00     0.074 A 
ATOM     66  C   UNL A   1      40.425  34.561  33.088  1.00  0.00     0.031 C 
ATOM     67  C   UNL A   1      40.067  33.157  30.957  1.00  0.00     0.037 A 
BRANCH  54  68
ATOM     68  C   UNL A   1      40.975  27.495  28.783  1.00  0.00     0.057 A 
ATOM     69  C   UNL A   1      41.865  27.595  27.691  1.00  0.00     0.134 A 
ATOM     70  C   UNL A   1      40.009  26.479  28.645  1.00  0.00     0.134 A 
ATOM     71  F   UNL A   1      42.850  28.503  27.677  1.00  0.00    -0.206 F 
ATOM     72  C   UNL A   1      41.783  26.773  26.553  1.00  0.00     0.040 A 
ATOM     73  C   UNL A   1      39.955  25.611  27.540  1.00  0.00     0.040 A 
ATOM     74  F   UNL A   1      39.033  26.308  29.547  1.00  0.00    -0.206 F 
ATOM     75  C   UNL A   1      40.831  25.767  26.479  1.00  0.00     0.006 A 
ENDBRANCH  54  68
BRANCH  55  76
ATOM     76  C   UNL A   1      39.393  32.592  37.073  1.00  0.00     0.057 A 
ATOM     77  C   UNL A   1      40.773  32.818  37.270  1.00  0.00     0.134 A 
ATOM     78  C   UNL A   1      38.522  33.147  38.015  1.00  0.00     0.134 A 
ATOM     79  F   UNL A   1      41.667  32.287  36.420  1.00  0.00    -0.206 F 
ATOM     80  C   UNL A   1      41.242  33.738  38.210  1.00  0.00     0.040 A 
ATOM     81  C   UNL A   1      38.990  34.045  38.987  1.00  0.00     0.040 A 
ATOM     82  F   UNL A   1      37.196  32.983  37.898  1.00  0.00    -0.206 F 
ATOM     83  C   UNL A   1      40.341  34.395  39.039  1.00  0.00     0.006 A 
ENDBRANCH  55  76
BRANCH  67  84
ATOM     84  C   UNL A   1      40.872  33.982  29.982  1.00  0.00     0.057 A 
ATOM     85  C   UNL A   1      42.267  33.924  29.930  1.00  0.00     0.134 A 
ATOM     86  C   UNL A   1      40.275  34.952  29.143  1.00  0.00     0.134 A 
ATOM     87  F   UNL A   1      42.954  33.115  30.750  1.00  0.00    -0.206 F 
ATOM     88  C   UNL A   1      43.013  34.719  29.049  1.00  0.00     0.040 A 
ATOM     89  C   UNL A   1      41.010  35.780  28.294  1.00  0.00     0.040 A 
ATOM     90  F   UNL A   1      38.948  35.135  29.088  1.00  0.00    -0.206 F 
ATOM     91  C   UNL A   1      42.386  35.650  28.228  1.00  0.00     0.006 A 
ENDBRANCH  67  84
ENDBRANCH  41  42
ENDBRANCH  34  36
ENDBRANCH  33  34
ENDBRANCH  32  33
ENDBRANCH  31  32
ENDBRANCH  30  31
ENDBRANCH  29  30
ENDBRANCH  28  29
ENDBRANCH  27  28
ENDBRANCH   1  27
TORSDOF 23
ENDMDL
MODEL 2
REMARK VINA RESULT:      -8.1      8.794     15.891
REMARK SMILES Cc1ccc(Nc2c(F)cccc2I)c(CC(=O)OCCOCCOCCOCCOC(=O)c2ccc(-c3c4nc(c(-c5c(F)cccc5F)c5ccc([nH]5)c(-c5c(F)cccc5F)c5nc(c(-c6c(F)cccc6F)c6ccc3[nH]6)C=C5)C=C4)cc2)c1
REMARK SMILES IDX 24 1 23 2 22 3 21 4 20 5 19 6 17 7 18 8 16 9 15 10 1 11 2 12
REMARK SMILES IDX 3 13 88 14 4 15 5 16 6 17 7 19 8 20 13 21 9 22 10 23 12 24
REMARK SMILES IDX 14 25 11 26 25 27 26 28 27 29 28 30 29 31 30 32 31 33 32 34
REMARK SMILES IDX 33 35 34 36 35 37 87 38 36 39 86 40 37 41 38 42 39 43 80 44
REMARK SMILES IDX 40 45 85 46 79 47 81 48 41 49 84 50 78 51 77 52 42 54 68 55
REMARK SMILES IDX 51 56 67 57 52 58 55 59 66 60 82 61 53 62 54 63 65 65 83 66
REMARK SMILES IDX 56 67 43 68 44 69 49 70 45 71 46 72 48 73 50 74 47 75 69 76
REMARK SMILES IDX 70 77 75 78 71 79 72 80 74 81 76 82 73 83 57 84 58 85 63 86
REMARK SMILES IDX 59 87 60 88 62 89 64 90 61 91
REMARK H PARENT 6 18 81 53 55 64
REMARK Flexibility Score: inf
ROOT
ATOM      1  C   UNL A   1      44.438  41.250  25.386  1.00  0.00     0.188 C 
ENDROOT
BRANCH   1   2
ATOM      2  C   UNL A   1      43.399  42.255  24.891  1.00  0.00     0.188 C 
BRANCH   2   3
ATOM      3  O   UNL A   1      42.724  42.018  23.665  1.00  0.00    -0.376 OA
BRANCH   3   4
ATOM      4  C   UNL A   1      42.326  43.198  23.001  1.00  0.00     0.202 C 
BRANCH   4   5
ATOM      5  C   UNL A   1      42.793  43.399  21.560  1.00  0.00     0.261 C 
BRANCH   5   6
ATOM      6  O   UNL A   1      43.753  42.429  21.102  1.00  0.00    -0.463 OA
BRANCH   6   7
ATOM      7  C   UNL A   1      45.053  42.803  21.176  1.00  0.00     0.310 C 
ATOM      8  O   UNL A   1      45.669  42.976  22.224  1.00  0.00    -0.252 OA
BRANCH   7   9
ATOM      9  C   UNL A   1      45.686  43.077  19.835  1.00  0.00     0.160 C 
BRANCH   9  10
ATOM     10  C   UNL A   1      46.651  44.245  19.690  1.00  0.00    -0.013 A 
ATOM     11  C   UNL A   1      50.510  44.469  19.620  1.00  0.00     0.044 C 
ATOM     12  C   UNL A   1      49.057  44.839  19.595  1.00  0.00    -0.051 A 
ATOM     13  C   UNL A   1      48.693  46.159  19.412  1.00  0.00     0.005 A 
ATOM     14  C   UNL A   1      48.037  43.894  19.738  1.00  0.00     0.009 A 
ATOM     15  C   UNL A   1      47.342  46.523  19.383  1.00  0.00     0.026 A 
ATOM     16  C   UNL A   1      46.276  45.605  19.494  1.00  0.00     0.042 A 
BRANCH  16  17
ATOM     17  N   UNL A   1      44.912  46.052  19.509  1.00  0.00    -0.352 N 
ATOM     18  H   UNL A   1      44.382  45.739  20.278  1.00  0.00     0.167 HD
BRANCH  17  19
ATOM     19  C   UNL A   1      44.196  46.885  18.576  1.00  0.00     0.088 A 
ATOM     20  C   UNL A   1      44.224  48.286  18.630  1.00  0.00     0.147 A 
ATOM     21  C   UNL A   1      43.227  46.344  17.696  1.00  0.00     0.040 A 
ATOM     22  F   UNL A   1      45.270  48.919  19.185  1.00  0.00    -0.205 F 
ATOM     23  C   UNL A   1      43.210  49.088  18.100  1.00  0.00     0.041 A 
ATOM     24  C   UNL A   1      42.178  47.136  17.179  1.00  0.00     0.017 A 
ATOM     25  I   UNL A   1      43.279  44.337  17.046  1.00  0.00    -0.042 I 
ATOM     26  C   UNL A   1      42.144  48.504  17.430  1.00  0.00     0.004 A 
ENDBRANCH  17  19
ENDBRANCH  16  17
ENDBRANCH   9  10
ENDBRANCH   7   9
ENDBRANCH   6   7
ENDBRANCH   5   6
ENDBRANCH   4   5
ENDBRANCH   3   4
ENDBRANCH   2   3
ENDBRANCH   1   2
BRANCH   1  27
ATOM     27  O   UNL A   1      43.851  40.205  26.123  1.00  0.00    -0.377 OA
BRANCH  27  28
ATOM     28  C   UNL A   1      42.724  40.600  26.856  1.00  0.00     0.188 C 
BRANCH  28  29
ATOM     29  C   UNL A   1      41.585  39.570  26.969  1.00  0.00     0.188 C 
BRANCH  29  30
ATOM     30  O   UNL A   1      42.050  38.222  27.020  1.00  0.00    -0.376 OA
BRANCH  30  31
ATOM     31  C   UNL A   1      42.576  37.838  28.300  1.00  0.00     0.202 C 
BRANCH  31  32
ATOM     32  C   UNL A   1      43.478  36.562  28.337  1.00  0.00     0.261 C 
BRANCH  32  33
ATOM     33  O   UNL A   1      44.037  36.230  27.031  1.00  0.00    -0.460 OA
BRANCH  33  34
ATOM     34  C   UNL A   1      45.395  36.084  26.897  1.00  0.00     0.338 C 
ATOM     35  O   UNL A   1      46.237  36.901  27.175  1.00  0.00    -0.246 OA
BRANCH  34  36
ATOM     36  C   UNL A   1      45.656  34.655  26.494  1.00  0.00     0.060 A 
ATOM     37  C   UNL A   1      44.830  34.000  25.582  1.00  0.00     0.016 A 
ATOM     38  C   UNL A   1      46.528  33.892  27.280  1.00  0.00     0.016 A 
ATOM     39  C   UNL A   1      44.717  32.595  25.630  1.00  0.00     0.010 A 
ATOM     40  C   UNL A   1      46.319  32.507  27.408  1.00  0.00     0.010 A 
ATOM     41  C   UNL A   1      45.331  31.852  26.653  1.00  0.00    -0.014 A 
BRANCH  41  42
ATOM     42  C   UNL A   1      44.720  30.587  27.186  1.00  0.00     0.031 A 
ATOM     43  C   UNL A   1      43.669  30.537  28.269  1.00  0.00     0.074 A 
ATOM     44  C   UNL A   1      44.889  29.450  26.446  1.00  0.00     0.049 A 
ATOM     45  N   UNL A   1      43.168  29.432  28.739  1.00  0.00    -0.248 NA
ATOM     46  C   UNL A   1      43.071  31.700  28.926  1.00  0.00     0.031 C 
ATOM     47  C   UNL A   1      44.024  28.263  26.417  1.00  0.00     0.029 A 
ATOM     48  N   UNL A   1      45.848  29.137  25.464  1.00  0.00    -0.354 N 
ATOM     49  C   UNL A   1      41.983  29.720  29.384  1.00  0.00     0.074 A 
ATOM     50  C   UNL A   1      42.053  31.146  29.608  1.00  0.00     0.031 C 
ATOM     51  C   UNL A   1      44.490  27.352  25.556  1.00  0.00     0.029 A 
ATOM     52  C   UNL A   1      45.849  27.726  25.296  1.00  0.00     0.049 A 
ATOM     53  H   UNL A   1      46.417  29.779  24.981  1.00  0.00     0.167 HD
ATOM     54  C   UNL A   1      41.009  28.758  29.510  1.00  0.00     0.037 A 
ATOM     55  C   UNL A   1      46.904  26.983  25.752  1.00  0.00     0.037 A 
ATOM     56  C   UNL A   1      41.456  27.393  29.152  1.00  0.00     0.049 A 
ATOM     57  C   UNL A   1      46.589  26.175  27.012  1.00  0.00     0.074 A 
ATOM     58  C   UNL A   1      40.920  26.271  28.529  1.00  0.00     0.029 A 
ATOM     59  N   UNL A   1      42.765  27.038  29.427  1.00  0.00    -0.354 N 
ATOM     60  N   UNL A   1      45.381  25.877  27.433  1.00  0.00    -0.248 NA
ATOM     61  C   UNL A   1      47.608  25.707  27.952  1.00  0.00     0.031 C 
ATOM     62  C   UNL A   1      41.941  25.266  28.432  1.00  0.00     0.029 A 
ATOM     63  C   UNL A   1      43.068  25.750  29.062  1.00  0.00     0.049 A 
ATOM     64  H   UNL A   1      43.415  27.650  29.843  1.00  0.00     0.167 HD
ATOM     65  C   UNL A   1      45.439  25.392  28.714  1.00  0.00     0.074 A 
ATOM     66  C   UNL A   1      46.860  25.235  28.966  1.00  0.00     0.031 C 
ATOM     67  C   UNL A   1      44.345  25.239  29.525  1.00  0.00     0.037 A 
BRANCH  54  68
ATOM     68  C   UNL A   1      39.550  29.049  29.848  1.00  0.00     0.057 A 
ATOM     69  C   UNL A   1      39.037  28.782  31.137  1.00  0.00     0.134 A 
ATOM     70  C   UNL A   1      38.577  29.462  28.917  1.00  0.00     0.134 A 
ATOM     71  F   UNL A   1      39.839  28.393  32.138  1.00  0.00    -0.206 F 
ATOM     72  C   UNL A   1      37.674  28.892  31.460  1.00  0.00     0.040 A 
ATOM     73  C   UNL A   1      37.220  29.636  29.245  1.00  0.00     0.040 A 
ATOM     74  F   UNL A   1      38.877  29.668  27.628  1.00  0.00    -0.206 F 
ATOM     75  C   UNL A   1      36.759  29.332  30.516  1.00  0.00     0.006 A 
ENDBRANCH  54  68
BRANCH  55  76
ATOM     76  C   UNL A   1      48.179  27.612  25.300  1.00  0.00     0.057 A 
ATOM     77  C   UNL A   1      48.897  28.296  26.304  1.00  0.00     0.134 A 
ATOM     78  C   UNL A   1      48.924  27.079  24.244  1.00  0.00     0.134 A 
ATOM     79  F   UNL A   1      48.241  28.860  27.332  1.00  0.00    -0.206 F 
ATOM     80  C   UNL A   1      50.291  28.248  26.377  1.00  0.00     0.040 A 
ATOM     81  C   UNL A   1      50.327  27.059  24.290  1.00  0.00     0.040 A 
ATOM     82  F   UNL A   1      48.318  26.409  23.252  1.00  0.00    -0.206 F 
ATOM     83  C   UNL A   1      51.008  27.581  25.392  1.00  0.00     0.006 A 
ENDBRANCH  55  76
BRANCH  67  84
ATOM     84  C   UNL A   1      44.408  24.722  30.942  1.00  0.00     0.057 A 
ATOM     85  C   UNL A   1      44.037  23.417  31.278  1.00  0.00     0.134 A 
ATOM     86  C   UNL A   1      44.732  25.559  32.036  1.00  0.00     0.134 A 
ATOM     87  F   UNL A   1      43.614  22.559  30.338  1.00  0.00    -0.206 F 
ATOM     88  C   UNL A   1      44.062  22.952  32.600  1.00  0.00     0.040 A 
ATOM     89  C   UNL A   1      44.716  25.121  33.361  1.00  0.00     0.040 A 
ATOM     90  F   UNL A   1      45.097  26.839  31.878  1.00  0.00    -0.206 F 
ATOM     91  C   UNL A   1      44.401  23.804  33.646  1.00  0.00     0.006 A 
ENDBRANCH  67  84
ENDBRANCH  41  42
ENDBRANCH  34  36
ENDBRANCH  33  34
ENDBRANCH  32  33
ENDBRANCH  31  32
ENDBRANCH  30  31
ENDBRANCH  29  30
ENDBRANCH  28  29
ENDBRANCH  27  28
ENDBRANCH   1  27
TORSDOF 23
ENDMDL
MODEL 3
REMARK VINA RESULT:      -7.5      5.990     10.840
REMARK SMILES Cc1ccc(Nc2c(F)cccc2I)c(CC(=O)OCCOCCOCCOCCOC(=O)c2ccc(-c3c4nc(c(-c5c(F)cccc5F)c5ccc([nH]5)c(-c5c(F)cccc5F)c5nc(c(-c6c(F)cccc6F)c6ccc3[nH]6)C=C5)C=C4)cc2)c1
REMARK SMILES IDX 24 1 23 2 22 3 21 4 20 5 19 6 17 7 18 8 16 9 15 10 1 11 2 12
REMARK SMILES IDX 3 13 88 14 4 15 5 16 6 17 7 19 8 20 13 21 9 22 10 23 12 24
REMARK SMILES IDX 14 25 11 26 25 27 26 28 27 29 28 30 29 31 30 32 31 33 32 34
REMARK SMILES IDX 33 35 34 36 35 37 87 38 36 39 86 40 37 41 38 42 39 43 80 44
REMARK SMILES IDX 40 45 85 46 79 47 81 48 41 49 84 50 78 51 77 52 42 54 68 55
REMARK SMILES IDX 51 56 67 57 52 58 55 59 66 60 82 61 53 62 54 63 65 65 83 66
REMARK SMILES IDX 56 67 43 68 44 69 49 70 45 71 46 72 48 73 50 74 47 75 69 76
REMARK SMILES IDX 70 77 75 78 71 79 72 80 74 81 76 82 73 83 57 84 58 85 63 86
REMARK SMILES IDX 59 87 60 88 62 89 64 90 61 91
REMARK H PARENT 6 18 81 53 55 64
REMARK Flexibility Score: inf
ROOT
ATOM      1  C   UNL A   1      38.155  23.448  25.662  1.00  0.00     0.188 C 
ENDROOT
BRANCH   1   2
ATOM      2  C   UNL A   1      36.687  23.872  25.695  1.00  0.00     0.188 C 
BRANCH   2   3
ATOM      3  O   UNL A   1      35.694  23.000  25.178  1.00  0.00    -0.376 OA
BRANCH   3   4
ATOM      4  C   UNL A   1      34.385  23.317  25.602  1.00  0.00     0.202 C 
BRANCH   4   5
ATOM      5  C   UNL A   1      34.205  24.530  26.515  1.00  0.00     0.261 C 
BRANCH   5   6
ATOM      6  O   UNL A   1      33.816  25.737  25.835  1.00  0.00    -0.463 OA
BRANCH   6   7
ATOM      7  C   UNL A   1      32.748  26.390  26.354  1.00  0.00     0.310 C 
ATOM      8  O   UNL A   1      31.951  25.899  27.148  1.00  0.00    -0.252 OA
BRANCH   7   9
ATOM      9  C   UNL A   1      32.558  27.782  25.804  1.00  0.00     0.160 C 
BRANCH   9  10
ATOM     10  C   UNL A   1      31.694  27.984  24.568  1.00  0.00    -0.013 A 
ATOM     11  C   UNL A   1      29.131  30.702  23.572  1.00  0.00     0.044 C 
ATOM     12  C   UNL A   1      30.005  29.484  23.545  1.00  0.00    -0.051 A 
ATOM     13  C   UNL A   1      30.003  28.669  22.428  1.00  0.00     0.005 A 
ATOM     14  C   UNL A   1      30.844  29.133  24.606  1.00  0.00     0.009 A 
ATOM     15  C   UNL A   1      30.813  27.529  22.382  1.00  0.00     0.026 A 
ATOM     16  C   UNL A   1      31.697  27.149  23.414  1.00  0.00     0.042 A 
BRANCH  16  17
ATOM     17  N   UNL A   1      32.463  25.938  23.325  1.00  0.00    -0.352 N 
ATOM     18  H   UNL A   1      33.423  26.039  23.521  1.00  0.00     0.167 HD
BRANCH  17  19
ATOM     19  C   UNL A   1      32.049  24.598  22.993  1.00  0.00     0.088 A 
ATOM     20  C   UNL A   1      31.502  23.716  23.936  1.00  0.00     0.147 A 
ATOM     21  C   UNL A   1      32.388  24.006  21.753  1.00  0.00     0.040 A 
ATOM     22  F   UNL A   1      30.873  24.192  25.023  1.00  0.00    -0.205 F 
ATOM     23  C   UNL A   1      31.551  22.326  23.794  1.00  0.00     0.041 A 
ATOM     24  C   UNL A   1      32.473  22.604  21.605  1.00  0.00     0.017 A 
ATOM     25  I   UNL A   1      32.759  25.145  20.015  1.00  0.00    -0.042 I 
ATOM     26  C   UNL A   1      32.103  21.765  22.651  1.00  0.00     0.004 A 
ENDBRANCH  17  19
ENDBRANCH  16  17
ENDBRANCH   9  10
ENDBRANCH   7   9
ENDBRANCH   6   7
ENDBRANCH   5   6
ENDBRANCH   4   5
ENDBRANCH   3   4
ENDBRANCH   2   3
ENDBRANCH   1   2
BRANCH   1  27
ATOM     27  O   UNL A   1      38.376  22.258  26.378  1.00  0.00    -0.377 OA
BRANCH  27  28
ATOM     28  C   UNL A   1      39.697  21.795  26.303  1.00  0.00     0.188 C 
BRANCH  28  29
ATOM     29  C   UNL A   1      40.714  22.473  27.239  1.00  0.00     0.188 C 
BRANCH  29  30
ATOM     30  O   UNL A   1      41.778  21.609  27.632  1.00  0.00    -0.376 OA
BRANCH  30  31
ATOM     31  C   UNL A   1      41.766  20.334  26.970  1.00  0.00     0.202 C 
BRANCH  31  32
ATOM     32  C   UNL A   1      42.843  20.105  25.862  1.00  0.00     0.261 C 
BRANCH  32  33
ATOM     33  O   UNL A   1      44.014  20.960  26.029  1.00  0.00    -0.460 OA
BRANCH  33  34
ATOM     34  C   UNL A   1      44.357  21.836  25.031  1.00  0.00     0.338 C 
ATOM     35  O   UNL A   1      43.986  21.800  23.884  1.00  0.00    -0.246 OA
BRANCH  34  36
ATOM     36  C   UNL A   1      45.150  22.951  25.664  1.00  0.00     0.060 A 
ATOM     37  C   UNL A   1      45.263  23.059  27.049  1.00  0.00     0.016 A 
ATOM     38  C   UNL A   1      45.494  24.054  24.872  1.00  0.00     0.016 A 
ATOM     39  C   UNL A   1      45.492  24.324  27.632  1.00  0.00     0.010 A 
ATOM     40  C   UNL A   1      45.597  25.327  25.460  1.00  0.00     0.010 A 
ATOM     41  C   UNL A   1      45.492  25.493  26.851  1.00  0.00    -0.014 A 
BRANCH  41  42
ATOM     42  C   UNL A   1      45.015  26.808  27.400  1.00  0.00     0.031 A 
ATOM     43  C   UNL A   1      43.598  27.318  27.281  1.00  0.00     0.074 A 
ATOM     44  C   UNL A   1      45.813  27.431  28.317  1.00  0.00     0.049 A 
ATOM     45  N   UNL A   1      43.205  28.471  27.739  1.00  0.00    -0.248 NA
ATOM     46  C   UNL A   1      42.487  26.600  26.656  1.00  0.00     0.031 C 
ATOM     47  C   UNL A   1      45.407  28.380  29.362  1.00  0.00     0.029 A 
ATOM     48  N   UNL A   1      47.189  27.279  28.580  1.00  0.00    -0.354 N 
ATOM     49  C   UNL A   1      41.830  28.460  27.848  1.00  0.00     0.074 A 
ATOM     50  C   UNL A   1      41.429  27.347  27.019  1.00  0.00     0.031 C 
ATOM     51  C   UNL A   1      46.458  28.769  30.091  1.00  0.00     0.029 A 
ATOM     52  C   UNL A   1      47.614  28.412  29.323  1.00  0.00     0.049 A 
ATOM     53  H   UNL A   1      47.754  26.523  28.299  1.00  0.00     0.167 HD
ATOM     54  C   UNL A   1      41.199  29.285  28.749  1.00  0.00     0.037 A 
ATOM     55  C   UNL A   1      48.412  29.357  28.734  1.00  0.00     0.037 A 
ATOM     56  C   UNL A   1      42.078  30.316  29.346  1.00  0.00     0.049 A 
ATOM     57  C   UNL A   1      47.682  30.662  28.409  1.00  0.00     0.074 A 
ATOM     58  C   UNL A   1      42.237  30.935  30.581  1.00  0.00     0.029 A 
ATOM     59  N   UNL A   1      43.085  30.853  28.563  1.00  0.00    -0.354 N 
ATOM     60  N   UNL A   1      46.547  31.044  28.947  1.00  0.00    -0.248 NA
ATOM     61  C   UNL A   1      48.130  31.608  27.387  1.00  0.00     0.031 C 
ATOM     62  C   UNL A   1      43.360  31.826  30.509  1.00  0.00     0.029 A 
ATOM     63  C   UNL A   1      43.831  31.804  29.213  1.00  0.00     0.049 A 
ATOM     64  H   UNL A   1      43.249  30.579  27.632  1.00  0.00     0.167 HD
ATOM     65  C   UNL A   1      46.034  32.107  28.249  1.00  0.00     0.074 A 
ATOM     66  C   UNL A   1      47.097  32.469  27.329  1.00  0.00     0.031 C 
ATOM     67  C   UNL A   1      44.750  32.566  28.388  1.00  0.00     0.037 A 
BRANCH  54  68
ATOM     68  C   UNL A   1      39.761  29.099  29.225  1.00  0.00     0.057 A 
ATOM     69  C   UNL A   1      38.672  29.408  28.381  1.00  0.00     0.134 A 
ATOM     70  C   UNL A   1      39.389  28.751  30.539  1.00  0.00     0.134 A 
ATOM     71  F   UNL A   1      38.860  29.743  27.097  1.00  0.00    -0.206 F 
ATOM     72  C   UNL A   1      37.335  29.395  28.814  1.00  0.00     0.040 A 
ATOM     73  C   UNL A   1      38.051  28.676  30.967  1.00  0.00     0.040 A 
ATOM     74  F   UNL A   1      40.301  28.519  31.492  1.00  0.00    -0.206 F 
ATOM     75  C   UNL A   1      37.018  29.017  30.109  1.00  0.00     0.006 A 
ENDBRANCH  54  68
BRANCH  55  76
ATOM     76  C   UNL A   1      49.539  28.678  28.032  1.00  0.00     0.057 A 
ATOM     77  C   UNL A   1      50.511  28.101  28.878  1.00  0.00     0.134 A 
ATOM     78  C   UNL A   1      49.372  28.094  26.773  1.00  0.00     0.134 A 
ATOM     79  F   UNL A   1      50.745  28.631  30.089  1.00  0.00    -0.206 F 
ATOM     80  C   UNL A   1      51.110  26.874  28.583  1.00  0.00     0.040 A 
ATOM     81  C   UNL A   1      49.998  26.880  26.453  1.00  0.00     0.040 A 
ATOM     82  F   UNL A   1      48.465  28.580  25.911  1.00  0.00    -0.206 F 
ATOM     83  C   UNL A   1      50.812  26.234  27.387  1.00  0.00     0.006 A 
ENDBRANCH  55  76
BRANCH  67  84
ATOM     84  C   UNL A   1      44.178  33.726  27.609  1.00  0.00     0.057 A 
ATOM     85  C   UNL A   1      43.779  34.915  28.225  1.00  0.00     0.134 A 
ATOM     86  C   UNL A   1      43.898  33.639  26.225  1.00  0.00     0.134 A 
ATOM     87  F   UNL A   1      43.900  35.077  29.551  1.00  0.00    -0.206 F 
ATOM     88  C   UNL A   1      43.213  35.975  27.503  1.00  0.00     0.040 A 
ATOM     89  C   UNL A   1      43.294  34.669  25.504  1.00  0.00     0.040 A 
ATOM     90  F   UNL A   1      44.211  32.558  25.496  1.00  0.00    -0.206 F 
ATOM     91  C   UNL A   1      42.969  35.854  26.139  1.00  0.00     0.006 A 
ENDBRANCH  67  84
ENDBRANCH  41  42
ENDBRANCH  34  36
ENDBRANCH  33  34
ENDBRANCH  32  33
ENDBRANCH  31  32
ENDBRANCH  30  31
ENDBRANCH  29  30
ENDBRANCH  28  29
ENDBRANCH  27  28
ENDBRANCH   1  27
TORSDOF 23
ENDMDL
