MODEL 1
REMARK VINA RESULT:     -10.2      0.000      0.000
REMARK SMILES CC(C)[C@H]([NH2+][C@@H](C)C[C@@H]1CCCC[NH2+]1)C(=O)OCCOCCOCCOCCOC(=O)c1ccc(-c2c3nc(c(-c4c(F)cccc4F)c4ccc([nH]4)c(-c4c(F)cccc4F)c4nc(c(-c5c(F)cccc5F)c5ccc2[nH]5)C=C4)C=C3)cc1
REMARK SMILES IDX 22 1 21 2 20 3 19 4 18 5 17 6 15 7 16 8 4 9 2 10 1 11 3 12
REMARK SMILES IDX 5 13 6 16 7 17 8 18 9 19 10 20 14 21 11 22 13 23 12 26 23 27
REMARK SMILES IDX 24 28 25 29 26 30 27 31 28 32 29 33 30 34 31 35 32 36 33 37
REMARK SMILES IDX 85 38 34 39 84 40 35 41 36 42 37 43 78 44 38 45 83 46 77 47
REMARK SMILES IDX 79 48 39 49 82 50 76 51 75 52 40 54 66 55 49 56 65 57 50 58
REMARK SMILES IDX 53 59 64 60 80 61 51 62 52 63 63 65 81 66 54 67 41 68 42 69
REMARK SMILES IDX 47 70 43 71 44 72 46 73 48 74 45 75 67 76 68 77 73 78 69 79
REMARK SMILES IDX 70 80 72 81 74 82 71 83 55 84 56 85 61 86 57 87 58 88 60 89
REMARK SMILES IDX 62 90 59 91
REMARK H PARENT 5 14 5 15 14 24 14 25 79 53 53 64
REMARK Flexibility Score: inf
ROOT
ATOM      1  C   UNL A   1      37.785  22.305  25.615  1.00  0.00     0.188 C 
ENDROOT
BRANCH   1   2
ATOM      2  C   UNL A   1      36.271  21.844  25.585  1.00  0.00     0.188 C 
BRANCH   2   3
ATOM      3  O   UNL A   1      35.253  22.837  25.915  1.00  0.00    -0.376 OA
BRANCH   3   4
ATOM      4  C   UNL A   1      34.346  22.808  27.012  1.00  0.00     0.202 C 
BRANCH   4   5
ATOM      5  C   UNL A   1      32.776  23.173  26.719  1.00  0.00     0.261 C 
BRANCH   5   6
ATOM      6  O   UNL A   1      32.359  24.591  26.657  1.00  0.00    -0.459 OA
BRANCH   6   7
ATOM      7  C   UNL A   1      31.294  25.218  25.939  1.00  0.00     0.365 C 
ATOM      8  O   UNL A   1      30.183  25.387  26.423  1.00  0.00    -0.245 OA
BRANCH   7   9
ATOM      9  C   UNL A   1      31.790  25.720  24.394  1.00  0.00     0.296 C 
BRANCH   9  10
ATOM     10  C   UNL A   1      31.853  24.803  23.124  1.00  0.00     0.053 C 
ATOM     11  C   UNL A   1      33.320  24.405  22.837  1.00  0.00     0.014 C 
ATOM     12  C   UNL A   1      31.126  23.435  23.320  1.00  0.00     0.014 C 
ENDBRANCH   9  10
BRANCH   9  13
ATOM     13  N   UNL A   1      32.945  26.633  24.508  1.00  0.00    -0.332 N 
ATOM     14  H   UNL A   1      33.684  26.342  23.869  1.00  0.00     0.347 HD
ATOM     15  H   UNL A   1      33.320  26.620  25.457  1.00  0.00     0.347 HD
BRANCH  13  16
ATOM     16  C   UNL A   1      32.486  27.970  24.160  1.00  0.00     0.185 C 
ATOM     17  C   UNL A   1      33.642  28.707  23.452  1.00  0.00     0.075 C 
BRANCH  16  18
ATOM     18  C   UNL A   1      31.014  28.098  23.478  1.00  0.00     0.129 C 
BRANCH  18  19
ATOM     19  C   UNL A   1      29.677  29.216  23.670  1.00  0.00     0.188 C 
ATOM     20  C   UNL A   1      28.785  29.117  22.431  1.00  0.00     0.065 C 
ATOM     21  N   UNL A   1      29.957  30.647  23.912  1.00  0.00    -0.344 N 
ATOM     22  C   UNL A   1      28.057  30.320  21.811  1.00  0.00     0.012 C 
ATOM     23  C   UNL A   1      28.944  31.654  23.633  1.00  0.00     0.260 C 
ATOM     24  H   UNL A   1      30.770  30.886  23.344  1.00  0.00     0.346 HD
ATOM     25  H   UNL A   1      30.055  30.694  24.926  1.00  0.00     0.346 HD
ATOM     26  C   UNL A   1      28.682  31.660  22.147  1.00  0.00     0.062 C 
ENDBRANCH  18  19
ENDBRANCH  16  18
ENDBRANCH  13  16
ENDBRANCH   9  13
ENDBRANCH   7   9
ENDBRANCH   6   7
ENDBRANCH   5   6
ENDBRANCH   4   5
ENDBRANCH   3   4
ENDBRANCH   2   3
ENDBRANCH   1   2
BRANCH   1  27
ATOM     27  O   UNL A   1      38.775  21.315  25.825  1.00  0.00    -0.377 OA
BRANCH  27  28
ATOM     28  C   UNL A   1      40.043  21.827  26.140  1.00  0.00     0.188 C 
BRANCH  28  29
ATOM     29  C   UNL A   1      40.769  21.093  27.266  1.00  0.00     0.188 C 
BRANCH  29  30
ATOM     30  O   UNL A   1      42.056  20.560  27.049  1.00  0.00    -0.376 OA
BRANCH  30  31
ATOM     31  C   UNL A   1      42.738  20.823  25.841  1.00  0.00     0.202 C 
BRANCH  31  32
ATOM     32  C   UNL A   1      44.077  21.591  25.794  1.00  0.00     0.261 C 
BRANCH  32  33
ATOM     33  O   UNL A   1      44.204  22.874  26.432  1.00  0.00    -0.460 OA
BRANCH  33  34
ATOM     34  C   UNL A   1      44.202  23.986  25.677  1.00  0.00     0.338 C 
ATOM     35  O   UNL A   1      44.697  24.119  24.557  1.00  0.00    -0.246 OA
BRANCH  34  36
ATOM     36  C   UNL A   1      43.322  24.997  26.317  1.00  0.00     0.060 A 
ATOM     37  C   UNL A   1      43.704  26.351  26.356  1.00  0.00     0.016 A 
ATOM     38  C   UNL A   1      42.142  24.596  26.944  1.00  0.00     0.016 A 
ATOM     39  C   UNL A   1      42.958  27.285  27.064  1.00  0.00     0.010 A 
ATOM     40  C   UNL A   1      41.423  25.522  27.710  1.00  0.00     0.010 A 
ATOM     41  C   UNL A   1      41.868  26.851  27.820  1.00  0.00    -0.014 A 
BRANCH  41  42
ATOM     42  C   UNL A   1      41.420  27.704  28.945  1.00  0.00     0.031 A 
ATOM     43  C   UNL A   1      42.204  27.634  30.231  1.00  0.00     0.074 A 
ATOM     44  C   UNL A   1      40.410  28.576  28.811  1.00  0.00     0.049 A 
ATOM     45  N   UNL A   1      41.986  28.230  31.373  1.00  0.00    -0.248 NA
ATOM     46  C   UNL A   1      43.397  26.769  30.222  1.00  0.00     0.031 C 
ATOM     47  C   UNL A   1      39.639  28.800  27.590  1.00  0.00     0.029 A 
ATOM     48  N   UNL A   1      39.857  29.437  29.725  1.00  0.00    -0.354 N 
ATOM     49  C   UNL A   1      42.998  27.797  32.221  1.00  0.00     0.074 A 
ATOM     50  C   UNL A   1      43.816  26.870  31.473  1.00  0.00     0.031 C 
ATOM     51  C   UNL A   1      38.694  29.724  27.839  1.00  0.00     0.029 A 
ATOM     52  C   UNL A   1      38.773  30.124  29.242  1.00  0.00     0.049 A 
ATOM     53  H   UNL A   1      40.206  29.550  30.639  1.00  0.00     0.167 HD
ATOM     54  C   UNL A   1      43.228  28.145  33.509  1.00  0.00     0.037 A 
ATOM     55  C   UNL A   1      37.923  30.954  29.878  1.00  0.00     0.037 A 
ATOM     56  C   UNL A   1      42.413  29.074  34.244  1.00  0.00     0.049 A 
ATOM     57  C   UNL A   1      38.142  31.255  31.338  1.00  0.00     0.074 A 
ATOM     58  C   UNL A   1      42.559  29.501  35.553  1.00  0.00     0.029 A 
ATOM     59  N   UNL A   1      41.294  29.715  33.735  1.00  0.00    -0.354 N 
ATOM     60  N   UNL A   1      39.096  30.840  32.137  1.00  0.00    -0.248 NA
ATOM     61  C   UNL A   1      37.167  32.145  31.983  1.00  0.00     0.031 C 
ATOM     62  C   UNL A   1      41.492  30.353  35.853  1.00  0.00     0.029 A 
ATOM     63  C   UNL A   1      40.721  30.512  34.712  1.00  0.00     0.049 A 
ATOM     64  H   UNL A   1      40.956  29.618  32.815  1.00  0.00     0.167 HD
ATOM     65  C   UNL A   1      38.855  31.442  33.367  1.00  0.00     0.074 A 
ATOM     66  C   UNL A   1      37.673  32.263  33.202  1.00  0.00     0.031 C 
ATOM     67  C   UNL A   1      39.548  31.330  34.527  1.00  0.00     0.037 A 
BRANCH  54  68
ATOM     68  C   UNL A   1      44.379  27.485  34.212  1.00  0.00     0.057 A 
ATOM     69  C   UNL A   1      44.248  26.257  34.875  1.00  0.00     0.134 A 
ATOM     70  C   UNL A   1      45.648  28.080  34.205  1.00  0.00     0.134 A 
ATOM     71  F   UNL A   1      43.057  25.643  34.938  1.00  0.00    -0.206 F 
ATOM     72  C   UNL A   1      45.329  25.660  35.527  1.00  0.00     0.040 A 
ATOM     73  C   UNL A   1      46.743  27.477  34.825  1.00  0.00     0.040 A 
ATOM     74  F   UNL A   1      45.846  29.255  33.588  1.00  0.00    -0.206 F 
ATOM     75  C   UNL A   1      46.583  26.266  35.495  1.00  0.00     0.006 A 
ENDBRANCH  54  68
BRANCH  55  76
ATOM     76  C   UNL A   1      36.768  31.538  29.148  1.00  0.00     0.057 A 
ATOM     77  C   UNL A   1      35.641  30.769  28.834  1.00  0.00     0.134 A 
ATOM     78  C   UNL A   1      36.776  32.872  28.722  1.00  0.00     0.134 A 
ATOM     79  F   UNL A   1      35.584  29.478  29.193  1.00  0.00    -0.206 F 
ATOM     80  C   UNL A   1      34.574  31.299  28.107  1.00  0.00     0.040 A 
ATOM     81  C   UNL A   1      35.702  33.424  28.021  1.00  0.00     0.040 A 
ATOM     82  F   UNL A   1      37.825  33.663  28.989  1.00  0.00    -0.206 F 
ATOM     83  C   UNL A   1      34.601  32.632  27.703  1.00  0.00     0.006 A 
ENDBRANCH  55  76
BRANCH  67  84
ATOM     84  C   UNL A   1      39.078  32.151  35.695  1.00  0.00     0.057 A 
ATOM     85  C   UNL A   1      38.254  31.620  36.697  1.00  0.00     0.134 A 
ATOM     86  C   UNL A   1      39.486  33.484  35.836  1.00  0.00     0.134 A 
ATOM     87  F   UNL A   1      37.820  30.353  36.620  1.00  0.00    -0.206 F 
ATOM     88  C   UNL A   1      37.829  32.394  37.778  1.00  0.00     0.040 A 
ATOM     89  C   UNL A   1      39.095  34.258  36.929  1.00  0.00     0.040 A 
ATOM     90  F   UNL A   1      40.286  34.053  34.920  1.00  0.00    -0.206 F 
ATOM     91  C   UNL A   1      38.254  33.715  37.899  1.00  0.00     0.006 A 
ENDBRANCH  67  84
ENDBRANCH  41  42
ENDBRANCH  34  36
ENDBRANCH  33  34
ENDBRANCH  32  33
ENDBRANCH  31  32
ENDBRANCH  30  31
ENDBRANCH  29  30
ENDBRANCH  28  29
ENDBRANCH  27  28
ENDBRANCH   1  27
TORSDOF 25
ENDMDL
MODEL 2
REMARK VINA RESULT:      -9.7      2.203      7.362
REMARK SMILES CC(C)[C@H]([NH2+][C@@H](C)C[C@@H]1CCCC[NH2+]1)C(=O)OCCOCCOCCOCCOC(=O)c1ccc(-c2c3nc(c(-c4c(F)cccc4F)c4ccc([nH]4)c(-c4c(F)cccc4F)c4nc(c(-c5c(F)cccc5F)c5ccc2[nH]5)C=C4)C=C3)cc1
REMARK SMILES IDX 22 1 21 2 20 3 19 4 18 5 17 6 15 7 16 8 4 9 2 10 1 11 3 12
REMARK SMILES IDX 5 13 6 16 7 17 8 18 9 19 10 20 14 21 11 22 13 23 12 26 23 27
REMARK SMILES IDX 24 28 25 29 26 30 27 31 28 32 29 33 30 34 31 35 32 36 33 37
REMARK SMILES IDX 85 38 34 39 84 40 35 41 36 42 37 43 78 44 38 45 83 46 77 47
REMARK SMILES IDX 79 48 39 49 82 50 76 51 75 52 40 54 66 55 49 56 65 57 50 58
REMARK SMILES IDX 53 59 64 60 80 61 51 62 52 63 63 65 81 66 54 67 41 68 42 69
REMARK SMILES IDX 47 70 43 71 44 72 46 73 48 74 45 75 67 76 68 77 73 78 69 79
REMARK SMILES IDX 70 80 72 81 74 82 71 83 55 84 56 85 61 86 57 87 58 88 60 89
REMARK SMILES IDX 62 90 59 91
REMARK H PARENT 5 14 5 15 14 24 14 25 79 53 53 64
REMARK Flexibility Score: inf
ROOT
ATOM      1  C   UNL A   1      39.537  21.312  26.218  1.00  0.00     0.188 C 
ENDROOT
BRANCH   1   2
ATOM      2  C   UNL A   1      38.377  20.928  25.212  1.00  0.00     0.188 C 
BRANCH   2   3
ATOM      3  O   UNL A   1      37.341  21.925  24.960  1.00  0.00    -0.376 OA
BRANCH   3   4
ATOM      4  C   UNL A   1      36.112  22.084  25.659  1.00  0.00     0.202 C 
BRANCH   4   5
ATOM      5  C   UNL A   1      35.841  23.506  26.425  1.00  0.00     0.261 C 
BRANCH   5   6
ATOM      6  O   UNL A   1      34.461  24.030  26.519  1.00  0.00    -0.459 OA
BRANCH   6   7
ATOM      7  C   UNL A   1      33.671  24.751  25.571  1.00  0.00     0.365 C 
ATOM      8  O   UNL A   1      33.898  25.916  25.275  1.00  0.00    -0.245 OA
BRANCH   7   9
ATOM      9  C   UNL A   1      32.448  23.778  24.906  1.00  0.00     0.296 C 
BRANCH   9  10
ATOM     10  C   UNL A   1      30.955  23.753  25.383  1.00  0.00     0.053 C 
ATOM     11  C   UNL A   1      30.861  23.102  26.783  1.00  0.00     0.014 C 
ATOM     12  C   UNL A   1      30.355  25.181  25.594  1.00  0.00     0.014 C 
ENDBRANCH   9  10
BRANCH   9  13
ATOM     13  N   UNL A   1      32.982  22.435  24.604  1.00  0.00    -0.332 N 
ATOM     14  H   UNL A   1      32.778  21.797  25.373  1.00  0.00     0.347 HD
ATOM     15  H   UNL A   1      33.994  22.471  24.479  1.00  0.00     0.347 HD
BRANCH  13  16
ATOM     16  C   UNL A   1      32.334  21.967  23.387  1.00  0.00     0.185 C 
ATOM     17  C   UNL A   1      32.902  22.771  22.199  1.00  0.00     0.075 C 
BRANCH  16  18
ATOM     18  C   UNL A   1      32.206  20.358  23.183  1.00  0.00     0.129 C 
BRANCH  18  19
ATOM     19  C   UNL A   1      32.601  18.970  24.179  1.00  0.00     0.188 C 
ATOM     20  C   UNL A   1      34.117  18.940  24.382  1.00  0.00     0.065 C 
ATOM     21  N   UNL A   1      32.176  17.622  23.746  1.00  0.00    -0.344 N 
ATOM     22  C   UNL A   1      34.938  17.643  24.457  1.00  0.00     0.012 C 
ATOM     23  C   UNL A   1      32.841  16.437  24.267  1.00  0.00     0.260 C 
ATOM     24  H   UNL A   1      32.282  17.594  22.732  1.00  0.00     0.346 HD
ATOM     25  H   UNL A   1      31.234  17.544  24.129  1.00  0.00     0.346 HD
ATOM     26  C   UNL A   1      34.274  16.453  23.792  1.00  0.00     0.062 C 
ENDBRANCH  18  19
ENDBRANCH  16  18
ENDBRANCH  13  16
ENDBRANCH   9  13
ENDBRANCH   7   9
ENDBRANCH   6   7
ENDBRANCH   5   6
ENDBRANCH   4   5
ENDBRANCH   3   4
ENDBRANCH   2   3
ENDBRANCH   1   2
BRANCH   1  27
ATOM     27  O   UNL A   1      40.743  20.572  26.152  1.00  0.00    -0.377 OA
BRANCH  27  28
ATOM     28  C   UNL A   1      41.900  21.362  26.077  1.00  0.00     0.188 C 
BRANCH  28  29
ATOM     29  C   UNL A   1      43.207  20.577  25.976  1.00  0.00     0.188 C 
BRANCH  29  30
ATOM     30  O   UNL A   1      44.261  21.057  25.171  1.00  0.00    -0.376 OA
BRANCH  30  31
ATOM     31  C   UNL A   1      45.388  21.662  25.767  1.00  0.00     0.202 C 
BRANCH  31  32
ATOM     32  C   UNL A   1      45.278  22.892  26.695  1.00  0.00     0.261 C 
BRANCH  32  33
ATOM     33  O   UNL A   1      45.202  24.217  26.142  1.00  0.00    -0.460 OA
BRANCH  33  34
ATOM     34  C   UNL A   1      44.124  24.568  25.420  1.00  0.00     0.338 C 
ATOM     35  O   UNL A   1      43.771  24.088  24.341  1.00  0.00    -0.246 OA
BRANCH  34  36
ATOM     36  C   UNL A   1      43.290  25.498  26.223  1.00  0.00     0.060 A 
ATOM     37  C   UNL A   1      43.704  26.828  26.429  1.00  0.00     0.016 A 
ATOM     38  C   UNL A   1      42.126  25.036  26.836  1.00  0.00     0.016 A 
ATOM     39  C   UNL A   1      43.004  27.670  27.284  1.00  0.00     0.010 A 
ATOM     40  C   UNL A   1      41.456  25.862  27.747  1.00  0.00     0.010 A 
ATOM     41  C   UNL A   1      41.934  27.157  28.017  1.00  0.00    -0.014 A 
BRANCH  41  42
ATOM     42  C   UNL A   1      41.546  27.858  29.262  1.00  0.00     0.031 A 
ATOM     43  C   UNL A   1      40.318  28.731  29.218  1.00  0.00     0.074 A 
ATOM     44  C   UNL A   1      42.202  27.665  30.416  1.00  0.00     0.049 A 
ATOM     45  N   UNL A   1      39.802  29.491  30.148  1.00  0.00    -0.248 NA
ATOM     46  C   UNL A   1      39.572  28.746  27.948  1.00  0.00     0.031 C 
ATOM     47  C   UNL A   1      43.344  26.774  30.602  1.00  0.00     0.029 A 
ATOM     48  N   UNL A   1      41.996  28.217  31.655  1.00  0.00    -0.354 N 
ATOM     49  C   UNL A   1      38.689  30.089  29.570  1.00  0.00     0.074 A 
ATOM     50  C   UNL A   1      38.615  29.625  28.203  1.00  0.00     0.031 C 
ATOM     51  C   UNL A   1      43.755  26.858  31.880  1.00  0.00     0.029 A 
ATOM     52  C   UNL A   1      42.928  27.835  32.585  1.00  0.00     0.049 A 
ATOM     53  H   UNL A   1      41.250  28.828  31.855  1.00  0.00     0.167 HD
ATOM     54  C   UNL A   1      37.803  30.946  30.129  1.00  0.00     0.037 A 
ATOM     55  C   UNL A   1      43.108  28.259  33.851  1.00  0.00     0.037 A 
ATOM     56  C   UNL A   1      37.880  31.398  31.492  1.00  0.00     0.049 A 
ATOM     57  C   UNL A   1      42.166  29.285  34.426  1.00  0.00     0.074 A 
ATOM     58  C   UNL A   1      37.033  32.263  32.162  1.00  0.00     0.029 A 
ATOM     59  N   UNL A   1      38.867  31.026  32.392  1.00  0.00    -0.354 N 
ATOM     60  N   UNL A   1      41.120  29.851  33.874  1.00  0.00    -0.248 NA
ATOM     61  C   UNL A   1      42.430  29.728  35.802  1.00  0.00     0.031 C 
ATOM     62  C   UNL A   1      37.543  32.461  33.449  1.00  0.00     0.029 A 
ATOM     63  C   UNL A   1      38.667  31.666  33.603  1.00  0.00     0.049 A 
ATOM     64  H   UNL A   1      39.601  30.399  32.198  1.00  0.00     0.167 HD
ATOM     65  C   UNL A   1      40.581  30.690  34.844  1.00  0.00     0.074 A 
ATOM     66  C   UNL A   1      41.411  30.545  36.023  1.00  0.00     0.031 C 
ATOM     67  C   UNL A   1      39.499  31.504  34.770  1.00  0.00     0.037 A 
BRANCH  54  68
ATOM     68  C   UNL A   1      36.706  31.481  29.254  1.00  0.00     0.057 A 
ATOM     69  C   UNL A   1      35.607  30.702  28.871  1.00  0.00     0.134 A 
ATOM     70  C   UNL A   1      36.743  32.808  28.806  1.00  0.00     0.134 A 
ATOM     71  F   UNL A   1      35.519  29.418  29.247  1.00  0.00    -0.206 F 
ATOM     72  C   UNL A   1      34.598  31.215  28.053  1.00  0.00     0.040 A 
ATOM     73  C   UNL A   1      35.724  33.342  28.015  1.00  0.00     0.040 A 
ATOM     74  F   UNL A   1      37.766  33.611  29.136  1.00  0.00    -0.206 F 
ATOM     75  C   UNL A   1      34.650  32.542  27.631  1.00  0.00     0.006 A 
ENDBRANCH  54  68
BRANCH  55  76
ATOM     76  C   UNL A   1      44.243  27.737  34.655  1.00  0.00     0.057 A 
ATOM     77  C   UNL A   1      45.491  28.371  34.651  1.00  0.00     0.134 A 
ATOM     78  C   UNL A   1      44.116  26.574  35.426  1.00  0.00     0.134 A 
ATOM     79  F   UNL A   1      45.684  29.475  33.914  1.00  0.00    -0.206 F 
ATOM     80  C   UNL A   1      46.574  27.859  35.366  1.00  0.00     0.040 A 
ATOM     81  C   UNL A   1      45.181  26.068  36.171  1.00  0.00     0.040 A 
ATOM     82  F   UNL A   1      42.947  25.918  35.473  1.00  0.00    -0.206 F 
ATOM     83  C   UNL A   1      46.419  26.706  36.134  1.00  0.00     0.006 A 
ENDBRANCH  55  76
BRANCH  67  84
ATOM     84  C   UNL A   1      39.119  32.263  36.011  1.00  0.00     0.057 A 
ATOM     85  C   UNL A   1      39.579  33.562  36.261  1.00  0.00     0.134 A 
ATOM     86  C   UNL A   1      38.250  31.694  36.951  1.00  0.00     0.134 A 
ATOM     87  F   UNL A   1      40.421  34.162  35.405  1.00  0.00    -0.206 F 
ATOM     88  C   UNL A   1      39.215  34.256  37.415  1.00  0.00     0.040 A 
ATOM     89  C   UNL A   1      37.851  32.390  38.093  1.00  0.00     0.040 A 
ATOM     90  F   UNL A   1      37.760  30.458  36.769  1.00  0.00    -0.206 F 
ATOM     91  C   UNL A   1      38.343  33.672  38.333  1.00  0.00     0.006 A 
ENDBRANCH  67  84
ENDBRANCH  41  42
ENDBRANCH  34  36
ENDBRANCH  33  34
ENDBRANCH  32  33
ENDBRANCH  31  32
ENDBRANCH  30  31
ENDBRANCH  29  30
ENDBRANCH  28  29
ENDBRANCH  27  28
ENDBRANCH   1  27
TORSDOF 25
ENDMDL
MODEL 3
REMARK VINA RESULT:      -9.7      4.337      9.602
REMARK SMILES CC(C)[C@H]([NH2+][C@@H](C)C[C@@H]1CCCC[NH2+]1)C(=O)OCCOCCOCCOCCOC(=O)c1ccc(-c2c3nc(c(-c4c(F)cccc4F)c4ccc([nH]4)c(-c4c(F)cccc4F)c4nc(c(-c5c(F)cccc5F)c5ccc2[nH]5)C=C4)C=C3)cc1
REMARK SMILES IDX 22 1 21 2 20 3 19 4 18 5 17 6 15 7 16 8 4 9 2 10 1 11 3 12
REMARK SMILES IDX 5 13 6 16 7 17 8 18 9 19 10 20 14 21 11 22 13 23 12 26 23 27
REMARK SMILES IDX 24 28 25 29 26 30 27 31 28 32 29 33 30 34 31 35 32 36 33 37
REMARK SMILES IDX 85 38 34 39 84 40 35 41 36 42 37 43 78 44 38 45 83 46 77 47
REMARK SMILES IDX 79 48 39 49 82 50 76 51 75 52 40 54 66 55 49 56 65 57 50 58
REMARK SMILES IDX 53 59 64 60 80 61 51 62 52 63 63 65 81 66 54 67 41 68 42 69
REMARK SMILES IDX 47 70 43 71 44 72 46 73 48 74 45 75 67 76 68 77 73 78 69 79
REMARK SMILES IDX 70 80 72 81 74 82 71 83 55 84 56 85 61 86 57 87 58 88 60 89
REMARK SMILES IDX 62 90 59 91
REMARK H PARENT 5 14 5 15 14 24 14 25 79 53 53 64
REMARK Flexibility Score: inf
ROOT
ATOM      1  C   UNL A   1      30.233  25.524  25.747  1.00  0.00     0.188 C 
ENDROOT
BRANCH   1   2
ATOM      2  C   UNL A   1      30.168  25.695  24.175  1.00  0.00     0.188 C 
BRANCH   2   3
ATOM      3  O   UNL A   1      31.040  26.695  23.566  1.00  0.00    -0.376 OA
BRANCH   3   4
ATOM      4  C   UNL A   1      31.627  26.650  22.270  1.00  0.00     0.202 C 
BRANCH   4   5
ATOM      5  C   UNL A   1      32.505  25.326  21.871  1.00  0.00     0.261 C 
BRANCH   5   6
ATOM      6  O   UNL A   1      33.768  25.048  22.589  1.00  0.00    -0.459 OA
BRANCH   6   7
ATOM      7  C   UNL A   1      34.093  25.149  23.977  1.00  0.00     0.365 C 
ATOM      8  O   UNL A   1      34.190  26.223  24.554  1.00  0.00    -0.245 OA
BRANCH   7   9
ATOM      9  C   UNL A   1      34.271  23.619  24.693  1.00  0.00     0.296 C 
BRANCH   9  10
ATOM     10  C   UNL A   1      35.313  23.259  25.807  1.00  0.00     0.053 C 
ATOM     11  C   UNL A   1      34.577  22.762  27.073  1.00  0.00     0.014 C 
ATOM     12  C   UNL A   1      36.237  22.061  25.418  1.00  0.00     0.014 C 
ENDBRANCH   9  10
BRANCH   9  13
ATOM     13  N   UNL A   1      34.130  22.565  23.668  1.00  0.00    -0.332 N 
ATOM     14  H   UNL A   1      34.950  21.959  23.676  1.00  0.00     0.347 HD
ATOM     15  H   UNL A   1      34.047  22.978  22.738  1.00  0.00     0.347 HD
BRANCH  13  16
ATOM     16  C   UNL A   1      32.940  21.792  23.991  1.00  0.00     0.185 C 
ATOM     17  C   UNL A   1      32.024  21.777  22.749  1.00  0.00     0.075 C 
BRANCH  16  18
ATOM     18  C   UNL A   1      33.158  20.371  24.753  1.00  0.00     0.129 C 
BRANCH  18  19
ATOM     19  C   UNL A   1      33.541  18.748  24.213  1.00  0.00     0.188 C 
ATOM     20  C   UNL A   1      32.403  17.818  24.639  1.00  0.00     0.065 C 
ATOM     21  N   UNL A   1      34.814  18.124  24.632  1.00  0.00    -0.344 N 
ATOM     22  C   UNL A   1      32.617  16.364  25.090  1.00  0.00     0.012 C 
ATOM     23  C   UNL A   1      34.973  16.679  24.600  1.00  0.00     0.260 C 
ATOM     24  H   UNL A   1      34.978  18.415  25.596  1.00  0.00     0.346 HD
ATOM     25  H   UNL A   1      35.472  18.444  23.920  1.00  0.00     0.346 HD
ATOM     26  C   UNL A   1      34.016  16.077  25.600  1.00  0.00     0.062 C 
ENDBRANCH  18  19
ENDBRANCH  16  18
ENDBRANCH  13  16
ENDBRANCH   9  13
ENDBRANCH   7   9
ENDBRANCH   6   7
ENDBRANCH   5   6
ENDBRANCH   4   5
ENDBRANCH   3   4
ENDBRANCH   2   3
ENDBRANCH   1   2
BRANCH   1  27
ATOM     27  O   UNL A   1      30.444  26.683  26.532  1.00  0.00    -0.377 OA
BRANCH  27  28
ATOM     28  C   UNL A   1      31.784  26.901  26.888  1.00  0.00     0.188 C 
BRANCH  28  29
ATOM     29  C   UNL A   1      32.342  28.264  26.483  1.00  0.00     0.188 C 
BRANCH  29  30
ATOM     30  O   UNL A   1      31.753  29.446  26.979  1.00  0.00    -0.376 OA
BRANCH  30  31
ATOM     31  C   UNL A   1      32.207  30.705  26.531  1.00  0.00     0.202 C 
BRANCH  31  32
ATOM     32  C   UNL A   1      33.326  31.489  27.252  1.00  0.00     0.261 C 
BRANCH  32  33
ATOM     33  O   UNL A   1      34.009  30.914  28.378  1.00  0.00    -0.460 OA
BRANCH  33  34
ATOM     34  C   UNL A   1      35.130  31.498  28.835  1.00  0.00     0.338 C 
ATOM     35  O   UNL A   1      35.220  32.604  29.370  1.00  0.00    -0.246 OA
BRANCH  34  36
ATOM     36  C   UNL A   1      36.240  30.512  28.782  1.00  0.00     0.060 A 
ATOM     37  C   UNL A   1      36.653  29.841  29.949  1.00  0.00     0.016 A 
ATOM     38  C   UNL A   1      36.925  30.298  27.586  1.00  0.00     0.016 A 
ATOM     39  C   UNL A   1      37.772  29.017  29.943  1.00  0.00     0.010 A 
ATOM     40  C   UNL A   1      38.089  29.520  27.591  1.00  0.00     0.010 A 
ATOM     41  C   UNL A   1      38.546  28.933  28.784  1.00  0.00    -0.014 A 
BRANCH  41  42
ATOM     42  C   UNL A   1      39.958  28.511  28.923  1.00  0.00     0.031 A 
ATOM     43  C   UNL A   1      40.925  29.496  29.530  1.00  0.00     0.074 A 
ATOM     44  C   UNL A   1      40.360  27.271  28.605  1.00  0.00     0.049 A 
ATOM     45  N   UNL A   1      42.215  29.394  29.708  1.00  0.00    -0.248 NA
ATOM     46  C   UNL A   1      40.352  30.769  29.999  1.00  0.00     0.031 C 
ATOM     47  C   UNL A   1      39.499  26.205  28.099  1.00  0.00     0.029 A 
ATOM     48  N   UNL A   1      41.608  26.704  28.662  1.00  0.00    -0.354 N 
ATOM     49  C   UNL A   1      42.610  30.595  30.287  1.00  0.00     0.074 A 
ATOM     50  C   UNL A   1      41.429  31.419  30.409  1.00  0.00     0.031 C 
ATOM     51  C   UNL A   1      40.252  25.115  27.867  1.00  0.00     0.029 A 
ATOM     52  C   UNL A   1      41.647  25.422  28.174  1.00  0.00     0.049 A 
ATOM     53  H   UNL A   1      42.397  27.171  29.019  1.00  0.00     0.167 HD
ATOM     54  C   UNL A   1      43.846  30.975  30.686  1.00  0.00     0.037 A 
ATOM     55  C   UNL A   1      42.702  24.609  27.968  1.00  0.00     0.037 A 
ATOM     56  C   UNL A   1      45.015  30.146  30.567  1.00  0.00     0.049 A 
ATOM     57  C   UNL A   1      44.083  25.088  28.333  1.00  0.00     0.074 A 
ATOM     58  C   UNL A   1      46.316  30.431  30.942  1.00  0.00     0.029 A 
ATOM     59  N   UNL A   1      45.025  28.870  30.023  1.00  0.00    -0.354 N 
ATOM     60  N   UNL A   1      44.452  26.224  28.874  1.00  0.00    -0.248 NA
ATOM     61  C   UNL A   1      45.195  24.167  28.060  1.00  0.00     0.031 C 
ATOM     62  C   UNL A   1      47.122  29.351  30.570  1.00  0.00     0.029 A 
ATOM     63  C   UNL A   1      46.314  28.365  30.027  1.00  0.00     0.049 A 
ATOM     64  H   UNL A   1      44.232  28.393  29.685  1.00  0.00     0.167 HD
ATOM     65  C   UNL A   1      45.830  26.142  29.037  1.00  0.00     0.074 A 
ATOM     66  C   UNL A   1      46.228  24.837  28.550  1.00  0.00     0.031 C 
ATOM     67  C   UNL A   1      46.690  27.059  29.545  1.00  0.00     0.037 A 
BRANCH  54  68
ATOM     68  C   UNL A   1      44.001  32.360  31.244  1.00  0.00     0.057 A 
ATOM     69  C   UNL A   1      44.231  33.476  30.429  1.00  0.00     0.134 A 
ATOM     70  C   UNL A   1      43.895  32.581  32.624  1.00  0.00     0.134 A 
ATOM     71  F   UNL A   1      44.363  33.333  29.102  1.00  0.00    -0.206 F 
ATOM     72  C   UNL A   1      44.375  34.756  30.968  1.00  0.00     0.040 A 
ATOM     73  C   UNL A   1      44.005  33.861  33.171  1.00  0.00     0.040 A 
ATOM     74  F   UNL A   1      43.674  31.558  33.464  1.00  0.00    -0.206 F 
ATOM     75  C   UNL A   1      44.253  34.952  32.342  1.00  0.00     0.006 A 
ENDBRANCH  54  68
BRANCH  55  76
ATOM     76  C   UNL A   1      42.499  23.268  27.361  1.00  0.00     0.057 A 
ATOM     77  C   UNL A   1      42.322  22.129  28.155  1.00  0.00     0.134 A 
ATOM     78  C   UNL A   1      42.505  23.090  25.972  1.00  0.00     0.134 A 
ATOM     79  F   UNL A   1      42.330  22.230  29.492  1.00  0.00    -0.206 F 
ATOM     80  C   UNL A   1      42.178  20.860  27.591  1.00  0.00     0.040 A 
ATOM     81  C   UNL A   1      42.331  21.832  25.394  1.00  0.00     0.040 A 
ATOM     82  F   UNL A   1      42.672  24.140  25.155  1.00  0.00    -0.206 F 
ATOM     83  C   UNL A   1      42.177  20.710  26.206  1.00  0.00     0.006 A 
ENDBRANCH  55  76
BRANCH  67  84
ATOM     84  C   UNL A   1      48.138  26.667  29.647  1.00  0.00     0.057 A 
ATOM     85  C   UNL A   1      49.074  27.006  28.662  1.00  0.00     0.134 A 
ATOM     86  C   UNL A   1      48.606  25.969  30.768  1.00  0.00     0.134 A 
ATOM     87  F   UNL A   1      48.691  27.667  27.558  1.00  0.00    -0.206 F 
ATOM     88  C   UNL A   1      50.416  26.639  28.772  1.00  0.00     0.040 A 
ATOM     89  C   UNL A   1      49.951  25.625  30.906  1.00  0.00     0.040 A 
ATOM     90  F   UNL A   1      47.767  25.624  31.757  1.00  0.00    -0.206 F 
ATOM     91  C   UNL A   1      50.859  25.951  29.901  1.00  0.00     0.006 A 
ENDBRANCH  67  84
ENDBRANCH  41  42
ENDBRANCH  34  36
ENDBRANCH  33  34
ENDBRANCH  32  33
ENDBRANCH  31  32
ENDBRANCH  30  31
ENDBRANCH  29  30
ENDBRANCH  28  29
ENDBRANCH  27  28
ENDBRANCH   1  27
TORSDOF 25
ENDMDL
