MODEL 1
REMARK VINA RESULT:      -9.3      0.000      0.000
REMARK SMILES C[N@@H+](CC(=O)OCCOCCOCCOCCOC(=O)c1ccc(-c2c3nc(c(-c4c(F)cccc4F)c4ccc([nH]4)c(-c4c(F)cccc4F)c4nc(c(-c5c(F)cccc5F)c5ccc2[nH]5)C=C4)C=C3)cc1)Cc1csc(-c2ccco2)n1
REMARK SMILES IDX 11 1 10 2 9 3 8 4 7 5 6 6 4 7 5 8 3 9 2 10 1 11 75 13 76 14
REMARK SMILES IDX 77 15 85 16 78 17 79 18 80 19 81 20 84 21 82 22 83 23 12 24
REMARK SMILES IDX 13 25 14 26 15 27 16 28 17 29 18 30 19 31 20 32 21 33 22 34
REMARK SMILES IDX 74 35 23 36 73 37 24 38 25 39 26 40 67 41 27 42 72 43 66 44
REMARK SMILES IDX 68 45 28 46 71 47 65 48 64 49 29 51 55 52 38 53 54 54 39 55
REMARK SMILES IDX 42 56 53 57 69 58 40 59 41 60 52 62 70 63 43 64 30 65 31 66
REMARK SMILES IDX 36 67 32 68 33 69 35 70 37 71 34 72 56 73 57 74 62 75 58 76
REMARK SMILES IDX 59 77 61 78 63 79 60 80 44 81 45 82 50 83 46 84 47 85 49 86
REMARK SMILES IDX 51 87 48 88
REMARK H PARENT 2 12 68 50 42 61
REMARK Flexibility Score: inf
ROOT
ATOM      1  C   UNL A   1      34.174  22.844  23.331  1.00  0.00     0.188 C 
ENDROOT
BRANCH   1   2
ATOM      2  C   UNL A   1      32.810  21.946  23.034  1.00  0.00     0.188 C 
BRANCH   2   3
ATOM      3  O   UNL A   1      32.738  20.539  23.090  1.00  0.00    -0.376 OA
BRANCH   3   4
ATOM      4  C   UNL A   1      32.659  19.808  24.303  1.00  0.00     0.202 C 
BRANCH   4   5
ATOM      5  C   UNL A   1      33.248  20.314  25.619  1.00  0.00     0.261 C 
BRANCH   5   6
ATOM      6  O   UNL A   1      32.465  21.349  26.246  1.00  0.00    -0.459 OA
BRANCH   6   7
ATOM      7  C   UNL A   1      33.143  22.455  26.640  1.00  0.00     0.361 C 
ATOM      8  O   UNL A   1      34.362  22.469  26.811  1.00  0.00    -0.245 OA
BRANCH   7   9
ATOM      9  C   UNL A   1      32.327  23.737  26.851  1.00  0.00     0.386 C 
BRANCH   9  10
ATOM     10  N   UNL A   1      30.988  23.901  26.278  1.00  0.00    -0.323 N 
ATOM     11  C   UNL A   1      29.875  23.269  26.945  1.00  0.00     0.333 C 
ATOM     12  H   UNL A   1      30.886  24.855  26.625  1.00  0.00     0.348 HD
BRANCH  10  13
ATOM     13  C   UNL A   1      30.825  24.265  24.868  1.00  0.00     0.320 C 
BRANCH  13  14
ATOM     14  C   UNL A   1      31.502  25.546  24.479  1.00  0.00     0.106 A 
ATOM     15  C   UNL A   1      31.816  26.181  22.874  1.00  0.00     0.097 A 
ATOM     16  N   UNL A   1      31.843  26.827  25.829  1.00  0.00    -0.232 NA
ATOM     17  S   UNL A   1      32.524  28.392  22.991  1.00  0.00    -0.119 S 
ATOM     18  C   UNL A   1      32.424  28.302  25.306  1.00  0.00     0.159 A 
BRANCH  18  19
ATOM     19  C   UNL A   1      33.126  29.225  26.161  1.00  0.00     0.162 A 
ATOM     20  C   UNL A   1      34.297  28.916  26.847  1.00  0.00     0.053 A 
ATOM     21  O   UNL A   1      32.740  30.491  26.495  1.00  0.00    -0.462 OA
ATOM     22  C   UNL A   1      34.599  30.011  27.679  1.00  0.00     0.043 A 
ATOM     23  C   UNL A   1      33.621  30.942  27.431  1.00  0.00     0.196 A 
ENDBRANCH  18  19
ENDBRANCH  13  14
ENDBRANCH  10  13
ENDBRANCH   9  10
ENDBRANCH   7   9
ENDBRANCH   6   7
ENDBRANCH   5   6
ENDBRANCH   4   5
ENDBRANCH   3   4
ENDBRANCH   2   3
ENDBRANCH   1   2
BRANCH   1  24
ATOM     24  O   UNL A   1      36.049  22.386  24.019  1.00  0.00    -0.377 OA
BRANCH  24  25
ATOM     25  C   UNL A   1      37.314  22.920  24.656  1.00  0.00     0.188 C 
BRANCH  25  26
ATOM     26  C   UNL A   1      38.007  21.728  25.366  1.00  0.00     0.188 C 
BRANCH  26  27
ATOM     27  O   UNL A   1      39.425  21.704  25.532  1.00  0.00    -0.376 OA
BRANCH  27  28
ATOM     28  C   UNL A   1      39.952  21.200  26.745  1.00  0.00     0.202 C 
BRANCH  28  29
ATOM     29  C   UNL A   1      41.321  21.739  27.176  1.00  0.00     0.261 C 
BRANCH  29  30
ATOM     30  O   UNL A   1      41.272  23.048  27.754  1.00  0.00    -0.460 OA
BRANCH  30  31
ATOM     31  C   UNL A   1      41.649  24.049  26.920  1.00  0.00     0.338 C 
ATOM     32  O   UNL A   1      42.196  23.961  25.836  1.00  0.00    -0.246 OA
BRANCH  31  33
ATOM     33  C   UNL A   1      41.163  25.316  27.488  1.00  0.00     0.060 A 
ATOM     34  C   UNL A   1      41.804  26.514  27.132  1.00  0.00     0.016 A 
ATOM     35  C   UNL A   1      40.110  25.308  28.404  1.00  0.00     0.016 A 
ATOM     36  C   UNL A   1      41.408  27.714  27.710  1.00  0.00     0.010 A 
ATOM     37  C   UNL A   1      39.753  26.499  29.026  1.00  0.00     0.010 A 
ATOM     38  C   UNL A   1      40.437  27.688  28.715  1.00  0.00    -0.014 A 
BRANCH  38  39
ATOM     39  C   UNL A   1      40.383  28.784  29.700  1.00  0.00     0.031 A 
ATOM     40  C   UNL A   1      41.311  28.672  30.877  1.00  0.00     0.074 A 
ATOM     41  C   UNL A   1      39.497  29.784  29.590  1.00  0.00     0.049 A 
ATOM     42  N   UNL A   1      41.320  29.342  31.997  1.00  0.00    -0.248 NA
ATOM     43  C   UNL A   1      42.363  27.642  30.782  1.00  0.00     0.031 C 
ATOM     44  C   UNL A   1      38.606  30.008  28.454  1.00  0.00     0.029 A 
ATOM     45  N   UNL A   1      39.182  30.781  30.475  1.00  0.00    -0.354 N 
ATOM     46  C   UNL A   1      42.361  28.801  32.741  1.00  0.00     0.074 A 
ATOM     47  C   UNL A   1      42.954  27.743  31.960  1.00  0.00     0.031 C 
ATOM     48  C   UNL A   1      37.810  31.058  28.731  1.00  0.00     0.029 A 
ATOM     49  C   UNL A   1      38.107  31.538  30.079  1.00  0.00     0.049 A 
ATOM     50  H   UNL A   1      39.676  30.938  31.311  1.00  0.00     0.167 HD
ATOM     51  C   UNL A   1      42.775  29.152  33.979  1.00  0.00     0.037 A 
ATOM     52  C   UNL A   1      37.420  32.473  30.763  1.00  0.00     0.037 A 
ATOM     53  C   UNL A   1      42.150  30.189  34.750  1.00  0.00     0.049 A 
ATOM     54  C   UNL A   1      37.840  32.790  32.176  1.00  0.00     0.074 A 
ATOM     55  C   UNL A   1      42.463  30.630  36.020  1.00  0.00     0.029 A 
ATOM     56  N   UNL A   1      41.067  30.938  34.312  1.00  0.00    -0.354 N 
ATOM     57  N   UNL A   1      38.821  32.277  32.883  1.00  0.00    -0.248 NA
ATOM     58  C   UNL A   1      37.058  33.807  32.891  1.00  0.00     0.031 C 
ATOM     59  C   UNL A   1      41.539  31.619  36.370  1.00  0.00     0.029 A 
ATOM     60  C   UNL A   1      40.688  31.833  35.294  1.00  0.00     0.049 A 
ATOM     61  H   UNL A   1      40.633  30.846  33.433  1.00  0.00     0.167 HD
ATOM     62  C   UNL A   1      38.799  32.936  34.106  1.00  0.00     0.074 A 
ATOM     63  C   UNL A   1      37.704  33.883  34.046  1.00  0.00     0.031 C 
ATOM     64  C   UNL A   1      39.611  32.782  35.181  1.00  0.00     0.037 A 
BRANCH  51  65
ATOM     65  C   UNL A   1      43.915  28.378  34.571  1.00  0.00     0.057 A 
ATOM     66  C   UNL A   1      43.709  27.230  35.346  1.00  0.00     0.134 A 
ATOM     67  C   UNL A   1      45.237  28.795  34.373  1.00  0.00     0.134 A 
ATOM     68  F   UNL A   1      42.465  26.793  35.598  1.00  0.00    -0.206 F 
ATOM     69  C   UNL A   1      44.776  26.535  35.920  1.00  0.00     0.040 A 
ATOM     70  C   UNL A   1      46.313  28.093  34.918  1.00  0.00     0.040 A 
ATOM     71  F   UNL A   1      45.506  29.892  33.649  1.00  0.00    -0.206 F 
ATOM     72  C   UNL A   1      46.083  26.963  35.700  1.00  0.00     0.006 A 
ENDBRANCH  51  65
BRANCH  52  73
ATOM     73  C   UNL A   1      36.254  33.150  30.141  1.00  0.00     0.057 A 
ATOM     74  C   UNL A   1      36.428  34.124  29.151  1.00  0.00     0.134 A 
ATOM     75  C   UNL A   1      34.940  32.852  30.524  1.00  0.00     0.134 A 
ATOM     76  F   UNL A   1      37.662  34.469  28.755  1.00  0.00    -0.206 F 
ATOM     77  C   UNL A   1      35.343  34.789  28.577  1.00  0.00     0.040 A 
ATOM     78  C   UNL A   1      33.843  33.490  29.940  1.00  0.00     0.040 A 
ATOM     79  F   UNL A   1      34.702  31.926  31.464  1.00  0.00    -0.206 F 
ATOM     80  C   UNL A   1      34.044  34.467  28.968  1.00  0.00     0.006 A 
ENDBRANCH  52  73
BRANCH  64  81
ATOM     81  C   UNL A   1      39.399  33.698  36.348  1.00  0.00     0.057 A 
ATOM     82  C   UNL A   1      38.721  33.289  37.501  1.00  0.00     0.134 A 
ATOM     83  C   UNL A   1      39.973  34.977  36.347  1.00  0.00     0.134 A 
ATOM     84  F   UNL A   1      38.143  32.079  37.558  1.00  0.00    -0.206 F 
ATOM     85  C   UNL A   1      38.614  34.124  38.614  1.00  0.00     0.040 A 
ATOM     86  C   UNL A   1      39.895  35.809  37.463  1.00  0.00     0.040 A 
ATOM     87  F   UNL A   1      40.647  35.420  35.276  1.00  0.00    -0.206 F 
ATOM     88  C   UNL A   1      39.213  35.383  38.600  1.00  0.00     0.006 A 
ENDBRANCH  64  81
ENDBRANCH  38  39
ENDBRANCH  31  33
ENDBRANCH  30  31
ENDBRANCH  29  30
ENDBRANCH  28  29
ENDBRANCH  27  28
ENDBRANCH  26  27
ENDBRANCH  25  26
ENDBRANCH  24  25
ENDBRANCH   1  24
TORSDOF 24
ENDMDL
MODEL 2
REMARK VINA RESULT:      -8.7      2.125      6.833
REMARK SMILES C[N@@H+](CC(=O)OCCOCCOCCOCCOC(=O)c1ccc(-c2c3nc(c(-c4c(F)cccc4F)c4ccc([nH]4)c(-c4c(F)cccc4F)c4nc(c(-c5c(F)cccc5F)c5ccc2[nH]5)C=C4)C=C3)cc1)Cc1csc(-c2ccco2)n1
REMARK SMILES IDX 11 1 10 2 9 3 8 4 7 5 6 6 4 7 5 8 3 9 2 10 1 11 75 13 76 14
REMARK SMILES IDX 77 15 85 16 78 17 79 18 80 19 81 20 84 21 82 22 83 23 12 24
REMARK SMILES IDX 13 25 14 26 15 27 16 28 17 29 18 30 19 31 20 32 21 33 22 34
REMARK SMILES IDX 74 35 23 36 73 37 24 38 25 39 26 40 67 41 27 42 72 43 66 44
REMARK SMILES IDX 68 45 28 46 71 47 65 48 64 49 29 51 55 52 38 53 54 54 39 55
REMARK SMILES IDX 42 56 53 57 69 58 40 59 41 60 52 62 70 63 43 64 30 65 31 66
REMARK SMILES IDX 36 67 32 68 33 69 35 70 37 71 34 72 56 73 57 74 62 75 58 76
REMARK SMILES IDX 59 77 61 78 63 79 60 80 44 81 45 82 50 83 46 84 47 85 49 86
REMARK SMILES IDX 51 87 48 88
REMARK H PARENT 2 12 68 50 42 61
REMARK Flexibility Score: inf
ROOT
ATOM      1  C   UNL A   1      39.934  22.957  26.494  1.00  0.00     0.188 C 
ENDROOT
BRANCH   1   2
ATOM      2  C   UNL A   1      38.681  22.096  25.828  1.00  0.00     0.188 C 
BRANCH   2   3
ATOM      3  O   UNL A   1      37.478  22.654  25.351  1.00  0.00    -0.376 OA
BRANCH   3   4
ATOM      4  C   UNL A   1      36.735  23.633  26.060  1.00  0.00     0.202 C 
BRANCH   4   5
ATOM      5  C   UNL A   1      35.223  23.799  25.911  1.00  0.00     0.261 C 
BRANCH   5   6
ATOM      6  O   UNL A   1      34.841  24.771  24.917  1.00  0.00    -0.459 OA
BRANCH   6   7
ATOM      7  C   UNL A   1      33.979  24.342  23.962  1.00  0.00     0.361 C 
ATOM      8  O   UNL A   1      34.126  24.591  22.765  1.00  0.00    -0.245 OA
BRANCH   7   9
ATOM      9  C   UNL A   1      32.789  23.492  24.426  1.00  0.00     0.386 C 
BRANCH   9  10
ATOM     10  N   UNL A   1      31.429  24.035  24.480  1.00  0.00    -0.323 N 
ATOM     11  C   UNL A   1      30.682  24.135  23.249  1.00  0.00     0.333 C 
ATOM     12  H   UNL A   1      31.033  23.175  24.860  1.00  0.00     0.348 HD
BRANCH  10  13
ATOM     13  C   UNL A   1      31.010  24.872  25.606  1.00  0.00     0.320 C 
BRANCH  13  14
ATOM     14  C   UNL A   1      31.297  26.334  25.430  1.00  0.00     0.106 A 
ATOM     15  C   UNL A   1      32.661  27.267  26.021  1.00  0.00     0.097 A 
ATOM     16  N   UNL A   1      30.249  27.311  24.195  1.00  0.00    -0.232 NA
ATOM     17  S   UNL A   1      32.695  29.376  25.046  1.00  0.00    -0.119 S 
ATOM     18  C   UNL A   1      30.737  28.882  23.906  1.00  0.00     0.159 A 
BRANCH  18  19
ATOM     19  C   UNL A   1      29.869  29.892  23.356  1.00  0.00     0.162 A 
ATOM     20  C   UNL A   1      29.461  29.928  22.026  1.00  0.00     0.053 A 
ATOM     21  O   UNL A   1      29.377  30.990  23.998  1.00  0.00    -0.462 OA
ATOM     22  C   UNL A   1      28.746  31.127  21.837  1.00  0.00     0.043 A 
ATOM     23  C   UNL A   1      28.725  31.739  23.066  1.00  0.00     0.196 A 
ENDBRANCH  18  19
ENDBRANCH  13  14
ENDBRANCH  10  13
ENDBRANCH   9  10
ENDBRANCH   7   9
ENDBRANCH   6   7
ENDBRANCH   5   6
ENDBRANCH   4   5
ENDBRANCH   3   4
ENDBRANCH   2   3
ENDBRANCH   1   2
BRANCH   1  24
ATOM     24  O   UNL A   1      41.928  22.573  26.772  1.00  0.00    -0.377 OA
BRANCH  24  25
ATOM     25  C   UNL A   1      43.087  21.663  26.428  1.00  0.00     0.188 C 
BRANCH  25  26
ATOM     26  C   UNL A   1      43.655  22.140  25.065  1.00  0.00     0.188 C 
BRANCH  26  27
ATOM     27  O   UNL A   1      45.058  22.323  24.885  1.00  0.00    -0.376 OA
BRANCH  27  28
ATOM     28  C   UNL A   1      45.538  23.629  24.627  1.00  0.00     0.202 C 
BRANCH  28  29
ATOM     29  C   UNL A   1      44.609  24.790  25.001  1.00  0.00     0.261 C 
BRANCH  29  30
ATOM     30  O   UNL A   1      45.069  25.563  26.115  1.00  0.00    -0.460 OA
BRANCH  30  31
ATOM     31  C   UNL A   1      44.803  25.018  27.328  1.00  0.00     0.338 C 
ATOM     32  O   UNL A   1      45.266  24.005  27.817  1.00  0.00    -0.246 OA
BRANCH  31  33
ATOM     33  C   UNL A   1      43.922  25.946  28.056  1.00  0.00     0.060 A 
ATOM     34  C   UNL A   1      44.284  27.300  28.147  1.00  0.00     0.016 A 
ATOM     35  C   UNL A   1      42.773  25.464  28.683  1.00  0.00     0.016 A 
ATOM     36  C   UNL A   1      43.505  28.181  28.887  1.00  0.00     0.010 A 
ATOM     37  C   UNL A   1      42.026  26.331  29.472  1.00  0.00     0.010 A 
ATOM     38  C   UNL A   1      42.423  27.673  29.613  1.00  0.00    -0.014 A 
BRANCH  38  39
ATOM     39  C   UNL A   1      41.930  28.411  30.791  1.00  0.00     0.031 A 
ATOM     40  C   UNL A   1      40.729  29.288  30.578  1.00  0.00     0.074 A 
ATOM     41  C   UNL A   1      42.569  28.360  31.969  1.00  0.00     0.049 A 
ATOM     42  N   UNL A   1      40.228  30.216  31.347  1.00  0.00    -0.248 NA
ATOM     43  C   UNL A   1      40.006  29.107  29.305  1.00  0.00     0.031 C 
ATOM     44  C   UNL A   1      43.699  27.490  32.285  1.00  0.00     0.029 A 
ATOM     45  N   UNL A   1      42.371  29.092  33.109  1.00  0.00    -0.354 N 
ATOM     46  C   UNL A   1      39.150  30.737  30.642  1.00  0.00     0.074 A 
ATOM     47  C   UNL A   1      39.071  30.037  29.384  1.00  0.00     0.031 C 
ATOM     48  C   UNL A   1      44.124  27.770  33.531  1.00  0.00     0.029 A 
ATOM     49  C   UNL A   1      43.326  28.870  34.070  1.00  0.00     0.049 A 
ATOM     50  H   UNL A   1      41.619  29.717  33.227  1.00  0.00     0.167 HD
ATOM     51  C   UNL A   1      38.305  31.725  31.014  1.00  0.00     0.037 A 
ATOM     52  C   UNL A   1      43.549  29.526  35.225  1.00  0.00     0.037 A 
ATOM     53  C   UNL A   1      38.421  32.426  32.261  1.00  0.00     0.049 A 
ATOM     54  C   UNL A   1      42.651  30.684  35.583  1.00  0.00     0.074 A 
ATOM     55  C   UNL A   1      37.641  33.455  32.749  1.00  0.00     0.029 A 
ATOM     56  N   UNL A   1      39.398  32.167  33.211  1.00  0.00    -0.354 N 
ATOM     57  N   UNL A   1      41.634  31.181  34.916  1.00  0.00    -0.248 NA
ATOM     58  C   UNL A   1      42.934  31.380  36.845  1.00  0.00     0.031 C 
ATOM     59  C   UNL A   1      38.175  33.851  33.978  1.00  0.00     0.029 A 
ATOM     60  C   UNL A   1      39.251  33.029  34.281  1.00  0.00     0.049 A 
ATOM     61  H   UNL A   1      40.093  31.474  33.135  1.00  0.00     0.167 HD
ATOM     62  C   UNL A   1      41.132  32.216  35.695  1.00  0.00     0.074 A 
ATOM     63  C   UNL A   1      41.960  32.279  36.883  1.00  0.00     0.031 C 
ATOM     64  C   UNL A   1      40.079  33.037  35.460  1.00  0.00     0.037 A 
BRANCH  51  65
ATOM     65  C   UNL A   1      37.233  32.118  30.043  1.00  0.00     0.057 A 
ATOM     66  C   UNL A   1      37.440  33.099  29.065  1.00  0.00     0.134 A 
ATOM     67  C   UNL A   1      35.970  31.515  30.094  1.00  0.00     0.134 A 
ATOM     68  F   UNL A   1      38.619  33.736  28.980  1.00  0.00    -0.206 F 
ATOM     69  C   UNL A   1      36.424  33.482  28.187  1.00  0.00     0.040 A 
ATOM     70  C   UNL A   1      34.955  31.868  29.204  1.00  0.00     0.040 A 
ATOM     71  F   UNL A   1      35.700  30.574  31.012  1.00  0.00    -0.206 F 
ATOM     72  C   UNL A   1      35.180  32.859  28.251  1.00  0.00     0.006 A 
ENDBRANCH  51  65
BRANCH  52  73
ATOM     73  C   UNL A   1      44.675  29.129  36.107  1.00  0.00     0.057 A 
ATOM     74  C   UNL A   1      44.532  28.099  37.042  1.00  0.00     0.134 A 
ATOM     75  C   UNL A   1      45.918  29.774  36.047  1.00  0.00     0.134 A 
ATOM     76  F   UNL A   1      43.361  27.456  37.163  1.00  0.00    -0.206 F 
ATOM     77  C   UNL A   1      45.574  27.733  37.897  1.00  0.00     0.040 A 
ATOM     78  C   UNL A   1      46.977  29.403  36.878  1.00  0.00     0.040 A 
ATOM     79  F   UNL A   1      46.123  30.768  35.171  1.00  0.00    -0.206 F 
ATOM     80  C   UNL A   1      46.804  28.384  37.811  1.00  0.00     0.006 A 
ENDBRANCH  52  73
BRANCH  64  81
ATOM     81  C   UNL A   1      39.715  34.023  36.529  1.00  0.00     0.057 A 
ATOM     82  C   UNL A   1      38.945  33.663  37.640  1.00  0.00     0.134 A 
ATOM     83  C   UNL A   1      40.230  35.325  36.485  1.00  0.00     0.134 A 
ATOM     84  F   UNL A   1      38.417  32.432  37.733  1.00  0.00    -0.206 F 
ATOM     85  C   UNL A   1      38.693  34.569  38.671  1.00  0.00     0.040 A 
ATOM     86  C   UNL A   1      40.007  36.230  37.522  1.00  0.00     0.040 A 
ATOM     87  F   UNL A   1      40.986  35.724  35.451  1.00  0.00    -0.206 F 
ATOM     88  C   UNL A   1      39.236  35.853  38.618  1.00  0.00     0.006 A 
ENDBRANCH  64  81
ENDBRANCH  38  39
ENDBRANCH  31  33
ENDBRANCH  30  31
ENDBRANCH  29  30
ENDBRANCH  28  29
ENDBRANCH  27  28
ENDBRANCH  26  27
ENDBRANCH  25  26
ENDBRANCH  24  25
ENDBRANCH   1  24
TORSDOF 24
ENDMDL
MODEL 3
REMARK VINA RESULT:      -8.6      1.526      2.230
REMARK SMILES C[N@@H+](CC(=O)OCCOCCOCCOCCOC(=O)c1ccc(-c2c3nc(c(-c4c(F)cccc4F)c4ccc([nH]4)c(-c4c(F)cccc4F)c4nc(c(-c5c(F)cccc5F)c5ccc2[nH]5)C=C4)C=C3)cc1)Cc1csc(-c2ccco2)n1
REMARK SMILES IDX 11 1 10 2 9 3 8 4 7 5 6 6 4 7 5 8 3 9 2 10 1 11 75 13 76 14
REMARK SMILES IDX 77 15 85 16 78 17 79 18 80 19 81 20 84 21 82 22 83 23 12 24
REMARK SMILES IDX 13 25 14 26 15 27 16 28 17 29 18 30 19 31 20 32 21 33 22 34
REMARK SMILES IDX 74 35 23 36 73 37 24 38 25 39 26 40 67 41 27 42 72 43 66 44
REMARK SMILES IDX 68 45 28 46 71 47 65 48 64 49 29 51 55 52 38 53 54 54 39 55
REMARK SMILES IDX 42 56 53 57 69 58 40 59 41 60 52 62 70 63 43 64 30 65 31 66
REMARK SMILES IDX 36 67 32 68 33 69 35 70 37 71 34 72 56 73 57 74 62 75 58 76
REMARK SMILES IDX 59 77 61 78 63 79 60 80 44 81 45 82 50 83 46 84 47 85 49 86
REMARK SMILES IDX 51 87 48 88
REMARK H PARENT 2 12 68 50 42 61
REMARK Flexibility Score: inf
ROOT
ATOM      1  C   UNL A   1      34.232  22.406  23.513  1.00  0.00     0.188 C 
ENDROOT
BRANCH   1   2
ATOM      2  C   UNL A   1      32.915  21.495  23.079  1.00  0.00     0.188 C 
BRANCH   2   3
ATOM      3  O   UNL A   1      32.725  20.136  23.407  1.00  0.00    -0.376 OA
BRANCH   3   4
ATOM      4  C   UNL A   1      32.509  19.674  24.731  1.00  0.00     0.202 C 
BRANCH   4   5
ATOM      5  C   UNL A   1      33.163  20.317  25.953  1.00  0.00     0.261 C 
BRANCH   5   6
ATOM      6  O   UNL A   1      32.447  21.461  26.460  1.00  0.00    -0.459 OA
BRANCH   6   7
ATOM      7  C   UNL A   1      33.198  22.420  27.057  1.00  0.00     0.361 C 
ATOM      8  O   UNL A   1      34.292  22.190  27.573  1.00  0.00    -0.245 OA
BRANCH   7   9
ATOM      9  C   UNL A   1      32.641  23.849  27.049  1.00  0.00     0.386 C 
BRANCH   9  10
ATOM     10  N   UNL A   1      31.564  24.252  26.141  1.00  0.00    -0.323 N 
ATOM     11  C   UNL A   1      30.201  23.988  26.534  1.00  0.00     0.333 C 
ATOM     12  H   UNL A   1      31.635  25.238  26.392  1.00  0.00     0.348 HD
BRANCH  10  13
ATOM     13  C   UNL A   1      31.838  24.467  24.718  1.00  0.00     0.320 C 
BRANCH  13  14
ATOM     14  C   UNL A   1      31.890  25.909  24.310  1.00  0.00     0.106 A 
ATOM     15  C   UNL A   1      33.292  26.905  23.963  1.00  0.00     0.097 A 
ATOM     16  N   UNL A   1      30.274  26.761  23.816  1.00  0.00    -0.232 NA
ATOM     17  S   UNL A   1      32.650  28.918  22.995  1.00  0.00    -0.119 S 
ATOM     18  C   UNL A   1      30.423  28.304  23.194  1.00  0.00     0.159 A 
BRANCH  18  19
ATOM     19  C   UNL A   1      29.338  29.252  23.160  1.00  0.00     0.162 A 
ATOM     20  C   UNL A   1      29.478  30.606  23.448  1.00  0.00     0.053 A 
ATOM     21  O   UNL A   1      28.021  28.985  22.924  1.00  0.00    -0.462 OA
ATOM     22  C   UNL A   1      28.188  31.172  23.450  1.00  0.00     0.043 A 
ATOM     23  C   UNL A   1      27.336  30.144  23.128  1.00  0.00     0.196 A 
ENDBRANCH  18  19
ENDBRANCH  13  14
ENDBRANCH  10  13
ENDBRANCH   9  10
ENDBRANCH   7   9
ENDBRANCH   6   7
ENDBRANCH   5   6
ENDBRANCH   4   5
ENDBRANCH   3   4
ENDBRANCH   2   3
ENDBRANCH   1   2
BRANCH   1  24
ATOM     24  O   UNL A   1      36.142  21.946  24.101  1.00  0.00    -0.377 OA
BRANCH  24  25
ATOM     25  C   UNL A   1      37.408  22.457  24.753  1.00  0.00     0.188 C 
BRANCH  25  26
ATOM     26  C   UNL A   1      38.000  21.288  25.582  1.00  0.00     0.188 C 
BRANCH  26  27
ATOM     27  O   UNL A   1      39.382  20.950  25.480  1.00  0.00    -0.376 OA
BRANCH  27  28
ATOM     28  C   UNL A   1      40.074  20.582  26.658  1.00  0.00     0.202 C 
BRANCH  28  29
ATOM     29  C   UNL A   1      41.518  21.080  26.793  1.00  0.00     0.261 C 
BRANCH  29  30
ATOM     30  O   UNL A   1      41.627  22.390  27.361  1.00  0.00    -0.460 OA
BRANCH  30  31
ATOM     31  C   UNL A   1      41.944  23.365  26.474  1.00  0.00     0.338 C 
ATOM     32  O   UNL A   1      42.429  23.247  25.364  1.00  0.00    -0.246 OA
BRANCH  31  33
ATOM     33  C   UNL A   1      41.477  24.647  27.028  1.00  0.00     0.060 A 
ATOM     34  C   UNL A   1      42.184  25.821  26.722  1.00  0.00     0.016 A 
ATOM     35  C   UNL A   1      40.375  24.673  27.883  1.00  0.00     0.016 A 
ATOM     36  C   UNL A   1      41.804  27.031  27.289  1.00  0.00     0.010 A 
ATOM     37  C   UNL A   1      40.030  25.871  28.497  1.00  0.00     0.010 A 
ATOM     38  C   UNL A   1      40.777  27.035  28.238  1.00  0.00    -0.014 A 
BRANCH  38  39
ATOM     39  C   UNL A   1      40.711  28.123  29.230  1.00  0.00     0.031 A 
ATOM     40  C   UNL A   1      41.637  28.012  30.408  1.00  0.00     0.074 A 
ATOM     41  C   UNL A   1      39.817  29.117  29.125  1.00  0.00     0.049 A 
ATOM     42  N   UNL A   1      41.638  28.674  31.533  1.00  0.00    -0.248 NA
ATOM     43  C   UNL A   1      42.699  26.992  30.310  1.00  0.00     0.031 C 
ATOM     44  C   UNL A   1      38.926  29.340  27.988  1.00  0.00     0.029 A 
ATOM     45  N   UNL A   1      39.490  30.105  30.015  1.00  0.00    -0.354 N 
ATOM     46  C   UNL A   1      42.681  28.137  32.277  1.00  0.00     0.074 A 
ATOM     47  C   UNL A   1      43.285  27.090  31.490  1.00  0.00     0.031 C 
ATOM     48  C   UNL A   1      38.121  30.381  28.270  1.00  0.00     0.029 A 
ATOM     49  C   UNL A   1      38.410  30.855  29.622  1.00  0.00     0.049 A 
ATOM     50  H   UNL A   1      39.982  30.260  30.854  1.00  0.00     0.167 HD
ATOM     51  C   UNL A   1      43.090  28.483  33.518  1.00  0.00     0.037 A 
ATOM     52  C   UNL A   1      37.713  31.779  30.310  1.00  0.00     0.037 A 
ATOM     53  C   UNL A   1      42.453  29.510  34.294  1.00  0.00     0.049 A 
ATOM     54  C   UNL A   1      38.127  32.090  31.727  1.00  0.00     0.074 A 
ATOM     55  C   UNL A   1      42.759  29.945  35.568  1.00  0.00     0.029 A 
ATOM     56  N   UNL A   1      41.365  30.252  33.858  1.00  0.00    -0.354 N 
ATOM     57  N   UNL A   1      39.110  31.581  32.433  1.00  0.00    -0.248 NA
ATOM     58  C   UNL A   1      37.334  33.095  32.447  1.00  0.00     0.031 C 
ATOM     59  C   UNL A   1      41.825  30.923  35.922  1.00  0.00     0.029 A 
ATOM     60  C   UNL A   1      40.975  31.136  34.846  1.00  0.00     0.049 A 
ATOM     61  H   UNL A   1      40.934  30.162  32.977  1.00  0.00     0.167 HD
ATOM     62  C   UNL A   1      39.079  32.231  33.660  1.00  0.00     0.074 A 
ATOM     63  C   UNL A   1      37.977  33.169  33.604  1.00  0.00     0.031 C 
ATOM     64  C   UNL A   1      39.890  32.077  34.736  1.00  0.00     0.037 A 
BRANCH  51  65
ATOM     65  C   UNL A   1      44.234  27.716  34.108  1.00  0.00     0.057 A 
ATOM     66  C   UNL A   1      44.035  26.586  34.911  1.00  0.00     0.134 A 
ATOM     67  C   UNL A   1      45.556  28.119  33.878  1.00  0.00     0.134 A 
ATOM     68  F   UNL A   1      42.793  26.163  35.194  1.00  0.00    -0.206 F 
ATOM     69  C   UNL A   1      45.107  25.897  35.483  1.00  0.00     0.040 A 
ATOM     70  C   UNL A   1      46.636  27.423  34.420  1.00  0.00     0.040 A 
ATOM     71  F   UNL A   1      45.818  29.198  33.125  1.00  0.00    -0.206 F 
ATOM     72  C   UNL A   1      46.413  26.312  35.231  1.00  0.00     0.006 A 
ENDBRANCH  51  65
BRANCH  52  73
ATOM     73  C   UNL A   1      36.543  32.450  29.690  1.00  0.00     0.057 A 
ATOM     74  C   UNL A   1      35.235  32.081  30.025  1.00  0.00     0.134 A 
ATOM     75  C   UNL A   1      36.698  33.468  28.740  1.00  0.00     0.134 A 
ATOM     76  F   UNL A   1      35.020  31.099  30.913  1.00  0.00    -0.206 F 
ATOM     77  C   UNL A   1      34.127  32.684  29.430  1.00  0.00     0.040 A 
ATOM     78  C   UNL A   1      35.598  34.099  28.154  1.00  0.00     0.040 A 
ATOM     79  F   UNL A   1      37.924  33.872  28.374  1.00  0.00    -0.206 F 
ATOM     80  C   UNL A   1      34.307  33.701  28.494  1.00  0.00     0.006 A 
ENDBRANCH  52  73
BRANCH  64  81
ATOM     81  C   UNL A   1      39.667  32.984  35.909  1.00  0.00     0.057 A 
ATOM     82  C   UNL A   1      40.360  34.190  36.057  1.00  0.00     0.134 A 
ATOM     83  C   UNL A   1      38.671  32.683  36.848  1.00  0.00     0.134 A 
ATOM     84  F   UNL A   1      41.331  34.528  35.196  1.00  0.00    -0.206 F 
ATOM     85  C   UNL A   1      40.074  35.065  37.106  1.00  0.00     0.040 A 
ATOM     86  C   UNL A   1      38.358  33.562  37.883  1.00  0.00     0.040 A 
ATOM     87  F   UNL A   1      37.964  31.547  36.750  1.00  0.00    -0.206 F 
ATOM     88  C   UNL A   1      39.062  34.756  38.015  1.00  0.00     0.006 A 
ENDBRANCH  64  81
ENDBRANCH  38  39
ENDBRANCH  31  33
ENDBRANCH  30  31
ENDBRANCH  29  30
ENDBRANCH  28  29
ENDBRANCH  27  28
ENDBRANCH  26  27
ENDBRANCH  25  26
ENDBRANCH  24  25
ENDBRANCH   1  24
TORSDOF 24
ENDMDL
