MODEL 1
REMARK VINA RESULT:      -9.6      0.000      0.000
REMARK SMILES CC1(C)CSC[C@H]([NH2+][C@H](C(=O)OCCOCCOCCOCCOC(=O)c2ccc(-c3c4nc(c(-c5c(F)cccc5F)c5ccc([nH]5)c(-c5c(F)cccc5F)c5nc(c(-c6c(F)cccc6F)c6ccc3[nH]6)C=C5)C=C4)cc2)c2ccccc2)C1
REMARK SMILES IDX 18 1 17 2 16 3 15 4 14 5 13 6 12 7 10 8 11 9 9 10 8 11 7 14
REMARK SMILES IDX 1 15 2 16 3 17 4 18 87 19 5 20 6 21 81 22 82 23 86 24 83 25
REMARK SMILES IDX 85 26 84 27 19 28 20 29 21 30 22 31 23 32 24 33 25 34 26 35
REMARK SMILES IDX 27 36 28 37 80 38 29 39 79 40 30 41 31 42 32 43 73 44 33 45
REMARK SMILES IDX 78 46 72 47 74 48 34 49 77 50 71 51 70 52 35 54 61 55 44 56
REMARK SMILES IDX 60 57 45 58 48 59 59 60 75 61 46 62 47 63 58 65 76 66 49 67
REMARK SMILES IDX 36 68 37 69 42 70 38 71 39 72 41 73 43 74 40 75 62 76 63 77
REMARK SMILES IDX 68 78 64 79 65 80 67 81 69 82 66 83 50 84 51 85 56 86 52 87
REMARK SMILES IDX 53 88 55 89 57 90 54 91
REMARK H PARENT 8 12 8 13 74 53 48 64
REMARK Flexibility Score: inf
ROOT
ATOM      1  O   UNL A   1      42.580  21.736  25.198  1.00  0.00    -0.377 OA
ENDROOT
BRANCH   1   2
ATOM      2  C   UNL A   1      42.256  21.578  26.573  1.00  0.00     0.188 C 
BRANCH   2   3
ATOM      3  C   UNL A   1      41.018  20.773  27.047  1.00  0.00     0.188 C 
BRANCH   3   4
ATOM      4  O   UNL A   1      39.978  20.687  26.087  1.00  0.00    -0.376 OA
BRANCH   4   5
ATOM      5  C   UNL A   1      39.054  21.758  26.014  1.00  0.00     0.202 C 
BRANCH   5   6
ATOM      6  C   UNL A   1      37.802  21.526  25.160  1.00  0.00     0.261 C 
BRANCH   6   7
ATOM      7  O   UNL A   1      36.914  22.648  25.069  1.00  0.00    -0.459 OA
BRANCH   7   8
ATOM      8  C   UNL A   1      36.243  22.821  23.891  1.00  0.00     0.369 C 
ATOM      9  O   UNL A   1      36.788  23.019  22.813  1.00  0.00    -0.245 OA
BRANCH   8  10
ATOM     10  C   UNL A   1      34.717  22.693  24.156  1.00  0.00     0.325 C 
BRANCH  10  11
ATOM     11  N   UNL A   1      34.547  21.623  25.148  1.00  0.00    -0.328 N 
ATOM     12  H   UNL A   1      35.463  21.205  25.310  1.00  0.00     0.347 HD
ATOM     13  H   UNL A   1      34.130  22.079  25.959  1.00  0.00     0.347 HD
BRANCH  11  14
ATOM     14  C   UNL A   1      33.627  20.545  24.808  1.00  0.00     0.193 C 
ATOM     15  C   UNL A   1      32.732  17.713  25.654  1.00  0.00     0.012 C 
ATOM     16  C   UNL A   1      33.817  17.986  24.593  1.00  0.00    -0.021 C 
ATOM     17  C   UNL A   1      34.882  16.877  24.720  1.00  0.00     0.012 C 
ATOM     18  C   UNL A   1      33.241  17.998  23.165  1.00  0.00     0.076 C 
ATOM     19  C   UNL A   1      34.534  19.315  24.844  1.00  0.00     0.073 C 
ATOM     20  S   UNL A   1      32.011  19.315  22.866  1.00  0.00    -0.155 SA
ATOM     21  C   UNL A   1      32.964  20.758  23.437  1.00  0.00     0.134 C 
ENDBRANCH  11  14
ENDBRANCH  10  11
BRANCH  10  22
ATOM     22  C   UNL A   1      34.047  24.051  24.396  1.00  0.00     0.021 A 
ATOM     23  C   UNL A   1      33.706  24.868  23.297  1.00  0.00     0.010 A 
ATOM     24  C   UNL A   1      33.744  24.529  25.677  1.00  0.00     0.010 A 
ATOM     25  C   UNL A   1      33.104  26.117  23.474  1.00  0.00     0.001 A 
ATOM     26  C   UNL A   1      33.092  25.755  25.852  1.00  0.00     0.001 A 
ATOM     27  C   UNL A   1      32.781  26.553  24.753  1.00  0.00     0.000 A 
ENDBRANCH  10  22
ENDBRANCH   8  10
ENDBRANCH   7   8
ENDBRANCH   6   7
ENDBRANCH   5   6
ENDBRANCH   4   5
ENDBRANCH   3   4
ENDBRANCH   2   3
ENDBRANCH   1   2
BRANCH   1  28
ATOM     28  C   UNL A   1      43.888  22.149  24.850  1.00  0.00     0.188 C 
BRANCH  28  29
ATOM     29  C   UNL A   1      45.060  21.634  25.712  1.00  0.00     0.188 C 
BRANCH  29  30
ATOM     30  O   UNL A   1      45.908  22.656  26.207  1.00  0.00    -0.376 OA
BRANCH  30  31
ATOM     31  C   UNL A   1      45.424  23.544  27.195  1.00  0.00     0.202 C 
BRANCH  31  32
ATOM     32  C   UNL A   1      44.665  24.806  26.760  1.00  0.00     0.261 C 
BRANCH  32  33
ATOM     33  O   UNL A   1      43.236  24.723  26.746  1.00  0.00    -0.460 OA
BRANCH  33  34
ATOM     34  C   UNL A   1      42.566  25.731  26.154  1.00  0.00     0.338 C 
ATOM     35  O   UNL A   1      42.269  25.832  24.974  1.00  0.00    -0.246 OA
BRANCH  34  36
ATOM     36  C   UNL A   1      42.073  26.613  27.228  1.00  0.00     0.060 A 
ATOM     37  C   UNL A   1      42.536  27.936  27.292  1.00  0.00     0.016 A 
ATOM     38  C   UNL A   1      41.123  26.147  28.139  1.00  0.00     0.016 A 
ATOM     39  C   UNL A   1      42.050  28.797  28.272  1.00  0.00     0.010 A 
ATOM     40  C   UNL A   1      40.670  26.997  29.149  1.00  0.00     0.010 A 
ATOM     41  C   UNL A   1      41.152  28.315  29.233  1.00  0.00    -0.014 A 
BRANCH  41  42
ATOM     42  C   UNL A   1      40.913  29.108  30.457  1.00  0.00     0.031 A 
ATOM     43  C   UNL A   1      39.785  30.100  30.435  1.00  0.00     0.074 A 
ATOM     44  C   UNL A   1      41.659  28.942  31.562  1.00  0.00     0.049 A 
ATOM     45  N   UNL A   1      39.403  30.947  31.353  1.00  0.00    -0.248 NA
ATOM     46  C   UNL A   1      38.980  30.141  29.202  1.00  0.00     0.031 C 
ATOM     47  C   UNL A   1      42.743  27.976  31.717  1.00  0.00     0.029 A 
ATOM     48  N   UNL A   1      41.612  29.597  32.766  1.00  0.00    -0.354 N 
ATOM     49  C   UNL A   1      38.322  31.626  30.807  1.00  0.00     0.074 A 
ATOM     50  C   UNL A   1      38.125  31.115  29.468  1.00  0.00     0.031 C 
ATOM     51  C   UNL A   1      43.272  28.111  32.947  1.00  0.00     0.029 A 
ATOM     52  C   UNL A   1      42.585  29.195  33.648  1.00  0.00     0.049 A 
ATOM     53  H   UNL A   1      40.945  30.290  32.978  1.00  0.00     0.167 HD
ATOM     54  C   UNL A   1      37.557  32.588  31.372  1.00  0.00     0.037 A 
ATOM     55  C   UNL A   1      42.894  29.671  34.870  1.00  0.00     0.037 A 
ATOM     56  C   UNL A   1      37.765  33.098  32.701  1.00  0.00     0.049 A 
ATOM     57  C   UNL A   1      42.084  30.805  35.445  1.00  0.00     0.074 A 
ATOM     58  C   UNL A   1      37.037  34.060  33.377  1.00  0.00     0.029 A 
ATOM     59  N   UNL A   1      38.785  32.694  33.550  1.00  0.00    -0.354 N 
ATOM     60  N   UNL A   1      41.045  31.424  34.936  1.00  0.00    -0.248 NA
ATOM     61  C   UNL A   1      42.488  31.304  36.767  1.00  0.00     0.031 C 
ATOM     62  C   UNL A   1      37.656  34.285  34.610  1.00  0.00     0.029 A 
ATOM     63  C   UNL A   1      38.726  33.414  34.731  1.00  0.00     0.049 A 
ATOM     64  H   UNL A   1      39.451  32.000  33.342  1.00  0.00     0.167 HD
ATOM     65  C   UNL A   1      40.652  32.359  35.888  1.00  0.00     0.074 A 
ATOM     66  C   UNL A   1      41.558  32.216  37.009  1.00  0.00     0.031 C 
ATOM     67  C   UNL A   1      39.632  33.253  35.842  1.00  0.00     0.037 A 
BRANCH  54  68
ATOM     68  C   UNL A   1      36.459  33.178  30.538  1.00  0.00     0.057 A 
ATOM     69  C   UNL A   1      36.717  34.074  29.491  1.00  0.00     0.134 A 
ATOM     70  C   UNL A   1      35.123  32.835  30.778  1.00  0.00     0.134 A 
ATOM     71  F   UNL A   1      37.973  34.462  29.221  1.00  0.00    -0.206 F 
ATOM     72  C   UNL A   1      35.684  34.623  28.731  1.00  0.00     0.040 A 
ATOM     73  C   UNL A   1      34.085  33.353  30.005  1.00  0.00     0.040 A 
ATOM     74  F   UNL A   1      34.805  31.984  31.767  1.00  0.00    -0.206 F 
ATOM     75  C   UNL A   1      34.363  34.256  28.982  1.00  0.00     0.006 A 
ENDBRANCH  54  68
BRANCH  55  76
ATOM     76  C   UNL A   1      44.030  29.092  35.633  1.00  0.00     0.057 A 
ATOM     77  C   UNL A   1      43.843  28.018  36.511  1.00  0.00     0.134 A 
ATOM     78  C   UNL A   1      45.324  29.619  35.529  1.00  0.00     0.134 A 
ATOM     79  F   UNL A   1      42.623  27.484  36.673  1.00  0.00    -0.206 F 
ATOM     80  C   UNL A   1      44.893  27.501  37.271  1.00  0.00     0.040 A 
ATOM     81  C   UNL A   1      46.389  29.095  36.262  1.00  0.00     0.040 A 
ATOM     82  F   UNL A   1      45.572  30.650  34.708  1.00  0.00    -0.206 F 
ATOM     83  C   UNL A   1      46.173  28.038  37.144  1.00  0.00     0.006 A 
ENDBRANCH  55  76
BRANCH  67  84
ATOM     84  C   UNL A   1      39.408  34.112  37.054  1.00  0.00     0.057 A 
ATOM     85  C   UNL A   1      38.743  33.639  38.190  1.00  0.00     0.134 A 
ATOM     86  C   UNL A   1      39.911  35.420  37.098  1.00  0.00     0.134 A 
ATOM     87  F   UNL A   1      38.227  32.400  38.212  1.00  0.00    -0.206 F 
ATOM     88  C   UNL A   1      38.561  34.444  39.318  1.00  0.00     0.040 A 
ATOM     89  C   UNL A   1      39.766  36.222  38.230  1.00  0.00     0.040 A 
ATOM     90  F   UNL A   1      40.571  35.933  36.048  1.00  0.00    -0.206 F 
ATOM     91  C   UNL A   1      39.082  35.736  39.342  1.00  0.00     0.006 A 
ENDBRANCH  67  84
ENDBRANCH  41  42
ENDBRANCH  34  36
ENDBRANCH  33  34
ENDBRANCH  32  33
ENDBRANCH  31  32
ENDBRANCH  30  31
ENDBRANCH  29  30
ENDBRANCH  28  29
ENDBRANCH   1  28
TORSDOF 23
ENDMDL
MODEL 2
REMARK VINA RESULT:      -8.8     10.357     16.570
REMARK SMILES CC1(C)CSC[C@H]([NH2+][C@H](C(=O)OCCOCCOCCOCCOC(=O)c2ccc(-c3c4nc(c(-c5c(F)cccc5F)c5ccc([nH]5)c(-c5c(F)cccc5F)c5nc(c(-c6c(F)cccc6F)c6ccc3[nH]6)C=C5)C=C4)cc2)c2ccccc2)C1
REMARK SMILES IDX 18 1 17 2 16 3 15 4 14 5 13 6 12 7 10 8 11 9 9 10 8 11 7 14
REMARK SMILES IDX 1 15 2 16 3 17 4 18 87 19 5 20 6 21 81 22 82 23 86 24 83 25
REMARK SMILES IDX 85 26 84 27 19 28 20 29 21 30 22 31 23 32 24 33 25 34 26 35
REMARK SMILES IDX 27 36 28 37 80 38 29 39 79 40 30 41 31 42 32 43 73 44 33 45
REMARK SMILES IDX 78 46 72 47 74 48 34 49 77 50 71 51 70 52 35 54 61 55 44 56
REMARK SMILES IDX 60 57 45 58 48 59 59 60 75 61 46 62 47 63 58 65 76 66 49 67
REMARK SMILES IDX 36 68 37 69 42 70 38 71 39 72 41 73 43 74 40 75 62 76 63 77
REMARK SMILES IDX 68 78 64 79 65 80 67 81 69 82 66 83 50 84 51 85 56 86 52 87
REMARK SMILES IDX 53 88 55 89 57 90 54 91
REMARK H PARENT 8 12 8 13 74 53 48 64
REMARK Flexibility Score: inf
ROOT
ATOM      1  O   UNL A   1      42.063  41.413  24.894  1.00  0.00    -0.377 OA
ENDROOT
BRANCH   1   2
ATOM      2  C   UNL A   1      41.392  41.932  23.753  1.00  0.00     0.188 C 
BRANCH   2   3
ATOM      3  C   UNL A   1      41.782  43.286  23.106  1.00  0.00     0.188 C 
BRANCH   3   4
ATOM      4  O   UNL A   1      41.490  43.373  21.722  1.00  0.00    -0.376 OA
BRANCH   4   5
ATOM      5  C   UNL A   1      42.288  42.620  20.827  1.00  0.00     0.202 C 
BRANCH   5   6
ATOM      6  C   UNL A   1      43.806  42.823  20.923  1.00  0.00     0.261 C 
BRANCH   6   7
ATOM      7  O   UNL A   1      44.248  44.177  20.758  1.00  0.00    -0.459 OA
BRANCH   7   8
ATOM      8  C   UNL A   1      45.596  44.398  20.753  1.00  0.00     0.369 C 
ATOM      9  O   UNL A   1      46.383  43.828  20.010  1.00  0.00    -0.245 OA
BRANCH   8  10
ATOM     10  C   UNL A   1      45.930  45.494  21.803  1.00  0.00     0.325 C 
BRANCH  10  11
ATOM     11  N   UNL A   1      46.784  44.864  22.818  1.00  0.00    -0.328 N 
ATOM     12  H   UNL A   1      47.012  43.926  22.488  1.00  0.00     0.347 HD
ATOM     13  H   UNL A   1      47.581  45.491  22.920  1.00  0.00     0.347 HD
BRANCH  11  14
ATOM     14  C   UNL A   1      46.232  44.734  24.161  1.00  0.00     0.193 C 
ATOM     15  C   UNL A   1      46.501  45.798  27.047  1.00  0.00     0.012 C 
ATOM     16  C   UNL A   1      47.223  44.538  26.529  1.00  0.00    -0.021 C 
ATOM     17  C   UNL A   1      48.602  44.476  27.218  1.00  0.00     0.012 C 
ATOM     18  C   UNL A   1      46.431  43.253  26.825  1.00  0.00     0.076 C 
ATOM     19  C   UNL A   1      47.489  44.616  25.023  1.00  0.00     0.073 C 
ATOM     20  S   UNL A   1      44.799  43.176  26.008  1.00  0.00    -0.155 SA
ATOM     21  C   UNL A   1      45.302  43.517  24.291  1.00  0.00     0.134 C 
ENDBRANCH  11  14
ENDBRANCH  10  11
BRANCH  10  22
ATOM     22  C   UNL A   1      46.382  46.809  21.156  1.00  0.00     0.021 A 
ATOM     23  C   UNL A   1      45.485  47.534  20.342  1.00  0.00     0.010 A 
ATOM     24  C   UNL A   1      47.665  47.341  21.340  1.00  0.00     0.010 A 
ATOM     25  C   UNL A   1      45.862  48.730  19.725  1.00  0.00     0.001 A 
ATOM     26  C   UNL A   1      48.024  48.567  20.767  1.00  0.00     0.001 A 
ATOM     27  C   UNL A   1      47.128  49.256  19.953  1.00  0.00     0.000 A 
ENDBRANCH  10  22
ENDBRANCH   8  10
ENDBRANCH   7   8
ENDBRANCH   6   7
ENDBRANCH   5   6
ENDBRANCH   4   5
ENDBRANCH   3   4
ENDBRANCH   2   3
ENDBRANCH   1   2
BRANCH   1  28
ATOM     28  C   UNL A   1      41.291  40.935  25.979  1.00  0.00     0.188 C 
BRANCH  28  29
ATOM     29  C   UNL A   1      41.557  39.498  26.475  1.00  0.00     0.188 C 
BRANCH  29  30
ATOM     30  O   UNL A   1      42.894  39.266  26.887  1.00  0.00    -0.376 OA
BRANCH  30  31
ATOM     31  C   UNL A   1      43.405  39.954  28.012  1.00  0.00     0.202 C 
BRANCH  31  32
ATOM     32  C   UNL A   1      43.824  39.151  29.252  1.00  0.00     0.261 C 
BRANCH  32  33
ATOM     33  O   UNL A   1      44.816  38.138  29.056  1.00  0.00    -0.460 OA
BRANCH  33  34
ATOM     34  C   UNL A   1      45.165  37.401  30.128  1.00  0.00     0.338 C 
ATOM     35  O   UNL A   1      45.422  37.802  31.252  1.00  0.00    -0.246 OA
BRANCH  34  36
ATOM     36  C   UNL A   1      44.989  35.985  29.756  1.00  0.00     0.060 A 
ATOM     37  C   UNL A   1      44.504  35.670  28.478  1.00  0.00     0.016 A 
ATOM     38  C   UNL A   1      45.346  34.974  30.651  1.00  0.00     0.016 A 
ATOM     39  C   UNL A   1      44.372  34.339  28.093  1.00  0.00     0.010 A 
ATOM     40  C   UNL A   1      45.170  33.640  30.280  1.00  0.00     0.010 A 
ATOM     41  C   UNL A   1      44.659  33.321  29.010  1.00  0.00    -0.014 A 
BRANCH  41  42
ATOM     42  C   UNL A   1      44.192  31.946  28.731  1.00  0.00     0.031 A 
ATOM     43  C   UNL A   1      42.842  31.549  29.257  1.00  0.00     0.074 A 
ATOM     44  C   UNL A   1      44.931  31.082  28.016  1.00  0.00     0.049 A 
ATOM     45  N   UNL A   1      42.229  30.397  29.193  1.00  0.00    -0.248 NA
ATOM     46  C   UNL A   1      42.081  32.600  29.954  1.00  0.00     0.031 C 
ATOM     47  C   UNL A   1      46.228  31.371  27.412  1.00  0.00     0.029 A 
ATOM     48  N   UNL A   1      44.686  29.773  27.684  1.00  0.00    -0.354 N 
ATOM     49  C   UNL A   1      41.019  30.582  29.848  1.00  0.00     0.074 A 
ATOM     50  C   UNL A   1      40.994  31.946  30.328  1.00  0.00     0.031 C 
ATOM     51  C   UNL A   1      46.676  30.265  26.792  1.00  0.00     0.029 A 
ATOM     52  C   UNL A   1      45.711  29.183  26.988  1.00  0.00     0.049 A 
ATOM     53  H   UNL A   1      43.855  29.303  27.924  1.00  0.00     0.167 HD
ATOM     54  C   UNL A   1      40.014  29.694  30.031  1.00  0.00     0.037 A 
ATOM     55  C   UNL A   1      45.857  27.907  26.581  1.00  0.00     0.037 A 
ATOM     56  C   UNL A   1      40.051  28.336  29.559  1.00  0.00     0.049 A 
ATOM     57  C   UNL A   1      44.763  26.911  26.873  1.00  0.00     0.074 A 
ATOM     58  C   UNL A   1      39.080  27.358  29.674  1.00  0.00     0.029 A 
ATOM     59  N   UNL A   1      41.123  27.762  28.891  1.00  0.00    -0.354 N 
ATOM     60  N   UNL A   1      43.608  27.098  27.468  1.00  0.00    -0.248 NA
ATOM     61  C   UNL A   1      44.991  25.527  26.434  1.00  0.00     0.031 C 
ATOM     62  C   UNL A   1      39.590  26.174  29.135  1.00  0.00     0.029 A 
ATOM     63  C   UNL A   1      40.850  26.431  28.620  1.00  0.00     0.049 A 
ATOM     64  H   UNL A   1      41.954  28.230  28.648  1.00  0.00     0.167 HD
ATOM     65  C   UNL A   1      42.961  25.867  27.444  1.00  0.00     0.074 A 
ATOM     66  C   UNL A   1      43.848  24.945  26.764  1.00  0.00     0.031 C 
ATOM     67  C   UNL A   1      41.742  25.529  27.934  1.00  0.00     0.037 A 
BRANCH  54  68
ATOM     68  C   UNL A   1      38.818  30.154  30.809  1.00  0.00     0.057 A 
ATOM     69  C   UNL A   1      37.775  30.879  30.214  1.00  0.00     0.134 A 
ATOM     70  C   UNL A   1      38.701  29.857  32.172  1.00  0.00     0.134 A 
ATOM     71  F   UNL A   1      37.834  31.216  28.917  1.00  0.00    -0.206 F 
ATOM     72  C   UNL A   1      36.674  31.311  30.955  1.00  0.00     0.040 A 
ATOM     73  C   UNL A   1      37.590  30.257  32.915  1.00  0.00     0.040 A 
ATOM     74  F   UNL A   1      39.665  29.168  32.804  1.00  0.00    -0.206 F 
ATOM     75  C   UNL A   1      36.575  30.992  32.308  1.00  0.00     0.006 A 
ENDBRANCH  54  68
BRANCH  55  76
ATOM     76  C   UNL A   1      47.089  27.485  25.865  1.00  0.00     0.057 A 
ATOM     77  C   UNL A   1      48.209  27.016  26.562  1.00  0.00     0.134 A 
ATOM     78  C   UNL A   1      47.189  27.571  24.471  1.00  0.00     0.134 A 
ATOM     79  F   UNL A   1      48.184  26.933  27.900  1.00  0.00    -0.206 F 
ATOM     80  C   UNL A   1      49.388  26.667  25.903  1.00  0.00     0.040 A 
ATOM     81  C   UNL A   1      48.353  27.200  23.796  1.00  0.00     0.040 A 
ATOM     82  F   UNL A   1      46.154  28.015  23.743  1.00  0.00    -0.206 F 
ATOM     83  C   UNL A   1      49.461  26.755  24.514  1.00  0.00     0.006 A 
ENDBRANCH  55  76
BRANCH  67  84
ATOM     84  C   UNL A   1      41.272  24.119  27.714  1.00  0.00     0.057 A 
ATOM     85  C   UNL A   1      40.309  23.797  26.751  1.00  0.00     0.134 A 
ATOM     86  C   UNL A   1      41.831  23.063  28.446  1.00  0.00     0.134 A 
ATOM     87  F   UNL A   1      39.726  24.760  26.021  1.00  0.00    -0.206 F 
ATOM     88  C   UNL A   1      39.898  22.478  26.543  1.00  0.00     0.040 A 
ATOM     89  C   UNL A   1      41.454  21.738  28.226  1.00  0.00     0.040 A 
ATOM     90  F   UNL A   1      42.770  23.299  29.376  1.00  0.00    -0.206 F 
ATOM     91  C   UNL A   1      40.478  21.444  27.276  1.00  0.00     0.006 A 
ENDBRANCH  67  84
ENDBRANCH  41  42
ENDBRANCH  34  36
ENDBRANCH  33  34
ENDBRANCH  32  33
ENDBRANCH  31  32
ENDBRANCH  30  31
ENDBRANCH  29  30
ENDBRANCH  28  29
ENDBRANCH   1  28
TORSDOF 23
ENDMDL
MODEL 3
REMARK VINA RESULT:      -8.7      6.503     12.293
REMARK SMILES CC1(C)CSC[C@H]([NH2+][C@H](C(=O)OCCOCCOCCOCCOC(=O)c2ccc(-c3c4nc(c(-c5c(F)cccc5F)c5ccc([nH]5)c(-c5c(F)cccc5F)c5nc(c(-c6c(F)cccc6F)c6ccc3[nH]6)C=C5)C=C4)cc2)c2ccccc2)C1
REMARK SMILES IDX 18 1 17 2 16 3 15 4 14 5 13 6 12 7 10 8 11 9 9 10 8 11 7 14
REMARK SMILES IDX 1 15 2 16 3 17 4 18 87 19 5 20 6 21 81 22 82 23 86 24 83 25
REMARK SMILES IDX 85 26 84 27 19 28 20 29 21 30 22 31 23 32 24 33 25 34 26 35
REMARK SMILES IDX 27 36 28 37 80 38 29 39 79 40 30 41 31 42 32 43 73 44 33 45
REMARK SMILES IDX 78 46 72 47 74 48 34 49 77 50 71 51 70 52 35 54 61 55 44 56
REMARK SMILES IDX 60 57 45 58 48 59 59 60 75 61 46 62 47 63 58 65 76 66 49 67
REMARK SMILES IDX 36 68 37 69 42 70 38 71 39 72 41 73 43 74 40 75 62 76 63 77
REMARK SMILES IDX 68 78 64 79 65 80 67 81 69 82 66 83 50 84 51 85 56 86 52 87
REMARK SMILES IDX 53 88 55 89 57 90 54 91
REMARK H PARENT 8 12 8 13 74 53 48 64
REMARK Flexibility Score: inf
ROOT
ATOM      1  O   UNL A   1      36.588  33.236  35.625  1.00  0.00    -0.377 OA
ENDROOT
BRANCH   1   2
ATOM      2  C   UNL A   1      35.659  33.480  34.577  1.00  0.00     0.188 C 
BRANCH   2   3
ATOM      3  C   UNL A   1      35.897  32.989  33.126  1.00  0.00     0.188 C 
BRANCH   3   4
ATOM      4  O   UNL A   1      35.967  34.028  32.165  1.00  0.00    -0.376 OA
BRANCH   4   5
ATOM      5  C   UNL A   1      34.956  34.084  31.174  1.00  0.00     0.202 C 
BRANCH   5   6
ATOM      6  C   UNL A   1      34.662  32.782  30.419  1.00  0.00     0.261 C 
BRANCH   6   7
ATOM      7  O   UNL A   1      35.791  32.199  29.755  1.00  0.00    -0.459 OA
BRANCH   7   8
ATOM      8  C   UNL A   1      35.644  31.879  28.435  1.00  0.00     0.369 C 
ATOM      9  O   UNL A   1      35.500  32.701  27.541  1.00  0.00    -0.245 OA
BRANCH   8  10
ATOM     10  C   UNL A   1      35.726  30.334  28.279  1.00  0.00     0.325 C 
BRANCH  10  11
ATOM     11  N   UNL A   1      35.145  30.009  26.970  1.00  0.00    -0.328 N 
ATOM     12  H   UNL A   1      34.641  30.833  26.643  1.00  0.00     0.347 HD
ATOM     13  H   UNL A   1      35.937  29.730  26.391  1.00  0.00     0.347 HD
BRANCH  11  14
ATOM     14  C   UNL A   1      34.223  28.881  26.915  1.00  0.00     0.193 C 
ATOM     15  C   UNL A   1      33.869  26.042  25.754  1.00  0.00     0.012 C 
ATOM     16  C   UNL A   1      33.357  27.320  25.060  1.00  0.00    -0.021 C 
ATOM     17  C   UNL A   1      33.509  27.116  23.538  1.00  0.00     0.012 C 
ATOM     18  C   UNL A   1      31.887  27.618  25.405  1.00  0.00     0.076 C 
ATOM     19  C   UNL A   1      34.205  28.542  25.425  1.00  0.00     0.073 C 
ATOM     20  S   UNL A   1      31.586  27.945  27.177  1.00  0.00    -0.155 SA
ATOM     21  C   UNL A   1      32.832  29.243  27.462  1.00  0.00     0.134 C 
ENDBRANCH  11  14
ENDBRANCH  10  11
BRANCH  10  22
ATOM     22  C   UNL A   1      37.107  29.779  28.644  1.00  0.00     0.021 A 
ATOM     23  C   UNL A   1      37.311  29.183  29.907  1.00  0.00     0.010 A 
ATOM     24  C   UNL A   1      38.199  29.829  27.768  1.00  0.00     0.010 A 
ATOM     25  C   UNL A   1      38.558  28.675  30.283  1.00  0.00     0.001 A 
ATOM     26  C   UNL A   1      39.432  29.271  28.123  1.00  0.00     0.001 A 
ATOM     27  C   UNL A   1      39.615  28.704  29.382  1.00  0.00     0.000 A 
ENDBRANCH  10  22
ENDBRANCH   8  10
ENDBRANCH   7   8
ENDBRANCH   6   7
ENDBRANCH   5   6
ENDBRANCH   4   5
ENDBRANCH   3   4
ENDBRANCH   2   3
ENDBRANCH   1   2
BRANCH   1  28
ATOM     28  C   UNL A   1      37.966  33.169  35.313  1.00  0.00     0.188 C 
BRANCH  28  29
ATOM     29  C   UNL A   1      38.736  31.895  35.717  1.00  0.00     0.188 C 
BRANCH  29  30
ATOM     30  O   UNL A   1      38.117  30.689  35.302  1.00  0.00    -0.376 OA
BRANCH  30  31
ATOM     31  C   UNL A   1      38.117  30.343  33.931  1.00  0.00     0.202 C 
BRANCH  31  32
ATOM     32  C   UNL A   1      39.400  30.541  33.110  1.00  0.00     0.261 C 
BRANCH  32  33
ATOM     33  O   UNL A   1      39.550  31.802  32.449  1.00  0.00    -0.460 OA
BRANCH  33  34
ATOM     34  C   UNL A   1      40.728  32.440  32.598  1.00  0.00     0.338 C 
ATOM     35  O   UNL A   1      41.008  33.298  33.420  1.00  0.00    -0.246 OA
BRANCH  34  36
ATOM     36  C   UNL A   1      41.697  31.773  31.709  1.00  0.00     0.060 A 
ATOM     37  C   UNL A   1      42.734  31.017  32.274  1.00  0.00     0.016 A 
ATOM     38  C   UNL A   1      41.553  31.858  30.323  1.00  0.00     0.016 A 
ATOM     39  C   UNL A   1      43.633  30.343  31.452  1.00  0.00     0.010 A 
ATOM     40  C   UNL A   1      42.481  31.220  29.499  1.00  0.00     0.010 A 
ATOM     41  C   UNL A   1      43.538  30.484  30.062  1.00  0.00    -0.014 A 
BRANCH  41  42
ATOM     42  C   UNL A   1      44.677  30.070  29.216  1.00  0.00     0.031 A 
ATOM     43  C   UNL A   1      44.591  28.732  28.537  1.00  0.00     0.074 A 
ATOM     44  C   UNL A   1      45.747  30.862  29.037  1.00  0.00     0.049 A 
ATOM     45  N   UNL A   1      45.470  28.120  27.790  1.00  0.00    -0.248 NA
ATOM     46  C   UNL A   1      43.339  27.983  28.735  1.00  0.00     0.031 C 
ATOM     47  C   UNL A   1      45.918  32.198  29.600  1.00  0.00     0.029 A 
ATOM     48  N   UNL A   1      46.900  30.643  28.327  1.00  0.00    -0.354 N 
ATOM     49  C   UNL A   1      44.882  26.912  27.437  1.00  0.00     0.074 A 
ATOM     50  C   UNL A   1      43.585  26.864  28.074  1.00  0.00     0.031 C 
ATOM     51  C   UNL A   1      47.117  32.678  29.225  1.00  0.00     0.029 A 
ATOM     52  C   UNL A   1      47.809  31.668  28.425  1.00  0.00     0.049 A 
ATOM     53  H   UNL A   1      47.061  29.828  27.797  1.00  0.00     0.167 HD
ATOM     54  C   UNL A   1      45.378  25.931  26.648  1.00  0.00     0.037 A 
ATOM     55  C   UNL A   1      49.063  31.760  27.943  1.00  0.00     0.037 A 
ATOM     56  C   UNL A   1      46.674  25.983  26.026  1.00  0.00     0.049 A 
ATOM     57  C   UNL A   1      49.629  30.616  27.140  1.00  0.00     0.074 A 
ATOM     58  C   UNL A   1      47.266  25.051  25.193  1.00  0.00     0.029 A 
ATOM     59  N   UNL A   1      47.582  27.019  26.181  1.00  0.00    -0.354 N 
ATOM     60  N   UNL A   1      49.058  29.489  26.784  1.00  0.00    -0.248 NA
ATOM     61  C   UNL A   1      51.014  30.759  26.667  1.00  0.00     0.031 C 
ATOM     62  C   UNL A   1      48.558  25.493  24.896  1.00  0.00     0.029 A 
ATOM     63  C   UNL A   1      48.745  26.733  25.486  1.00  0.00     0.049 A 
ATOM     64  H   UNL A   1      47.423  27.836  26.707  1.00  0.00     0.167 HD
ATOM     65  C   UNL A   1      50.000  28.807  26.021  1.00  0.00     0.074 A 
ATOM     66  C   UNL A   1      51.173  29.653  25.955  1.00  0.00     0.031 C 
ATOM     67  C   UNL A   1      49.902  27.592  25.424  1.00  0.00     0.037 A 
BRANCH  54  68
ATOM     68  C   UNL A   1      44.533  24.707  26.454  1.00  0.00     0.057 A 
ATOM     69  C   UNL A   1      44.644  23.585  27.287  1.00  0.00     0.134 A 
ATOM     70  C   UNL A   1      43.586  24.655  25.424  1.00  0.00     0.134 A 
ATOM     71  F   UNL A   1      45.547  23.561  28.279  1.00  0.00    -0.206 F 
ATOM     72  C   UNL A   1      43.860  22.449  27.087  1.00  0.00     0.040 A 
ATOM     73  C   UNL A   1      42.775  23.537  25.234  1.00  0.00     0.040 A 
ATOM     74  F   UNL A   1      43.429  25.694  24.589  1.00  0.00    -0.206 F 
ATOM     75  C   UNL A   1      42.915  22.426  26.062  1.00  0.00     0.006 A 
ENDBRANCH  54  68
BRANCH  55  76
ATOM     76  C   UNL A   1      49.882  32.970  28.213  1.00  0.00     0.057 A 
ATOM     77  C   UNL A   1      49.882  34.058  27.333  1.00  0.00     0.134 A 
ATOM     78  C   UNL A   1      50.709  33.055  29.340  1.00  0.00     0.134 A 
ATOM     79  F   UNL A   1      49.129  34.027  26.223  1.00  0.00    -0.206 F 
ATOM     80  C   UNL A   1      50.687  35.177  27.550  1.00  0.00     0.040 A 
ATOM     81  C   UNL A   1      51.500  34.179  29.585  1.00  0.00     0.040 A 
ATOM     82  F   UNL A   1      50.759  32.047  30.223  1.00  0.00    -0.206 F 
ATOM     83  C   UNL A   1      51.496  35.241  28.683  1.00  0.00     0.006 A 
ENDBRANCH  55  76
BRANCH  67  84
ATOM     84  C   UNL A   1      51.073  27.125  24.608  1.00  0.00     0.057 A 
ATOM     85  C   UNL A   1      52.091  26.332  25.151  1.00  0.00     0.134 A 
ATOM     86  C   UNL A   1      51.156  27.434  23.243  1.00  0.00     0.134 A 
ATOM     87  F   UNL A   1      52.080  26.006  26.453  1.00  0.00    -0.206 F 
ATOM     88  C   UNL A   1      53.163  25.887  24.373  1.00  0.00     0.040 A 
ATOM     89  C   UNL A   1      52.203  26.969  22.448  1.00  0.00     0.040 A 
ATOM     90  F   UNL A   1      50.207  28.180  22.655  1.00  0.00    -0.206 F 
ATOM     91  C   UNL A   1      53.215  26.198  23.016  1.00  0.00     0.006 A 
ENDBRANCH  67  84
ENDBRANCH  41  42
ENDBRANCH  34  36
ENDBRANCH  33  34
ENDBRANCH  32  33
ENDBRANCH  31  32
ENDBRANCH  30  31
ENDBRANCH  29  30
ENDBRANCH  28  29
ENDBRANCH   1  28
TORSDOF 23
ENDMDL
