MODEL 1
REMARK VINA RESULT:      -9.3      0.000      0.000
REMARK SMILES CC(C)C[C@@H](CNC(=O)[C@@H]1CCOC1)C(=O)OCCOCCOCCOCCOC(=O)c1ccc(-c2c3nc(c(-c4c(F)cccc4F)c4ccc([nH]4)c(-c4c(F)cccc4F)c4nc(c(-c5c(F)cccc5F)c5ccc2[nH]5)C=C4)C=C3)cc1
REMARK SMILES IDX 22 1 21 2 20 3 19 4 18 5 17 6 15 7 16 8 5 9 4 10 2 11 1 12
REMARK SMILES IDX 3 13 6 14 7 15 8 16 9 18 10 19 11 20 14 21 12 22 13 23 23 24
REMARK SMILES IDX 24 25 25 26 26 27 27 28 28 29 29 30 30 31 31 32 32 33 33 34
REMARK SMILES IDX 85 35 34 36 84 37 35 38 36 39 37 40 78 41 38 42 83 43 77 44
REMARK SMILES IDX 79 45 39 46 82 47 76 48 75 49 40 51 66 52 49 53 65 54 50 55
REMARK SMILES IDX 53 56 64 57 80 58 51 59 52 60 63 62 81 63 54 64 41 65 42 66
REMARK SMILES IDX 47 67 43 68 44 69 46 70 48 71 45 72 67 73 68 74 73 75 69 76
REMARK SMILES IDX 70 77 72 78 74 79 71 80 55 81 56 82 61 83 57 84 58 85 60 86
REMARK SMILES IDX 62 87 59 88
REMARK H PARENT 7 17 79 50 53 61
REMARK Flexibility Score: inf
ROOT
ATOM      1  C   UNL A   1      40.876  20.122  26.408  1.00  0.00     0.188 C 
ENDROOT
BRANCH   1   2
ATOM      2  C   UNL A   1      39.409  20.347  26.025  1.00  0.00     0.188 C 
BRANCH   2   3
ATOM      3  O   UNL A   1      38.895  21.651  25.829  1.00  0.00    -0.376 OA
BRANCH   3   4
ATOM      4  C   UNL A   1      37.752  21.916  25.033  1.00  0.00     0.202 C 
BRANCH   4   5
ATOM      5  C   UNL A   1      36.314  21.518  25.403  1.00  0.00     0.261 C 
BRANCH   5   6
ATOM      6  O   UNL A   1      35.357  22.569  25.627  1.00  0.00    -0.463 OA
BRANCH   6   7
ATOM      7  C   UNL A   1      34.308  22.236  26.407  1.00  0.00     0.310 C 
ATOM      8  O   UNL A   1      34.412  21.650  27.484  1.00  0.00    -0.252 OA
BRANCH   7   9
ATOM      9  C   UNL A   1      32.935  22.511  25.821  1.00  0.00     0.118 C 
BRANCH   9  10
ATOM     10  C   UNL A   1      32.598  23.858  25.145  1.00  0.00     0.020 C 
BRANCH  10  11
ATOM     11  C   UNL A   1      32.737  25.078  26.100  1.00  0.00    -0.017 C 
ATOM     12  C   UNL A   1      33.885  26.022  25.715  1.00  0.00     0.007 C 
ATOM     13  C   UNL A   1      31.438  25.887  26.142  1.00  0.00     0.007 C 
ENDBRANCH  10  11
ENDBRANCH   9  10
BRANCH   9  14
ATOM     14  C   UNL A   1      32.607  21.316  24.923  1.00  0.00     0.131 C 
BRANCH  14  15
ATOM     15  N   UNL A   1      32.441  20.090  25.690  1.00  0.00    -0.355 N 
ATOM     16  C   UNL A   1      32.760  18.809  25.339  1.00  0.00     0.225 C 
ATOM     17  H   UNL A   1      32.044  20.198  26.584  1.00  0.00     0.163 HD
ATOM     18  O   UNL A   1      32.318  17.891  26.028  1.00  0.00    -0.275 OA
BRANCH  16  19
ATOM     19  C   UNL A   1      33.622  18.577  24.107  1.00  0.00     0.106 C 
ATOM     20  C   UNL A   1      33.101  17.457  23.233  1.00  0.00     0.044 C 
ATOM     21  C   UNL A   1      34.999  18.066  24.498  1.00  0.00     0.173 C 
ATOM     22  C   UNL A   1      33.697  16.238  23.898  1.00  0.00     0.161 C 
ATOM     23  O   UNL A   1      34.990  16.636  24.370  1.00  0.00    -0.381 OA
ENDBRANCH  16  19
ENDBRANCH  14  15
ENDBRANCH   9  14
ENDBRANCH   7   9
ENDBRANCH   6   7
ENDBRANCH   5   6
ENDBRANCH   4   5
ENDBRANCH   3   4
ENDBRANCH   2   3
ENDBRANCH   1   2
BRANCH   1  24
ATOM     24  O   UNL A   1      41.543  19.082  25.722  1.00  0.00    -0.377 OA
BRANCH  24  25
ATOM     25  C   UNL A   1      42.958  19.146  25.584  1.00  0.00     0.188 C 
BRANCH  25  26
ATOM     26  C   UNL A   1      43.672  20.507  25.701  1.00  0.00     0.188 C 
BRANCH  26  27
ATOM     27  O   UNL A   1      44.011  21.096  24.457  1.00  0.00    -0.376 OA
BRANCH  27  28
ATOM     28  C   UNL A   1      43.867  22.499  24.295  1.00  0.00     0.202 C 
BRANCH  28  29
ATOM     29  C   UNL A   1      45.136  23.355  24.153  1.00  0.00     0.261 C 
BRANCH  29  30
ATOM     30  O   UNL A   1      45.352  24.369  25.151  1.00  0.00    -0.460 OA
BRANCH  30  31
ATOM     31  C   UNL A   1      45.422  24.001  26.444  1.00  0.00     0.338 C 
ATOM     32  O   UNL A   1      46.129  23.133  26.931  1.00  0.00    -0.246 OA
BRANCH  31  33
ATOM     33  C   UNL A   1      44.630  24.972  27.227  1.00  0.00     0.060 A 
ATOM     34  C   UNL A   1      44.973  26.331  27.180  1.00  0.00     0.016 A 
ATOM     35  C   UNL A   1      43.558  24.542  28.010  1.00  0.00     0.016 A 
ATOM     36  C   UNL A   1      44.263  27.259  27.943  1.00  0.00     0.010 A 
ATOM     37  C   UNL A   1      42.864  25.467  28.793  1.00  0.00     0.010 A 
ATOM     38  C   UNL A   1      43.235  26.825  28.787  1.00  0.00    -0.014 A 
BRANCH  38  39
ATOM     39  C   UNL A   1      42.673  27.743  29.808  1.00  0.00     0.031 A 
ATOM     40  C   UNL A   1      43.328  27.789  31.161  1.00  0.00     0.074 A 
ATOM     41  C   UNL A   1      41.606  28.517  29.545  1.00  0.00     0.049 A 
ATOM     42  N   UNL A   1      42.962  28.427  32.242  1.00  0.00    -0.248 NA
ATOM     43  C   UNL A   1      44.563  27.001  31.315  1.00  0.00     0.031 C 
ATOM     44  C   UNL A   1      40.916  28.600  28.262  1.00  0.00     0.029 A 
ATOM     45  N   UNL A   1      40.907  29.370  30.362  1.00  0.00    -0.354 N 
ATOM     46  C   UNL A   1      43.909  28.106  33.207  1.00  0.00     0.074 A 
ATOM     47  C   UNL A   1      44.852  27.198  32.592  1.00  0.00     0.031 C 
ATOM     48  C   UNL A   1      39.874  29.441  28.383  1.00  0.00     0.029 A 
ATOM     49  C   UNL A   1      39.801  29.921  29.762  1.00  0.00     0.049 A 
ATOM     50  H   UNL A   1      41.171  29.569  31.290  1.00  0.00     0.167 HD
ATOM     51  C   UNL A   1      43.985  28.531  34.489  1.00  0.00     0.037 A 
ATOM     52  C   UNL A   1      38.824  30.692  30.279  1.00  0.00     0.037 A 
ATOM     53  C   UNL A   1      43.044  29.434  35.096  1.00  0.00     0.049 A 
ATOM     54  C   UNL A   1      38.882  31.083  31.735  1.00  0.00     0.074 A 
ATOM     55  C   UNL A   1      43.049  29.947  36.381  1.00  0.00     0.029 A 
ATOM     56  N   UNL A   1      41.922  29.948  34.463  1.00  0.00    -0.354 N 
ATOM     57  N   UNL A   1      39.795  30.800  32.633  1.00  0.00    -0.248 NA
ATOM     58  C   UNL A   1      37.772  31.899  32.250  1.00  0.00     0.031 C 
ATOM     59  C   UNL A   1      41.894  30.719  36.546  1.00  0.00     0.029 A 
ATOM     60  C   UNL A   1      41.207  30.741  35.344  1.00  0.00     0.049 A 
ATOM     61  H   UNL A   1      41.671  29.774  33.528  1.00  0.00     0.167 HD
ATOM     62  C   UNL A   1      39.387  31.426  33.806  1.00  0.00     0.074 A 
ATOM     63  C   UNL A   1      38.150  32.115  33.502  1.00  0.00     0.031 C 
ATOM     64  C   UNL A   1      39.982  31.431  35.024  1.00  0.00     0.037 A 
BRANCH  51  65
ATOM     65  C   UNL A   1      45.102  27.993  35.336  1.00  0.00     0.057 A 
ATOM     66  C   UNL A   1      46.324  28.664  35.472  1.00  0.00     0.134 A 
ATOM     67  C   UNL A   1      44.936  26.801  36.053  1.00  0.00     0.134 A 
ATOM     68  F   UNL A   1      46.554  29.803  34.802  1.00  0.00    -0.206 F 
ATOM     69  C   UNL A   1      47.349  28.157  36.274  1.00  0.00     0.040 A 
ATOM     70  C   UNL A   1      45.942  26.300  36.881  1.00  0.00     0.040 A 
ATOM     71  F   UNL A   1      43.790  26.109  35.970  1.00  0.00    -0.206 F 
ATOM     72  C   UNL A   1      47.156  26.976  36.987  1.00  0.00     0.006 A 
ENDBRANCH  51  65
BRANCH  52  73
ATOM     73  C   UNL A   1      37.681  31.121  29.430  1.00  0.00     0.057 A 
ATOM     74  C   UNL A   1      37.611  32.416  28.903  1.00  0.00     0.134 A 
ATOM     75  C   UNL A   1      36.614  30.257  29.154  1.00  0.00     0.134 A 
ATOM     76  F   UNL A   1      38.589  33.301  29.154  1.00  0.00    -0.206 F 
ATOM     77  C   UNL A   1      36.515  32.844  28.151  1.00  0.00     0.040 A 
ATOM     78  C   UNL A   1      35.527  30.661  28.377  1.00  0.00     0.040 A 
ATOM     79  F   UNL A   1      36.615  29.004  29.631  1.00  0.00    -0.206 F 
ATOM     80  C   UNL A   1      35.471  31.961  27.881  1.00  0.00     0.006 A 
ENDBRANCH  52  73
BRANCH  64  81
ATOM     81  C   UNL A   1      39.332  32.236  36.114  1.00  0.00     0.057 A 
ATOM     82  C   UNL A   1      39.683  33.568  36.365  1.00  0.00     0.134 A 
ATOM     83  C   UNL A   1      38.296  31.687  36.883  1.00  0.00     0.134 A 
ATOM     84  F   UNL A   1      40.673  34.153  35.672  1.00  0.00    -0.206 F 
ATOM     85  C   UNL A   1      39.040  34.319  37.350  1.00  0.00     0.040 A 
ATOM     86  C   UNL A   1      37.626  32.436  37.849  1.00  0.00     0.040 A 
ATOM     87  F   UNL A   1      37.901  30.419  36.687  1.00  0.00    -0.206 F 
ATOM     88  C   UNL A   1      38.002  33.756  38.089  1.00  0.00     0.006 A 
ENDBRANCH  64  81
ENDBRANCH  38  39
ENDBRANCH  31  33
ENDBRANCH  30  31
ENDBRANCH  29  30
ENDBRANCH  28  29
ENDBRANCH  27  28
ENDBRANCH  26  27
ENDBRANCH  25  26
ENDBRANCH  24  25
ENDBRANCH   1  24
TORSDOF 25
ENDMDL
MODEL 2
REMARK VINA RESULT:      -9.1      5.475     11.086
REMARK SMILES CC(C)C[C@@H](CNC(=O)[C@@H]1CCOC1)C(=O)OCCOCCOCCOCCOC(=O)c1ccc(-c2c3nc(c(-c4c(F)cccc4F)c4ccc([nH]4)c(-c4c(F)cccc4F)c4nc(c(-c5c(F)cccc5F)c5ccc2[nH]5)C=C4)C=C3)cc1
REMARK SMILES IDX 22 1 21 2 20 3 19 4 18 5 17 6 15 7 16 8 5 9 4 10 2 11 1 12
REMARK SMILES IDX 3 13 6 14 7 15 8 16 9 18 10 19 11 20 14 21 12 22 13 23 23 24
REMARK SMILES IDX 24 25 25 26 26 27 27 28 28 29 29 30 30 31 31 32 32 33 33 34
REMARK SMILES IDX 85 35 34 36 84 37 35 38 36 39 37 40 78 41 38 42 83 43 77 44
REMARK SMILES IDX 79 45 39 46 82 47 76 48 75 49 40 51 66 52 49 53 65 54 50 55
REMARK SMILES IDX 53 56 64 57 80 58 51 59 52 60 63 62 81 63 54 64 41 65 42 66
REMARK SMILES IDX 47 67 43 68 44 69 46 70 48 71 45 72 67 73 68 74 73 75 69 76
REMARK SMILES IDX 70 77 72 78 74 79 71 80 55 81 56 82 61 83 57 84 58 85 60 86
REMARK SMILES IDX 62 87 59 88
REMARK H PARENT 7 17 79 50 53 61
REMARK Flexibility Score: inf
ROOT
ATOM      1  C   UNL A   1      34.136  33.765  29.318  1.00  0.00     0.188 C 
ENDROOT
BRANCH   1   2
ATOM      2  C   UNL A   1      34.069  32.450  28.534  1.00  0.00     0.188 C 
BRANCH   2   3
ATOM      3  O   UNL A   1      33.043  32.211  27.590  1.00  0.00    -0.376 OA
BRANCH   3   4
ATOM      4  C   UNL A   1      32.752  30.921  27.078  1.00  0.00     0.202 C 
BRANCH   4   5
ATOM      5  C   UNL A   1      33.809  29.892  26.642  1.00  0.00     0.261 C 
BRANCH   5   6
ATOM      6  O   UNL A   1      33.689  29.313  25.331  1.00  0.00    -0.463 OA
BRANCH   6   7
ATOM      7  C   UNL A   1      33.434  27.988  25.307  1.00  0.00     0.310 C 
ATOM      8  O   UNL A   1      34.049  27.160  25.976  1.00  0.00    -0.252 OA
BRANCH   7   9
ATOM      9  C   UNL A   1      32.405  27.531  24.289  1.00  0.00     0.118 C 
BRANCH   9  10
ATOM     10  C   UNL A   1      31.946  26.058  24.205  1.00  0.00     0.020 C 
BRANCH  10  11
ATOM     11  C   UNL A   1      32.597  25.277  23.028  1.00  0.00    -0.017 C 
ATOM     12  C   UNL A   1      32.662  26.086  21.725  1.00  0.00     0.007 C 
ATOM     13  C   UNL A   1      34.015  24.829  23.392  1.00  0.00     0.007 C 
ENDBRANCH  10  11
ENDBRANCH   9  10
BRANCH   9  14
ATOM     14  C   UNL A   1      31.226  28.498  24.409  1.00  0.00     0.131 C 
BRANCH  14  15
ATOM     15  N   UNL A   1      29.989  27.911  23.914  1.00  0.00    -0.355 N 
ATOM     16  C   UNL A   1      28.988  28.500  23.197  1.00  0.00     0.225 C 
ATOM     17  H   UNL A   1      29.857  26.959  24.125  1.00  0.00     0.163 HD
ATOM     18  O   UNL A   1      27.921  27.898  23.086  1.00  0.00    -0.275 OA
BRANCH  16  19
ATOM     19  C   UNL A   1      29.227  29.876  22.591  1.00  0.00     0.106 C 
ATOM     20  C   UNL A   1      29.144  30.987  23.614  1.00  0.00     0.044 C 
ATOM     21  C   UNL A   1      28.111  30.243  21.626  1.00  0.00     0.173 C 
ATOM     22  C   UNL A   1      27.657  31.252  23.668  1.00  0.00     0.161 C 
ATOM     23  O   UNL A   1      27.173  31.069  22.332  1.00  0.00    -0.381 OA
ENDBRANCH  16  19
ENDBRANCH  14  15
ENDBRANCH   9  14
ENDBRANCH   7   9
ENDBRANCH   6   7
ENDBRANCH   5   6
ENDBRANCH   4   5
ENDBRANCH   3   4
ENDBRANCH   2   3
ENDBRANCH   1   2
BRANCH   1  24
ATOM     24  O   UNL A   1      33.419  34.852  28.768  1.00  0.00    -0.377 OA
BRANCH  24  25
ATOM     25  C   UNL A   1      32.950  35.877  29.636  1.00  0.00     0.188 C 
BRANCH  25  26
ATOM     26  C   UNL A   1      32.848  35.603  31.149  1.00  0.00     0.188 C 
BRANCH  26  27
ATOM     27  O   UNL A   1      33.984  36.009  31.893  1.00  0.00    -0.376 OA
BRANCH  27  28
ATOM     28  C   UNL A   1      34.619  35.072  32.750  1.00  0.00     0.202 C 
BRANCH  28  29
ATOM     29  C   UNL A   1      34.155  33.607  32.706  1.00  0.00     0.261 C 
BRANCH  29  30
ATOM     30  O   UNL A   1      35.125  32.630  32.286  1.00  0.00    -0.460 OA
BRANCH  30  31
ATOM     31  C   UNL A   1      36.164  32.358  33.097  1.00  0.00     0.338 C 
ATOM     32  O   UNL A   1      36.235  32.549  34.301  1.00  0.00    -0.246 OA
BRANCH  31  33
ATOM     33  C   UNL A   1      37.154  31.592  32.312  1.00  0.00     0.060 A 
ATOM     34  C   UNL A   1      37.928  30.615  32.954  1.00  0.00     0.016 A 
ATOM     35  C   UNL A   1      37.322  31.843  30.950  1.00  0.00     0.016 A 
ATOM     36  C   UNL A   1      38.896  29.908  32.239  1.00  0.00     0.010 A 
ATOM     37  C   UNL A   1      38.309  31.153  30.242  1.00  0.00     0.010 A 
ATOM     38  C   UNL A   1      39.122  30.206  30.891  1.00  0.00    -0.014 A 
BRANCH  38  39
ATOM     39  C   UNL A   1      40.326  29.679  30.205  1.00  0.00     0.031 A 
ATOM     40  C   UNL A   1      41.496  30.604  30.008  1.00  0.00     0.074 A 
ATOM     41  C   UNL A   1      40.384  28.410  29.763  1.00  0.00     0.049 A 
ATOM     42  N   UNL A   1      42.610  30.409  29.351  1.00  0.00    -0.248 NA
ATOM     43  C   UNL A   1      41.389  31.932  30.635  1.00  0.00     0.031 C 
ATOM     44  C   UNL A   1      39.339  27.405  29.936  1.00  0.00     0.029 A 
ATOM     45  N   UNL A   1      41.366  27.761  29.056  1.00  0.00    -0.354 N 
ATOM     46  C   UNL A   1      43.328  31.593  29.471  1.00  0.00     0.074 A 
ATOM     47  C   UNL A   1      42.516  32.507  30.243  1.00  0.00     0.031 C 
ATOM     48  C   UNL A   1      39.726  26.269  29.330  1.00  0.00     0.029 A 
ATOM     49  C   UNL A   1      41.024  26.482  28.691  1.00  0.00     0.049 A 
ATOM     50  H   UNL A   1      42.232  28.172  28.832  1.00  0.00     0.167 HD
ATOM     51  C   UNL A   1      44.555  31.888  28.983  1.00  0.00     0.037 A 
ATOM     52  C   UNL A   1      41.670  25.600  27.902  1.00  0.00     0.037 A 
ATOM     53  C   UNL A   1      45.359  30.975  28.217  1.00  0.00     0.049 A 
ATOM     54  C   UNL A   1      42.997  25.983  27.297  1.00  0.00     0.074 A 
ATOM     55  C   UNL A   1      46.628  31.169  27.701  1.00  0.00     0.029 A 
ATOM     56  N   UNL A   1      44.966  29.698  27.846  1.00  0.00    -0.354 N 
ATOM     57  N   UNL A   1      43.683  27.093  27.438  1.00  0.00    -0.248 NA
ATOM     58  C   UNL A   1      43.639  24.993  26.419  1.00  0.00     0.031 C 
ATOM     59  C   UNL A   1      46.976  30.035  26.961  1.00  0.00     0.029 A 
ATOM     60  C   UNL A   1      45.953  29.108  27.073  1.00  0.00     0.049 A 
ATOM     61  H   UNL A   1      44.113  29.274  28.093  1.00  0.00     0.167 HD
ATOM     62  C   UNL A   1      44.847  26.922  26.695  1.00  0.00     0.074 A 
ATOM     63  C   UNL A   1      44.780  25.597  26.115  1.00  0.00     0.031 C 
ATOM     64  C   UNL A   1      45.878  27.783  26.511  1.00  0.00     0.037 A 
BRANCH  51  65
ATOM     65  C   UNL A   1      45.087  33.271  29.230  1.00  0.00     0.057 A 
ATOM     66  C   UNL A   1      44.857  34.328  28.340  1.00  0.00     0.134 A 
ATOM     67  C   UNL A   1      45.810  33.554  30.396  1.00  0.00     0.134 A 
ATOM     68  F   UNL A   1      44.184  34.122  27.197  1.00  0.00    -0.206 F 
ATOM     69  C   UNL A   1      45.346  35.611  28.590  1.00  0.00     0.040 A 
ATOM     70  C   UNL A   1      46.279  34.839  30.671  1.00  0.00     0.040 A 
ATOM     71  F   UNL A   1      46.064  32.589  31.291  1.00  0.00    -0.206 F 
ATOM     72  C   UNL A   1      46.053  35.871  29.762  1.00  0.00     0.006 A 
ENDBRANCH  51  65
BRANCH  52  73
ATOM     73  C   UNL A   1      41.060  24.278  27.602  1.00  0.00     0.057 A 
ATOM     74  C   UNL A   1      41.515  23.109  28.222  1.00  0.00     0.134 A 
ATOM     75  C   UNL A   1      40.030  24.147  26.663  1.00  0.00     0.134 A 
ATOM     76  F   UNL A   1      42.518  23.163  29.112  1.00  0.00    -0.206 F 
ATOM     77  C   UNL A   1      40.985  21.856  27.906  1.00  0.00     0.040 A 
ATOM     78  C   UNL A   1      39.468  22.906  26.359  1.00  0.00     0.040 A 
ATOM     79  F   UNL A   1      39.550  25.227  26.028  1.00  0.00    -0.206 F 
ATOM     80  C   UNL A   1      39.953  21.754  26.974  1.00  0.00     0.006 A 
ENDBRANCH  52  73
BRANCH  64  81
ATOM     81  C   UNL A   1      47.039  27.312  25.682  1.00  0.00     0.057 A 
ATOM     82  C   UNL A   1      47.130  27.575  24.310  1.00  0.00     0.134 A 
ATOM     83  C   UNL A   1      48.113  26.637  26.281  1.00  0.00     0.134 A 
ATOM     84  F   UNL A   1      46.132  28.207  23.672  1.00  0.00    -0.206 F 
ATOM     85  C   UNL A   1      48.236  27.170  23.561  1.00  0.00     0.040 A 
ATOM     86  C   UNL A   1      49.237  26.256  25.550  1.00  0.00     0.040 A 
ATOM     87  F   UNL A   1      48.097  26.363  27.595  1.00  0.00    -0.206 F 
ATOM     88  C   UNL A   1      49.298  26.517  24.182  1.00  0.00     0.006 A 
ENDBRANCH  64  81
ENDBRANCH  38  39
ENDBRANCH  31  33
ENDBRANCH  30  31
ENDBRANCH  29  30
ENDBRANCH  28  29
ENDBRANCH  27  28
ENDBRANCH  26  27
ENDBRANCH  25  26
ENDBRANCH  24  25
ENDBRANCH   1  24
TORSDOF 25
ENDMDL
MODEL 3
REMARK VINA RESULT:      -8.9      1.621      3.473
REMARK SMILES CC(C)C[C@@H](CNC(=O)[C@@H]1CCOC1)C(=O)OCCOCCOCCOCCOC(=O)c1ccc(-c2c3nc(c(-c4c(F)cccc4F)c4ccc([nH]4)c(-c4c(F)cccc4F)c4nc(c(-c5c(F)cccc5F)c5ccc2[nH]5)C=C4)C=C3)cc1
REMARK SMILES IDX 22 1 21 2 20 3 19 4 18 5 17 6 15 7 16 8 5 9 4 10 2 11 1 12
REMARK SMILES IDX 3 13 6 14 7 15 8 16 9 18 10 19 11 20 14 21 12 22 13 23 23 24
REMARK SMILES IDX 24 25 25 26 26 27 27 28 28 29 29 30 30 31 31 32 32 33 33 34
REMARK SMILES IDX 85 35 34 36 84 37 35 38 36 39 37 40 78 41 38 42 83 43 77 44
REMARK SMILES IDX 79 45 39 46 82 47 76 48 75 49 40 51 66 52 49 53 65 54 50 55
REMARK SMILES IDX 53 56 64 57 80 58 51 59 52 60 63 62 81 63 54 64 41 65 42 66
REMARK SMILES IDX 47 67 43 68 44 69 46 70 48 71 45 72 67 73 68 74 73 75 69 76
REMARK SMILES IDX 70 77 72 78 74 79 71 80 55 81 56 82 61 83 57 84 58 85 60 86
REMARK SMILES IDX 62 87 59 88
REMARK H PARENT 7 17 79 50 53 61
REMARK Flexibility Score: inf
ROOT
ATOM      1  C   UNL A   1      40.749  20.889  26.897  1.00  0.00     0.188 C 
ENDROOT
BRANCH   1   2
ATOM      2  C   UNL A   1      39.723  20.088  26.089  1.00  0.00     0.188 C 
BRANCH   2   3
ATOM      3  O   UNL A   1      38.827  20.730  25.202  1.00  0.00    -0.376 OA
BRANCH   3   4
ATOM      4  C   UNL A   1      37.577  21.256  25.618  1.00  0.00     0.202 C 
BRANCH   4   5
ATOM      5  C   UNL A   1      37.273  22.752  25.805  1.00  0.00     0.261 C 
BRANCH   5   6
ATOM      6  O   UNL A   1      36.050  23.268  25.251  1.00  0.00    -0.463 OA
BRANCH   6   7
ATOM      7  C   UNL A   1      35.612  22.641  24.138  1.00  0.00     0.310 C 
ATOM      8  O   UNL A   1      36.217  22.644  23.067  1.00  0.00    -0.252 OA
BRANCH   7   9
ATOM      9  C   UNL A   1      34.231  22.018  24.232  1.00  0.00     0.118 C 
BRANCH   9  10
ATOM     10  C   UNL A   1      33.920  20.884  25.234  1.00  0.00     0.020 C 
BRANCH  10  11
ATOM     11  C   UNL A   1      32.724  19.989  24.799  1.00  0.00    -0.017 C 
ATOM     12  C   UNL A   1      32.675  19.735  23.286  1.00  0.00     0.007 C 
ATOM     13  C   UNL A   1      32.769  18.637  25.516  1.00  0.00     0.007 C 
ENDBRANCH  10  11
ENDBRANCH   9  10
BRANCH   9  14
ATOM     14  C   UNL A   1      33.245  23.180  24.350  1.00  0.00     0.131 C 
BRANCH  14  15
ATOM     15  N   UNL A   1      32.613  23.226  25.661  1.00  0.00    -0.355 N 
ATOM     16  C   UNL A   1      32.039  24.288  26.298  1.00  0.00     0.225 C 
ATOM     17  H   UNL A   1      32.598  22.375  26.155  1.00  0.00     0.163 HD
ATOM     18  O   UNL A   1      31.779  24.175  27.496  1.00  0.00    -0.275 OA
BRANCH  16  19
ATOM     19  C   UNL A   1      31.768  25.562  25.511  1.00  0.00     0.106 C 
ATOM     20  C   UNL A   1      32.794  26.641  25.775  1.00  0.00     0.044 C 
ATOM     21  C   UNL A   1      30.479  26.222  25.975  1.00  0.00     0.173 C 
ATOM     22  C   UNL A   1      32.254  27.285  27.032  1.00  0.00     0.161 C 
ATOM     23  O   UNL A   1      30.826  27.254  26.910  1.00  0.00    -0.381 OA
ENDBRANCH  16  19
ENDBRANCH  14  15
ENDBRANCH   9  14
ENDBRANCH   7   9
ENDBRANCH   6   7
ENDBRANCH   5   6
ENDBRANCH   4   5
ENDBRANCH   3   4
ENDBRANCH   2   3
ENDBRANCH   1   2
BRANCH   1  24
ATOM     24  O   UNL A   1      42.079  20.414  26.855  1.00  0.00    -0.377 OA
BRANCH  24  25
ATOM     25  C   UNL A   1      42.891  20.738  25.732  1.00  0.00     0.188 C 
BRANCH  25  26
ATOM     26  C   UNL A   1      44.117  19.863  25.405  1.00  0.00     0.188 C 
BRANCH  26  27
ATOM     27  O   UNL A   1      45.034  20.458  24.503  1.00  0.00    -0.376 OA
BRANCH  27  28
ATOM     28  C   UNL A   1      46.084  21.264  25.018  1.00  0.00     0.202 C 
BRANCH  28  29
ATOM     29  C   UNL A   1      45.990  22.789  24.842  1.00  0.00     0.261 C 
BRANCH  29  30
ATOM     30  O   UNL A   1      45.015  23.477  25.646  1.00  0.00    -0.460 OA
BRANCH  30  31
ATOM     31  C   UNL A   1      43.840  23.821  25.087  1.00  0.00     0.338 C 
ATOM     32  O   UNL A   1      43.305  23.314  24.114  1.00  0.00    -0.246 OA
BRANCH  31  33
ATOM     33  C   UNL A   1      43.192  24.804  25.980  1.00  0.00     0.060 A 
ATOM     34  C   UNL A   1      43.635  26.134  25.968  1.00  0.00     0.016 A 
ATOM     35  C   UNL A   1      42.155  24.412  26.828  1.00  0.00     0.016 A 
ATOM     36  C   UNL A   1      43.063  27.069  26.831  1.00  0.00     0.010 A 
ATOM     37  C   UNL A   1      41.601  25.344  27.709  1.00  0.00     0.010 A 
ATOM     38  C   UNL A   1      42.075  26.668  27.737  1.00  0.00    -0.014 A 
BRANCH  38  39
ATOM     39  C   UNL A   1      41.670  27.569  28.844  1.00  0.00     0.031 A 
ATOM     40  C   UNL A   1      42.427  27.487  30.141  1.00  0.00     0.074 A 
ATOM     41  C   UNL A   1      40.655  28.439  28.706  1.00  0.00     0.049 A 
ATOM     42  N   UNL A   1      42.198  28.091  31.278  1.00  0.00    -0.248 NA
ATOM     43  C   UNL A   1      43.600  26.597  30.156  1.00  0.00     0.031 C 
ATOM     44  C   UNL A   1      39.878  28.648  27.488  1.00  0.00     0.029 A 
ATOM     45  N   UNL A   1      40.092  29.298  29.618  1.00  0.00    -0.354 N 
ATOM     46  C   UNL A   1      43.185  27.642  32.147  1.00  0.00     0.074 A 
ATOM     47  C   UNL A   1      44.000  26.699  31.414  1.00  0.00     0.031 C 
ATOM     48  C   UNL A   1      38.922  29.560  27.733  1.00  0.00     0.029 A 
ATOM     49  C   UNL A   1      38.994  29.967  29.136  1.00  0.00     0.049 A 
ATOM     50  H   UNL A   1      40.442  29.423  30.530  1.00  0.00     0.167 HD
ATOM     51  C   UNL A   1      43.393  27.988  33.439  1.00  0.00     0.037 A 
ATOM     52  C   UNL A   1      38.126  30.783  29.766  1.00  0.00     0.037 A 
ATOM     53  C   UNL A   1      42.579  28.927  34.163  1.00  0.00     0.049 A 
ATOM     54  C   UNL A   1      38.326  31.086  31.231  1.00  0.00     0.074 A 
ATOM     55  C   UNL A   1      42.723  29.365  35.467  1.00  0.00     0.029 A 
ATOM     56  N   UNL A   1      41.459  29.562  33.648  1.00  0.00    -0.354 N 
ATOM     57  N   UNL A   1      39.278  30.681  32.038  1.00  0.00    -0.248 NA
ATOM     58  C   UNL A   1      37.330  31.957  31.873  1.00  0.00     0.031 C 
ATOM     59  C   UNL A   1      41.653  30.216  35.763  1.00  0.00     0.029 A 
ATOM     60  C   UNL A   1      40.881  30.360  34.621  1.00  0.00     0.049 A 
ATOM     61  H   UNL A   1      41.125  29.462  32.728  1.00  0.00     0.167 HD
ATOM     62  C   UNL A   1      39.013  31.271  33.270  1.00  0.00     0.074 A 
ATOM     63  C   UNL A   1      37.819  32.072  33.100  1.00  0.00     0.031 C 
ATOM     64  C   UNL A   1      39.697  31.161  34.435  1.00  0.00     0.037 A 
BRANCH  51  65
ATOM     65  C   UNL A   1      44.522  27.316  34.166  1.00  0.00     0.057 A 
ATOM     66  C   UNL A   1      44.341  26.135  34.897  1.00  0.00     0.134 A 
ATOM     67  C   UNL A   1      45.819  27.843  34.100  1.00  0.00     0.134 A 
ATOM     68  F   UNL A   1      43.123  25.586  35.012  1.00  0.00    -0.206 F 
ATOM     69  C   UNL A   1      45.405  25.515  35.556  1.00  0.00     0.040 A 
ATOM     70  C   UNL A   1      46.895  27.216  34.730  1.00  0.00     0.040 A 
ATOM     71  F   UNL A   1      46.063  28.969  33.415  1.00  0.00    -0.206 F 
ATOM     72  C   UNL A   1      46.688  26.052  35.466  1.00  0.00     0.006 A 
ENDBRANCH  51  65
BRANCH  52  73
ATOM     73  C   UNL A   1      36.962  31.348  29.034  1.00  0.00     0.057 A 
ATOM     74  C   UNL A   1      36.946  32.682  28.613  1.00  0.00     0.134 A 
ATOM     75  C   UNL A   1      35.825  30.576  28.768  1.00  0.00     0.134 A 
ATOM     76  F   UNL A   1      37.994  33.482  28.861  1.00  0.00    -0.206 F 
ATOM     77  C   UNL A   1      35.834  33.235  27.973  1.00  0.00     0.040 A 
ATOM     78  C   UNL A   1      34.719  31.106  28.101  1.00  0.00     0.040 A 
ATOM     79  F   UNL A   1      35.773  29.291  29.149  1.00  0.00    -0.206 F 
ATOM     80  C   UNL A   1      34.718  32.443  27.711  1.00  0.00     0.006 A 
ENDBRANCH  52  73
BRANCH  64  81
ATOM     81  C   UNL A   1      39.201  31.953  35.612  1.00  0.00     0.057 A 
ATOM     82  C   UNL A   1      38.383  31.387  36.598  1.00  0.00     0.134 A 
ATOM     83  C   UNL A   1      39.600  33.285  35.792  1.00  0.00     0.134 A 
ATOM     84  F   UNL A   1      37.956  30.120  36.482  1.00  0.00    -0.206 F 
ATOM     85  C   UNL A   1      37.965  32.122  37.709  1.00  0.00     0.040 A 
ATOM     86  C   UNL A   1      39.215  34.019  36.913  1.00  0.00     0.040 A 
ATOM     87  F   UNL A   1      40.393  33.885  34.891  1.00  0.00    -0.206 F 
ATOM     88  C   UNL A   1      38.389  33.438  37.874  1.00  0.00     0.006 A 
ENDBRANCH  64  81
ENDBRANCH  38  39
ENDBRANCH  31  33
ENDBRANCH  30  31
ENDBRANCH  29  30
ENDBRANCH  28  29
ENDBRANCH  27  28
ENDBRANCH  26  27
ENDBRANCH  25  26
ENDBRANCH  24  25
ENDBRANCH   1  24
TORSDOF 25
ENDMDL
