MODEL 1
REMARK VINA RESULT:     -10.5      0.000      0.000
REMARK SMILES N#Cc1ccc(C[N@H+]2CCCC[C@H]2C(=O)OCCOCCOCCOCCOC(=O)c2ccc(-c3c4nc(c(-c5c(F)cccc5F)c5ccc([nH]5)c(-c5c(F)cccc5F)c5nc(c(-c6c(F)cccc6F)c6ccc3[nH]6)C=C5)C=C4)cc2)c(F)c1
REMARK SMILES IDX 21 1 20 2 19 3 18 4 17 5 16 6 14 7 15 8 13 9 8 10 9 11 10 13
REMARK SMILES IDX 12 14 11 15 7 16 6 17 3 18 4 19 87 20 5 21 85 22 86 23 2 24
REMARK SMILES IDX 1 25 22 26 23 27 24 28 25 29 26 30 27 31 28 32 29 33 30 34
REMARK SMILES IDX 31 35 32 36 84 37 33 38 83 39 34 40 35 41 36 42 77 43 37 44
REMARK SMILES IDX 82 45 76 46 78 47 38 48 81 49 75 50 74 51 39 53 65 54 48 55
REMARK SMILES IDX 64 56 49 57 52 58 63 59 79 60 50 61 51 62 62 64 80 65 53 66
REMARK SMILES IDX 40 67 41 68 46 69 42 70 43 71 45 72 47 73 44 74 66 75 67 76
REMARK SMILES IDX 72 77 68 78 69 79 71 80 73 81 70 82 54 83 55 84 60 85 56 86
REMARK SMILES IDX 57 87 59 88 61 89 58 90
REMARK H PARENT 8 12 78 52 52 63
REMARK Flexibility Score: inf
ROOT
ATOM      1  C   UNL A   1      34.364  34.111  28.038  1.00  0.00     0.188 C 
ENDROOT
BRANCH   1   2
ATOM      2  C   UNL A   1      33.997  32.654  28.235  1.00  0.00     0.188 C 
BRANCH   2   3
ATOM      3  O   UNL A   1      33.186  32.168  27.186  1.00  0.00    -0.376 OA
BRANCH   3   4
ATOM      4  C   UNL A   1      32.861  30.792  27.130  1.00  0.00     0.202 C 
BRANCH   4   5
ATOM      5  C   UNL A   1      32.165  30.056  25.930  1.00  0.00     0.261 C 
BRANCH   5   6
ATOM      6  O   UNL A   1      31.786  28.656  25.937  1.00  0.00    -0.459 OA
BRANCH   6   7
ATOM      7  C   UNL A   1      32.474  27.926  25.036  1.00  0.00     0.364 C 
ATOM      8  O   UNL A   1      33.401  28.469  24.463  1.00  0.00    -0.245 OA
BRANCH   7   9
ATOM      9  C   UNL A   1      32.015  26.477  24.735  1.00  0.00     0.295 C 
ATOM     10  N   UNL A   1      31.002  26.351  23.639  1.00  0.00    -0.319 N 
ATOM     11  C   UNL A   1      31.493  26.324  22.269  1.00  0.00     0.263 C 
ATOM     12  H   UNL A   1      30.788  25.372  23.828  1.00  0.00     0.349 HD
ATOM     13  C   UNL A   1      32.674  25.372  22.037  1.00  0.00     0.062 C 
ATOM     14  C   UNL A   1      33.139  25.437  24.548  1.00  0.00     0.078 C 
ATOM     15  C   UNL A   1      33.720  25.317  23.143  1.00  0.00     0.013 C 
BRANCH  10  16
ATOM     16  C   UNL A   1      29.641  26.915  23.819  1.00  0.00     0.302 C 
BRANCH  16  17
ATOM     17  C   UNL A   1      29.221  28.150  23.033  1.00  0.00     0.042 A 
ATOM     18  C   UNL A   1      28.505  30.760  22.242  1.00  0.00     0.055 A 
ATOM     19  C   UNL A   1      29.790  30.271  21.976  1.00  0.00     0.020 A 
ATOM     20  C   UNL A   1      27.528  29.894  22.735  1.00  0.00     0.059 A 
ATOM     21  C   UNL A   1      30.150  28.972  22.375  1.00  0.00     0.014 A 
ATOM     22  C   UNL A   1      27.884  28.587  23.088  1.00  0.00     0.133 A 
ATOM     23  F   UNL A   1      26.967  27.835  23.718  1.00  0.00    -0.206 F 
BRANCH  18  24
ATOM     24  C   UNL A   1      28.236  32.172  22.156  1.00  0.00     0.099 C 
ATOM     25  N   UNL A   1      28.005  33.297  22.028  1.00  0.00    -0.192 NA
ENDBRANCH  18  24
ENDBRANCH  16  17
ENDBRANCH  10  16
ENDBRANCH   7   9
ENDBRANCH   6   7
ENDBRANCH   5   6
ENDBRANCH   4   5
ENDBRANCH   3   4
ENDBRANCH   2   3
ENDBRANCH   1   2
BRANCH   1  26
ATOM     26  O   UNL A   1      34.028  35.023  29.068  1.00  0.00    -0.377 OA
BRANCH  26  27
ATOM     27  C   UNL A   1      34.221  34.596  30.403  1.00  0.00     0.188 C 
BRANCH  27  28
ATOM     28  C   UNL A   1      33.599  35.471  31.501  1.00  0.00     0.188 C 
BRANCH  28  29
ATOM     29  O   UNL A   1      34.400  35.926  32.587  1.00  0.00    -0.376 OA
BRANCH  29  30
ATOM     30  C   UNL A   1      35.634  35.291  32.885  1.00  0.00     0.202 C 
BRANCH  30  31
ATOM     31  C   UNL A   1      35.636  34.140  33.889  1.00  0.00     0.261 C 
BRANCH  31  32
ATOM     32  O   UNL A   1      36.362  32.985  33.458  1.00  0.00    -0.460 OA
BRANCH  32  33
ATOM     33  C   UNL A   1      35.683  32.144  32.641  1.00  0.00     0.338 C 
ATOM     34  O   UNL A   1      34.489  32.139  32.405  1.00  0.00    -0.246 OA
BRANCH  33  35
ATOM     35  C   UNL A   1      36.653  31.291  31.930  1.00  0.00     0.060 A 
ATOM     36  C   UNL A   1      37.487  30.433  32.664  1.00  0.00     0.016 A 
ATOM     37  C   UNL A   1      36.766  31.380  30.543  1.00  0.00     0.016 A 
ATOM     38  C   UNL A   1      38.476  29.701  32.018  1.00  0.00     0.010 A 
ATOM     39  C   UNL A   1      37.776  30.670  29.899  1.00  0.00     0.010 A 
ATOM     40  C   UNL A   1      38.662  29.870  30.643  1.00  0.00    -0.014 A 
BRANCH  40  41
ATOM     41  C   UNL A   1      39.917  29.408  30.016  1.00  0.00     0.031 A 
ATOM     42  C   UNL A   1      41.040  30.396  29.879  1.00  0.00     0.074 A 
ATOM     43  C   UNL A   1      40.051  28.145  29.587  1.00  0.00     0.049 A 
ATOM     44  N   UNL A   1      42.193  30.266  29.280  1.00  0.00    -0.248 NA
ATOM     45  C   UNL A   1      40.825  31.718  30.494  1.00  0.00     0.031 C 
ATOM     46  C   UNL A   1      39.046  27.093  29.724  1.00  0.00     0.029 A 
ATOM     47  N   UNL A   1      41.091  27.541  28.931  1.00  0.00    -0.354 N 
ATOM     48  C   UNL A   1      42.834  31.489  29.434  1.00  0.00     0.074 A 
ATOM     49  C   UNL A   1      41.926  32.362  30.144  1.00  0.00     0.031 C 
ATOM     50  C   UNL A   1      39.517  25.969  29.156  1.00  0.00     0.029 A 
ATOM     51  C   UNL A   1      40.833  26.240  28.581  1.00  0.00     0.049 A 
ATOM     52  H   UNL A   1      41.941  27.996  28.733  1.00  0.00     0.167 HD
ATOM     53  C   UNL A   1      44.074  31.847  29.025  1.00  0.00     0.037 A 
ATOM     54  C   UNL A   1      41.571  25.383  27.853  1.00  0.00     0.037 A 
ATOM     55  C   UNL A   1      44.961  30.971  28.308  1.00  0.00     0.049 A 
ATOM     56  C   UNL A   1      42.905  25.837  27.319  1.00  0.00     0.074 A 
ATOM     57  C   UNL A   1      46.240  31.224  27.848  1.00  0.00     0.029 A 
ATOM     58  N   UNL A   1      44.651  29.671  27.933  1.00  0.00    -0.354 N 
ATOM     59  N   UNL A   1      43.516  26.988  27.479  1.00  0.00    -0.248 NA
ATOM     60  C   UNL A   1      43.653  24.871  26.504  1.00  0.00     0.031 C 
ATOM     61  C   UNL A   1      46.678  30.103  27.137  1.00  0.00     0.029 A 
ATOM     62  C   UNL A   1      45.703  29.120  27.220  1.00  0.00     0.049 A 
ATOM     63  H   UNL A   1      43.807  29.207  28.145  1.00  0.00     0.167 HD
ATOM     64  C   UNL A   1      44.734  26.869  26.820  1.00  0.00     0.074 A 
ATOM     65  C   UNL A   1      44.778  25.529  26.269  1.00  0.00     0.031 C 
ATOM     66  C   UNL A   1      45.730  27.781  26.686  1.00  0.00     0.037 A 
BRANCH  53  67
ATOM     67  C   UNL A   1      44.516  33.254  29.310  1.00  0.00     0.057 A 
ATOM     68  C   UNL A   1      44.244  34.315  28.433  1.00  0.00     0.134 A 
ATOM     69  C   UNL A   1      45.221  33.556  30.482  1.00  0.00     0.134 A 
ATOM     70  F   UNL A   1      43.587  34.096  27.284  1.00  0.00    -0.206 F 
ATOM     71  C   UNL A   1      44.690  35.612  28.693  1.00  0.00     0.040 A 
ATOM     72  C   UNL A   1      45.640  34.857  30.770  1.00  0.00     0.040 A 
ATOM     73  F   UNL A   1      45.513  32.594  31.370  1.00  0.00    -0.206 F 
ATOM     74  C   UNL A   1      45.383  35.887  29.869  1.00  0.00     0.006 A 
ENDBRANCH  53  67
BRANCH  54  75
ATOM     75  C   UNL A   1      41.071  24.011  27.582  1.00  0.00     0.057 A 
ATOM     76  C   UNL A   1      41.616  22.902  28.242  1.00  0.00     0.134 A 
ATOM     77  C   UNL A   1      40.056  23.769  26.647  1.00  0.00     0.134 A 
ATOM     78  F   UNL A   1      42.604  23.067  29.133  1.00  0.00    -0.206 F 
ATOM     79  C   UNL A   1      41.189  21.603  27.965  1.00  0.00     0.040 A 
ATOM     80  C   UNL A   1      39.598  22.478  26.384  1.00  0.00     0.040 A 
ATOM     81  F   UNL A   1      39.488  24.786  25.984  1.00  0.00    -0.206 F 
ATOM     82  C   UNL A   1      40.172  21.389  27.036  1.00  0.00     0.006 A 
ENDBRANCH  54  75
BRANCH  66  83
ATOM     83  C   UNL A   1      46.974  27.345  25.962  1.00  0.00     0.057 A 
ATOM     84  C   UNL A   1      47.158  27.568  24.592  1.00  0.00     0.134 A 
ATOM     85  C   UNL A   1      48.021  26.728  26.662  1.00  0.00     0.134 A 
ATOM     86  F   UNL A   1      46.193  28.145  23.860  1.00  0.00    -0.206 F 
ATOM     87  C   UNL A   1      48.324  27.164  23.938  1.00  0.00     0.040 A 
ATOM     88  C   UNL A   1      49.204  26.354  26.027  1.00  0.00     0.040 A 
ATOM     89  F   UNL A   1      47.917  26.495  27.979  1.00  0.00    -0.206 F 
ATOM     90  C   UNL A   1      49.355  26.563  24.657  1.00  0.00     0.006 A 
ENDBRANCH  66  83
ENDBRANCH  40  41
ENDBRANCH  33  35
ENDBRANCH  32  33
ENDBRANCH  31  32
ENDBRANCH  30  31
ENDBRANCH  29  30
ENDBRANCH  28  29
ENDBRANCH  27  28
ENDBRANCH  26  27
ENDBRANCH   1  26
TORSDOF 23
ENDMDL
MODEL 2
REMARK VINA RESULT:     -10.0      3.433      8.731
REMARK SMILES N#Cc1ccc(C[N@H+]2CCCC[C@H]2C(=O)OCCOCCOCCOCCOC(=O)c2ccc(-c3c4nc(c(-c5c(F)cccc5F)c5ccc([nH]5)c(-c5c(F)cccc5F)c5nc(c(-c6c(F)cccc6F)c6ccc3[nH]6)C=C5)C=C4)cc2)c(F)c1
REMARK SMILES IDX 21 1 20 2 19 3 18 4 17 5 16 6 14 7 15 8 13 9 8 10 9 11 10 13
REMARK SMILES IDX 12 14 11 15 7 16 6 17 3 18 4 19 87 20 5 21 85 22 86 23 2 24
REMARK SMILES IDX 1 25 22 26 23 27 24 28 25 29 26 30 27 31 28 32 29 33 30 34
REMARK SMILES IDX 31 35 32 36 84 37 33 38 83 39 34 40 35 41 36 42 77 43 37 44
REMARK SMILES IDX 82 45 76 46 78 47 38 48 81 49 75 50 74 51 39 53 65 54 48 55
REMARK SMILES IDX 64 56 49 57 52 58 63 59 79 60 50 61 51 62 62 64 80 65 53 66
REMARK SMILES IDX 40 67 41 68 46 69 42 70 43 71 45 72 47 73 44 74 66 75 67 76
REMARK SMILES IDX 72 77 68 78 69 79 71 80 73 81 70 82 54 83 55 84 60 85 56 86
REMARK SMILES IDX 57 87 59 88 61 89 58 90
REMARK H PARENT 8 12 78 52 52 63
REMARK Flexibility Score: inf
ROOT
ATOM      1  C   UNL A   1      33.805  22.464  26.801  1.00  0.00     0.188 C 
ENDROOT
BRANCH   1   2
ATOM      2  C   UNL A   1      32.479  23.048  27.243  1.00  0.00     0.188 C 
BRANCH   2   3
ATOM      3  O   UNL A   1      31.401  22.542  26.486  1.00  0.00    -0.376 OA
BRANCH   3   4
ATOM      4  C   UNL A   1      30.870  23.309  25.421  1.00  0.00     0.202 C 
BRANCH   4   5
ATOM      5  C   UNL A   1      30.440  24.818  25.496  1.00  0.00     0.261 C 
BRANCH   5   6
ATOM      6  O   UNL A   1      30.346  25.700  24.348  1.00  0.00    -0.459 OA
BRANCH   6   7
ATOM      7  C   UNL A   1      30.758  26.954  24.621  1.00  0.00     0.364 C 
ATOM      8  O   UNL A   1      30.102  27.874  24.166  1.00  0.00    -0.245 OA
BRANCH   7   9
ATOM      9  C   UNL A   1      32.061  27.157  25.436  1.00  0.00     0.295 C 
ATOM     10  N   UNL A   1      33.034  28.126  24.837  1.00  0.00    -0.319 N 
ATOM     11  C   UNL A   1      32.823  29.541  25.101  1.00  0.00     0.263 C 
ATOM     12  H   UNL A   1      33.798  27.883  25.468  1.00  0.00     0.349 HD
ATOM     13  C   UNL A   1      32.548  29.878  26.573  1.00  0.00     0.062 C 
ATOM     14  C   UNL A   1      31.880  27.440  26.941  1.00  0.00     0.078 C 
ATOM     15  C   UNL A   1      31.662  28.898  27.332  1.00  0.00     0.013 C 
BRANCH  10  16
ATOM     16  C   UNL A   1      33.699  27.807  23.549  1.00  0.00     0.302 C 
BRANCH  16  17
ATOM     17  C   UNL A   1      33.697  26.376  23.028  1.00  0.00     0.042 A 
ATOM     18  C   UNL A   1      33.090  23.674  22.492  1.00  0.00     0.055 A 
ATOM     19  C   UNL A   1      32.766  24.668  21.559  1.00  0.00     0.020 A 
ATOM     20  C   UNL A   1      33.873  24.002  23.600  1.00  0.00     0.059 A 
ATOM     21  C   UNL A   1      33.062  26.015  21.828  1.00  0.00     0.014 A 
ATOM     22  C   UNL A   1      34.203  25.341  23.837  1.00  0.00     0.133 A 
ATOM     23  F   UNL A   1      34.807  25.643  24.998  1.00  0.00    -0.206 F 
BRANCH  18  24
ATOM     24  C   UNL A   1      32.497  22.367  22.393  1.00  0.00     0.099 C 
ATOM     25  N   UNL A   1      32.074  21.294  22.326  1.00  0.00    -0.192 NA
ENDBRANCH  18  24
ENDBRANCH  16  17
ENDBRANCH  10  16
ENDBRANCH   7   9
ENDBRANCH   6   7
ENDBRANCH   5   6
ENDBRANCH   4   5
ENDBRANCH   3   4
ENDBRANCH   2   3
ENDBRANCH   1   2
BRANCH   1  26
ATOM     26  O   UNL A   1      33.854  21.078  26.512  1.00  0.00    -0.377 OA
BRANCH  26  27
ATOM     27  C   UNL A   1      34.484  20.687  25.307  1.00  0.00     0.188 C 
BRANCH  27  28
ATOM     28  C   UNL A   1      35.736  21.477  24.899  1.00  0.00     0.188 C 
BRANCH  28  29
ATOM     29  O   UNL A   1      37.018  21.072  25.370  1.00  0.00    -0.376 OA
BRANCH  29  30
ATOM     30  C   UNL A   1      37.535  19.793  25.036  1.00  0.00     0.202 C 
BRANCH  30  31
ATOM     31  C   UNL A   1      39.033  19.547  25.204  1.00  0.00     0.261 C 
BRANCH  31  32
ATOM     32  O   UNL A   1      39.536  19.848  26.508  1.00  0.00    -0.460 OA
BRANCH  32  33
ATOM     33  C   UNL A   1      40.837  20.222  26.557  1.00  0.00     0.338 C 
ATOM     34  O   UNL A   1      41.804  19.603  26.153  1.00  0.00    -0.246 OA
BRANCH  33  35
ATOM     35  C   UNL A   1      40.912  21.608  27.054  1.00  0.00     0.060 A 
ATOM     36  C   UNL A   1      40.146  22.607  26.432  1.00  0.00     0.016 A 
ATOM     37  C   UNL A   1      41.777  21.923  28.101  1.00  0.00     0.016 A 
ATOM     38  C   UNL A   1      40.285  23.934  26.820  1.00  0.00     0.010 A 
ATOM     39  C   UNL A   1      41.939  23.255  28.469  1.00  0.00     0.010 A 
ATOM     40  C   UNL A   1      41.229  24.265  27.794  1.00  0.00    -0.014 A 
BRANCH  40  41
ATOM     41  C   UNL A   1      41.655  25.671  27.948  1.00  0.00     0.031 A 
ATOM     42  C   UNL A   1      43.000  26.062  27.405  1.00  0.00     0.074 A 
ATOM     43  C   UNL A   1      40.864  26.572  28.549  1.00  0.00     0.049 A 
ATOM     44  N   UNL A   1      43.639  27.197  27.503  1.00  0.00    -0.248 NA
ATOM     45  C   UNL A   1      43.730  25.021  26.659  1.00  0.00     0.031 C 
ATOM     46  C   UNL A   1      39.519  26.311  29.057  1.00  0.00     0.029 A 
ATOM     47  N   UNL A   1      41.092  27.890  28.844  1.00  0.00    -0.354 N 
ATOM     48  C   UNL A   1      44.847  27.004  26.844  1.00  0.00     0.074 A 
ATOM     49  C   UNL A   1      44.872  25.632  26.389  1.00  0.00     0.031 C 
ATOM     50  C   UNL A   1      39.043  27.438  29.616  1.00  0.00     0.029 A 
ATOM     51  C   UNL A   1      40.068  28.478  29.540  1.00  0.00     0.049 A 
ATOM     52  H   UNL A   1      41.911  28.368  28.581  1.00  0.00     0.167 HD
ATOM     53  C   UNL A   1      45.842  27.897  26.632  1.00  0.00     0.037 A 
ATOM     54  C   UNL A   1      39.987  29.709  30.076  1.00  0.00     0.037 A 
ATOM     55  C   UNL A   1      45.807  29.255  27.103  1.00  0.00     0.049 A 
ATOM     56  C   UNL A   1      41.151  30.653  29.917  1.00  0.00     0.074 A 
ATOM     57  C   UNL A   1      46.756  30.249  26.943  1.00  0.00     0.029 A 
ATOM     58  N   UNL A   1      44.770  29.807  27.841  1.00  0.00    -0.354 N 
ATOM     59  N   UNL A   1      42.285  30.475  29.281  1.00  0.00    -0.248 NA
ATOM     60  C   UNL A   1      41.021  31.972  30.550  1.00  0.00     0.031 C 
ATOM     61  C   UNL A   1      46.323  31.380  27.641  1.00  0.00     0.029 A 
ATOM     62  C   UNL A   1      45.069  31.118  28.172  1.00  0.00     0.049 A 
ATOM     63  H   UNL A   1      43.941  29.336  28.092  1.00  0.00     0.167 HD
ATOM     64  C   UNL A   1      42.984  31.670  29.402  1.00  0.00     0.074 A 
ATOM     65  C   UNL A   1      42.140  32.568  30.164  1.00  0.00     0.031 C 
ATOM     66  C   UNL A   1      44.211  31.999  28.925  1.00  0.00     0.037 A 
BRANCH  53  67
ATOM     67  C   UNL A   1      47.060  27.412  25.897  1.00  0.00     0.057 A 
ATOM     68  C   UNL A   1      47.166  27.483  24.500  1.00  0.00     0.134 A 
ATOM     69  C   UNL A   1      48.145  26.870  26.596  1.00  0.00     0.134 A 
ATOM     70  F   UNL A   1      46.157  27.977  23.765  1.00  0.00    -0.206 F 
ATOM     71  C   UNL A   1      48.288  26.998  23.826  1.00  0.00     0.040 A 
ATOM     72  C   UNL A   1      49.288  26.415  25.936  1.00  0.00     0.040 A 
ATOM     73  F   UNL A   1      48.116  26.774  27.934  1.00  0.00    -0.206 F 
ATOM     74  C   UNL A   1      49.357  26.469  24.545  1.00  0.00     0.006 A 
ENDBRANCH  53  67
BRANCH  54  75
ATOM     75  C   UNL A   1      38.767  30.124  30.814  1.00  0.00     0.057 A 
ATOM     76  C   UNL A   1      37.732  30.810  30.167  1.00  0.00     0.134 A 
ATOM     77  C   UNL A   1      38.611  29.867  32.182  1.00  0.00     0.134 A 
ATOM     78  F   UNL A   1      37.830  31.103  28.862  1.00  0.00    -0.206 F 
ATOM     79  C   UNL A   1      36.600  31.246  30.856  1.00  0.00     0.040 A 
ATOM     80  C   UNL A   1      37.471  30.270  32.877  1.00  0.00     0.040 A 
ATOM     81  F   UNL A   1      39.563  29.209  32.861  1.00  0.00    -0.206 F 
ATOM     82  C   UNL A   1      36.466  30.972  32.215  1.00  0.00     0.006 A 
ENDBRANCH  54  75
BRANCH  66  83
ATOM     83  C   UNL A   1      44.691  33.404  29.163  1.00  0.00     0.057 A 
ATOM     84  C   UNL A   1      45.473  33.749  30.273  1.00  0.00     0.134 A 
ATOM     85  C   UNL A   1      44.398  34.418  28.241  1.00  0.00     0.134 A 
ATOM     86  F   UNL A   1      45.782  32.830  31.200  1.00  0.00    -0.206 F 
ATOM     87  C   UNL A   1      45.918  35.057  30.473  1.00  0.00     0.040 A 
ATOM     88  C   UNL A   1      44.868  35.720  28.411  1.00  0.00     0.040 A 
ATOM     89  F   UNL A   1      43.665  34.156  27.148  1.00  0.00    -0.206 F 
ATOM     90  C   UNL A   1      45.623  36.045  29.536  1.00  0.00     0.006 A 
ENDBRANCH  66  83
ENDBRANCH  40  41
ENDBRANCH  33  35
ENDBRANCH  32  33
ENDBRANCH  31  32
ENDBRANCH  30  31
ENDBRANCH  29  30
ENDBRANCH  28  29
ENDBRANCH  27  28
ENDBRANCH  26  27
ENDBRANCH   1  26
TORSDOF 23
ENDMDL
MODEL 3
REMARK VINA RESULT:     -10.0      5.288     10.680
REMARK SMILES N#Cc1ccc(C[N@H+]2CCCC[C@H]2C(=O)OCCOCCOCCOCCOC(=O)c2ccc(-c3c4nc(c(-c5c(F)cccc5F)c5ccc([nH]5)c(-c5c(F)cccc5F)c5nc(c(-c6c(F)cccc6F)c6ccc3[nH]6)C=C5)C=C4)cc2)c(F)c1
REMARK SMILES IDX 21 1 20 2 19 3 18 4 17 5 16 6 14 7 15 8 13 9 8 10 9 11 10 13
REMARK SMILES IDX 12 14 11 15 7 16 6 17 3 18 4 19 87 20 5 21 85 22 86 23 2 24
REMARK SMILES IDX 1 25 22 26 23 27 24 28 25 29 26 30 27 31 28 32 29 33 30 34
REMARK SMILES IDX 31 35 32 36 84 37 33 38 83 39 34 40 35 41 36 42 77 43 37 44
REMARK SMILES IDX 82 45 76 46 78 47 38 48 81 49 75 50 74 51 39 53 65 54 48 55
REMARK SMILES IDX 64 56 49 57 52 58 63 59 79 60 50 61 51 62 62 64 80 65 53 66
REMARK SMILES IDX 40 67 41 68 46 69 42 70 43 71 45 72 47 73 44 74 66 75 67 76
REMARK SMILES IDX 72 77 68 78 69 79 71 80 73 81 70 82 54 83 55 84 60 85 56 86
REMARK SMILES IDX 57 87 59 88 61 89 58 90
REMARK H PARENT 8 12 78 52 52 63
REMARK Flexibility Score: inf
ROOT
ATOM      1  C   UNL A   1      37.599  21.154  25.223  1.00  0.00     0.188 C 
ENDROOT
BRANCH   1   2
ATOM      2  C   UNL A   1      37.406  22.473  25.942  1.00  0.00     0.188 C 
BRANCH   2   3
ATOM      3  O   UNL A   1      36.917  23.478  25.079  1.00  0.00    -0.376 OA
BRANCH   3   4
ATOM      4  C   UNL A   1      35.589  23.945  25.227  1.00  0.00     0.202 C 
BRANCH   4   5
ATOM      5  C   UNL A   1      34.675  24.503  24.078  1.00  0.00     0.261 C 
BRANCH   5   6
ATOM      6  O   UNL A   1      34.165  23.706  22.979  1.00  0.00    -0.459 OA
BRANCH   6   7
ATOM      7  C   UNL A   1      33.039  24.220  22.443  1.00  0.00     0.364 C 
ATOM      8  O   UNL A   1      33.147  25.224  21.762  1.00  0.00    -0.245 OA
BRANCH   7   9
ATOM      9  C   UNL A   1      31.678  23.553  22.770  1.00  0.00     0.295 C 
ATOM     10  N   UNL A   1      31.777  22.214  23.435  1.00  0.00    -0.319 N 
ATOM     11  C   UNL A   1      31.969  22.192  24.877  1.00  0.00     0.263 C 
ATOM     12  H   UNL A   1      30.787  21.991  23.329  1.00  0.00     0.349 HD
ATOM     13  C   UNL A   1      31.032  23.123  25.657  1.00  0.00     0.062 C 
ATOM     14  C   UNL A   1      30.649  24.440  23.501  1.00  0.00     0.078 C 
ATOM     15  C   UNL A   1      30.753  24.481  25.022  1.00  0.00     0.013 C 
BRANCH  10  16
ATOM     16  C   UNL A   1      32.347  21.060  22.696  1.00  0.00     0.302 C 
BRANCH  16  17
ATOM     17  C   UNL A   1      32.426  19.695  23.364  1.00  0.00     0.042 A 
ATOM     18  C   UNL A   1      33.283  17.215  24.399  1.00  0.00     0.055 A 
ATOM     19  C   UNL A   1      33.091  18.307  25.255  1.00  0.00     0.020 A 
ATOM     20  C   UNL A   1      32.876  17.306  23.067  1.00  0.00     0.059 A 
ATOM     21  C   UNL A   1      32.670  19.545  24.739  1.00  0.00     0.014 A 
ATOM     22  C   UNL A   1      32.415  18.531  22.572  1.00  0.00     0.133 A 
ATOM     23  F   UNL A   1      32.196  18.632  21.251  1.00  0.00    -0.206 F 
BRANCH  18  24
ATOM     24  C   UNL A   1      34.029  16.068  24.846  1.00  0.00     0.099 C 
ATOM     25  N   UNL A   1      34.627  15.171  25.260  1.00  0.00    -0.192 NA
ENDBRANCH  18  24
ENDBRANCH  16  17
ENDBRANCH  10  16
ENDBRANCH   7   9
ENDBRANCH   6   7
ENDBRANCH   5   6
ENDBRANCH   4   5
ENDBRANCH   3   4
ENDBRANCH   2   3
ENDBRANCH   1   2
BRANCH   1  26
ATOM     26  O   UNL A   1      38.871  20.535  25.305  1.00  0.00    -0.377 OA
BRANCH  26  27
ATOM     27  C   UNL A   1      39.840  21.149  26.133  1.00  0.00     0.188 C 
BRANCH  27  28
ATOM     28  C   UNL A   1      40.671  20.216  27.026  1.00  0.00     0.188 C 
BRANCH  28  29
ATOM     29  O   UNL A   1      42.093  20.237  26.948  1.00  0.00    -0.376 OA
BRANCH  29  30
ATOM     30  C   UNL A   1      42.810  21.430  27.222  1.00  0.00     0.202 C 
BRANCH  30  31
ATOM     31  C   UNL A   1      43.976  21.805  26.310  1.00  0.00     0.261 C 
BRANCH  31  32
ATOM     32  O   UNL A   1      44.314  23.195  26.329  1.00  0.00    -0.460 OA
BRANCH  32  33
ATOM     33  C   UNL A   1      43.623  23.972  25.461  1.00  0.00     0.338 C 
ATOM     34  O   UNL A   1      43.460  23.792  24.268  1.00  0.00    -0.246 OA
BRANCH  33  35
ATOM     35  C   UNL A   1      42.938  25.035  26.221  1.00  0.00     0.060 A 
ATOM     36  C   UNL A   1      43.538  26.299  26.333  1.00  0.00     0.016 A 
ATOM     37  C   UNL A   1      41.729  24.760  26.860  1.00  0.00     0.016 A 
ATOM     38  C   UNL A   1      42.957  27.277  27.132  1.00  0.00     0.010 A 
ATOM     39  C   UNL A   1      41.163  25.729  27.683  1.00  0.00     0.010 A 
ATOM     40  C   UNL A   1      41.804  26.969  27.858  1.00  0.00    -0.014 A 
BRANCH  40  41
ATOM     41  C   UNL A   1      41.393  27.841  28.977  1.00  0.00     0.031 A 
ATOM     42  C   UNL A   1      42.157  27.736  30.267  1.00  0.00     0.074 A 
ATOM     43  C   UNL A   1      40.375  28.703  28.845  1.00  0.00     0.049 A 
ATOM     44  N   UNL A   1      41.931  28.314  31.416  1.00  0.00    -0.248 NA
ATOM     45  C   UNL A   1      43.331  26.846  30.259  1.00  0.00     0.031 C 
ATOM     46  C   UNL A   1      39.607  28.925  27.622  1.00  0.00     0.029 A 
ATOM     47  N   UNL A   1      39.804  29.542  29.765  1.00  0.00    -0.354 N 
ATOM     48  C   UNL A   1      42.923  27.848  32.270  1.00  0.00     0.074 A 
ATOM     49  C   UNL A   1      43.726  26.908  31.520  1.00  0.00     0.031 C 
ATOM     50  C   UNL A   1      38.652  29.838  27.871  1.00  0.00     0.029 A 
ATOM     51  C   UNL A   1      38.719  30.226  29.279  1.00  0.00     0.049 A 
ATOM     52  H   UNL A   1      40.141  29.646  30.684  1.00  0.00     0.167 HD
ATOM     53  C   UNL A   1      43.148  28.183  33.562  1.00  0.00     0.037 A 
ATOM     54  C   UNL A   1      37.864  31.048  29.915  1.00  0.00     0.037 A 
ATOM     55  C   UNL A   1      42.331  29.110  34.298  1.00  0.00     0.049 A 
ATOM     56  C   UNL A   1      38.072  31.326  31.382  1.00  0.00     0.074 A 
ATOM     57  C   UNL A   1      42.467  29.528  35.609  1.00  0.00     0.029 A 
ATOM     58  N   UNL A   1      41.214  29.755  33.786  1.00  0.00    -0.354 N 
ATOM     59  N   UNL A   1      39.020  30.897  32.182  1.00  0.00    -0.248 NA
ATOM     60  C   UNL A   1      37.091  32.204  32.032  1.00  0.00     0.031 C 
ATOM     61  C   UNL A   1      41.394  30.371  35.911  1.00  0.00     0.029 A 
ATOM     62  C   UNL A   1      40.632  30.542  34.765  1.00  0.00     0.049 A 
ATOM     63  H   UNL A   1      40.884  29.666  32.862  1.00  0.00     0.167 HD
ATOM     64  C   UNL A   1      38.772  31.486  33.417  1.00  0.00     0.074 A 
ATOM     65  C   UNL A   1      37.591  32.309  33.254  1.00  0.00     0.031 C 
ATOM     66  C   UNL A   1      39.459  31.361  34.581  1.00  0.00     0.037 A 
BRANCH  53  67
ATOM     67  C   UNL A   1      44.294  27.508  34.262  1.00  0.00     0.057 A 
ATOM     68  C   UNL A   1      44.202  26.196  34.751  1.00  0.00     0.134 A 
ATOM     69  C   UNL A   1      45.510  28.178  34.446  1.00  0.00     0.134 A 
ATOM     70  F   UNL A   1      43.061  25.501  34.623  1.00  0.00    -0.206 F 
ATOM     71  C   UNL A   1      45.262  25.593  35.429  1.00  0.00     0.040 A 
ATOM     72  C   UNL A   1      46.589  27.571  35.091  1.00  0.00     0.040 A 
ATOM     73  F   UNL A   1      45.672  29.433  34.001  1.00  0.00    -0.206 F 
ATOM     74  C   UNL A   1      46.463  26.278  35.594  1.00  0.00     0.006 A 
ENDBRANCH  53  67
BRANCH  54  75
ATOM     75  C   UNL A   1      36.734  31.667  29.177  1.00  0.00     0.057 A 
ATOM     76  C   UNL A   1      36.775  33.014  28.796  1.00  0.00     0.134 A 
ATOM     77  C   UNL A   1      35.581  30.941  28.852  1.00  0.00     0.134 A 
ATOM     78  F   UNL A   1      37.842  33.767  29.095  1.00  0.00    -0.206 F 
ATOM     79  C   UNL A   1      35.702  33.622  28.142  1.00  0.00     0.040 A 
ATOM     80  C   UNL A   1      34.515  31.528  28.171  1.00  0.00     0.040 A 
ATOM     81  F   UNL A   1      35.480  29.645  29.183  1.00  0.00    -0.206 F 
ATOM     82  C   UNL A   1      34.569  32.876  27.823  1.00  0.00     0.006 A 
ENDBRANCH  54  75
BRANCH  66  83
ATOM     83  C   UNL A   1      38.986  32.176  35.753  1.00  0.00     0.057 A 
ATOM     84  C   UNL A   1      38.181  31.634  36.763  1.00  0.00     0.134 A 
ATOM     85  C   UNL A   1      39.382  33.514  35.892  1.00  0.00     0.134 A 
ATOM     86  F   UNL A   1      37.758  30.363  36.688  1.00  0.00    -0.206 F 
ATOM     87  C   UNL A   1      37.758  32.402  37.849  1.00  0.00     0.040 A 
ATOM     88  C   UNL A   1      38.997  34.280  36.991  1.00  0.00     0.040 A 
ATOM     89  F   UNL A   1      40.164  34.093  34.969  1.00  0.00    -0.206 F 
ATOM     90  C   UNL A   1      38.173  33.727  37.970  1.00  0.00     0.006 A 
ENDBRANCH  66  83
ENDBRANCH  40  41
ENDBRANCH  33  35
ENDBRANCH  32  33
ENDBRANCH  31  32
ENDBRANCH  30  31
ENDBRANCH  29  30
ENDBRANCH  28  29
ENDBRANCH  27  28
ENDBRANCH  26  27
ENDBRANCH   1  26
TORSDOF 23
ENDMDL
