MODEL 1
REMARK VINA RESULT:     -10.6      0.000      0.000
REMARK SMILES Nc1c(CC(=O)OCCOCCOCCOCCOC(=O)c2ccc(-c3c4nc(c(-c5c(F)cccc5F)c5ccc([nH]5)c(-c5c(F)cccc5F)c5nc(c(-c6c(F)cccc6F)c6ccc3[nH]6)C=C5)C=C4)cc2)cccc1C(=O)c1ccc(Br)cc1
REMARK SMILES IDX 12 1 11 2 10 3 9 4 8 5 7 6 5 7 6 8 4 9 3 10 2 11 79 12 76 13
REMARK SMILES IDX 78 14 77 15 1 16 80 19 81 20 82 21 83 22 88 23 84 24 87 25
REMARK SMILES IDX 85 26 86 27 13 28 14 29 15 30 16 31 17 32 18 33 19 34 20 35
REMARK SMILES IDX 21 36 22 37 23 38 75 39 24 40 74 41 25 42 26 43 27 44 68 45
REMARK SMILES IDX 28 46 73 47 67 48 69 49 29 50 72 51 66 52 65 53 30 55 56 56
REMARK SMILES IDX 39 57 55 58 40 59 43 60 54 61 70 62 41 63 42 64 53 66 71 67
REMARK SMILES IDX 44 68 31 69 32 70 37 71 33 72 34 73 36 74 38 75 35 76 57 77
REMARK SMILES IDX 58 78 63 79 59 80 60 81 62 82 64 83 61 84 45 85 46 86 51 87
REMARK SMILES IDX 47 88 48 89 50 90 52 91 49 92
REMARK H PARENT 1 17 1 18 69 54 43 65
REMARK Flexibility Score: inf
ROOT
ATOM      1  C   UNL A   1      34.403  30.989  27.507  1.00  0.00     0.188 C 
ENDROOT
BRANCH   1   2
ATOM      2  C   UNL A   1      32.882  30.784  27.302  1.00  0.00     0.188 C 
BRANCH   2   3
ATOM      3  O   UNL A   1      32.347  30.341  26.056  1.00  0.00    -0.376 OA
BRANCH   3   4
ATOM      4  C   UNL A   1      33.163  29.591  25.174  1.00  0.00     0.202 C 
BRANCH   4   5
ATOM      5  C   UNL A   1      32.477  28.969  23.943  1.00  0.00     0.261 C 
BRANCH   5   6
ATOM      6  O   UNL A   1      31.087  28.614  24.127  1.00  0.00    -0.463 OA
BRANCH   6   7
ATOM      7  C   UNL A   1      30.471  27.965  23.113  1.00  0.00     0.310 C 
ATOM      8  O   UNL A   1      30.114  28.518  22.075  1.00  0.00    -0.252 OA
BRANCH   7   9
ATOM      9  C   UNL A   1      30.303  26.463  23.285  1.00  0.00     0.160 C 
BRANCH   9  10
ATOM     10  C   UNL A   1      31.487  25.522  23.483  1.00  0.00    -0.013 A 
ATOM     11  C   UNL A   1      31.501  24.509  24.469  1.00  0.00     0.047 A 
ATOM     12  C   UNL A   1      32.575  23.572  24.464  1.00  0.00     0.046 A 
ATOM     13  C   UNL A   1      32.583  25.624  22.592  1.00  0.00     0.006 A 
ATOM     14  C   UNL A   1      33.678  23.746  23.613  1.00  0.00     0.014 A 
ATOM     15  C   UNL A   1      33.685  24.776  22.685  1.00  0.00     0.001 A 
BRANCH  11  16
ATOM     16  N   UNL A   1      30.433  24.411  25.356  1.00  0.00    -0.398 N 
ATOM     17  H   UNL A   1      30.522  24.757  26.274  1.00  0.00     0.156 HD
ATOM     18  H   UNL A   1      29.589  23.995  25.067  1.00  0.00     0.156 HD
ENDBRANCH  11  16
BRANCH  12  19
ATOM     19  C   UNL A   1      32.612  22.326  25.294  1.00  0.00     0.195 C 
ATOM     20  O   UNL A   1      32.310  22.358  26.484  1.00  0.00    -0.289 OA
BRANCH  19  21
ATOM     21  C   UNL A   1      33.026  21.033  24.703  1.00  0.00     0.023 A 
ATOM     22  C   UNL A   1      34.238  20.475  25.124  1.00  0.00     0.013 A 
ATOM     23  C   UNL A   1      32.182  20.329  23.836  1.00  0.00     0.013 A 
ATOM     24  C   UNL A   1      34.556  19.166  24.759  1.00  0.00     0.016 A 
ATOM     25  C   UNL A   1      32.501  19.019  23.476  1.00  0.00     0.016 A 
ATOM     26  C   UNL A   1      33.674  18.438  23.959  1.00  0.00     0.018 A 
ATOM     27  Br  UNL A   1      34.052  16.630  23.559  1.00  0.00    -0.051 Br
ENDBRANCH  19  21
ENDBRANCH  12  19
ENDBRANCH   9  10
ENDBRANCH   7   9
ENDBRANCH   6   7
ENDBRANCH   5   6
ENDBRANCH   4   5
ENDBRANCH   3   4
ENDBRANCH   2   3
ENDBRANCH   1   2
BRANCH   1  28
ATOM     28  O   UNL A   1      34.818  32.343  27.563  1.00  0.00    -0.377 OA
BRANCH  28  29
ATOM     29  C   UNL A   1      33.966  33.187  28.312  1.00  0.00     0.188 C 
BRANCH  29  30
ATOM     30  C   UNL A   1      34.375  33.328  29.785  1.00  0.00     0.188 C 
BRANCH  30  31
ATOM     31  O   UNL A   1      33.715  34.415  30.424  1.00  0.00    -0.376 OA
BRANCH  31  32
ATOM     32  C   UNL A   1      34.035  34.744  31.764  1.00  0.00     0.202 C 
BRANCH  32  33
ATOM     33  C   UNL A   1      34.201  33.613  32.793  1.00  0.00     0.261 C 
BRANCH  33  34
ATOM     34  O   UNL A   1      35.005  32.490  32.406  1.00  0.00    -0.460 OA
BRANCH  34  35
ATOM     35  C   UNL A   1      36.125  32.255  33.117  1.00  0.00     0.338 C 
ATOM     36  O   UNL A   1      36.308  32.511  34.297  1.00  0.00    -0.246 OA
BRANCH  35  37
ATOM     37  C   UNL A   1      37.033  31.428  32.291  1.00  0.00     0.060 A 
ATOM     38  C   UNL A   1      38.143  30.845  32.917  1.00  0.00     0.016 A 
ATOM     39  C   UNL A   1      36.797  31.212  30.930  1.00  0.00     0.016 A 
ATOM     40  C   UNL A   1      39.050  30.095  32.175  1.00  0.00     0.010 A 
ATOM     41  C   UNL A   1      37.728  30.484  30.177  1.00  0.00     0.010 A 
ATOM     42  C   UNL A   1      38.883  29.967  30.789  1.00  0.00    -0.014 A 
BRANCH  42  43
ATOM     43  C   UNL A   1      40.049  29.531  29.984  1.00  0.00     0.031 A 
ATOM     44  C   UNL A   1      41.177  30.511  29.792  1.00  0.00     0.074 A 
ATOM     45  C   UNL A   1      40.161  28.273  29.525  1.00  0.00     0.049 A 
ATOM     46  N   UNL A   1      42.327  30.354  29.187  1.00  0.00    -0.248 NA
ATOM     47  C   UNL A   1      40.982  31.851  30.371  1.00  0.00     0.031 C 
ATOM     48  C   UNL A   1      39.164  27.219  29.693  1.00  0.00     0.029 A 
ATOM     49  N   UNL A   1      41.179  27.668  28.830  1.00  0.00    -0.354 N 
ATOM     50  C   UNL A   1      42.986  31.571  29.314  1.00  0.00     0.074 A 
ATOM     51  C   UNL A   1      42.096  32.468  30.014  1.00  0.00     0.031 C 
ATOM     52  C   UNL A   1      39.620  26.093  29.115  1.00  0.00     0.029 A 
ATOM     53  C   UNL A   1      40.927  26.355  28.516  1.00  0.00     0.049 A 
ATOM     54  H   UNL A   1      42.010  28.132  28.581  1.00  0.00     0.167 HD
ATOM     55  C   UNL A   1      44.229  31.908  28.895  1.00  0.00     0.037 A 
ATOM     56  C   UNL A   1      41.667  25.475  27.813  1.00  0.00     0.037 A 
ATOM     57  C   UNL A   1      45.111  31.015  28.193  1.00  0.00     0.049 A 
ATOM     58  C   UNL A   1      43.015  25.900  27.286  1.00  0.00     0.074 A 
ATOM     59  C   UNL A   1      46.392  31.257  27.731  1.00  0.00     0.029 A 
ATOM     60  N   UNL A   1      44.797  29.711  27.843  1.00  0.00    -0.354 N 
ATOM     61  N   UNL A   1      43.641  27.043  27.430  1.00  0.00    -0.248 NA
ATOM     62  C   UNL A   1      43.762  24.905  26.505  1.00  0.00     0.031 C 
ATOM     63  C   UNL A   1      46.830  30.117  27.047  1.00  0.00     0.029 A 
ATOM     64  C   UNL A   1      45.849  29.144  27.143  1.00  0.00     0.049 A 
ATOM     65  H   UNL A   1      43.952  29.256  28.060  1.00  0.00     0.167 HD
ATOM     66  C   UNL A   1      44.864  26.896  26.787  1.00  0.00     0.074 A 
ATOM     67  C   UNL A   1      44.899  25.543  26.269  1.00  0.00     0.031 C 
ATOM     68  C   UNL A   1      45.868  27.795  26.634  1.00  0.00     0.037 A 
BRANCH  55  69
ATOM     69  C   UNL A   1      44.686  33.315  29.156  1.00  0.00     0.057 A 
ATOM     70  C   UNL A   1      44.439  34.359  28.256  1.00  0.00     0.134 A 
ATOM     71  C   UNL A   1      45.373  33.631  30.336  1.00  0.00     0.134 A 
ATOM     72  F   UNL A   1      43.804  34.122  27.097  1.00  0.00    -0.206 F 
ATOM     73  C   UNL A   1      44.880  35.661  28.506  1.00  0.00     0.040 A 
ATOM     74  C   UNL A   1      45.792  34.933  30.611  1.00  0.00     0.040 A 
ATOM     75  F   UNL A   1      45.643  32.680  31.242  1.00  0.00    -0.206 F 
ATOM     76  C   UNL A   1      45.553  35.951  29.690  1.00  0.00     0.006 A 
ENDBRANCH  55  69
BRANCH  56  77
ATOM     77  C   UNL A   1      41.151  24.106  27.550  1.00  0.00     0.057 A 
ATOM     78  C   UNL A   1      40.129  23.875  26.622  1.00  0.00     0.134 A 
ATOM     79  C   UNL A   1      41.645  22.998  28.250  1.00  0.00     0.134 A 
ATOM     80  F   UNL A   1      39.595  24.897  25.937  1.00  0.00    -0.206 F 
ATOM     81  C   UNL A   1      39.601  22.599  26.416  1.00  0.00     0.040 A 
ATOM     82  C   UNL A   1      41.147  21.712  28.034  1.00  0.00     0.040 A 
ATOM     83  F   UNL A   1      42.623  23.149  29.155  1.00  0.00    -0.206 F 
ATOM     84  C   UNL A   1      40.115  21.511  27.120  1.00  0.00     0.006 A 
ENDBRANCH  56  77
BRANCH  68  85
ATOM     85  C   UNL A   1      47.104  27.332  25.913  1.00  0.00     0.057 A 
ATOM     86  C   UNL A   1      48.173  26.723  26.582  1.00  0.00     0.134 A 
ATOM     87  C   UNL A   1      47.213  27.479  24.523  1.00  0.00     0.134 A 
ATOM     88  F   UNL A   1      48.137  26.558  27.913  1.00  0.00    -0.206 F 
ATOM     89  C   UNL A   1      49.322  26.313  25.903  1.00  0.00     0.040 A 
ATOM     90  C   UNL A   1      48.342  27.042  23.828  1.00  0.00     0.040 A 
ATOM     91  F   UNL A   1      46.222  28.040  23.815  1.00  0.00    -0.206 F 
ATOM     92  C   UNL A   1      49.406  26.468  24.520  1.00  0.00     0.006 A 
ENDBRANCH  68  85
ENDBRANCH  42  43
ENDBRANCH  35  37
ENDBRANCH  34  35
ENDBRANCH  33  34
ENDBRANCH  32  33
ENDBRANCH  31  32
ENDBRANCH  30  31
ENDBRANCH  29  30
ENDBRANCH  28  29
ENDBRANCH   1  28
TORSDOF 24
ENDMDL
MODEL 2
REMARK VINA RESULT:     -10.4      4.491      6.920
REMARK SMILES Nc1c(CC(=O)OCCOCCOCCOCCOC(=O)c2ccc(-c3c4nc(c(-c5c(F)cccc5F)c5ccc([nH]5)c(-c5c(F)cccc5F)c5nc(c(-c6c(F)cccc6F)c6ccc3[nH]6)C=C5)C=C4)cc2)cccc1C(=O)c1ccc(Br)cc1
REMARK SMILES IDX 12 1 11 2 10 3 9 4 8 5 7 6 5 7 6 8 4 9 3 10 2 11 79 12 76 13
REMARK SMILES IDX 78 14 77 15 1 16 80 19 81 20 82 21 83 22 88 23 84 24 87 25
REMARK SMILES IDX 85 26 86 27 13 28 14 29 15 30 16 31 17 32 18 33 19 34 20 35
REMARK SMILES IDX 21 36 22 37 23 38 75 39 24 40 74 41 25 42 26 43 27 44 68 45
REMARK SMILES IDX 28 46 73 47 67 48 69 49 29 50 72 51 66 52 65 53 30 55 56 56
REMARK SMILES IDX 39 57 55 58 40 59 43 60 54 61 70 62 41 63 42 64 53 66 71 67
REMARK SMILES IDX 44 68 31 69 32 70 37 71 33 72 34 73 36 74 38 75 35 76 57 77
REMARK SMILES IDX 58 78 63 79 59 80 60 81 62 82 64 83 61 84 45 85 46 86 51 87
REMARK SMILES IDX 47 88 48 89 50 90 52 91 49 92
REMARK H PARENT 1 17 1 18 69 54 43 65
REMARK Flexibility Score: inf
ROOT
ATOM      1  C   UNL A   1      34.977  29.491  27.596  1.00  0.00     0.188 C 
ENDROOT
BRANCH   1   2
ATOM      2  C   UNL A   1      34.290  28.630  26.507  1.00  0.00     0.188 C 
BRANCH   2   3
ATOM      3  O   UNL A   1      33.024  28.010  26.730  1.00  0.00    -0.376 OA
BRANCH   3   4
ATOM      4  C   UNL A   1      31.862  28.814  26.824  1.00  0.00     0.202 C 
BRANCH   4   5
ATOM      5  C   UNL A   1      31.640  29.856  25.712  1.00  0.00     0.261 C 
BRANCH   5   6
ATOM      6  O   UNL A   1      31.662  29.333  24.365  1.00  0.00    -0.463 OA
BRANCH   6   7
ATOM      7  C   UNL A   1      30.486  28.925  23.836  1.00  0.00     0.310 C 
ATOM      8  O   UNL A   1      29.653  29.695  23.364  1.00  0.00    -0.252 OA
BRANCH   7   9
ATOM      9  C   UNL A   1      30.264  27.420  23.781  1.00  0.00     0.160 C 
BRANCH   9  10
ATOM     10  C   UNL A   1      31.323  26.454  23.260  1.00  0.00    -0.013 A 
ATOM     11  C   UNL A   1      31.964  25.504  24.087  1.00  0.00     0.047 A 
ATOM     12  C   UNL A   1      32.809  24.532  23.477  1.00  0.00     0.046 A 
ATOM     13  C   UNL A   1      31.617  26.463  21.875  1.00  0.00     0.006 A 
ATOM     14  C   UNL A   1      33.133  24.616  22.113  1.00  0.00     0.014 A 
ATOM     15  C   UNL A   1      32.544  25.585  21.316  1.00  0.00     0.001 A 
BRANCH  11  16
ATOM     16  N   UNL A   1      31.689  25.497  25.452  1.00  0.00    -0.398 N 
ATOM     17  H   UNL A   1      31.924  24.712  25.998  1.00  0.00     0.156 HD
ATOM     18  H   UNL A   1      31.260  26.278  25.872  1.00  0.00     0.156 HD
ENDBRANCH  11  16
BRANCH  12  19
ATOM     19  C   UNL A   1      33.373  23.339  24.185  1.00  0.00     0.195 C 
ATOM     20  O   UNL A   1      32.646  22.406  24.515  1.00  0.00    -0.289 OA
BRANCH  19  21
ATOM     21  C   UNL A   1      34.815  23.265  24.514  1.00  0.00     0.023 A 
ATOM     22  C   UNL A   1      35.264  23.932  25.659  1.00  0.00     0.013 A 
ATOM     23  C   UNL A   1      35.687  22.459  23.772  1.00  0.00     0.013 A 
ATOM     24  C   UNL A   1      36.561  23.709  26.121  1.00  0.00     0.016 A 
ATOM     25  C   UNL A   1      36.983  22.235  24.239  1.00  0.00     0.016 A 
ATOM     26  C   UNL A   1      37.404  22.842  25.423  1.00  0.00     0.018 A 
ATOM     27  Br  UNL A   1      39.121  22.453  26.111  1.00  0.00    -0.051 Br
ENDBRANCH  19  21
ENDBRANCH  12  19
ENDBRANCH   9  10
ENDBRANCH   7   9
ENDBRANCH   6   7
ENDBRANCH   5   6
ENDBRANCH   4   5
ENDBRANCH   3   4
ENDBRANCH   2   3
ENDBRANCH   1   2
BRANCH   1  28
ATOM     28  O   UNL A   1      34.359  30.742  27.842  1.00  0.00    -0.377 OA
BRANCH  28  29
ATOM     29  C   UNL A   1      35.227  31.733  28.358  1.00  0.00     0.188 C 
BRANCH  29  30
ATOM     30  C   UNL A   1      34.549  32.696  29.343  1.00  0.00     0.188 C 
BRANCH  30  31
ATOM     31  O   UNL A   1      34.940  34.047  29.128  1.00  0.00    -0.376 OA
BRANCH  31  32
ATOM     32  C   UNL A   1      34.046  34.947  28.499  1.00  0.00     0.202 C 
BRANCH  32  33
ATOM     33  C   UNL A   1      32.967  35.645  29.347  1.00  0.00     0.261 C 
BRANCH  33  34
ATOM     34  O   UNL A   1      32.534  34.972  30.537  1.00  0.00    -0.460 OA
BRANCH  34  35
ATOM     35  C   UNL A   1      32.763  35.586  31.713  1.00  0.00     0.338 C 
ATOM     36  O   UNL A   1      32.048  36.413  32.257  1.00  0.00    -0.246 OA
BRANCH  35  37
ATOM     37  C   UNL A   1      33.923  34.931  32.360  1.00  0.00     0.060 A 
ATOM     38  C   UNL A   1      35.156  35.596  32.330  1.00  0.00     0.016 A 
ATOM     39  C   UNL A   1      33.806  33.692  32.999  1.00  0.00     0.016 A 
ATOM     40  C   UNL A   1      36.285  35.002  32.885  1.00  0.00     0.010 A 
ATOM     41  C   UNL A   1      34.949  33.081  33.530  1.00  0.00     0.010 A 
ATOM     42  C   UNL A   1      36.201  33.713  33.428  1.00  0.00    -0.014 A 
BRANCH  42  43
ATOM     43  C   UNL A   1      37.461  32.958  33.628  1.00  0.00     0.031 A 
ATOM     44  C   UNL A   1      38.228  33.195  34.903  1.00  0.00     0.074 A 
ATOM     45  C   UNL A   1      37.864  32.013  32.761  1.00  0.00     0.049 A 
ATOM     46  N   UNL A   1      39.318  32.619  35.341  1.00  0.00    -0.248 NA
ATOM     47  C   UNL A   1      37.683  34.219  35.810  1.00  0.00     0.031 C 
ATOM     48  C   UNL A   1      37.180  31.654  31.522  1.00  0.00     0.029 A 
ATOM     49  N   UNL A   1      38.949  31.172  32.806  1.00  0.00    -0.354 N 
ATOM     50  C   UNL A   1      39.586  33.210  36.571  1.00  0.00     0.074 A 
ATOM     51  C   UNL A   1      38.572  34.216  36.791  1.00  0.00     0.031 C 
ATOM     52  C   UNL A   1      37.862  30.663  30.921  1.00  0.00     0.029 A 
ATOM     53  C   UNL A   1      39.043  30.337  31.720  1.00  0.00     0.049 A 
ATOM     54  H   UNL A   1      39.597  31.168  33.546  1.00  0.00     0.167 HD
ATOM     55  C   UNL A   1      40.580  32.931  37.446  1.00  0.00     0.037 A 
ATOM     56  C   UNL A   1      39.984  29.426  31.406  1.00  0.00     0.037 A 
ATOM     57  C   UNL A   1      41.591  31.933  37.222  1.00  0.00     0.049 A 
ATOM     58  C   UNL A   1      41.129  29.190  32.360  1.00  0.00     0.074 A 
ATOM     59  C   UNL A   1      42.640  31.568  38.048  1.00  0.00     0.029 A 
ATOM     60  N   UNL A   1      41.686  31.148  36.083  1.00  0.00    -0.354 N 
ATOM     61  N   UNL A   1      41.361  29.735  33.530  1.00  0.00    -0.248 NA
ATOM     62  C   UNL A   1      42.137  28.203  31.950  1.00  0.00     0.031 C 
ATOM     63  C   UNL A   1      43.404  30.604  37.382  1.00  0.00     0.029 A 
ATOM     64  C   UNL A   1      42.794  30.321  36.171  1.00  0.00     0.049 A 
ATOM     65  H   UNL A   1      41.060  31.175  35.325  1.00  0.00     0.167 HD
ATOM     66  C   UNL A   1      42.522  29.138  34.008  1.00  0.00     0.074 A 
ATOM     67  C   UNL A   1      42.933  28.172  33.009  1.00  0.00     0.031 C 
ATOM     68  C   UNL A   1      43.189  29.365  35.167  1.00  0.00     0.037 A 
BRANCH  55  69
ATOM     69  C   UNL A   1      40.638  33.745  38.707  1.00  0.00     0.057 A 
ATOM     70  C   UNL A   1      39.886  33.417  39.843  1.00  0.00     0.134 A 
ATOM     71  C   UNL A   1      41.471  34.869  38.788  1.00  0.00     0.134 A 
ATOM     72  F   UNL A   1      39.052  32.366  39.825  1.00  0.00    -0.206 F 
ATOM     73  C   UNL A   1      39.941  34.191  41.004  1.00  0.00     0.040 A 
ATOM     74  C   UNL A   1      41.558  35.631  39.953  1.00  0.00     0.040 A 
ATOM     75  F   UNL A   1      42.219  35.240  37.738  1.00  0.00    -0.206 F 
ATOM     76  C   UNL A   1      40.784  35.297  41.064  1.00  0.00     0.006 A 
ENDBRANCH  55  69
BRANCH  56  77
ATOM     77  C   UNL A   1      39.901  28.673  30.127  1.00  0.00     0.057 A 
ATOM     78  C   UNL A   1      39.175  27.481  30.026  1.00  0.00     0.134 A 
ATOM     79  C   UNL A   1      40.579  29.111  28.982  1.00  0.00     0.134 A 
ATOM     80  F   UNL A   1      38.524  26.993  31.092  1.00  0.00    -0.206 F 
ATOM     81  C   UNL A   1      39.145  26.740  28.842  1.00  0.00     0.040 A 
ATOM     82  C   UNL A   1      40.533  28.396  27.784  1.00  0.00     0.040 A 
ATOM     83  F   UNL A   1      41.295  30.245  29.011  1.00  0.00    -0.206 F 
ATOM     84  C   UNL A   1      39.821  27.201  27.714  1.00  0.00     0.006 A 
ENDBRANCH  56  77
BRANCH  68  85
ATOM     85  C   UNL A   1      44.411  28.529  35.433  1.00  0.00     0.057 A 
ATOM     86  C   UNL A   1      45.694  28.939  35.047  1.00  0.00     0.134 A 
ATOM     87  C   UNL A   1      44.302  27.305  36.106  1.00  0.00     0.134 A 
ATOM     88  F   UNL A   1      45.868  30.097  34.392  1.00  0.00    -0.206 F 
ATOM     89  C   UNL A   1      46.817  28.146  35.285  1.00  0.00     0.040 A 
ATOM     90  C   UNL A   1      45.423  26.518  36.380  1.00  0.00     0.040 A 
ATOM     91  F   UNL A   1      43.108  26.855  36.518  1.00  0.00    -0.206 F 
ATOM     92  C   UNL A   1      46.683  26.934  35.958  1.00  0.00     0.006 A 
ENDBRANCH  68  85
ENDBRANCH  42  43
ENDBRANCH  35  37
ENDBRANCH  34  35
ENDBRANCH  33  34
ENDBRANCH  32  33
ENDBRANCH  31  32
ENDBRANCH  30  31
ENDBRANCH  29  30
ENDBRANCH  28  29
ENDBRANCH   1  28
TORSDOF 24
ENDMDL
MODEL 3
REMARK VINA RESULT:     -10.2      4.401      6.712
REMARK SMILES Nc1c(CC(=O)OCCOCCOCCOCCOC(=O)c2ccc(-c3c4nc(c(-c5c(F)cccc5F)c5ccc([nH]5)c(-c5c(F)cccc5F)c5nc(c(-c6c(F)cccc6F)c6ccc3[nH]6)C=C5)C=C4)cc2)cccc1C(=O)c1ccc(Br)cc1
REMARK SMILES IDX 12 1 11 2 10 3 9 4 8 5 7 6 5 7 6 8 4 9 3 10 2 11 79 12 76 13
REMARK SMILES IDX 78 14 77 15 1 16 80 19 81 20 82 21 83 22 88 23 84 24 87 25
REMARK SMILES IDX 85 26 86 27 13 28 14 29 15 30 16 31 17 32 18 33 19 34 20 35
REMARK SMILES IDX 21 36 22 37 23 38 75 39 24 40 74 41 25 42 26 43 27 44 68 45
REMARK SMILES IDX 28 46 73 47 67 48 69 49 29 50 72 51 66 52 65 53 30 55 56 56
REMARK SMILES IDX 39 57 55 58 40 59 43 60 54 61 70 62 41 63 42 64 53 66 71 67
REMARK SMILES IDX 44 68 31 69 32 70 37 71 33 72 34 73 36 74 38 75 35 76 57 77
REMARK SMILES IDX 58 78 63 79 59 80 60 81 62 82 64 83 61 84 45 85 46 86 51 87
REMARK SMILES IDX 47 88 48 89 50 90 52 91 49 92
REMARK H PARENT 1 17 1 18 69 54 43 65
REMARK Flexibility Score: inf
ROOT
ATOM      1  C   UNL A   1      35.451  29.882  27.910  1.00  0.00     0.188 C 
ENDROOT
BRANCH   1   2
ATOM      2  C   UNL A   1      34.588  29.066  26.917  1.00  0.00     0.188 C 
BRANCH   2   3
ATOM      3  O   UNL A   1      33.269  28.633  27.249  1.00  0.00    -0.376 OA
BRANCH   3   4
ATOM      4  C   UNL A   1      32.198  29.559  27.199  1.00  0.00     0.202 C 
BRANCH   4   5
ATOM      5  C   UNL A   1      31.913  30.226  25.840  1.00  0.00     0.261 C 
BRANCH   5   6
ATOM      6  O   UNL A   1      32.082  29.370  24.687  1.00  0.00    -0.463 OA
BRANCH   6   7
ATOM      7  C   UNL A   1      30.961  28.918  24.079  1.00  0.00     0.310 C 
ATOM      8  O   UNL A   1      30.225  29.631  23.401  1.00  0.00    -0.252 OA
BRANCH   7   9
ATOM      9  C   UNL A   1      30.684  27.427  24.211  1.00  0.00     0.160 C 
BRANCH   9  10
ATOM     10  C   UNL A   1      31.749  26.368  23.945  1.00  0.00    -0.013 A 
ATOM     11  C   UNL A   1      32.387  25.650  24.982  1.00  0.00     0.047 A 
ATOM     12  C   UNL A   1      33.238  24.563  24.629  1.00  0.00     0.046 A 
ATOM     13  C   UNL A   1      32.050  26.043  22.601  1.00  0.00     0.006 A 
ATOM     14  C   UNL A   1      33.570  24.314  23.288  1.00  0.00     0.014 A 
ATOM     15  C   UNL A   1      32.984  25.060  22.276  1.00  0.00     0.001 A 
BRANCH  11  16
ATOM     16  N   UNL A   1      32.104  25.973  26.306  1.00  0.00    -0.398 N 
ATOM     17  H   UNL A   1      32.165  25.282  27.005  1.00  0.00     0.156 HD
ATOM     18  H   UNL A   1      31.842  26.892  26.544  1.00  0.00     0.156 HD
ENDBRANCH  11  16
BRANCH  12  19
ATOM     19  C   UNL A   1      33.802  23.579  25.608  1.00  0.00     0.195 C 
ATOM     20  O   UNL A   1      34.390  23.966  26.615  1.00  0.00    -0.289 OA
BRANCH  19  21
ATOM     21  C   UNL A   1      33.675  22.122  25.378  1.00  0.00     0.023 A 
ATOM     22  C   UNL A   1      32.389  21.574  25.328  1.00  0.00     0.013 A 
ATOM     23  C   UNL A   1      34.797  21.331  25.103  1.00  0.00     0.013 A 
ATOM     24  C   UNL A   1      32.219  20.256  24.900  1.00  0.00     0.016 A 
ATOM     25  C   UNL A   1      34.623  20.015  24.672  1.00  0.00     0.016 A 
ATOM     26  C   UNL A   1      33.334  19.494  24.550  1.00  0.00     0.018 A 
ATOM     27  Br  UNL A   1      33.095  17.749  23.864  1.00  0.00    -0.051 Br
ENDBRANCH  19  21
ENDBRANCH  12  19
ENDBRANCH   9  10
ENDBRANCH   7   9
ENDBRANCH   6   7
ENDBRANCH   5   6
ENDBRANCH   4   5
ENDBRANCH   3   4
ENDBRANCH   2   3
ENDBRANCH   1   2
BRANCH   1  28
ATOM     28  O   UNL A   1      34.922  31.152  28.253  1.00  0.00    -0.377 OA
BRANCH  28  29
ATOM     29  C   UNL A   1      35.816  32.231  28.059  1.00  0.00     0.188 C 
BRANCH  29  30
ATOM     30  C   UNL A   1      35.639  33.369  29.074  1.00  0.00     0.188 C 
BRANCH  30  31
ATOM     31  O   UNL A   1      35.095  34.540  28.478  1.00  0.00    -0.376 OA
BRANCH  31  32
ATOM     32  C   UNL A   1      33.691  34.730  28.449  1.00  0.00     0.202 C 
BRANCH  32  33
ATOM     33  C   UNL A   1      33.036  35.625  29.515  1.00  0.00     0.261 C 
BRANCH  33  34
ATOM     34  O   UNL A   1      32.558  34.983  30.705  1.00  0.00    -0.460 OA
BRANCH  34  35
ATOM     35  C   UNL A   1      32.816  35.587  31.881  1.00  0.00     0.338 C 
ATOM     36  O   UNL A   1      32.127  36.429  32.437  1.00  0.00    -0.246 OA
BRANCH  35  37
ATOM     37  C   UNL A   1      33.969  34.905  32.510  1.00  0.00     0.060 A 
ATOM     38  C   UNL A   1      35.175  35.612  32.618  1.00  0.00     0.016 A 
ATOM     39  C   UNL A   1      33.872  33.599  33.001  1.00  0.00     0.016 A 
ATOM     40  C   UNL A   1      36.299  34.999  33.162  1.00  0.00     0.010 A 
ATOM     41  C   UNL A   1      35.013  32.971  33.518  1.00  0.00     0.010 A 
ATOM     42  C   UNL A   1      36.241  33.654  33.553  1.00  0.00    -0.014 A 
BRANCH  42  43
ATOM     43  C   UNL A   1      37.520  32.926  33.732  1.00  0.00     0.031 A 
ATOM     44  C   UNL A   1      38.314  33.197  34.984  1.00  0.00     0.074 A 
ATOM     45  C   UNL A   1      37.920  31.975  32.870  1.00  0.00     0.049 A 
ATOM     46  N   UNL A   1      39.425  32.648  35.404  1.00  0.00    -0.248 NA
ATOM     47  C   UNL A   1      37.772  34.224  35.890  1.00  0.00     0.031 C 
ATOM     48  C   UNL A   1      37.212  31.584  31.654  1.00  0.00     0.029 A 
ATOM     49  N   UNL A   1      39.021  31.155  32.900  1.00  0.00    -0.354 N 
ATOM     50  C   UNL A   1      39.712  33.263  36.617  1.00  0.00     0.074 A 
ATOM     51  C   UNL A   1      38.684  34.253  36.848  1.00  0.00     0.031 C 
ATOM     52  C   UNL A   1      37.898  30.597  31.051  1.00  0.00     0.029 A 
ATOM     53  C   UNL A   1      39.104  30.306  31.825  1.00  0.00     0.049 A 
ATOM     54  H   UNL A   1      39.687  31.175  33.625  1.00  0.00     0.167 HD
ATOM     55  C   UNL A   1      40.732  33.016  37.472  1.00  0.00     0.037 A 
ATOM     56  C   UNL A   1      40.055  29.407  31.502  1.00  0.00     0.037 A 
ATOM     57  C   UNL A   1      41.756  32.033  37.238  1.00  0.00     0.049 A 
ATOM     58  C   UNL A   1      41.226  29.207  32.430  1.00  0.00     0.074 A 
ATOM     59  C   UNL A   1      42.831  31.701  38.043  1.00  0.00     0.029 A 
ATOM     60  N   UNL A   1      41.838  31.233  36.109  1.00  0.00    -0.354 N 
ATOM     61  N   UNL A   1      41.477  29.775  33.586  1.00  0.00    -0.248 NA
ATOM     62  C   UNL A   1      42.243  28.233  32.010  1.00  0.00     0.031 C 
ATOM     63  C   UNL A   1      43.598  30.741  37.372  1.00  0.00     0.029 A 
ATOM     64  C   UNL A   1      42.963  30.428  36.181  1.00  0.00     0.049 A 
ATOM     65  H   UNL A   1      41.193  31.237  35.366  1.00  0.00     0.167 HD
ATOM     66  C   UNL A   1      42.660  29.207  34.044  1.00  0.00     0.074 A 
ATOM     67  C   UNL A   1      43.065  28.234  33.049  1.00  0.00     0.031 C 
ATOM     68  C   UNL A   1      43.352  29.464  35.182  1.00  0.00     0.037 A 
BRANCH  55  69
ATOM     69  C   UNL A   1      40.806  33.851  38.718  1.00  0.00     0.057 A 
ATOM     70  C   UNL A   1      41.598  35.004  38.798  1.00  0.00     0.134 A 
ATOM     71  C   UNL A   1      40.060  33.502  39.852  1.00  0.00     0.134 A 
ATOM     72  F   UNL A   1      42.354  35.383  37.756  1.00  0.00    -0.206 F 
ATOM     73  C   UNL A   1      41.666  35.764  39.968  1.00  0.00     0.040 A 
ATOM     74  C   UNL A   1      40.095  34.271  41.015  1.00  0.00     0.040 A 
ATOM     75  F   UNL A   1      39.279  32.410  39.844  1.00  0.00    -0.206 F 
ATOM     76  C   UNL A   1      40.907  35.402  41.078  1.00  0.00     0.006 A 
ENDBRANCH  55  69
BRANCH  56  77
ATOM     77  C   UNL A   1      39.954  28.633  30.236  1.00  0.00     0.057 A 
ATOM     78  C   UNL A   1      40.543  29.089  29.052  1.00  0.00     0.134 A 
ATOM     79  C   UNL A   1      39.232  27.435  30.175  1.00  0.00     0.134 A 
ATOM     80  F   UNL A   1      41.227  30.242  29.037  1.00  0.00    -0.206 F 
ATOM     81  C   UNL A   1      40.399  28.395  27.848  1.00  0.00     0.040 A 
ATOM     82  C   UNL A   1      39.104  26.715  28.985  1.00  0.00     0.040 A 
ATOM     83  F   UNL A   1      38.640  26.943  31.274  1.00  0.00    -0.206 F 
ATOM     84  C   UNL A   1      39.682  27.200  27.815  1.00  0.00     0.006 A 
ENDBRANCH  56  77
BRANCH  68  85
ATOM     85  C   UNL A   1      44.595  28.655  35.430  1.00  0.00     0.057 A 
ATOM     86  C   UNL A   1      44.563  27.426  36.101  1.00  0.00     0.134 A 
ATOM     87  C   UNL A   1      45.840  29.105  34.971  1.00  0.00     0.134 A 
ATOM     88  F   UNL A   1      43.405  26.940  36.574  1.00  0.00    -0.206 F 
ATOM     89  C   UNL A   1      45.726  26.693  36.340  1.00  0.00     0.040 A 
ATOM     90  C   UNL A   1      47.006  28.365  35.174  1.00  0.00     0.040 A 
ATOM     91  F   UNL A   1      45.945  30.266  34.308  1.00  0.00    -0.206 F 
ATOM     92  C   UNL A   1      46.952  27.160  35.871  1.00  0.00     0.006 A 
ENDBRANCH  68  85
ENDBRANCH  42  43
ENDBRANCH  35  37
ENDBRANCH  34  35
ENDBRANCH  33  34
ENDBRANCH  32  33
ENDBRANCH  31  32
ENDBRANCH  30  31
ENDBRANCH  29  30
ENDBRANCH  28  29
ENDBRANCH   1  28
TORSDOF 24
ENDMDL
