MODEL 1
REMARK VINA RESULT:     -10.6      0.000      0.000
REMARK SMILES CC1(C)[C@@]2(C(=O)OCCOCCOCCOCCOC(=O)c3ccc(-c4c5nc(c(-c6c(F)cccc6F)c6ccc([nH]6)c(-c6c(F)cccc6F)c6nc(c(-c7c(F)cccc7F)c7ccc4[nH]7)C=C6)C=C5)cc3)CC[C@]1(C)/C(=N/NC(=O)c1ccc(Cl)cc1)C2
REMARK SMILES IDX 13 1 12 2 11 3 10 4 9 5 8 6 7 7 5 8 6 9 4 10 1 11 2 12 3 13
REMARK SMILES IDX 78 14 76 15 92 16 77 17 79 18 80 19 81 20 82 21 83 22 84 24
REMARK SMILES IDX 85 25 86 26 91 27 87 28 90 29 88 30 89 31 14 32 15 33 16 34
REMARK SMILES IDX 17 35 18 36 19 37 20 38 21 39 22 40 23 41 75 42 24 43 74 44
REMARK SMILES IDX 25 45 26 46 27 47 68 48 28 49 73 50 67 51 69 52 29 53 72 54
REMARK SMILES IDX 66 55 65 56 30 58 56 59 39 60 55 61 40 62 43 63 54 64 70 65
REMARK SMILES IDX 41 66 42 67 53 69 71 70 44 71 31 72 32 73 37 74 33 75 34 76
REMARK SMILES IDX 36 77 38 78 35 79 57 80 58 81 63 82 59 83 60 84 62 85 64 86
REMARK SMILES IDX 61 87 45 88 46 89 51 90 47 91 48 92 50 93 52 94 49 95
REMARK H PARENT 82 23 69 57 43 68
REMARK Flexibility Score: inf
ROOT
ATOM      1  O   UNL A   1      42.267  20.904  27.456  1.00  0.00    -0.377 OA
ENDROOT
BRANCH   1   2
ATOM      2  C   UNL A   1      40.859  20.927  27.266  1.00  0.00     0.188 C 
BRANCH   2   3
ATOM      3  C   UNL A   1      40.330  22.176  26.563  1.00  0.00     0.188 C 
BRANCH   3   4
ATOM      4  O   UNL A   1      39.289  22.882  27.227  1.00  0.00    -0.376 OA
BRANCH   4   5
ATOM      5  C   UNL A   1      38.801  24.072  26.594  1.00  0.00     0.202 C 
BRANCH   5   6
ATOM      6  C   UNL A   1      37.655  23.888  25.597  1.00  0.00     0.261 C 
BRANCH   6   7
ATOM      7  O   UNL A   1      36.571  23.163  26.219  1.00  0.00    -0.463 OA
BRANCH   7   8
ATOM      8  C   UNL A   1      36.204  21.987  25.648  1.00  0.00     0.313 C 
ATOM      9  O   UNL A   1      36.930  21.006  25.544  1.00  0.00    -0.252 OA
BRANCH   8  10
ATOM     10  C   UNL A   1      34.811  22.069  25.066  1.00  0.00     0.079 C 
ATOM     11  C   UNL A   1      33.540  21.808  27.332  1.00  0.00     0.013 C 
ATOM     12  C   UNL A   1      33.672  22.578  26.000  1.00  0.00    -0.008 C 
ATOM     13  C   UNL A   1      33.732  24.080  26.357  1.00  0.00     0.013 C 
ATOM     14  C   UNL A   1      32.578  22.229  24.941  1.00  0.00     0.014 C 
ATOM     15  C   UNL A   1      34.339  20.627  24.682  1.00  0.00     0.021 C 
ATOM     16  C   UNL A   1      34.658  22.972  23.812  1.00  0.00     0.073 C 
ATOM     17  C   UNL A   1      32.804  20.734  24.668  1.00  0.00     0.014 C 
ATOM     18  C   UNL A   1      31.152  22.612  25.280  1.00  0.00     0.018 C 
ATOM     19  C   UNL A   1      33.158  22.914  23.677  1.00  0.00     0.046 C 
ATOM     20  N   UNL A   1      32.341  23.316  22.759  1.00  0.00    -0.181 NA
BRANCH  20  21
ATOM     21  N   UNL A   1      32.613  23.995  21.623  1.00  0.00    -0.243 N 
ATOM     22  C   UNL A   1      32.758  25.310  21.252  1.00  0.00     0.271 C 
ATOM     23  H   UNL A   1      32.741  23.387  20.859  1.00  0.00     0.194 HD
ATOM     24  O   UNL A   1      32.903  25.586  20.058  1.00  0.00    -0.267 OA
BRANCH  22  25
ATOM     25  C   UNL A   1      32.785  26.422  22.205  1.00  0.00     0.041 A 
ATOM     26  C   UNL A   1      31.864  26.381  23.264  1.00  0.00     0.015 A 
ATOM     27  C   UNL A   1      33.670  27.498  22.074  1.00  0.00     0.015 A 
ATOM     28  C   UNL A   1      31.887  27.369  24.245  1.00  0.00     0.021 A 
ATOM     29  C   UNL A   1      33.687  28.490  23.061  1.00  0.00     0.021 A 
ATOM     30  C   UNL A   1      32.812  28.409  24.150  1.00  0.00     0.041 A 
ATOM     31  Cl  UNL A   1      32.892  29.584  25.405  1.00  0.00    -0.084 Cl
ENDBRANCH  22  25
ENDBRANCH  20  21
ENDBRANCH   8  10
ENDBRANCH   7   8
ENDBRANCH   6   7
ENDBRANCH   5   6
ENDBRANCH   4   5
ENDBRANCH   3   4
ENDBRANCH   2   3
ENDBRANCH   1   2
BRANCH   1  32
ATOM     32  C   UNL A   1      42.983  21.942  26.778  1.00  0.00     0.188 C 
BRANCH  32  33
ATOM     33  C   UNL A   1      42.911  21.935  25.244  1.00  0.00     0.188 C 
BRANCH  33  34
ATOM     34  O   UNL A   1      44.075  21.525  24.534  1.00  0.00    -0.376 OA
BRANCH  34  35
ATOM     35  C   UNL A   1      44.864  22.515  23.878  1.00  0.00     0.202 C 
BRANCH  35  36
ATOM     36  C   UNL A   1      45.951  23.150  24.740  1.00  0.00     0.261 C 
BRANCH  36  37
ATOM     37  O   UNL A   1      45.482  24.369  25.340  1.00  0.00    -0.460 OA
BRANCH  37  38
ATOM     38  C   UNL A   1      45.846  24.567  26.622  1.00  0.00     0.338 C 
ATOM     39  O   UNL A   1      46.865  24.185  27.183  1.00  0.00    -0.246 OA
BRANCH  38  40
ATOM     40  C   UNL A   1      44.864  25.443  27.273  1.00  0.00     0.060 A 
ATOM     41  C   UNL A   1      45.054  26.827  27.200  1.00  0.00     0.016 A 
ATOM     42  C   UNL A   1      43.840  24.896  28.051  1.00  0.00     0.016 A 
ATOM     43  C   UNL A   1      44.256  27.674  27.965  1.00  0.00     0.010 A 
ATOM     44  C   UNL A   1      43.051  25.745  28.826  1.00  0.00     0.010 A 
ATOM     45  C   UNL A   1      43.291  27.129  28.821  1.00  0.00    -0.014 A 
BRANCH  45  46
ATOM     46  C   UNL A   1      42.668  27.978  29.859  1.00  0.00     0.031 A 
ATOM     47  C   UNL A   1      43.310  28.038  31.218  1.00  0.00     0.074 A 
ATOM     48  C   UNL A   1      41.551  28.676  29.597  1.00  0.00     0.049 A 
ATOM     49  N   UNL A   1      42.910  28.656  32.299  1.00  0.00    -0.248 NA
ATOM     50  C   UNL A   1      44.571  27.294  31.378  1.00  0.00     0.031 C 
ATOM     51  C   UNL A   1      40.862  28.718  28.309  1.00  0.00     0.029 A 
ATOM     52  N   UNL A   1      40.794  29.473  30.415  1.00  0.00    -0.354 N 
ATOM     53  C   UNL A   1      43.866  28.373  33.267  1.00  0.00     0.074 A 
ATOM     54  C   UNL A   1      44.852  27.508  32.655  1.00  0.00     0.031 C 
ATOM     55  C   UNL A   1      39.766  29.486  28.429  1.00  0.00     0.029 A 
ATOM     56  C   UNL A   1      39.667  29.965  29.806  1.00  0.00     0.049 A 
ATOM     57  H   UNL A   1      41.035  29.673  31.348  1.00  0.00     0.167 HD
ATOM     58  C   UNL A   1      43.918  28.800  34.550  1.00  0.00     0.037 A 
ATOM     59  C   UNL A   1      38.660  30.699  30.318  1.00  0.00     0.037 A 
ATOM     60  C   UNL A   1      42.930  29.650  35.157  1.00  0.00     0.049 A 
ATOM     61  C   UNL A   1      38.706  31.107  31.765  1.00  0.00     0.074 A 
ATOM     62  C   UNL A   1      42.896  30.154  36.445  1.00  0.00     0.029 A 
ATOM     63  N   UNL A   1      41.793  30.115  34.514  1.00  0.00    -0.354 N 
ATOM     64  N   UNL A   1      39.627  30.859  32.666  1.00  0.00    -0.248 NA
ATOM     65  C   UNL A   1      37.573  31.897  32.267  1.00  0.00     0.031 C 
ATOM     66  C   UNL A   1      41.716  30.891  36.594  1.00  0.00     0.029 A 
ATOM     67  C   UNL A   1      41.039  30.882  35.385  1.00  0.00     0.049 A 
ATOM     68  H   UNL A   1      41.559  29.928  33.576  1.00  0.00     0.167 HD
ATOM     69  C   UNL A   1      39.198  31.483  33.831  1.00  0.00     0.074 A 
ATOM     70  C   UNL A   1      37.940  32.129  33.520  1.00  0.00     0.031 C 
ATOM     71  C   UNL A   1      39.792  31.521  35.050  1.00  0.00     0.037 A 
BRANCH  58  72
ATOM     72  C   UNL A   1      45.071  28.329  35.387  1.00  0.00     0.057 A 
ATOM     73  C   UNL A   1      45.004  27.146  36.136  1.00  0.00     0.134 A 
ATOM     74  C   UNL A   1      46.267  29.057  35.430  1.00  0.00     0.134 A 
ATOM     75  F   UNL A   1      43.881  26.414  36.150  1.00  0.00    -0.206 F 
ATOM     76  C   UNL A   1      46.080  26.715  36.913  1.00  0.00     0.040 A 
ATOM     77  C   UNL A   1      47.357  28.623  36.186  1.00  0.00     0.040 A 
ATOM     78  F   UNL A   1      46.395  30.197  34.736  1.00  0.00    -0.206 F 
ATOM     79  C   UNL A   1      47.263  27.451  36.935  1.00  0.00     0.006 A 
ENDBRANCH  58  72
BRANCH  59  80
ATOM     80  C   UNL A   1      37.515  31.084  29.457  1.00  0.00     0.057 A 
ATOM     81  C   UNL A   1      37.434  32.359  28.888  1.00  0.00     0.134 A 
ATOM     82  C   UNL A   1      36.469  30.191  29.193  1.00  0.00     0.134 A 
ATOM     83  F   UNL A   1      38.395  33.265  29.123  1.00  0.00    -0.206 F 
ATOM     84  C   UNL A   1      36.347  32.739  28.099  1.00  0.00     0.040 A 
ATOM     85  C   UNL A   1      35.388  30.549  28.388  1.00  0.00     0.040 A 
ATOM     86  F   UNL A   1      36.490  28.953  29.710  1.00  0.00    -0.206 F 
ATOM     87  C   UNL A   1      35.322  31.830  27.844  1.00  0.00     0.006 A 
ENDBRANCH  59  80
BRANCH  71  88
ATOM     88  C   UNL A   1      39.106  32.313  36.122  1.00  0.00     0.057 A 
ATOM     89  C   UNL A   1      38.150  31.737  36.969  1.00  0.00     0.134 A 
ATOM     90  C   UNL A   1      39.438  33.656  36.338  1.00  0.00     0.134 A 
ATOM     91  F   UNL A   1      37.780  30.458  36.805  1.00  0.00    -0.206 F 
ATOM     92  C   UNL A   1      37.533  32.476  37.979  1.00  0.00     0.040 A 
ATOM     93  C   UNL A   1      38.846  34.398  37.360  1.00  0.00     0.040 A 
ATOM     94  F   UNL A   1      40.353  34.263  35.568  1.00  0.00    -0.206 F 
ATOM     95  C   UNL A   1      37.886  33.809  38.181  1.00  0.00     0.006 A 
ENDBRANCH  71  88
ENDBRANCH  45  46
ENDBRANCH  38  40
ENDBRANCH  37  38
ENDBRANCH  36  37
ENDBRANCH  35  36
ENDBRANCH  34  35
ENDBRANCH  33  34
ENDBRANCH  32  33
ENDBRANCH   1  32
TORSDOF 22
ENDMDL
MODEL 2
REMARK VINA RESULT:     -10.5      1.548      6.041
REMARK SMILES CC1(C)[C@@]2(C(=O)OCCOCCOCCOCCOC(=O)c3ccc(-c4c5nc(c(-c6c(F)cccc6F)c6ccc([nH]6)c(-c6c(F)cccc6F)c6nc(c(-c7c(F)cccc7F)c7ccc4[nH]7)C=C6)C=C5)cc3)CC[C@]1(C)/C(=N/NC(=O)c1ccc(Cl)cc1)C2
REMARK SMILES IDX 13 1 12 2 11 3 10 4 9 5 8 6 7 7 5 8 6 9 4 10 1 11 2 12 3 13
REMARK SMILES IDX 78 14 76 15 92 16 77 17 79 18 80 19 81 20 82 21 83 22 84 24
REMARK SMILES IDX 85 25 86 26 91 27 87 28 90 29 88 30 89 31 14 32 15 33 16 34
REMARK SMILES IDX 17 35 18 36 19 37 20 38 21 39 22 40 23 41 75 42 24 43 74 44
REMARK SMILES IDX 25 45 26 46 27 47 68 48 28 49 73 50 67 51 69 52 29 53 72 54
REMARK SMILES IDX 66 55 65 56 30 58 56 59 39 60 55 61 40 62 43 63 54 64 70 65
REMARK SMILES IDX 41 66 42 67 53 69 71 70 44 71 31 72 32 73 37 74 33 75 34 76
REMARK SMILES IDX 36 77 38 78 35 79 57 80 58 81 63 82 59 83 60 84 62 85 64 86
REMARK SMILES IDX 61 87 45 88 46 89 51 90 47 91 48 92 50 93 52 94 49 95
REMARK H PARENT 82 23 69 57 43 68
REMARK Flexibility Score: inf
ROOT
ATOM      1  O   UNL A   1      42.326  21.923  28.201  1.00  0.00    -0.377 OA
ENDROOT
BRANCH   1   2
ATOM      2  C   UNL A   1      40.926  21.953  27.966  1.00  0.00     0.188 C 
BRANCH   2   3
ATOM      3  C   UNL A   1      40.527  22.039  26.494  1.00  0.00     0.188 C 
BRANCH   3   4
ATOM      4  O   UNL A   1      39.395  22.845  26.192  1.00  0.00    -0.376 OA
BRANCH   4   5
ATOM      5  C   UNL A   1      38.138  22.174  26.040  1.00  0.00     0.202 C 
BRANCH   5   6
ATOM      6  C   UNL A   1      37.751  21.775  24.614  1.00  0.00     0.261 C 
BRANCH   6   7
ATOM      7  O   UNL A   1      36.357  22.071  24.379  1.00  0.00    -0.463 OA
BRANCH   7   8
ATOM      8  C   UNL A   1      35.453  21.125  24.741  1.00  0.00     0.313 C 
ATOM      9  O   UNL A   1      35.722  19.952  24.967  1.00  0.00    -0.252 OA
BRANCH   8  10
ATOM     10  C   UNL A   1      34.046  21.679  24.736  1.00  0.00     0.079 C 
ATOM     11  C   UNL A   1      33.678  21.547  27.317  1.00  0.00     0.013 C 
ATOM     12  C   UNL A   1      33.550  22.391  26.030  1.00  0.00    -0.008 C 
ATOM     13  C   UNL A   1      34.207  23.757  26.326  1.00  0.00     0.013 C 
ATOM     14  C   UNL A   1      32.095  22.502  25.474  1.00  0.00     0.014 C 
ATOM     15  C   UNL A   1      33.037  20.493  24.572  1.00  0.00     0.021 C 
ATOM     16  C   UNL A   1      33.738  22.724  23.629  1.00  0.00     0.073 C 
ATOM     17  C   UNL A   1      31.722  21.048  25.146  1.00  0.00     0.014 C 
ATOM     18  C   UNL A   1      31.090  23.247  26.330  1.00  0.00     0.018 C 
ATOM     19  C   UNL A   1      32.356  23.126  24.079  1.00  0.00     0.046 C 
ATOM     20  N   UNL A   1      31.433  23.853  23.541  1.00  0.00    -0.181 NA
BRANCH  20  21
ATOM     21  N   UNL A   1      31.470  24.546  22.382  1.00  0.00    -0.243 N 
ATOM     22  C   UNL A   1      31.676  25.850  22.001  1.00  0.00     0.271 C 
ATOM     23  H   UNL A   1      31.306  23.964  21.605  1.00  0.00     0.194 HD
ATOM     24  O   UNL A   1      31.525  26.163  20.817  1.00  0.00    -0.267 OA
BRANCH  22  25
ATOM     25  C   UNL A   1      32.105  26.905  22.923  1.00  0.00     0.041 A 
ATOM     26  C   UNL A   1      31.138  27.846  23.313  1.00  0.00     0.015 A 
ATOM     27  C   UNL A   1      33.420  27.000  23.391  1.00  0.00     0.015 A 
ATOM     28  C   UNL A   1      31.461  28.830  24.245  1.00  0.00     0.021 A 
ATOM     29  C   UNL A   1      33.740  27.993  24.324  1.00  0.00     0.021 A 
ATOM     30  C   UNL A   1      32.756  28.887  24.760  1.00  0.00     0.041 A 
ATOM     31  Cl  UNL A   1      33.131  30.052  25.970  1.00  0.00    -0.084 Cl
ENDBRANCH  22  25
ENDBRANCH  20  21
ENDBRANCH   8  10
ENDBRANCH   7   8
ENDBRANCH   6   7
ENDBRANCH   5   6
ENDBRANCH   4   5
ENDBRANCH   3   4
ENDBRANCH   2   3
ENDBRANCH   1   2
BRANCH   1  32
ATOM     32  C   UNL A   1      43.053  23.025  27.649  1.00  0.00     0.188 C 
BRANCH  32  33
ATOM     33  C   UNL A   1      44.142  22.682  26.622  1.00  0.00     0.188 C 
BRANCH  33  34
ATOM     34  O   UNL A   1      43.863  22.956  25.252  1.00  0.00    -0.376 OA
BRANCH  34  35
ATOM     35  C   UNL A   1      44.553  24.027  24.613  1.00  0.00     0.202 C 
BRANCH  35  36
ATOM     36  C   UNL A   1      44.376  25.393  25.267  1.00  0.00     0.261 C 
BRANCH  36  37
ATOM     37  O   UNL A   1      42.985  25.736  25.371  1.00  0.00    -0.460 OA
BRANCH  37  38
ATOM     38  C   UNL A   1      42.709  27.055  25.417  1.00  0.00     0.338 C 
ATOM     39  O   UNL A   1      42.411  27.795  24.489  1.00  0.00    -0.246 OA
BRANCH  38  40
ATOM     40  C   UNL A   1      42.702  27.498  26.816  1.00  0.00     0.060 A 
ATOM     41  C   UNL A   1      41.860  26.840  27.720  1.00  0.00     0.016 A 
ATOM     42  C   UNL A   1      43.427  28.629  27.200  1.00  0.00     0.016 A 
ATOM     43  C   UNL A   1      41.686  27.357  29.001  1.00  0.00     0.010 A 
ATOM     44  C   UNL A   1      43.241  29.153  28.479  1.00  0.00     0.010 A 
ATOM     45  C   UNL A   1      42.333  28.545  29.362  1.00  0.00    -0.014 A 
BRANCH  45  46
ATOM     46  C   UNL A   1      41.915  29.267  30.583  1.00  0.00     0.031 A 
ATOM     47  C   UNL A   1      40.662  30.098  30.532  1.00  0.00     0.074 A 
ATOM     48  C   UNL A   1      42.639  29.187  31.711  1.00  0.00     0.049 A 
ATOM     49  N   UNL A   1      40.137  30.867  31.450  1.00  0.00    -0.248 NA
ATOM     50  C   UNL A   1      39.903  30.058  29.270  1.00  0.00     0.031 C 
ATOM     51  C   UNL A   1      43.850  28.388  31.884  1.00  0.00     0.029 A 
ATOM     52  N   UNL A   1      42.461  29.804  32.922  1.00  0.00    -0.354 N 
ATOM     53  C   UNL A   1      38.991  31.405  30.877  1.00  0.00     0.074 A 
ATOM     54  C   UNL A   1      38.909  30.896  29.526  1.00  0.00     0.031 C 
ATOM     55  C   UNL A   1      44.322  28.581  33.128  1.00  0.00     0.029 A 
ATOM     56  C   UNL A   1      43.460  29.534  33.823  1.00  0.00     0.049 A 
ATOM     57  H   UNL A   1      41.692  30.384  33.125  1.00  0.00     0.167 HD
ATOM     58  C   UNL A   1      38.087  32.246  31.432  1.00  0.00     0.037 A 
ATOM     59  C   UNL A   1      43.662  30.026  35.060  1.00  0.00     0.037 A 
ATOM     60  C   UNL A   1      38.179  32.758  32.773  1.00  0.00     0.049 A 
ATOM     61  C   UNL A   1      42.678  31.011  35.632  1.00  0.00     0.074 A 
ATOM     62  C   UNL A   1      37.308  33.603  33.437  1.00  0.00     0.029 A 
ATOM     63  N   UNL A   1      39.214  32.476  33.651  1.00  0.00    -0.354 N 
ATOM     64  N   UNL A   1      41.583  31.494  35.095  1.00  0.00    -0.248 NA
ATOM     65  C   UNL A   1      42.959  31.519  36.982  1.00  0.00     0.031 C 
ATOM     66  C   UNL A   1      37.839  33.865  34.705  1.00  0.00     0.029 A 
ATOM     67  C   UNL A   1      39.017  33.148  34.844  1.00  0.00     0.049 A 
ATOM     68  H   UNL A   1      39.977  31.884  33.454  1.00  0.00     0.167 HD
ATOM     69  C   UNL A   1      41.031  32.340  36.049  1.00  0.00     0.074 A 
ATOM     70  C   UNL A   1      41.908  32.298  37.202  1.00  0.00     0.031 C 
ATOM     71  C   UNL A   1      39.900  33.085  35.981  1.00  0.00     0.037 A 
BRANCH  58  72
ATOM     72  C   UNL A   1      36.936  32.682  30.575  1.00  0.00     0.057 A 
ATOM     73  C   UNL A   1      35.666  32.099  30.691  1.00  0.00     0.134 A 
ATOM     74  C   UNL A   1      37.093  33.709  29.636  1.00  0.00     0.134 A 
ATOM     75  F   UNL A   1      35.455  31.100  31.561  1.00  0.00    -0.206 F 
ATOM     76  C   UNL A   1      34.600  32.510  29.890  1.00  0.00     0.040 A 
ATOM     77  C   UNL A   1      36.029  34.143  28.844  1.00  0.00     0.040 A 
ATOM     78  F   UNL A   1      38.282  34.308  29.475  1.00  0.00    -0.206 F 
ATOM     79  C   UNL A   1      34.778  33.539  28.967  1.00  0.00     0.006 A 
ENDBRANCH  58  72
BRANCH  59  80
ATOM     80  C   UNL A   1      44.853  29.605  35.838  1.00  0.00     0.057 A 
ATOM     81  C   UNL A   1      46.069  30.287  35.725  1.00  0.00     0.134 A 
ATOM     82  C   UNL A   1      44.806  28.505  36.703  1.00  0.00     0.134 A 
ATOM     83  F   UNL A   1      46.181  31.335  34.895  1.00  0.00    -0.206 F 
ATOM     84  C   UNL A   1      47.202  29.881  36.433  1.00  0.00     0.040 A 
ATOM     85  C   UNL A   1      45.924  28.103  37.433  1.00  0.00     0.040 A 
ATOM     86  F   UNL A   1      43.669  27.812  36.855  1.00  0.00    -0.206 F 
ATOM     87  C   UNL A   1      47.129  28.788  37.294  1.00  0.00     0.006 A 
ENDBRANCH  59  80
BRANCH  71  88
ATOM     88  C   UNL A   1      39.530  33.883  37.195  1.00  0.00     0.057 A 
ATOM     89  C   UNL A   1      38.804  33.323  38.254  1.00  0.00     0.134 A 
ATOM     90  C   UNL A   1      39.943  35.216  37.324  1.00  0.00     0.134 A 
ATOM     91  F   UNL A   1      38.371  32.056  38.185  1.00  0.00    -0.206 F 
ATOM     92  C   UNL A   1      38.484  34.068  39.389  1.00  0.00     0.040 A 
ATOM     93  C   UNL A   1      39.649  35.962  38.464  1.00  0.00     0.040 A 
ATOM     94  F   UNL A   1      40.650  35.806  36.348  1.00  0.00    -0.206 F 
ATOM     95  C   UNL A   1      38.913  35.390  39.500  1.00  0.00     0.006 A 
ENDBRANCH  71  88
ENDBRANCH  45  46
ENDBRANCH  38  40
ENDBRANCH  37  38
ENDBRANCH  36  37
ENDBRANCH  35  36
ENDBRANCH  34  35
ENDBRANCH  33  34
ENDBRANCH  32  33
ENDBRANCH   1  32
TORSDOF 22
ENDMDL
MODEL 3
REMARK VINA RESULT:     -10.3      4.879     10.515
REMARK SMILES CC1(C)[C@@]2(C(=O)OCCOCCOCCOCCOC(=O)c3ccc(-c4c5nc(c(-c6c(F)cccc6F)c6ccc([nH]6)c(-c6c(F)cccc6F)c6nc(c(-c7c(F)cccc7F)c7ccc4[nH]7)C=C6)C=C5)cc3)CC[C@]1(C)/C(=N/NC(=O)c1ccc(Cl)cc1)C2
REMARK SMILES IDX 13 1 12 2 11 3 10 4 9 5 8 6 7 7 5 8 6 9 4 10 1 11 2 12 3 13
REMARK SMILES IDX 78 14 76 15 92 16 77 17 79 18 80 19 81 20 82 21 83 22 84 24
REMARK SMILES IDX 85 25 86 26 91 27 87 28 90 29 88 30 89 31 14 32 15 33 16 34
REMARK SMILES IDX 17 35 18 36 19 37 20 38 21 39 22 40 23 41 75 42 24 43 74 44
REMARK SMILES IDX 25 45 26 46 27 47 68 48 28 49 73 50 67 51 69 52 29 53 72 54
REMARK SMILES IDX 66 55 65 56 30 58 56 59 39 60 55 61 40 62 43 63 54 64 70 65
REMARK SMILES IDX 41 66 42 67 53 69 71 70 44 71 31 72 32 73 37 74 33 75 34 76
REMARK SMILES IDX 36 77 38 78 35 79 57 80 58 81 63 82 59 83 60 84 62 85 64 86
REMARK SMILES IDX 61 87 45 88 46 89 51 90 47 91 48 92 50 93 52 94 49 95
REMARK H PARENT 82 23 69 57 43 68
REMARK Flexibility Score: inf
ROOT
ATOM      1  O   UNL A   1      35.086  34.357  28.829  1.00  0.00    -0.377 OA
ENDROOT
BRANCH   1   2
ATOM      2  C   UNL A   1      35.313  33.230  27.995  1.00  0.00     0.188 C 
BRANCH   2   3
ATOM      3  C   UNL A   1      35.786  31.976  28.729  1.00  0.00     0.188 C 
BRANCH   3   4
ATOM      4  O   UNL A   1      35.002  30.804  28.547  1.00  0.00    -0.376 OA
BRANCH   4   5
ATOM      5  C   UNL A   1      34.004  30.840  27.519  1.00  0.00     0.202 C 
BRANCH   5   6
ATOM      6  C   UNL A   1      33.913  29.607  26.618  1.00  0.00     0.261 C 
BRANCH   6   7
ATOM      7  O   UNL A   1      32.558  29.107  26.599  1.00  0.00    -0.463 OA
BRANCH   7   8
ATOM      8  C   UNL A   1      31.781  29.463  25.544  1.00  0.00     0.313 C 
ATOM      9  O   UNL A   1      31.326  30.584  25.359  1.00  0.00    -0.252 OA
BRANCH   8  10
ATOM     10  C   UNL A   1      31.464  28.272  24.668  1.00  0.00     0.079 C 
ATOM     11  C   UNL A   1      33.077  28.914  22.718  1.00  0.00     0.013 C 
ATOM     12  C   UNL A   1      32.561  27.807  23.664  1.00  0.00    -0.008 C 
ATOM     13  C   UNL A   1      33.805  27.149  24.301  1.00  0.00     0.013 C 
ATOM     14  C   UNL A   1      31.588  26.787  22.992  1.00  0.00     0.014 C 
ATOM     15  C   UNL A   1      30.260  28.636  23.737  1.00  0.00     0.021 C 
ATOM     16  C   UNL A   1      31.108  26.960  25.420  1.00  0.00     0.073 C 
ATOM     17  C   UNL A   1      30.397  27.657  22.558  1.00  0.00     0.014 C 
ATOM     18  C   UNL A   1      32.166  25.902  21.907  1.00  0.00     0.018 C 
ATOM     19  C   UNL A   1      31.044  26.033  24.233  1.00  0.00     0.046 C 
ATOM     20  N   UNL A   1      30.652  24.809  24.092  1.00  0.00    -0.181 NA
BRANCH  20  21
ATOM     21  N   UNL A   1      30.218  23.947  25.037  1.00  0.00    -0.243 N 
ATOM     22  C   UNL A   1      30.764  22.958  25.818  1.00  0.00     0.271 C 
ATOM     23  H   UNL A   1      29.254  24.055  25.213  1.00  0.00     0.194 HD
ATOM     24  O   UNL A   1      30.023  22.269  26.524  1.00  0.00    -0.267 OA
BRANCH  22  25
ATOM     25  C   UNL A   1      32.202  22.687  25.892  1.00  0.00     0.041 A 
ATOM     26  C   UNL A   1      32.627  21.389  25.566  1.00  0.00     0.015 A 
ATOM     27  C   UNL A   1      33.127  23.660  26.288  1.00  0.00     0.015 A 
ATOM     28  C   UNL A   1      33.987  21.087  25.545  1.00  0.00     0.021 A 
ATOM     29  C   UNL A   1      34.492  23.349  26.268  1.00  0.00     0.021 A 
ATOM     30  C   UNL A   1      34.914  22.074  25.877  1.00  0.00     0.041 A 
ATOM     31  Cl  UNL A   1      36.595  21.721  25.772  1.00  0.00    -0.084 Cl
ENDBRANCH  22  25
ENDBRANCH  20  21
ENDBRANCH   8  10
ENDBRANCH   7   8
ENDBRANCH   6   7
ENDBRANCH   5   6
ENDBRANCH   4   5
ENDBRANCH   3   4
ENDBRANCH   2   3
ENDBRANCH   1   2
BRANCH   1  32
ATOM     32  C   UNL A   1      34.911  34.053  30.217  1.00  0.00     0.188 C 
BRANCH  32  33
ATOM     33  C   UNL A   1      36.146  34.220  31.115  1.00  0.00     0.188 C 
BRANCH  33  34
ATOM     34  O   UNL A   1      35.966  34.045  32.517  1.00  0.00    -0.376 OA
BRANCH  34  35
ATOM     35  C   UNL A   1      36.549  32.907  33.147  1.00  0.00     0.202 C 
BRANCH  35  36
ATOM     36  C   UNL A   1      36.025  31.559  32.660  1.00  0.00     0.261 C 
BRANCH  36  37
ATOM     37  O   UNL A   1      37.063  30.566  32.684  1.00  0.00    -0.460 OA
BRANCH  37  38
ATOM     38  C   UNL A   1      37.177  29.812  31.573  1.00  0.00     0.338 C 
ATOM     39  O   UNL A   1      36.296  29.195  30.989  1.00  0.00    -0.246 OA
BRANCH  38  40
ATOM     40  C   UNL A   1      38.547  29.917  31.055  1.00  0.00     0.060 A 
ATOM     41  C   UNL A   1      38.727  30.106  29.681  1.00  0.00     0.016 A 
ATOM     42  C   UNL A   1      39.637  29.708  31.903  1.00  0.00     0.016 A 
ATOM     43  C   UNL A   1      40.004  30.016  29.134  1.00  0.00     0.010 A 
ATOM     44  C   UNL A   1      40.914  29.605  31.352  1.00  0.00     0.010 A 
ATOM     45  C   UNL A   1      41.091  29.710  29.963  1.00  0.00    -0.014 A 
BRANCH  45  46
ATOM     46  C   UNL A   1      42.379  29.301  29.362  1.00  0.00     0.031 A 
ATOM     47  C   UNL A   1      42.514  27.895  28.843  1.00  0.00     0.074 A 
ATOM     48  C   UNL A   1      43.407  30.161  29.285  1.00  0.00     0.049 A 
ATOM     49  N   UNL A   1      43.560  27.293  28.339  1.00  0.00    -0.248 NA
ATOM     50  C   UNL A   1      41.305  27.055  28.908  1.00  0.00     0.031 C 
ATOM     51  C   UNL A   1      43.378  31.554  29.726  1.00  0.00     0.029 A 
ATOM     52  N   UNL A   1      44.682  29.977  28.819  1.00  0.00    -0.354 N 
ATOM     53  C   UNL A   1      43.138  26.005  28.031  1.00  0.00     0.074 A 
ATOM     54  C   UNL A   1      41.750  25.904  28.427  1.00  0.00     0.031 C 
ATOM     55  C   UNL A   1      44.592  32.096  29.529  1.00  0.00     0.029 A 
ATOM     56  C   UNL A   1      45.484  31.080  28.974  1.00  0.00     0.049 A 
ATOM     57  H   UNL A   1      44.993  29.136  28.413  1.00  0.00     0.167 HD
ATOM     58  C   UNL A   1      43.845  24.999  27.466  1.00  0.00     0.037 A 
ATOM     59  C   UNL A   1      46.797  31.236  28.716  1.00  0.00     0.037 A 
ATOM     60  C   UNL A   1      45.228  25.101  27.085  1.00  0.00     0.049 A 
ATOM     61  C   UNL A   1      47.578  30.082  28.149  1.00  0.00     0.074 A 
ATOM     62  C   UNL A   1      46.033  24.147  26.490  1.00  0.00     0.029 A 
ATOM     63  N   UNL A   1      46.012  26.229  27.271  1.00  0.00    -0.354 N 
ATOM     64  N   UNL A   1      47.166  28.877  27.835  1.00  0.00    -0.248 NA
ATOM     65  C   UNL A   1      49.009  30.311  27.900  1.00  0.00     0.031 C 
ATOM     66  C   UNL A   1      47.318  24.685  26.355  1.00  0.00     0.029 A 
ATOM     67  C   UNL A   1      47.300  25.988  26.825  1.00  0.00     0.049 A 
ATOM     68  H   UNL A   1      45.699  27.076  27.664  1.00  0.00     0.167 HD
ATOM     69  C   UNL A   1      48.277  28.214  27.327  1.00  0.00     0.074 A 
ATOM     70  C   UNL A   1      49.379  29.153  27.368  1.00  0.00     0.031 C 
ATOM     71  C   UNL A   1      48.379  26.942  26.868  1.00  0.00     0.037 A 
BRANCH  58  72
ATOM     72  C   UNL A   1      43.137  23.694  27.252  1.00  0.00     0.057 A 
ATOM     73  C   UNL A   1      42.640  23.321  25.996  1.00  0.00     0.134 A 
ATOM     74  C   UNL A   1      42.965  22.793  28.310  1.00  0.00     0.134 A 
ATOM     75  F   UNL A   1      42.757  24.148  24.946  1.00  0.00    -0.206 F 
ATOM     76  C   UNL A   1      41.981  22.106  25.805  1.00  0.00     0.040 A 
ATOM     77  C   UNL A   1      42.327  21.565  28.126  1.00  0.00     0.040 A 
ATOM     78  F   UNL A   1      43.417  23.090  29.537  1.00  0.00    -0.206 F 
ATOM     79  C   UNL A   1      41.829  21.221  26.871  1.00  0.00     0.006 A 
ENDBRANCH  58  72
BRANCH  59  80
ATOM     80  C   UNL A   1      47.458  32.531  29.006  1.00  0.00     0.057 A 
ATOM     81  C   UNL A   1      48.017  32.793  30.261  1.00  0.00     0.134 A 
ATOM     82  C   UNL A   1      47.537  33.541  28.039  1.00  0.00     0.134 A 
ATOM     83  F   UNL A   1      47.952  31.873  31.235  1.00  0.00    -0.206 F 
ATOM     84  C   UNL A   1      48.618  34.020  30.551  1.00  0.00     0.040 A 
ATOM     85  C   UNL A   1      48.154  34.763  28.308  1.00  0.00     0.040 A 
ATOM     86  F   UNL A   1      47.020  33.349  26.817  1.00  0.00    -0.206 F 
ATOM     87  C   UNL A   1      48.691  35.007  29.570  1.00  0.00     0.006 A 
ENDBRANCH  59  80
BRANCH  71  88
ATOM     88  C   UNL A   1      49.713  26.508  26.342  1.00  0.00     0.057 A 
ATOM     89  C   UNL A   1      50.604  25.757  27.119  1.00  0.00     0.134 A 
ATOM     90  C   UNL A   1      50.092  26.807  25.027  1.00  0.00     0.134 A 
ATOM     91  F   UNL A   1      50.305  25.449  28.390  1.00  0.00    -0.206 F 
ATOM     92  C   UNL A   1      51.835  25.337  26.613  1.00  0.00     0.040 A 
ATOM     93  C   UNL A   1      51.309  26.372  24.503  1.00  0.00     0.040 A 
ATOM     94  F   UNL A   1      49.278  27.513  24.229  1.00  0.00    -0.206 F 
ATOM     95  C   UNL A   1      52.187  25.639  25.298  1.00  0.00     0.006 A 
ENDBRANCH  71  88
ENDBRANCH  45  46
ENDBRANCH  38  40
ENDBRANCH  37  38
ENDBRANCH  36  37
ENDBRANCH  35  36
ENDBRANCH  34  35
ENDBRANCH  33  34
ENDBRANCH  32  33
ENDBRANCH   1  32
TORSDOF 22
ENDMDL
