MODEL 1
REMARK VINA RESULT:      -9.8      0.000      0.000
REMARK SMILES CC[C@@](C)(Nc1cc([N+](=O)[O-])ccc1C)C(=O)OCCOCCOCCOCCOC(=O)c1ccc(-c2c3nc(c(-c4c(F)cccc4F)c4ccc([nH]4)c(-c4c(F)cccc4F)c4nc(c(-c5c(F)cccc5F)c5ccc2[nH]5)C=C4)C=C3)cc1
REMARK SMILES IDX 23 1 22 2 21 3 20 4 19 5 18 6 16 7 17 8 3 9 4 10 2 11 1 12
REMARK SMILES IDX 5 13 6 15 7 16 14 17 8 18 13 19 15 20 12 21 9 22 10 23 11 24
REMARK SMILES IDX 24 25 25 26 26 27 27 28 28 29 29 30 30 31 31 32 32 33 33 34
REMARK SMILES IDX 34 35 86 36 35 37 85 38 36 39 37 40 38 41 79 42 39 43 84 44
REMARK SMILES IDX 78 45 80 46 40 47 83 48 77 49 76 50 41 52 67 53 50 54 66 55
REMARK SMILES IDX 51 56 54 57 65 58 81 59 52 60 53 61 64 63 82 64 55 65 42 66
REMARK SMILES IDX 43 67 48 68 44 69 45 70 47 71 49 72 46 73 68 74 69 75 74 76
REMARK SMILES IDX 70 77 71 78 73 79 75 80 72 81 56 82 57 83 62 84 58 85 59 86
REMARK SMILES IDX 61 87 63 88 60 89
REMARK H PARENT 5 14 80 51 54 62
REMARK Flexibility Score: inf
ROOT
ATOM      1  C   UNL A   1      36.247  23.122  25.338  1.00  0.00     0.188 C 
ENDROOT
BRANCH   1   2
ATOM      2  C   UNL A   1      35.340  21.901  25.061  1.00  0.00     0.188 C 
BRANCH   2   3
ATOM      3  O   UNL A   1      34.404  21.869  24.000  1.00  0.00    -0.376 OA
BRANCH   3   4
ATOM      4  C   UNL A   1      33.488  22.932  23.860  1.00  0.00     0.202 C 
BRANCH   4   5
ATOM      5  C   UNL A   1      33.757  24.046  22.878  1.00  0.00     0.261 C 
BRANCH   5   6
ATOM      6  O   UNL A   1      33.838  25.310  23.566  1.00  0.00    -0.462 OA
BRANCH   6   7
ATOM      7  C   UNL A   1      33.318  26.278  22.789  1.00  0.00     0.331 C 
ATOM      8  O   UNL A   1      33.613  26.382  21.600  1.00  0.00    -0.249 OA
BRANCH   7   9
ATOM      9  C   UNL A   1      32.442  27.314  23.482  1.00  0.00     0.133 C 
ATOM     10  C   UNL A   1      31.959  26.974  24.896  1.00  0.00     0.047 C 
BRANCH   9  11
ATOM     11  C   UNL A   1      33.524  28.470  23.675  1.00  0.00     0.037 C 
ATOM     12  C   UNL A   1      34.081  28.626  25.106  1.00  0.00     0.007 C 
ENDBRANCH   9  11
BRANCH   9  13
ATOM     13  N   UNL A   1      31.359  27.902  22.611  1.00  0.00    -0.370 N 
ATOM     14  H   UNL A   1      31.650  27.940  21.672  1.00  0.00     0.161 HD
BRANCH  13  15
ATOM     15  C   UNL A   1      30.072  28.403  22.745  1.00  0.00     0.045 A 
ATOM     16  C   UNL A   1      29.839  29.689  22.184  1.00  0.00     0.111 A 
ATOM     17  C   UNL A   1      28.927  27.789  23.279  1.00  0.00    -0.027 A 
ATOM     18  C   UNL A   1      28.556  30.287  22.127  1.00  0.00     0.271 A 
ATOM     19  C   UNL A   1      27.650  28.435  23.288  1.00  0.00     0.012 A 
ATOM     20  C   UNL A   1      28.845  26.368  23.693  1.00  0.00     0.046 C 
ATOM     21  C   UNL A   1      27.455  29.673  22.708  1.00  0.00     0.086 A 
BRANCH  18  22
ATOM     22  N   UNL A   1      28.345  31.510  21.344  1.00  0.00     0.062 N 
ATOM     23  O   UNL A   1      27.588  31.452  20.366  1.00  0.00    -0.258 OA
ATOM     24  O   UNL A   1      28.914  32.546  21.726  1.00  0.00    -0.258 OA
ENDBRANCH  18  22
ENDBRANCH  13  15
ENDBRANCH   9  13
ENDBRANCH   7   9
ENDBRANCH   6   7
ENDBRANCH   5   6
ENDBRANCH   4   5
ENDBRANCH   3   4
ENDBRANCH   2   3
ENDBRANCH   1   2
BRANCH   1  25
ATOM     25  O   UNL A   1      37.646  22.982  25.520  1.00  0.00    -0.377 OA
BRANCH  25  26
ATOM     26  C   UNL A   1      38.248  21.700  25.428  1.00  0.00     0.188 C 
BRANCH  26  27
ATOM     27  C   UNL A   1      39.404  21.551  26.367  1.00  0.00     0.188 C 
BRANCH  27  28
ATOM     28  O   UNL A   1      39.657  22.873  26.827  1.00  0.00    -0.376 OA
BRANCH  28  29
ATOM     29  C   UNL A   1      40.943  23.369  26.508  1.00  0.00     0.202 C 
BRANCH  29  30
ATOM     30  C   UNL A   1      40.915  24.870  26.225  1.00  0.00     0.261 C 
BRANCH  30  31
ATOM     31  O   UNL A   1      40.224  25.523  27.313  1.00  0.00    -0.460 OA
BRANCH  31  32
ATOM     32  C   UNL A   1      41.017  25.995  28.309  1.00  0.00     0.338 C 
ATOM     33  O   UNL A   1      41.970  25.393  28.798  1.00  0.00    -0.246 OA
BRANCH  32  34
ATOM     34  C   UNL A   1      40.405  27.196  28.954  1.00  0.00     0.060 A 
ATOM     35  C   UNL A   1      41.120  28.407  28.976  1.00  0.00     0.016 A 
ATOM     36  C   UNL A   1      39.329  27.031  29.822  1.00  0.00     0.016 A 
ATOM     37  C   UNL A   1      40.863  29.370  29.968  1.00  0.00     0.010 A 
ATOM     38  C   UNL A   1      39.160  27.933  30.861  1.00  0.00     0.010 A 
ATOM     39  C   UNL A   1      39.942  29.094  30.979  1.00  0.00    -0.014 A 
BRANCH  39  40
ATOM     40  C   UNL A   1      39.858  29.831  32.265  1.00  0.00     0.031 A 
ATOM     41  C   UNL A   1      40.722  29.408  33.438  1.00  0.00     0.074 A 
ATOM     42  C   UNL A   1      39.313  31.076  32.259  1.00  0.00     0.049 A 
ATOM     43  N   UNL A   1      40.953  30.085  34.518  1.00  0.00    -0.248 NA
ATOM     44  C   UNL A   1      41.498  28.178  33.418  1.00  0.00     0.031 C 
ATOM     45  C   UNL A   1      39.574  32.117  33.240  1.00  0.00     0.029 A 
ATOM     46  N   UNL A   1      38.462  31.725  31.372  1.00  0.00    -0.354 N 
ATOM     47  C   UNL A   1      42.094  29.603  35.140  1.00  0.00     0.074 A 
ATOM     48  C   UNL A   1      42.357  28.380  34.422  1.00  0.00     0.031 C 
ATOM     49  C   UNL A   1      38.903  33.237  32.974  1.00  0.00     0.029 A 
ATOM     50  C   UNL A   1      37.919  32.860  32.001  1.00  0.00     0.049 A 
ATOM     51  H   UNL A   1      38.269  31.437  30.451  1.00  0.00     0.167 HD
ATOM     52  C   UNL A   1      42.711  30.353  36.118  1.00  0.00     0.037 A 
ATOM     53  C   UNL A   1      36.602  32.895  32.363  1.00  0.00     0.037 A 
ATOM     54  C   UNL A   1      41.858  31.520  36.518  1.00  0.00     0.049 A 
ATOM     55  C   UNL A   1      36.486  32.836  33.898  1.00  0.00     0.074 A 
ATOM     56  C   UNL A   1      42.039  32.892  36.646  1.00  0.00     0.029 A 
ATOM     57  N   UNL A   1      40.472  31.337  36.681  1.00  0.00    -0.354 N 
ATOM     58  N   UNL A   1      37.318  32.146  34.663  1.00  0.00    -0.248 NA
ATOM     59  C   UNL A   1      35.729  33.822  34.673  1.00  0.00     0.031 C 
ATOM     60  C   UNL A   1      40.750  33.520  36.609  1.00  0.00     0.029 A 
ATOM     61  C   UNL A   1      39.770  32.533  36.612  1.00  0.00     0.049 A 
ATOM     62  H   UNL A   1      40.048  30.460  36.827  1.00  0.00     0.167 HD
ATOM     63  C   UNL A   1      37.370  32.721  35.913  1.00  0.00     0.074 A 
ATOM     64  C   UNL A   1      36.299  33.714  35.890  1.00  0.00     0.031 C 
ATOM     65  C   UNL A   1      38.333  32.587  36.884  1.00  0.00     0.037 A 
BRANCH  52  66
ATOM     66  C   UNL A   1      44.169  30.141  36.638  1.00  0.00     0.057 A 
ATOM     67  C   UNL A   1      44.567  28.954  37.302  1.00  0.00     0.134 A 
ATOM     68  C   UNL A   1      45.233  31.070  36.559  1.00  0.00     0.134 A 
ATOM     69  F   UNL A   1      43.740  27.914  37.450  1.00  0.00    -0.206 F 
ATOM     70  C   UNL A   1      45.855  28.740  37.848  1.00  0.00     0.040 A 
ATOM     71  C   UNL A   1      46.525  30.866  37.086  1.00  0.00     0.040 A 
ATOM     72  F   UNL A   1      45.124  32.246  35.950  1.00  0.00    -0.206 F 
ATOM     73  C   UNL A   1      46.844  29.698  37.742  1.00  0.00     0.006 A 
ENDBRANCH  52  66
BRANCH  53  74
ATOM     74  C   UNL A   1      35.744  32.517  31.196  1.00  0.00     0.057 A 
ATOM     75  C   UNL A   1      35.576  33.568  30.260  1.00  0.00     0.134 A 
ATOM     76  C   UNL A   1      35.829  31.226  30.652  1.00  0.00     0.134 A 
ATOM     77  F   UNL A   1      35.449  34.832  30.695  1.00  0.00    -0.206 F 
ATOM     78  C   UNL A   1      35.770  33.381  28.883  1.00  0.00     0.040 A 
ATOM     79  C   UNL A   1      36.005  31.029  29.267  1.00  0.00     0.040 A 
ATOM     80  F   UNL A   1      35.982  30.162  31.453  1.00  0.00    -0.206 F 
ATOM     81  C   UNL A   1      36.051  32.113  28.392  1.00  0.00     0.006 A 
ENDBRANCH  53  74
BRANCH  65  82
ATOM     82  C   UNL A   1      37.914  32.409  38.325  1.00  0.00     0.057 A 
ATOM     83  C   UNL A   1      37.965  33.470  39.241  1.00  0.00     0.134 A 
ATOM     84  C   UNL A   1      37.200  31.267  38.756  1.00  0.00     0.134 A 
ATOM     85  F   UNL A   1      38.541  34.641  38.930  1.00  0.00    -0.206 F 
ATOM     86  C   UNL A   1      37.368  33.396  40.498  1.00  0.00     0.040 A 
ATOM     87  C   UNL A   1      36.558  31.204  39.991  1.00  0.00     0.040 A 
ATOM     88  F   UNL A   1      37.048  30.180  37.985  1.00  0.00    -0.206 F 
ATOM     89  C   UNL A   1      36.647  32.269  40.871  1.00  0.00     0.006 A 
ENDBRANCH  65  82
ENDBRANCH  39  40
ENDBRANCH  32  34
ENDBRANCH  31  32
ENDBRANCH  30  31
ENDBRANCH  29  30
ENDBRANCH  28  29
ENDBRANCH  27  28
ENDBRANCH  26  27
ENDBRANCH  25  26
ENDBRANCH   1  25
TORSDOF 24
ENDMDL
MODEL 2
REMARK VINA RESULT:      -9.7      3.708      9.165
REMARK SMILES CC[C@@](C)(Nc1cc([N+](=O)[O-])ccc1C)C(=O)OCCOCCOCCOCCOC(=O)c1ccc(-c2c3nc(c(-c4c(F)cccc4F)c4ccc([nH]4)c(-c4c(F)cccc4F)c4nc(c(-c5c(F)cccc5F)c5ccc2[nH]5)C=C4)C=C3)cc1
REMARK SMILES IDX 23 1 22 2 21 3 20 4 19 5 18 6 16 7 17 8 3 9 4 10 2 11 1 12
REMARK SMILES IDX 5 13 6 15 7 16 14 17 8 18 13 19 15 20 12 21 9 22 10 23 11 24
REMARK SMILES IDX 24 25 25 26 26 27 27 28 28 29 29 30 30 31 31 32 32 33 33 34
REMARK SMILES IDX 34 35 86 36 35 37 85 38 36 39 37 40 38 41 79 42 39 43 84 44
REMARK SMILES IDX 78 45 80 46 40 47 83 48 77 49 76 50 41 52 67 53 50 54 66 55
REMARK SMILES IDX 51 56 54 57 65 58 81 59 52 60 53 61 64 63 82 64 55 65 42 66
REMARK SMILES IDX 43 67 48 68 44 69 45 70 47 71 49 72 46 73 68 74 69 75 74 76
REMARK SMILES IDX 70 77 71 78 73 79 75 80 72 81 56 82 57 83 62 84 58 85 59 86
REMARK SMILES IDX 61 87 63 88 60 89
REMARK H PARENT 5 14 80 51 54 62
REMARK Flexibility Score: inf
ROOT
ATOM      1  C   UNL A   1      34.821  22.778  24.484  1.00  0.00     0.188 C 
ENDROOT
BRANCH   1   2
ATOM      2  C   UNL A   1      35.879  23.861  24.796  1.00  0.00     0.188 C 
BRANCH   2   3
ATOM      3  O   UNL A   1      37.268  23.588  24.821  1.00  0.00    -0.376 OA
BRANCH   3   4
ATOM      4  C   UNL A   1      37.890  23.305  26.056  1.00  0.00     0.202 C 
BRANCH   4   5
ATOM      5  C   UNL A   1      38.373  24.427  26.941  1.00  0.00     0.261 C 
BRANCH   5   6
ATOM      6  O   UNL A   1      39.490  23.988  27.741  1.00  0.00    -0.462 OA
BRANCH   6   7
ATOM      7  C   UNL A   1      40.319  23.246  26.983  1.00  0.00     0.331 C 
ATOM      8  O   UNL A   1      40.154  22.037  26.838  1.00  0.00    -0.249 OA
BRANCH   7   9
ATOM      9  C   UNL A   1      41.544  23.954  26.417  1.00  0.00     0.133 C 
ATOM     10  C   UNL A   1      41.353  25.405  25.962  1.00  0.00     0.047 C 
BRANCH   9  11
ATOM     11  C   UNL A   1      42.421  24.044  27.746  1.00  0.00     0.037 C 
ATOM     12  C   UNL A   1      42.700  22.699  28.451  1.00  0.00     0.007 C 
ENDBRANCH   9  11
BRANCH   9  13
ATOM     13  N   UNL A   1      42.350  23.129  25.444  1.00  0.00    -0.370 N 
ATOM     14  H   UNL A   1      41.866  23.023  24.593  1.00  0.00     0.161 HD
BRANCH  13  15
ATOM     15  C   UNL A   1      43.573  22.478  25.394  1.00  0.00     0.045 A 
ATOM     16  C   UNL A   1      43.529  21.057  25.440  1.00  0.00     0.111 A 
ATOM     17  C   UNL A   1      44.861  23.011  25.214  1.00  0.00    -0.027 A 
ATOM     18  C   UNL A   1      44.676  20.242  25.277  1.00  0.00     0.271 A 
ATOM     19  C   UNL A   1      46.023  22.181  25.129  1.00  0.00     0.012 A 
ATOM     20  C   UNL A   1      45.151  24.427  24.888  1.00  0.00     0.046 C 
ATOM     21  C   UNL A   1      45.939  20.803  25.150  1.00  0.00     0.086 A 
BRANCH  18  22
ATOM     22  N   UNL A   1      44.535  18.790  25.116  1.00  0.00     0.062 N 
ATOM     23  O   UNL A   1      45.546  18.135  24.831  1.00  0.00    -0.258 OA
ATOM     24  O   UNL A   1      43.412  18.295  25.305  1.00  0.00    -0.258 OA
ENDBRANCH  18  22
ENDBRANCH  13  15
ENDBRANCH   9  13
ENDBRANCH   7   9
ENDBRANCH   6   7
ENDBRANCH   5   6
ENDBRANCH   4   5
ENDBRANCH   3   4
ENDBRANCH   2   3
ENDBRANCH   1   2
BRANCH   1  25
ATOM     25  O   UNL A   1      34.129  22.096  25.518  1.00  0.00    -0.377 OA
BRANCH  25  26
ATOM     26  C   UNL A   1      32.714  22.160  25.584  1.00  0.00     0.188 C 
BRANCH  26  27
ATOM     27  C   UNL A   1      32.238  23.327  26.391  1.00  0.00     0.188 C 
BRANCH  27  28
ATOM     28  O   UNL A   1      31.419  24.066  25.494  1.00  0.00    -0.376 OA
BRANCH  28  29
ATOM     29  C   UNL A   1      30.513  24.953  26.120  1.00  0.00     0.202 C 
BRANCH  29  30
ATOM     30  C   UNL A   1      30.826  26.410  25.786  1.00  0.00     0.261 C 
BRANCH  30  31
ATOM     31  O   UNL A   1      31.987  26.810  26.548  1.00  0.00    -0.460 OA
BRANCH  31  32
ATOM     32  C   UNL A   1      33.062  27.196  25.813  1.00  0.00     0.338 C 
ATOM     33  O   UNL A   1      33.599  26.520  24.938  1.00  0.00    -0.246 OA
BRANCH  32  34
ATOM     34  C   UNL A   1      33.708  28.405  26.408  1.00  0.00     0.060 A 
ATOM     35  C   UNL A   1      34.766  29.029  25.723  1.00  0.00     0.016 A 
ATOM     36  C   UNL A   1      33.518  28.687  27.758  1.00  0.00     0.016 A 
ATOM     37  C   UNL A   1      35.717  29.793  26.422  1.00  0.00     0.010 A 
ATOM     38  C   UNL A   1      34.520  29.345  28.454  1.00  0.00     0.010 A 
ATOM     39  C   UNL A   1      35.653  29.875  27.813  1.00  0.00    -0.014 A 
BRANCH  39  40
ATOM     40  C   UNL A   1      36.774  30.309  28.684  1.00  0.00     0.031 A 
ATOM     41  C   UNL A   1      37.980  29.408  28.869  1.00  0.00     0.074 A 
ATOM     42  C   UNL A   1      36.880  31.629  28.987  1.00  0.00     0.049 A 
ATOM     43  N   UNL A   1      39.127  29.738  29.374  1.00  0.00    -0.248 NA
ATOM     44  C   UNL A   1      38.002  28.040  28.378  1.00  0.00     0.031 C 
ATOM     45  C   UNL A   1      38.105  32.311  29.375  1.00  0.00     0.029 A 
ATOM     46  N   UNL A   1      35.964  32.675  28.967  1.00  0.00    -0.354 N 
ATOM     47  C   UNL A   1      40.092  28.820  28.988  1.00  0.00     0.074 A 
ATOM     48  C   UNL A   1      39.308  27.759  28.406  1.00  0.00     0.031 C 
ATOM     49  C   UNL A   1      37.905  33.608  29.605  1.00  0.00     0.029 A 
ATOM     50  C   UNL A   1      36.482  33.756  29.704  1.00  0.00     0.049 A 
ATOM     51  H   UNL A   1      35.092  32.662  28.512  1.00  0.00     0.167 HD
ATOM     52  C   UNL A   1      41.428  29.127  29.136  1.00  0.00     0.037 A 
ATOM     53  C   UNL A   1      35.948  34.096  30.914  1.00  0.00     0.037 A 
ATOM     54  C   UNL A   1      41.606  30.378  29.943  1.00  0.00     0.049 A 
ATOM     55  C   UNL A   1      36.943  33.745  32.036  1.00  0.00     0.074 A 
ATOM     56  C   UNL A   1      42.296  31.575  29.792  1.00  0.00     0.029 A 
ATOM     57  N   UNL A   1      40.811  30.579  31.088  1.00  0.00    -0.354 N 
ATOM     58  N   UNL A   1      37.746  32.692  31.991  1.00  0.00    -0.248 NA
ATOM     59  C   UNL A   1      37.381  34.717  33.040  1.00  0.00     0.031 C 
ATOM     60  C   UNL A   1      41.707  32.546  30.669  1.00  0.00     0.029 A 
ATOM     61  C   UNL A   1      40.759  31.913  31.467  1.00  0.00     0.049 A 
ATOM     62  H   UNL A   1      40.343  29.855  31.565  1.00  0.00     0.167 HD
ATOM     63  C   UNL A   1      38.868  32.943  32.749  1.00  0.00     0.074 A 
ATOM     64  C   UNL A   1      38.551  34.187  33.447  1.00  0.00     0.031 C 
ATOM     65  C   UNL A   1      40.095  32.326  32.704  1.00  0.00     0.037 A 
BRANCH  52  66
ATOM     66  C   UNL A   1      42.609  28.390  28.428  1.00  0.00     0.057 A 
ATOM     67  C   UNL A   1      43.471  27.506  29.124  1.00  0.00     0.134 A 
ATOM     68  C   UNL A   1      42.991  28.522  27.073  1.00  0.00     0.134 A 
ATOM     69  F   UNL A   1      43.273  27.189  30.408  1.00  0.00    -0.206 F 
ATOM     70  C   UNL A   1      44.592  26.866  28.545  1.00  0.00     0.040 A 
ATOM     71  C   UNL A   1      44.097  27.880  26.477  1.00  0.00     0.040 A 
ATOM     72  F   UNL A   1      42.319  29.266  26.200  1.00  0.00    -0.206 F 
ATOM     73  C   UNL A   1      44.912  27.050  27.214  1.00  0.00     0.006 A 
ENDBRANCH  52  66
BRANCH  53  74
ATOM     74  C   UNL A   1      34.464  34.248  30.790  1.00  0.00     0.057 A 
ATOM     75  C   UNL A   1      33.788  34.193  32.033  1.00  0.00     0.134 A 
ATOM     76  C   UNL A   1      33.927  35.136  29.844  1.00  0.00     0.134 A 
ATOM     77  F   UNL A   1      34.211  33.345  32.984  1.00  0.00    -0.206 F 
ATOM     78  C   UNL A   1      32.836  35.153  32.410  1.00  0.00     0.040 A 
ATOM     79  C   UNL A   1      32.957  36.091  30.210  1.00  0.00     0.040 A 
ATOM     80  F   UNL A   1      34.490  35.258  28.633  1.00  0.00    -0.206 F 
ATOM     81  C   UNL A   1      32.467  36.148  31.514  1.00  0.00     0.006 A 
ENDBRANCH  53  74
BRANCH  65  82
ATOM     82  C   UNL A   1      40.795  31.973  33.995  1.00  0.00     0.057 A 
ATOM     83  C   UNL A   1      40.563  30.753  34.646  1.00  0.00     0.134 A 
ATOM     84  C   UNL A   1      41.906  32.713  34.465  1.00  0.00     0.134 A 
ATOM     85  F   UNL A   1      39.594  29.916  34.249  1.00  0.00    -0.206 F 
ATOM     86  C   UNL A   1      41.363  30.308  35.698  1.00  0.00     0.040 A 
ATOM     87  C   UNL A   1      42.739  32.251  35.481  1.00  0.00     0.040 A 
ATOM     88  F   UNL A   1      42.265  33.889  33.930  1.00  0.00    -0.206 F 
ATOM     89  C   UNL A   1      42.465  31.047  36.107  1.00  0.00     0.006 A 
ENDBRANCH  65  82
ENDBRANCH  39  40
ENDBRANCH  32  34
ENDBRANCH  31  32
ENDBRANCH  30  31
ENDBRANCH  29  30
ENDBRANCH  28  29
ENDBRANCH  27  28
ENDBRANCH  26  27
ENDBRANCH  25  26
ENDBRANCH   1  25
TORSDOF 24
ENDMDL
MODEL 3
REMARK VINA RESULT:      -9.6      3.862      9.274
REMARK SMILES CC[C@@](C)(Nc1cc([N+](=O)[O-])ccc1C)C(=O)OCCOCCOCCOCCOC(=O)c1ccc(-c2c3nc(c(-c4c(F)cccc4F)c4ccc([nH]4)c(-c4c(F)cccc4F)c4nc(c(-c5c(F)cccc5F)c5ccc2[nH]5)C=C4)C=C3)cc1
REMARK SMILES IDX 23 1 22 2 21 3 20 4 19 5 18 6 16 7 17 8 3 9 4 10 2 11 1 12
REMARK SMILES IDX 5 13 6 15 7 16 14 17 8 18 13 19 15 20 12 21 9 22 10 23 11 24
REMARK SMILES IDX 24 25 25 26 26 27 27 28 28 29 29 30 30 31 31 32 32 33 33 34
REMARK SMILES IDX 34 35 86 36 35 37 85 38 36 39 37 40 38 41 79 42 39 43 84 44
REMARK SMILES IDX 78 45 80 46 40 47 83 48 77 49 76 50 41 52 67 53 50 54 66 55
REMARK SMILES IDX 51 56 54 57 65 58 81 59 52 60 53 61 64 63 82 64 55 65 42 66
REMARK SMILES IDX 43 67 48 68 44 69 45 70 47 71 49 72 46 73 68 74 69 75 74 76
REMARK SMILES IDX 70 77 71 78 73 79 75 80 72 81 56 82 57 83 62 84 58 85 59 86
REMARK SMILES IDX 61 87 63 88 60 89
REMARK H PARENT 5 14 80 51 54 62
REMARK Flexibility Score: inf
ROOT
ATOM      1  C   UNL A   1      34.347  23.687  25.049  1.00  0.00     0.188 C 
ENDROOT
BRANCH   1   2
ATOM      2  C   UNL A   1      35.717  23.058  25.387  1.00  0.00     0.188 C 
BRANCH   2   3
ATOM      3  O   UNL A   1      36.586  23.596  26.366  1.00  0.00    -0.376 OA
BRANCH   3   4
ATOM      4  C   UNL A   1      37.960  23.718  26.073  1.00  0.00     0.202 C 
BRANCH   4   5
ATOM      5  C   UNL A   1      38.893  24.384  27.054  1.00  0.00     0.261 C 
BRANCH   5   6
ATOM      6  O   UNL A   1      40.160  24.667  26.426  1.00  0.00    -0.462 OA
BRANCH   6   7
ATOM      7  C   UNL A   1      41.089  23.806  26.881  1.00  0.00     0.331 C 
ATOM      8  O   UNL A   1      40.972  23.244  27.968  1.00  0.00    -0.249 OA
BRANCH   7   9
ATOM      9  C   UNL A   1      42.351  23.656  26.042  1.00  0.00     0.133 C 
ATOM     10  C   UNL A   1      42.785  24.878  25.224  1.00  0.00     0.047 C 
BRANCH   9  11
ATOM     11  C   UNL A   1      43.423  23.537  27.218  1.00  0.00     0.037 C 
ATOM     12  C   UNL A   1      42.944  22.789  28.480  1.00  0.00     0.007 C 
ENDBRANCH   9  11
BRANCH   9  13
ATOM     13  N   UNL A   1      42.440  22.364  25.269  1.00  0.00    -0.370 N 
ATOM     14  H   UNL A   1      42.250  22.515  24.315  1.00  0.00     0.161 HD
BRANCH  13  15
ATOM     15  C   UNL A   1      42.712  21.024  25.506  1.00  0.00     0.045 A 
ATOM     16  C   UNL A   1      44.028  20.586  25.188  1.00  0.00     0.111 A 
ATOM     17  C   UNL A   1      41.904  20.042  26.102  1.00  0.00    -0.027 A 
ATOM     18  C   UNL A   1      44.501  19.284  25.483  1.00  0.00     0.271 A 
ATOM     19  C   UNL A   1      42.366  18.706  26.324  1.00  0.00     0.012 A 
ATOM     20  C   UNL A   1      40.595  20.302  26.748  1.00  0.00     0.046 C 
ATOM     21  C   UNL A   1      43.660  18.324  26.028  1.00  0.00     0.086 A 
BRANCH  18  22
ATOM     22  N   UNL A   1      45.925  18.964  25.331  1.00  0.00     0.062 N 
ATOM     23  O   UNL A   1      46.741  19.893  25.393  1.00  0.00    -0.258 OA
ATOM     24  O   UNL A   1      46.236  17.771  25.180  1.00  0.00    -0.258 OA
ENDBRANCH  18  22
ENDBRANCH  13  15
ENDBRANCH   9  13
ENDBRANCH   7   9
ENDBRANCH   6   7
ENDBRANCH   5   6
ENDBRANCH   4   5
ENDBRANCH   3   4
ENDBRANCH   2   3
ENDBRANCH   1   2
BRANCH   1  25
ATOM     25  O   UNL A   1      33.644  24.485  25.988  1.00  0.00    -0.377 OA
BRANCH  25  26
ATOM     26  C   UNL A   1      32.928  25.629  25.551  1.00  0.00     0.188 C 
BRANCH  26  27
ATOM     27  C   UNL A   1      31.575  25.724  26.184  1.00  0.00     0.188 C 
BRANCH  27  28
ATOM     28  O   UNL A   1      31.657  26.871  27.020  1.00  0.00    -0.376 OA
BRANCH  28  29
ATOM     29  C   UNL A   1      31.888  28.085  26.331  1.00  0.00     0.202 C 
BRANCH  29  30
ATOM     30  C   UNL A   1      32.218  29.226  27.291  1.00  0.00     0.261 C 
BRANCH  30  31
ATOM     31  O   UNL A   1      33.204  30.076  26.663  1.00  0.00    -0.460 OA
BRANCH  31  32
ATOM     32  C   UNL A   1      33.786  30.994  27.477  1.00  0.00     0.338 C 
ATOM     33  O   UNL A   1      33.248  32.024  27.879  1.00  0.00    -0.246 OA
BRANCH  32  34
ATOM     34  C   UNL A   1      35.260  30.765  27.571  1.00  0.00     0.060 A 
ATOM     35  C   UNL A   1      35.758  29.451  27.520  1.00  0.00     0.016 A 
ATOM     36  C   UNL A   1      36.078  31.779  28.059  1.00  0.00     0.016 A 
ATOM     37  C   UNL A   1      36.997  29.134  28.103  1.00  0.00     0.010 A 
ATOM     38  C   UNL A   1      37.243  31.438  28.731  1.00  0.00     0.010 A 
ATOM     39  C   UNL A   1      37.705  30.113  28.801  1.00  0.00    -0.014 A 
BRANCH  39  40
ATOM     40  C   UNL A   1      38.799  29.835  29.765  1.00  0.00     0.031 A 
ATOM     41  C   UNL A   1      39.813  28.747  29.466  1.00  0.00     0.074 A 
ATOM     42  C   UNL A   1      39.100  30.786  30.688  1.00  0.00     0.049 A 
ATOM     43  N   UNL A   1      40.948  28.557  30.061  1.00  0.00    -0.248 NA
ATOM     44  C   UNL A   1      39.647  27.824  28.355  1.00  0.00     0.031 C 
ATOM     45  C   UNL A   1      40.382  30.936  31.358  1.00  0.00     0.029 A 
ATOM     46  N   UNL A   1      38.381  31.860  31.201  1.00  0.00    -0.354 N 
ATOM     47  C   UNL A   1      41.773  27.782  29.262  1.00  0.00     0.074 A 
ATOM     48  C   UNL A   1      40.878  27.320  28.230  1.00  0.00     0.031 C 
ATOM     49  C   UNL A   1      40.385  31.962  32.209  1.00  0.00     0.029 A 
ATOM     50  C   UNL A   1      39.006  32.314  32.377  1.00  0.00     0.049 A 
ATOM     51  H   UNL A   1      37.565  32.241  30.805  1.00  0.00     0.167 HD
ATOM     52  C   UNL A   1      43.123  27.711  29.536  1.00  0.00     0.037 A 
ATOM     53  C   UNL A   1      38.428  32.109  33.598  1.00  0.00     0.037 A 
ATOM     54  C   UNL A   1      43.436  28.340  30.860  1.00  0.00     0.049 A 
ATOM     55  C   UNL A   1      39.241  31.065  34.387  1.00  0.00     0.074 A 
ATOM     56  C   UNL A   1      44.330  29.297  31.326  1.00  0.00     0.029 A 
ATOM     57  N   UNL A   1      42.585  28.100  31.956  1.00  0.00    -0.354 N 
ATOM     58  N   UNL A   1      39.854  30.040  33.815  1.00  0.00    -0.248 NA
ATOM     59  C   UNL A   1      39.744  31.311  35.740  1.00  0.00     0.031 C 
ATOM     60  C   UNL A   1      43.837  29.802  32.574  1.00  0.00     0.029 A 
ATOM     61  C   UNL A   1      42.727  29.055  32.953  1.00  0.00     0.049 A 
ATOM     62  H   UNL A   1      41.960  27.341  32.009  1.00  0.00     0.167 HD
ATOM     63  C   UNL A   1      40.928  29.663  34.590  1.00  0.00     0.074 A 
ATOM     64  C   UNL A   1      40.765  30.435  35.819  1.00  0.00     0.031 C 
ATOM     65  C   UNL A   1      42.032  28.924  34.234  1.00  0.00     0.037 A 
BRANCH  52  66
ATOM     66  C   UNL A   1      44.222  27.206  28.547  1.00  0.00     0.057 A 
ATOM     67  C   UNL A   1      45.178  26.229  28.918  1.00  0.00     0.134 A 
ATOM     68  C   UNL A   1      44.431  27.658  27.222  1.00  0.00     0.134 A 
ATOM     69  F   UNL A   1      45.145  25.623  30.109  1.00  0.00    -0.206 F 
ATOM     70  C   UNL A   1      46.231  25.787  28.082  1.00  0.00     0.040 A 
ATOM     71  C   UNL A   1      45.468  27.217  26.373  1.00  0.00     0.040 A 
ATOM     72  F   UNL A   1      43.645  28.548  26.626  1.00  0.00    -0.206 F 
ATOM     73  C   UNL A   1      46.382  26.280  26.801  1.00  0.00     0.006 A 
ENDBRANCH  52  66
BRANCH  53  74
ATOM     74  C   UNL A   1      37.009  32.586  33.575  1.00  0.00     0.057 A 
ATOM     75  C   UNL A   1      36.890  33.996  33.645  1.00  0.00     0.134 A 
ATOM     76  C   UNL A   1      36.064  31.935  32.767  1.00  0.00     0.134 A 
ATOM     77  F   UNL A   1      37.730  34.696  34.424  1.00  0.00    -0.206 F 
ATOM     78  C   UNL A   1      36.084  34.723  32.757  1.00  0.00     0.040 A 
ATOM     79  C   UNL A   1      35.236  32.660  31.885  1.00  0.00     0.040 A 
ATOM     80  F   UNL A   1      36.086  30.601  32.638  1.00  0.00    -0.206 F 
ATOM     81  C   UNL A   1      35.301  34.051  31.827  1.00  0.00     0.006 A 
ENDBRANCH  53  74
BRANCH  65  82
ATOM     82  C   UNL A   1      42.540  27.853  35.170  1.00  0.00     0.057 A 
ATOM     83  C   UNL A   1      43.582  28.103  36.075  1.00  0.00     0.134 A 
ATOM     84  C   UNL A   1      41.829  26.649  35.379  1.00  0.00     0.134 A 
ATOM     85  F   UNL A   1      44.285  29.245  36.041  1.00  0.00    -0.206 F 
ATOM     86  C   UNL A   1      43.906  27.215  37.099  1.00  0.00     0.040 A 
ATOM     87  C   UNL A   1      42.114  25.780  36.431  1.00  0.00     0.040 A 
ATOM     88  F   UNL A   1      40.795  26.281  34.607  1.00  0.00    -0.206 F 
ATOM     89  C   UNL A   1      43.161  26.059  37.292  1.00  0.00     0.006 A 
ENDBRANCH  65  82
ENDBRANCH  39  40
ENDBRANCH  32  34
ENDBRANCH  31  32
ENDBRANCH  30  31
ENDBRANCH  29  30
ENDBRANCH  28  29
ENDBRANCH  27  28
ENDBRANCH  26  27
ENDBRANCH  25  26
ENDBRANCH   1  25
TORSDOF 24
ENDMDL
