MODEL 1
REMARK VINA RESULT:     -10.5      0.000      0.000
REMARK SMILES CC[C@H]1CC[C@](C(=O)OCCOCCOCCOCCOC(=O)c2ccc(-c3c4nc(c(-c5c(F)cccc5F)c5ccc([nH]5)c(-c5c(F)cccc5F)c5nc(c(-c6c(F)cccc6F)c6ccc3[nH]6)C=C5)C=C4)cc2)([C@H]2CCC[C@@H](S(C)(=O)=O)C2)CC1
REMARK SMILES IDX 15 1 14 2 13 3 12 4 11 5 10 6 9 7 7 8 8 9 6 10 3 11 89 12
REMARK SMILES IDX 4 13 88 14 5 15 2 16 1 17 78 18 79 19 87 20 80 21 82 22
REMARK SMILES IDX 81 23 83 24 84 25 85 26 86 27 16 28 17 29 18 30 19 31 20 32
REMARK SMILES IDX 21 33 22 34 23 35 24 36 25 37 77 38 26 39 76 40 27 41 28 42
REMARK SMILES IDX 29 43 70 44 30 45 75 46 69 47 71 48 31 49 74 50 68 51 67 52
REMARK SMILES IDX 32 54 58 55 41 56 57 57 42 58 45 59 56 60 72 61 43 62 44 63
REMARK SMILES IDX 55 65 73 66 46 67 33 68 34 69 39 70 35 71 36 72 38 73 40 74
REMARK SMILES IDX 37 75 59 76 60 77 65 78 61 79 62 80 64 81 66 82 63 83 47 84
REMARK SMILES IDX 48 85 53 86 49 87 50 88 52 89 54 90 51 91
REMARK H PARENT 71 53 45 64
REMARK Flexibility Score: inf
ROOT
ATOM      1  O   UNL A   1      31.457  27.530  27.071  1.00  0.00    -0.377 OA
ENDROOT
BRANCH   1   2
ATOM      2  C   UNL A   1      30.986  26.604  26.120  1.00  0.00     0.188 C 
BRANCH   2   3
ATOM      3  C   UNL A   1      30.901  26.981  24.584  1.00  0.00     0.188 C 
BRANCH   3   4
ATOM      4  O   UNL A   1      32.122  26.743  23.848  1.00  0.00    -0.376 OA
BRANCH   4   5
ATOM      5  C   UNL A   1      32.186  26.377  22.447  1.00  0.00     0.202 C 
BRANCH   5   6
ATOM      6  C   UNL A   1      32.883  25.078  22.125  1.00  0.00     0.261 C 
BRANCH   6   7
ATOM      7  O   UNL A   1      32.608  24.206  23.208  1.00  0.00    -0.463 OA
BRANCH   7   8
ATOM      8  C   UNL A   1      33.623  23.330  23.364  1.00  0.00     0.312 C 
ATOM      9  O   UNL A   1      34.524  23.231  22.532  1.00  0.00    -0.252 OA
BRANCH   8  10
ATOM     10  C   UNL A   1      33.503  22.397  24.557  1.00  0.00     0.071 C 
ATOM     11  C   UNL A   1      36.199  23.227  25.973  1.00  0.00    -0.011 C 
ATOM     12  C   UNL A   1      35.027  24.213  25.687  1.00  0.00     0.005 C 
ATOM     13  C   UNL A   1      35.925  21.804  25.531  1.00  0.00     0.005 C 
ATOM     14  C   UNL A   1      33.537  23.591  25.604  1.00  0.00     0.019 C 
ATOM     15  C   UNL A   1      34.472  21.447  25.335  1.00  0.00     0.019 C 
BRANCH  11  16
ATOM     16  C   UNL A   1      37.582  23.650  25.375  1.00  0.00    -0.000 C 
ATOM     17  C   UNL A   1      38.514  24.340  26.390  1.00  0.00     0.004 C 
ENDBRANCH  11  16
BRANCH  10  18
ATOM     18  C   UNL A   1      32.291  21.349  24.065  1.00  0.00     0.008 C 
ATOM     19  C   UNL A   1      31.815  21.235  22.600  1.00  0.00     0.005 C 
ATOM     20  C   UNL A   1      32.302  19.822  24.661  1.00  0.00     0.024 C 
ATOM     21  C   UNL A   1      32.318  20.040  21.770  1.00  0.00     0.002 C 
ATOM     22  C   UNL A   1      32.648  18.520  23.814  1.00  0.00     0.108 C 
ATOM     23  C   UNL A   1      32.189  18.648  22.373  1.00  0.00     0.020 C 
BRANCH  22  24
ATOM     24  S   UNL A   1      33.863  16.995  24.040  1.00  0.00     0.150 S 
ATOM     25  C   UNL A   1      33.590  15.476  25.050  1.00  0.00     0.158 C 
ATOM     26  O   UNL A   1      34.021  16.478  22.687  1.00  0.00    -0.229 OA
ATOM     27  O   UNL A   1      35.060  17.510  24.692  1.00  0.00    -0.229 OA
ENDBRANCH  22  24
ENDBRANCH  10  18
ENDBRANCH   8  10
ENDBRANCH   7   8
ENDBRANCH   6   7
ENDBRANCH   5   6
ENDBRANCH   4   5
ENDBRANCH   3   4
ENDBRANCH   2   3
ENDBRANCH   1   2
BRANCH   1  28
ATOM     28  C   UNL A   1      32.464  28.476  26.771  1.00  0.00     0.188 C 
BRANCH  28  29
ATOM     29  C   UNL A   1      32.205  29.910  26.216  1.00  0.00     0.188 C 
BRANCH  29  30
ATOM     30  O   UNL A   1      32.256  31.088  27.000  1.00  0.00    -0.376 OA
BRANCH  30  31
ATOM     31  C   UNL A   1      31.457  32.180  26.596  1.00  0.00     0.202 C 
BRANCH  31  32
ATOM     32  C   UNL A   1      31.918  33.462  27.297  1.00  0.00     0.261 C 
BRANCH  32  33
ATOM     33  O   UNL A   1      33.348  33.550  27.454  1.00  0.00    -0.460 OA
BRANCH  33  34
ATOM     34  C   UNL A   1      33.829  33.737  28.711  1.00  0.00     0.338 C 
ATOM     35  O   UNL A   1      33.284  34.316  29.648  1.00  0.00    -0.246 OA
BRANCH  34  36
ATOM     36  C   UNL A   1      35.080  32.951  28.842  1.00  0.00     0.060 A 
ATOM     37  C   UNL A   1      35.008  31.556  28.998  1.00  0.00     0.016 A 
ATOM     38  C   UNL A   1      36.322  33.573  28.672  1.00  0.00     0.016 A 
ATOM     39  C   UNL A   1      36.175  30.790  29.024  1.00  0.00     0.010 A 
ATOM     40  C   UNL A   1      37.495  32.818  28.767  1.00  0.00     0.010 A 
ATOM     41  C   UNL A   1      37.420  31.434  29.006  1.00  0.00    -0.014 A 
BRANCH  41  42
ATOM     42  C   UNL A   1      38.541  30.748  29.695  1.00  0.00     0.031 A 
ATOM     43  C   UNL A   1      38.736  31.106  31.148  1.00  0.00     0.074 A 
ATOM     44  C   UNL A   1      39.288  29.792  29.118  1.00  0.00     0.049 A 
ATOM     45  N   UNL A   1      39.605  30.657  32.015  1.00  0.00    -0.248 NA
ATOM     46  C   UNL A   1      37.806  32.108  31.702  1.00  0.00     0.031 C 
ATOM     47  C   UNL A   1      39.146  29.308  27.747  1.00  0.00     0.029 A 
ATOM     48  N   UNL A   1      40.318  29.047  29.635  1.00  0.00    -0.354 N 
ATOM     49  C   UNL A   1      39.319  31.319  33.205  1.00  0.00     0.074 A 
ATOM     50  C   UNL A   1      38.229  32.226  32.946  1.00  0.00     0.031 C 
ATOM     51  C   UNL A   1      40.064  28.348  27.529  1.00  0.00     0.029 A 
ATOM     52  C   UNL A   1      40.874  28.172  28.734  1.00  0.00     0.049 A 
ATOM     53  H   UNL A   1      40.630  29.132  30.565  1.00  0.00     0.167 HD
ATOM     54  C   UNL A   1      39.904  31.178  34.414  1.00  0.00     0.037 A 
ATOM     55  C   UNL A   1      41.926  27.341  28.875  1.00  0.00     0.037 A 
ATOM     56  C   UNL A   1      40.999  30.285  34.665  1.00  0.00     0.049 A 
ATOM     57  C   UNL A   1      42.635  27.275  30.207  1.00  0.00     0.074 A 
ATOM     58  C   UNL A   1      41.680  30.069  35.847  1.00  0.00     0.029 A 
ATOM     59  N   UNL A   1      41.576  29.465  33.707  1.00  0.00    -0.354 N 
ATOM     60  N   UNL A   1      42.356  27.900  31.328  1.00  0.00    -0.248 NA
ATOM     61  C   UNL A   1      43.800  26.385  30.294  1.00  0.00     0.031 C 
ATOM     62  C   UNL A   1      42.714  29.164  35.589  1.00  0.00     0.029 A 
ATOM     63  C   UNL A   1      42.629  28.763  34.264  1.00  0.00     0.049 A 
ATOM     64  H   UNL A   1      41.280  29.394  32.771  1.00  0.00     0.167 HD
ATOM     65  C   UNL A   1      43.291  27.457  32.257  1.00  0.00     0.074 A 
ATOM     66  C   UNL A   1      44.129  26.494  31.573  1.00  0.00     0.031 C 
ATOM     67  C   UNL A   1      43.448  27.809  33.558  1.00  0.00     0.037 A 
BRANCH  54  68
ATOM     68  C   UNL A   1      39.399  32.048  35.528  1.00  0.00     0.057 A 
ATOM     69  C   UNL A   1      39.864  33.355  35.727  1.00  0.00     0.134 A 
ATOM     70  C   UNL A   1      38.437  31.564  36.423  1.00  0.00     0.134 A 
ATOM     71  F   UNL A   1      40.809  33.870  34.924  1.00  0.00    -0.206 F 
ATOM     72  C   UNL A   1      39.410  34.138  36.789  1.00  0.00     0.040 A 
ATOM     73  C   UNL A   1      37.951  32.349  37.468  1.00  0.00     0.040 A 
ATOM     74  F   UNL A   1      37.955  30.318  36.297  1.00  0.00    -0.206 F 
ATOM     75  C   UNL A   1      38.442  33.638  37.658  1.00  0.00     0.006 A 
ENDBRANCH  54  68
BRANCH  55  76
ATOM     76  C   UNL A   1      42.399  26.520  27.727  1.00  0.00     0.057 A 
ATOM     77  C   UNL A   1      43.261  27.044  26.755  1.00  0.00     0.134 A 
ATOM     78  C   UNL A   1      41.963  25.200  27.551  1.00  0.00     0.134 A 
ATOM     79  F   UNL A   1      43.694  28.310  26.849  1.00  0.00    -0.206 F 
ATOM     80  C   UNL A   1      43.653  26.297  25.641  1.00  0.00     0.040 A 
ATOM     81  C   UNL A   1      42.371  24.431  26.457  1.00  0.00     0.040 A 
ATOM     82  F   UNL A   1      41.134  24.635  28.440  1.00  0.00    -0.206 F 
ATOM     83  C   UNL A   1      43.212  24.983  25.494  1.00  0.00     0.006 A 
ENDBRANCH  55  76
BRANCH  67  84
ATOM     84  C   UNL A   1      44.541  27.126  34.331  1.00  0.00     0.057 A 
ATOM     85  C   UNL A   1      44.340  25.897  34.971  1.00  0.00     0.134 A 
ATOM     86  C   UNL A   1      45.820  27.691  34.404  1.00  0.00     0.134 A 
ATOM     87  F   UNL A   1      43.137  25.303  34.945  1.00  0.00    -0.206 F 
ATOM     88  C   UNL A   1      45.361  25.276  35.693  1.00  0.00     0.040 A 
ATOM     89  C   UNL A   1      46.859  27.062  35.091  1.00  0.00     0.040 A 
ATOM     90  F   UNL A   1      46.088  28.857  33.796  1.00  0.00    -0.206 F 
ATOM     91  C   UNL A   1      46.627  25.856  35.748  1.00  0.00     0.006 A 
ENDBRANCH  67  84
ENDBRANCH  41  42
ENDBRANCH  34  36
ENDBRANCH  33  34
ENDBRANCH  32  33
ENDBRANCH  31  32
ENDBRANCH  30  31
ENDBRANCH  29  30
ENDBRANCH  28  29
ENDBRANCH   1  28
TORSDOF 23
ENDMDL
MODEL 2
REMARK VINA RESULT:     -10.0      1.754      2.503
REMARK SMILES CC[C@H]1CC[C@](C(=O)OCCOCCOCCOCCOC(=O)c2ccc(-c3c4nc(c(-c5c(F)cccc5F)c5ccc([nH]5)c(-c5c(F)cccc5F)c5nc(c(-c6c(F)cccc6F)c6ccc3[nH]6)C=C5)C=C4)cc2)([C@H]2CCC[C@@H](S(C)(=O)=O)C2)CC1
REMARK SMILES IDX 15 1 14 2 13 3 12 4 11 5 10 6 9 7 7 8 8 9 6 10 3 11 89 12
REMARK SMILES IDX 4 13 88 14 5 15 2 16 1 17 78 18 79 19 87 20 80 21 82 22
REMARK SMILES IDX 81 23 83 24 84 25 85 26 86 27 16 28 17 29 18 30 19 31 20 32
REMARK SMILES IDX 21 33 22 34 23 35 24 36 25 37 77 38 26 39 76 40 27 41 28 42
REMARK SMILES IDX 29 43 70 44 30 45 75 46 69 47 71 48 31 49 74 50 68 51 67 52
REMARK SMILES IDX 32 54 58 55 41 56 57 57 42 58 45 59 56 60 72 61 43 62 44 63
REMARK SMILES IDX 55 65 73 66 46 67 33 68 34 69 39 70 35 71 36 72 38 73 40 74
REMARK SMILES IDX 37 75 59 76 60 77 65 78 61 79 62 80 64 81 66 82 63 83 47 84
REMARK SMILES IDX 48 85 53 86 49 87 50 88 52 89 54 90 51 91
REMARK H PARENT 71 53 45 64
REMARK Flexibility Score: inf
ROOT
ATOM      1  O   UNL A   1      31.132  26.101  25.970  1.00  0.00    -0.377 OA
ENDROOT
BRANCH   1   2
ATOM      2  C   UNL A   1      30.406  26.572  24.859  1.00  0.00     0.188 C 
BRANCH   2   3
ATOM      3  C   UNL A   1      31.109  26.796  23.458  1.00  0.00     0.188 C 
BRANCH   3   4
ATOM      4  O   UNL A   1      32.549  26.892  23.527  1.00  0.00    -0.376 OA
BRANCH   4   5
ATOM      5  C   UNL A   1      33.468  26.178  22.663  1.00  0.00     0.202 C 
BRANCH   5   6
ATOM      6  C   UNL A   1      32.955  24.899  22.049  1.00  0.00     0.261 C 
BRANCH   6   7
ATOM      7  O   UNL A   1      32.625  24.048  23.133  1.00  0.00    -0.463 OA
BRANCH   7   8
ATOM      8  C   UNL A   1      33.642  23.194  23.375  1.00  0.00     0.312 C 
ATOM      9  O   UNL A   1      34.576  23.062  22.585  1.00  0.00    -0.252 OA
BRANCH   8  10
ATOM     10  C   UNL A   1      33.483  22.322  24.610  1.00  0.00     0.071 C 
ATOM     11  C   UNL A   1      36.110  23.259  26.086  1.00  0.00    -0.011 C 
ATOM     12  C   UNL A   1      34.941  24.214  25.702  1.00  0.00     0.005 C 
ATOM     13  C   UNL A   1      35.869  21.812  25.710  1.00  0.00     0.005 C 
ATOM     14  C   UNL A   1      33.462  23.570  25.592  1.00  0.00     0.019 C 
ATOM     15  C   UNL A   1      34.429  21.426  25.474  1.00  0.00     0.019 C 
BRANCH  11  16
ATOM     16  C   UNL A   1      37.512  23.668  25.523  1.00  0.00    -0.000 C 
ATOM     17  C   UNL A   1      38.645  22.695  25.906  1.00  0.00     0.004 C 
ENDBRANCH  11  16
BRANCH  10  18
ATOM     18  C   UNL A   1      32.302  21.235  24.125  1.00  0.00     0.008 C 
ATOM     19  C   UNL A   1      31.833  21.093  22.660  1.00  0.00     0.005 C 
ATOM     20  C   UNL A   1      32.357  19.715  24.735  1.00  0.00     0.024 C 
ATOM     21  C   UNL A   1      32.372  19.906  21.842  1.00  0.00     0.002 C 
ATOM     22  C   UNL A   1      32.743  18.415  23.901  1.00  0.00     0.108 C 
ATOM     23  C   UNL A   1      32.283  18.516  22.458  1.00  0.00     0.020 C 
BRANCH  22  24
ATOM     24  S   UNL A   1      34.001  16.929  24.144  1.00  0.00     0.150 S 
ATOM     25  C   UNL A   1      33.846  15.496  25.295  1.00  0.00     0.158 C 
ATOM     26  O   UNL A   1      34.050  16.302  22.828  1.00  0.00    -0.229 OA
ATOM     27  O   UNL A   1      35.240  17.510  24.642  1.00  0.00    -0.229 OA
ENDBRANCH  22  24
ENDBRANCH  10  18
ENDBRANCH   8  10
ENDBRANCH   7   8
ENDBRANCH   6   7
ENDBRANCH   5   6
ENDBRANCH   4   5
ENDBRANCH   3   4
ENDBRANCH   2   3
ENDBRANCH   1   2
BRANCH   1  28
ATOM     28  C   UNL A   1      32.049  26.914  26.675  1.00  0.00     0.188 C 
BRANCH  28  29
ATOM     29  C   UNL A   1      31.784  28.389  27.109  1.00  0.00     0.188 C 
BRANCH  29  30
ATOM     30  O   UNL A   1      31.730  29.484  26.213  1.00  0.00    -0.376 OA
BRANCH  30  31
ATOM     31  C   UNL A   1      32.110  30.753  26.704  1.00  0.00     0.202 C 
BRANCH  31  32
ATOM     32  C   UNL A   1      33.570  30.727  27.168  1.00  0.00     0.261 C 
BRANCH  32  33
ATOM     33  O   UNL A   1      33.769  31.307  28.473  1.00  0.00    -0.460 OA
BRANCH  33  34
ATOM     34  C   UNL A   1      34.922  31.996  28.680  1.00  0.00     0.338 C 
ATOM     35  O   UNL A   1      35.053  33.197  28.903  1.00  0.00    -0.246 OA
BRANCH  34  36
ATOM     36  C   UNL A   1      36.028  31.014  28.780  1.00  0.00     0.060 A 
ATOM     37  C   UNL A   1      36.030  30.076  29.828  1.00  0.00     0.016 A 
ATOM     38  C   UNL A   1      36.987  30.928  27.764  1.00  0.00     0.016 A 
ATOM     39  C   UNL A   1      37.008  29.082  29.881  1.00  0.00     0.010 A 
ATOM     40  C   UNL A   1      38.009  29.978  27.852  1.00  0.00     0.010 A 
ATOM     41  C   UNL A   1      38.053  29.095  28.946  1.00  0.00    -0.014 A 
BRANCH  41  42
ATOM     42  C   UNL A   1      39.356  28.540  29.388  1.00  0.00     0.031 A 
ATOM     43  C   UNL A   1      39.984  29.211  30.585  1.00  0.00     0.074 A 
ATOM     44  C   UNL A   1      39.919  27.450  28.840  1.00  0.00     0.049 A 
ATOM     45  N   UNL A   1      41.096  28.937  31.215  1.00  0.00    -0.248 NA
ATOM     46  C   UNL A   1      39.240  30.348  31.158  1.00  0.00     0.031 C 
ATOM     47  C   UNL A   1      39.371  26.673  27.730  1.00  0.00     0.029 A 
ATOM     48  N   UNL A   1      41.084  26.802  29.164  1.00  0.00    -0.354 N 
ATOM     49  C   UNL A   1      41.174  29.863  32.251  1.00  0.00     0.074 A 
ATOM     50  C   UNL A   1      40.027  30.730  32.146  1.00  0.00     0.031 C 
ATOM     51  C   UNL A   1      40.207  25.653  27.461  1.00  0.00     0.029 A 
ATOM     52  C   UNL A   1      41.360  25.724  28.360  1.00  0.00     0.049 A 
ATOM     53  H   UNL A   1      41.668  27.084  29.905  1.00  0.00     0.167 HD
ATOM     54  C   UNL A   1      42.113  29.978  33.215  1.00  0.00     0.037 A 
ATOM     55  C   UNL A   1      42.431  24.906  28.350  1.00  0.00     0.037 A 
ATOM     56  C   UNL A   1      43.261  29.122  33.308  1.00  0.00     0.049 A 
ATOM     57  C   UNL A   1      43.523  25.116  29.372  1.00  0.00     0.074 A 
ATOM     58  C   UNL A   1      44.286  29.154  34.234  1.00  0.00     0.029 A 
ATOM     59  N   UNL A   1      43.538  28.084  32.431  1.00  0.00    -0.354 N 
ATOM     60  N   UNL A   1      43.588  25.991  30.350  1.00  0.00    -0.248 NA
ATOM     61  C   UNL A   1      44.687  24.225  29.291  1.00  0.00     0.031 C 
ATOM     62  C   UNL A   1      45.217  28.175  33.879  1.00  0.00     0.029 A 
ATOM     63  C   UNL A   1      44.735  27.487  32.775  1.00  0.00     0.049 A 
ATOM     64  H   UNL A   1      42.966  27.814  31.677  1.00  0.00     0.167 HD
ATOM     65  C   UNL A   1      44.782  25.733  31.016  1.00  0.00     0.074 A 
ATOM     66  C   UNL A   1      45.397  24.608  30.342  1.00  0.00     0.031 C 
ATOM     67  C   UNL A   1      45.326  26.366  32.086  1.00  0.00     0.037 A 
BRANCH  54  68
ATOM     68  C   UNL A   1      41.951  31.097  34.202  1.00  0.00     0.057 A 
ATOM     69  C   UNL A   1      42.515  32.364  33.995  1.00  0.00     0.134 A 
ATOM     70  C   UNL A   1      41.228  30.899  35.384  1.00  0.00     0.134 A 
ATOM     71  F   UNL A   1      43.248  32.612  32.898  1.00  0.00    -0.206 F 
ATOM     72  C   UNL A   1      42.386  33.383  34.940  1.00  0.00     0.040 A 
ATOM     73  C   UNL A   1      41.063  31.920  36.320  1.00  0.00     0.040 A 
ATOM     74  F   UNL A   1      40.669  29.708  35.650  1.00  0.00    -0.206 F 
ATOM     75  C   UNL A   1      41.649  33.165  36.103  1.00  0.00     0.006 A 
ENDBRANCH  54  68
BRANCH  55  76
ATOM     76  C   UNL A   1      42.549  23.828  27.331  1.00  0.00     0.057 A 
ATOM     77  C   UNL A   1      42.069  22.534  27.572  1.00  0.00     0.134 A 
ATOM     78  C   UNL A   1      43.185  24.055  26.103  1.00  0.00     0.134 A 
ATOM     79  F   UNL A   1      41.474  22.241  28.737  1.00  0.00    -0.206 F 
ATOM     80  C   UNL A   1      42.237  21.504  26.643  1.00  0.00     0.040 A 
ATOM     81  C   UNL A   1      43.334  23.042  25.153  1.00  0.00     0.040 A 
ATOM     82  F   UNL A   1      43.673  25.269  25.807  1.00  0.00    -0.206 F 
ATOM     83  C   UNL A   1      42.867  21.759  25.427  1.00  0.00     0.006 A 
ENDBRANCH  55  76
BRANCH  67  84
ATOM     84  C   UNL A   1      46.628  25.834  32.613  1.00  0.00     0.057 A 
ATOM     85  C   UNL A   1      46.682  24.884  33.640  1.00  0.00     0.134 A 
ATOM     86  C   UNL A   1      47.844  26.254  32.058  1.00  0.00     0.134 A 
ATOM     87  F   UNL A   1      45.554  24.442  34.219  1.00  0.00    -0.206 F 
ATOM     88  C   UNL A   1      47.899  24.403  34.127  1.00  0.00     0.040 A 
ATOM     89  C   UNL A   1      49.065  25.753  32.510  1.00  0.00     0.040 A 
ATOM     90  F   UNL A   1      47.866  27.147  31.057  1.00  0.00    -0.206 F 
ATOM     91  C   UNL A   1      49.095  24.834  33.556  1.00  0.00     0.006 A 
ENDBRANCH  67  84
ENDBRANCH  41  42
ENDBRANCH  34  36
ENDBRANCH  33  34
ENDBRANCH  32  33
ENDBRANCH  31  32
ENDBRANCH  30  31
ENDBRANCH  29  30
ENDBRANCH  28  29
ENDBRANCH   1  28
TORSDOF 23
ENDMDL
MODEL 3
REMARK VINA RESULT:      -9.7      4.450      7.319
REMARK SMILES CC[C@H]1CC[C@](C(=O)OCCOCCOCCOCCOC(=O)c2ccc(-c3c4nc(c(-c5c(F)cccc5F)c5ccc([nH]5)c(-c5c(F)cccc5F)c5nc(c(-c6c(F)cccc6F)c6ccc3[nH]6)C=C5)C=C4)cc2)([C@H]2CCC[C@@H](S(C)(=O)=O)C2)CC1
REMARK SMILES IDX 15 1 14 2 13 3 12 4 11 5 10 6 9 7 7 8 8 9 6 10 3 11 89 12
REMARK SMILES IDX 4 13 88 14 5 15 2 16 1 17 78 18 79 19 87 20 80 21 82 22
REMARK SMILES IDX 81 23 83 24 84 25 85 26 86 27 16 28 17 29 18 30 19 31 20 32
REMARK SMILES IDX 21 33 22 34 23 35 24 36 25 37 77 38 26 39 76 40 27 41 28 42
REMARK SMILES IDX 29 43 70 44 30 45 75 46 69 47 71 48 31 49 74 50 68 51 67 52
REMARK SMILES IDX 32 54 58 55 41 56 57 57 42 58 45 59 56 60 72 61 43 62 44 63
REMARK SMILES IDX 55 65 73 66 46 67 33 68 34 69 39 70 35 71 36 72 38 73 40 74
REMARK SMILES IDX 37 75 59 76 60 77 65 78 61 79 62 80 64 81 66 82 63 83 47 84
REMARK SMILES IDX 48 85 53 86 49 87 50 88 52 89 54 90 51 91
REMARK H PARENT 71 53 45 64
REMARK Flexibility Score: inf
ROOT
ATOM      1  O   UNL A   1      34.929  35.028  28.395  1.00  0.00    -0.377 OA
ENDROOT
BRANCH   1   2
ATOM      2  C   UNL A   1      35.080  33.762  27.795  1.00  0.00     0.188 C 
BRANCH   2   3
ATOM      3  C   UNL A   1      34.034  32.603  28.059  1.00  0.00     0.188 C 
BRANCH   3   4
ATOM      4  O   UNL A   1      34.544  31.275  27.806  1.00  0.00    -0.376 OA
BRANCH   4   5
ATOM      5  C   UNL A   1      33.895  30.284  26.970  1.00  0.00     0.202 C 
BRANCH   5   6
ATOM      6  C   UNL A   1      32.904  29.376  27.655  1.00  0.00     0.261 C 
BRANCH   6   7
ATOM      7  O   UNL A   1      33.151  28.074  27.153  1.00  0.00    -0.463 OA
BRANCH   7   8
ATOM      8  C   UNL A   1      32.016  27.552  26.643  1.00  0.00     0.312 C 
ATOM      9  O   UNL A   1      31.039  27.316  27.354  1.00  0.00    -0.252 OA
BRANCH   8  10
ATOM     10  C   UNL A   1      32.078  27.158  25.177  1.00  0.00     0.071 C 
ATOM     11  C   UNL A   1      32.927  24.151  25.620  1.00  0.00    -0.011 C 
ATOM     12  C   UNL A   1      31.605  24.770  26.162  1.00  0.00     0.005 C 
ATOM     13  C   UNL A   1      33.779  25.121  24.826  1.00  0.00     0.005 C 
ATOM     14  C   UNL A   1      30.982  26.021  25.348  1.00  0.00     0.019 C 
ATOM     15  C   UNL A   1      33.059  26.331  24.283  1.00  0.00     0.019 C 
BRANCH  11  16
ATOM     16  C   UNL A   1      33.845  23.494  26.704  1.00  0.00    -0.000 C 
ATOM     17  C   UNL A   1      35.298  23.274  26.240  1.00  0.00     0.004 C 
ENDBRANCH  11  16
BRANCH  10  18
ATOM     18  C   UNL A   1      32.061  28.648  24.410  1.00  0.00     0.008 C 
ATOM     19  C   UNL A   1      32.619  28.873  22.986  1.00  0.00     0.005 C 
ATOM     20  C   UNL A   1      30.698  29.553  24.513  1.00  0.00     0.024 C 
ATOM     21  C   UNL A   1      31.614  28.968  21.825  1.00  0.00     0.002 C 
ATOM     22  C   UNL A   1      29.700  29.833  23.304  1.00  0.00     0.108 C 
ATOM     23  C   UNL A   1      30.433  29.917  21.978  1.00  0.00     0.020 C 
BRANCH  22  24
ATOM     24  S   UNL A   1      27.762  29.681  23.037  1.00  0.00     0.150 S 
ATOM     25  C   UNL A   1      26.670  28.262  23.479  1.00  0.00     0.158 C 
ATOM     26  O   UNL A   1      27.220  30.783  23.822  1.00  0.00    -0.229 OA
ATOM     27  O   UNL A   1      27.536  29.726  21.598  1.00  0.00    -0.229 OA
ENDBRANCH  22  24
ENDBRANCH  10  18
ENDBRANCH   8  10
ENDBRANCH   7   8
ENDBRANCH   6   7
ENDBRANCH   5   6
ENDBRANCH   4   5
ENDBRANCH   3   4
ENDBRANCH   2   3
ENDBRANCH   1   2
BRANCH   1  28
ATOM     28  C   UNL A   1      33.831  35.345  29.227  1.00  0.00     0.188 C 
BRANCH  28  29
ATOM     29  C   UNL A   1      33.705  34.947  30.730  1.00  0.00     0.188 C 
BRANCH  29  30
ATOM     30  O   UNL A   1      34.084  35.782  31.808  1.00  0.00    -0.376 OA
BRANCH  30  31
ATOM     31  C   UNL A   1      34.250  35.181  33.076  1.00  0.00     0.202 C 
BRANCH  31  32
ATOM     32  C   UNL A   1      35.732  34.892  33.336  1.00  0.00     0.261 C 
BRANCH  32  33
ATOM     33  O   UNL A   1      36.213  33.710  32.664  1.00  0.00    -0.460 OA
BRANCH  33  34
ATOM     34  C   UNL A   1      36.786  32.746  33.431  1.00  0.00     0.338 C 
ATOM     35  O   UNL A   1      36.613  32.534  34.629  1.00  0.00    -0.246 OA
BRANCH  34  36
ATOM     36  C   UNL A   1      37.544  31.840  32.535  1.00  0.00     0.060 A 
ATOM     37  C   UNL A   1      38.318  30.806  33.089  1.00  0.00     0.016 A 
ATOM     38  C   UNL A   1      37.379  31.924  31.147  1.00  0.00     0.016 A 
ATOM     39  C   UNL A   1      38.958  29.883  32.259  1.00  0.00     0.010 A 
ATOM     40  C   UNL A   1      38.074  31.045  30.311  1.00  0.00     0.010 A 
ATOM     41  C   UNL A   1      38.914  30.064  30.869  1.00  0.00    -0.014 A 
BRANCH  41  42
ATOM     42  C   UNL A   1      40.073  29.562  30.090  1.00  0.00     0.031 A 
ATOM     43  C   UNL A   1      41.230  30.519  29.944  1.00  0.00     0.074 A 
ATOM     44  C   UNL A   1      40.157  28.307  29.617  1.00  0.00     0.049 A 
ATOM     45  N   UNL A   1      42.383  30.360  29.348  1.00  0.00    -0.248 NA
ATOM     46  C   UNL A   1      41.063  31.843  30.572  1.00  0.00     0.031 C 
ATOM     47  C   UNL A   1      39.137  27.270  29.760  1.00  0.00     0.029 A 
ATOM     48  N   UNL A   1      41.169  27.693  28.924  1.00  0.00    -0.354 N 
ATOM     49  C   UNL A   1      43.067  31.556  29.537  1.00  0.00     0.074 A 
ATOM     50  C   UNL A   1      42.195  32.446  30.263  1.00  0.00     0.031 C 
ATOM     51  C   UNL A   1      39.576  26.145  29.164  1.00  0.00     0.029 A 
ATOM     52  C   UNL A   1      40.892  26.394  28.575  1.00  0.00     0.049 A 
ATOM     53  H   UNL A   1      42.016  28.141  28.698  1.00  0.00     0.167 HD
ATOM     54  C   UNL A   1      44.318  31.886  29.150  1.00  0.00     0.037 A 
ATOM     55  C   UNL A   1      41.619  25.521  27.849  1.00  0.00     0.037 A 
ATOM     56  C   UNL A   1      45.179  31.004  28.414  1.00  0.00     0.049 A 
ATOM     57  C   UNL A   1      42.974  25.946  27.335  1.00  0.00     0.074 A 
ATOM     58  C   UNL A   1      46.460  31.236  27.956  1.00  0.00     0.029 A 
ATOM     59  N   UNL A   1      44.832  29.720  28.022  1.00  0.00    -0.354 N 
ATOM     60  N   UNL A   1      43.616  27.077  27.521  1.00  0.00    -0.248 NA
ATOM     61  C   UNL A   1      43.707  24.972  26.515  1.00  0.00     0.031 C 
ATOM     62  C   UNL A   1      46.868  30.113  27.230  1.00  0.00     0.029 A 
ATOM     63  C   UNL A   1      45.866  29.156  27.299  1.00  0.00     0.049 A 
ATOM     64  H   UNL A   1      43.978  29.277  28.228  1.00  0.00     0.167 HD
ATOM     65  C   UNL A   1      44.836  26.937  26.868  1.00  0.00     0.074 A 
ATOM     66  C   UNL A   1      44.851  25.604  26.300  1.00  0.00     0.031 C 
ATOM     67  C   UNL A   1      45.855  27.825  26.744  1.00  0.00     0.037 A 
BRANCH  54  68
ATOM     68  C   UNL A   1      44.795  33.272  29.475  1.00  0.00     0.057 A 
ATOM     69  C   UNL A   1      44.588  34.356  28.611  1.00  0.00     0.134 A 
ATOM     70  C   UNL A   1      45.483  33.521  30.669  1.00  0.00     0.134 A 
ATOM     71  F   UNL A   1      43.964  34.180  27.435  1.00  0.00    -0.206 F 
ATOM     72  C   UNL A   1      45.070  35.632  28.912  1.00  0.00     0.040 A 
ATOM     73  C   UNL A   1      45.940  34.798  30.996  1.00  0.00     0.040 A 
ATOM     74  F   UNL A   1      45.724  32.527  31.537  1.00  0.00    -0.206 F 
ATOM     75  C   UNL A   1      45.740  35.857  30.113  1.00  0.00     0.006 A 
ENDBRANCH  54  68
BRANCH  55  76
ATOM     76  C   UNL A   1      41.083  24.168  27.537  1.00  0.00     0.057 A 
ATOM     77  C   UNL A   1      40.057  23.983  26.602  1.00  0.00     0.134 A 
ATOM     78  C   UNL A   1      41.558  23.029  28.200  1.00  0.00     0.134 A 
ATOM     79  F   UNL A   1      39.538  25.034  25.952  1.00  0.00    -0.206 F 
ATOM     80  C   UNL A   1      39.507  22.722  26.356  1.00  0.00     0.040 A 
ATOM     81  C   UNL A   1      41.038  21.758  27.942  1.00  0.00     0.040 A 
ATOM     82  F   UNL A   1      42.537  23.132  29.111  1.00  0.00    -0.206 F 
ATOM     83  C   UNL A   1      40.002  21.604  27.023  1.00  0.00     0.006 A 
ENDBRANCH  55  76
BRANCH  67  84
ATOM     84  C   UNL A   1      47.078  27.372  25.999  1.00  0.00     0.057 A 
ATOM     85  C   UNL A   1      48.178  26.805  26.653  1.00  0.00     0.134 A 
ATOM     86  C   UNL A   1      47.139  27.474  24.603  1.00  0.00     0.134 A 
ATOM     87  F   UNL A   1      48.188  26.682  27.990  1.00  0.00    -0.206 F 
ATOM     88  C   UNL A   1      49.313  26.395  25.951  1.00  0.00     0.040 A 
ATOM     89  C   UNL A   1      48.252  27.034  23.886  1.00  0.00     0.040 A 
ATOM     90  F   UNL A   1      46.112  27.989  23.910  1.00  0.00    -0.206 F 
ATOM     91  C   UNL A   1      49.348  26.503  24.562  1.00  0.00     0.006 A 
ENDBRANCH  67  84
ENDBRANCH  41  42
ENDBRANCH  34  36
ENDBRANCH  33  34
ENDBRANCH  32  33
ENDBRANCH  31  32
ENDBRANCH  30  31
ENDBRANCH  29  30
ENDBRANCH  28  29
ENDBRANCH   1  28
TORSDOF 23
ENDMDL
