MODEL 1
REMARK VINA RESULT:      -8.9      0.000      0.000
REMARK SMILES Cc1oc2c(C)c3oc(=O)c(CCC(=O)N[C@H](Cc4ccc(Cl)cc4)C(=O)OCCOCCOCCOCCOC(=O)c4ccc(-c5c6nc(c(-c7c(F)cccc7F)c7ccc([nH]7)c(-c7c(F)cccc7F)c7nc(c(-c8c(F)cccc8F)c8ccc5[nH]8)C=C7)C=C6)cc4)c(C)c3cc2c1C
REMARK SMILES IDX 33 1 32 2 31 3 30 4 29 5 28 6 26 7 27 8 17 9 16 10 14 11
REMARK SMILES IDX 15 12 13 14 12 15 11 16 1 17 2 18 3 19 102 20 4 21 101 22
REMARK SMILES IDX 103 23 5 24 100 25 6 26 7 27 99 28 8 29 97 30 9 31 98 32
REMARK SMILES IDX 10 33 18 34 19 35 20 36 25 37 21 38 24 39 22 40 23 41 34 42
REMARK SMILES IDX 35 43 36 44 37 45 38 46 39 47 40 48 41 49 42 50 43 51 44 52
REMARK SMILES IDX 96 53 45 54 95 55 46 56 47 57 48 58 89 59 49 60 94 61 88 62
REMARK SMILES IDX 90 63 50 64 93 65 87 66 86 67 51 69 77 70 60 71 76 72 61 73
REMARK SMILES IDX 64 74 75 75 91 76 62 77 63 78 74 80 92 81 65 82 52 83 53 84
REMARK SMILES IDX 58 85 54 86 55 87 57 88 59 89 56 90 78 91 79 92 84 93 80 94
REMARK SMILES IDX 81 95 83 96 85 97 82 98 66 99 67 100 72 101 68 102 69 103
REMARK SMILES IDX 71 104 73 105 70 106
REMARK H PARENT 16 13 90 68 64 79
REMARK Flexibility Score: inf
ROOT
ATOM      1  C   UNL A   1      33.615  27.298  24.316  1.00  0.00     0.188 C 
ENDROOT
BRANCH   1   2
ATOM      2  C   UNL A   1      33.534  25.927  23.671  1.00  0.00     0.188 C 
BRANCH   2   3
ATOM      3  O   UNL A   1      33.862  24.855  24.543  1.00  0.00    -0.376 OA
BRANCH   3   4
ATOM      4  C   UNL A   1      34.973  24.044  24.130  1.00  0.00     0.202 C 
BRANCH   4   5
ATOM      5  C   UNL A   1      35.504  23.070  25.187  1.00  0.00     0.261 C 
BRANCH   5   6
ATOM      6  O   UNL A   1      36.832  23.494  25.543  1.00  0.00    -0.462 OA
BRANCH   6   7
ATOM      7  C   UNL A   1      37.738  22.533  25.816  1.00  0.00     0.329 C 
ATOM      8  O   UNL A   1      37.572  21.353  25.527  1.00  0.00    -0.250 OA
BRANCH   7   9
ATOM      9  C   UNL A   1      39.094  23.105  26.311  1.00  0.00     0.196 C 
BRANCH   9  10
ATOM     10  N   UNL A   1      39.668  22.089  27.203  1.00  0.00    -0.342 N 
ATOM     11  C   UNL A   1      40.653  21.190  26.892  1.00  0.00     0.221 C 
ATOM     12  O   UNL A   1      40.662  20.107  27.478  1.00  0.00    -0.275 OA
ATOM     13  H   UNL A   1      39.308  22.050  28.118  1.00  0.00     0.164 HD
BRANCH  11  14
ATOM     14  C   UNL A   1      41.768  21.577  25.934  1.00  0.00     0.105 C 
BRANCH  14  15
ATOM     15  C   UNL A   1      43.176  21.233  26.448  1.00  0.00     0.053 C 
BRANCH  15  16
ATOM     16  C   UNL A   1      44.141  22.407  26.469  1.00  0.00     0.042 A 
ATOM     17  C   UNL A   1      50.670  26.754  28.947  1.00  0.00     0.088 C 
ATOM     18  C   UNL A   1      49.280  26.364  28.626  1.00  0.00     0.105 A 
ATOM     19  O   UNL A   1      48.957  26.324  27.306  1.00  0.00    -0.461 OA
ATOM     20  C   UNL A   1      48.216  25.934  29.402  1.00  0.00    -0.002 A 
ATOM     21  C   UNL A   1      47.731  25.736  27.205  1.00  0.00     0.141 A 
ATOM     22  C   UNL A   1      47.230  25.473  28.473  1.00  0.00     0.025 A 
ATOM     23  C   UNL A   1      48.182  25.827  30.881  1.00  0.00     0.049 C 
ATOM     24  C   UNL A   1      47.119  25.358  26.006  1.00  0.00     0.036 A 
ATOM     25  C   UNL A   1      46.010  24.771  28.584  1.00  0.00     0.024 A 
ATOM     26  C   UNL A   1      47.717  25.669  24.670  1.00  0.00     0.052 C 
ATOM     27  C   UNL A   1      45.997  24.519  26.187  1.00  0.00     0.145 A 
ATOM     28  C   UNL A   1      45.415  24.236  27.429  1.00  0.00     0.022 A 
ATOM     29  O   UNL A   1      45.549  23.823  25.043  1.00  0.00    -0.422 OA
ATOM     30  C   UNL A   1      44.300  23.271  27.494  1.00  0.00    -0.030 A 
ATOM     31  C   UNL A   1      44.898  22.610  25.199  1.00  0.00     0.339 A 
ATOM     32  C   UNL A   1      43.431  23.251  28.723  1.00  0.00     0.046 C 
ATOM     33  O   UNL A   1      44.900  21.769  24.307  1.00  0.00    -0.246 OA
ENDBRANCH  15  16
ENDBRANCH  14  15
ENDBRANCH  11  14
ENDBRANCH   9  10
BRANCH   9  34
ATOM     34  C   UNL A   1      39.224  24.546  26.883  1.00  0.00     0.072 C 
BRANCH  34  35
ATOM     35  C   UNL A   1      40.561  25.253  26.879  1.00  0.00    -0.045 A 
ATOM     36  C   UNL A   1      41.382  25.232  25.735  1.00  0.00     0.005 A 
ATOM     37  C   UNL A   1      41.006  25.952  28.005  1.00  0.00     0.005 A 
ATOM     38  C   UNL A   1      42.554  25.988  25.673  1.00  0.00     0.021 A 
ATOM     39  C   UNL A   1      42.205  26.672  27.960  1.00  0.00     0.021 A 
ATOM     40  C   UNL A   1      42.956  26.715  26.786  1.00  0.00     0.041 A 
ATOM     41  Cl  UNL A   1      44.383  27.673  26.709  1.00  0.00    -0.084 Cl
ENDBRANCH  34  35
ENDBRANCH   9  34
ENDBRANCH   7   9
ENDBRANCH   6   7
ENDBRANCH   5   6
ENDBRANCH   4   5
ENDBRANCH   3   4
ENDBRANCH   2   3
ENDBRANCH   1   2
BRANCH   1  42
ATOM     42  O   UNL A   1      32.621  27.419  25.336  1.00  0.00    -0.377 OA
BRANCH  42  43
ATOM     43  C   UNL A   1      31.537  28.293  25.019  1.00  0.00     0.188 C 
BRANCH  43  44
ATOM     44  C   UNL A   1      31.715  29.739  25.491  1.00  0.00     0.188 C 
BRANCH  44  45
ATOM     45  O   UNL A   1      32.123  30.009  26.831  1.00  0.00    -0.376 OA
BRANCH  45  46
ATOM     46  C   UNL A   1      33.476  30.337  27.103  1.00  0.00     0.202 C 
BRANCH  46  47
ATOM     47  C   UNL A   1      33.711  31.729  27.707  1.00  0.00     0.261 C 
BRANCH  47  48
ATOM     48  O   UNL A   1      34.735  31.791  28.704  1.00  0.00    -0.460 OA
BRANCH  48  49
ATOM     49  C   UNL A   1      35.898  32.344  28.286  1.00  0.00     0.338 C 
ATOM     50  O   UNL A   1      36.060  33.334  27.598  1.00  0.00    -0.246 OA
BRANCH  49  51
ATOM     51  C   UNL A   1      37.004  31.545  28.826  1.00  0.00     0.060 A 
ATOM     52  C   UNL A   1      37.821  32.074  29.829  1.00  0.00     0.016 A 
ATOM     53  C   UNL A   1      37.292  30.317  28.236  1.00  0.00     0.016 A 
ATOM     54  C   UNL A   1      38.960  31.375  30.225  1.00  0.00     0.010 A 
ATOM     55  C   UNL A   1      38.450  29.644  28.605  1.00  0.00     0.010 A 
ATOM     56  C   UNL A   1      39.307  30.177  29.583  1.00  0.00    -0.014 A 
BRANCH  56  57
ATOM     57  C   UNL A   1      40.620  29.554  29.875  1.00  0.00     0.031 A 
ATOM     58  C   UNL A   1      41.829  30.293  29.408  1.00  0.00     0.074 A 
ATOM     59  C   UNL A   1      40.780  28.847  31.018  1.00  0.00     0.049 A 
ATOM     60  N   UNL A   1      42.269  31.347  30.032  1.00  0.00    -0.248 NA
ATOM     61  C   UNL A   1      42.463  30.065  28.111  1.00  0.00     0.031 C 
ATOM     62  C   UNL A   1      39.918  29.021  32.198  1.00  0.00     0.029 A 
ATOM     63  N   UNL A   1      41.828  28.080  31.470  1.00  0.00    -0.354 N 
ATOM     64  C   UNL A   1      43.124  32.000  29.173  1.00  0.00     0.074 A 
ATOM     65  C   UNL A   1      43.266  31.139  28.019  1.00  0.00     0.031 C 
ATOM     66  C   UNL A   1      40.565  28.545  33.278  1.00  0.00     0.029 A 
ATOM     67  C   UNL A   1      41.794  27.893  32.850  1.00  0.00     0.049 A 
ATOM     68  H   UNL A   1      42.525  27.704  30.885  1.00  0.00     0.167 HD
ATOM     69  C   UNL A   1      43.605  33.242  29.433  1.00  0.00     0.037 A 
ATOM     70  C   UNL A   1      42.875  27.697  33.648  1.00  0.00     0.037 A 
ATOM     71  C   UNL A   1      43.166  33.848  30.654  1.00  0.00     0.049 A 
ATOM     72  C   UNL A   1      43.498  29.067  33.656  1.00  0.00     0.074 A 
ATOM     73  C   UNL A   1      42.121  34.660  31.043  1.00  0.00     0.029 A 
ATOM     74  N   UNL A   1      43.828  33.539  31.818  1.00  0.00    -0.354 N 
ATOM     75  N   UNL A   1      43.116  30.081  34.388  1.00  0.00    -0.248 NA
ATOM     76  C   UNL A   1      44.390  29.419  32.550  1.00  0.00     0.031 C 
ATOM     77  C   UNL A   1      41.956  34.431  32.444  1.00  0.00     0.029 A 
ATOM     78  C   UNL A   1      42.876  33.449  32.805  1.00  0.00     0.049 A 
ATOM     79  H   UNL A   1      44.798  33.406  31.924  1.00  0.00     0.167 HD
ATOM     80  C   UNL A   1      43.481  31.217  33.661  1.00  0.00     0.074 A 
ATOM     81  C   UNL A   1      44.324  30.743  32.584  1.00  0.00     0.031 C 
ATOM     82  C   UNL A   1      42.905  32.440  33.839  1.00  0.00     0.037 A 
BRANCH  69  83
ATOM     83  C   UNL A   1      44.553  33.952  28.562  1.00  0.00     0.057 A 
ATOM     84  C   UNL A   1      44.052  34.785  27.556  1.00  0.00     0.134 A 
ATOM     85  C   UNL A   1      45.923  33.691  28.581  1.00  0.00     0.134 A 
ATOM     86  F   UNL A   1      42.735  35.045  27.491  1.00  0.00    -0.206 F 
ATOM     87  C   UNL A   1      44.884  35.324  26.580  1.00  0.00     0.040 A 
ATOM     88  C   UNL A   1      46.769  34.227  27.610  1.00  0.00     0.040 A 
ATOM     89  F   UNL A   1      46.450  32.884  29.515  1.00  0.00    -0.206 F 
ATOM     90  C   UNL A   1      46.247  35.037  26.600  1.00  0.00     0.006 A 
ENDBRANCH  69  83
BRANCH  70  91
ATOM     91  C   UNL A   1      43.616  26.427  33.385  1.00  0.00     0.057 A 
ATOM     92  C   UNL A   1      43.689  25.477  34.427  1.00  0.00     0.134 A 
ATOM     93  C   UNL A   1      44.264  26.072  32.198  1.00  0.00     0.134 A 
ATOM     94  F   UNL A   1      43.205  25.766  35.646  1.00  0.00    -0.206 F 
ATOM     95  C   UNL A   1      44.254  24.211  34.256  1.00  0.00     0.040 A 
ATOM     96  C   UNL A   1      44.814  24.799  32.003  1.00  0.00     0.040 A 
ATOM     97  F   UNL A   1      44.385  26.936  31.182  1.00  0.00    -0.206 F 
ATOM     98  C   UNL A   1      44.793  23.857  33.026  1.00  0.00     0.006 A 
ENDBRANCH  70  91
BRANCH  82  99
ATOM     99  C   UNL A   1      42.029  32.569  35.037  1.00  0.00     0.057 A 
ATOM    100  C   UNL A   1      40.667  32.265  34.952  1.00  0.00     0.134 A 
ATOM    101  C   UNL A   1      42.527  32.970  36.283  1.00  0.00     0.134 A 
ATOM    102  F   UNL A   1      40.130  31.867  33.788  1.00  0.00    -0.206 F 
ATOM    103  C   UNL A   1      39.833  32.340  36.069  1.00  0.00     0.040 A 
ATOM    104  C   UNL A   1      41.707  33.030  37.412  1.00  0.00     0.040 A 
ATOM    105  F   UNL A   1      43.821  33.292  36.437  1.00  0.00    -0.206 F 
ATOM    106  C   UNL A   1      40.355  32.714  37.306  1.00  0.00     0.006 A 
ENDBRANCH  82  99
ENDBRANCH  56  57
ENDBRANCH  49  51
ENDBRANCH  48  49
ENDBRANCH  47  48
ENDBRANCH  46  47
ENDBRANCH  45  46
ENDBRANCH  44  45
ENDBRANCH  43  44
ENDBRANCH  42  43
ENDBRANCH   1  42
TORSDOF 26
ENDMDL
MODEL 2
REMARK VINA RESULT:      -8.6      1.619      2.223
REMARK SMILES Cc1oc2c(C)c3oc(=O)c(CCC(=O)N[C@H](Cc4ccc(Cl)cc4)C(=O)OCCOCCOCCOCCOC(=O)c4ccc(-c5c6nc(c(-c7c(F)cccc7F)c7ccc([nH]7)c(-c7c(F)cccc7F)c7nc(c(-c8c(F)cccc8F)c8ccc5[nH]8)C=C7)C=C6)cc4)c(C)c3cc2c1C
REMARK SMILES IDX 33 1 32 2 31 3 30 4 29 5 28 6 26 7 27 8 17 9 16 10 14 11
REMARK SMILES IDX 15 12 13 14 12 15 11 16 1 17 2 18 3 19 102 20 4 21 101 22
REMARK SMILES IDX 103 23 5 24 100 25 6 26 7 27 99 28 8 29 97 30 9 31 98 32
REMARK SMILES IDX 10 33 18 34 19 35 20 36 25 37 21 38 24 39 22 40 23 41 34 42
REMARK SMILES IDX 35 43 36 44 37 45 38 46 39 47 40 48 41 49 42 50 43 51 44 52
REMARK SMILES IDX 96 53 45 54 95 55 46 56 47 57 48 58 89 59 49 60 94 61 88 62
REMARK SMILES IDX 90 63 50 64 93 65 87 66 86 67 51 69 77 70 60 71 76 72 61 73
REMARK SMILES IDX 64 74 75 75 91 76 62 77 63 78 74 80 92 81 65 82 52 83 53 84
REMARK SMILES IDX 58 85 54 86 55 87 57 88 59 89 56 90 78 91 79 92 84 93 80 94
REMARK SMILES IDX 81 95 83 96 85 97 82 98 66 99 67 100 72 101 68 102 69 103
REMARK SMILES IDX 71 104 73 105 70 106
REMARK H PARENT 16 13 90 68 64 79
REMARK Flexibility Score: inf
ROOT
ATOM      1  C   UNL A   1      34.117  26.198  25.563  1.00  0.00     0.188 C 
ENDROOT
BRANCH   1   2
ATOM      2  C   UNL A   1      34.527  24.962  24.785  1.00  0.00     0.188 C 
BRANCH   2   3
ATOM      3  O   UNL A   1      35.134  23.952  25.580  1.00  0.00    -0.376 OA
BRANCH   3   4
ATOM      4  C   UNL A   1      36.565  24.022  25.674  1.00  0.00     0.202 C 
BRANCH   4   5
ATOM      5  C   UNL A   1      37.243  22.794  26.295  1.00  0.00     0.261 C 
BRANCH   5   6
ATOM      6  O   UNL A   1      38.574  22.713  25.756  1.00  0.00    -0.462 OA
BRANCH   6   7
ATOM      7  C   UNL A   1      39.260  21.571  25.970  1.00  0.00     0.329 C 
ATOM      8  O   UNL A   1      38.910  20.484  25.524  1.00  0.00    -0.250 OA
BRANCH   7   9
ATOM      9  C   UNL A   1      40.647  21.815  26.626  1.00  0.00     0.196 C 
BRANCH   9  10
ATOM     10  N   UNL A   1      41.460  20.630  26.320  1.00  0.00    -0.342 N 
ATOM     11  C   UNL A   1      42.670  20.611  25.679  1.00  0.00     0.221 C 
ATOM     12  O   UNL A   1      42.970  19.611  25.027  1.00  0.00    -0.275 OA
ATOM     13  H   UNL A   1      41.098  19.761  26.605  1.00  0.00     0.164 HD
BRANCH  11  14
ATOM     14  C   UNL A   1      43.656  21.752  25.873  1.00  0.00     0.105 C 
BRANCH  14  15
ATOM     15  C   UNL A   1      43.663  22.771  24.721  1.00  0.00     0.053 C 
BRANCH  15  16
ATOM     16  C   UNL A   1      44.709  23.865  24.857  1.00  0.00     0.042 A 
ATOM     17  C   UNL A   1      49.607  29.161  28.811  1.00  0.00     0.088 C 
ATOM     18  C   UNL A   1      48.583  28.602  27.901  1.00  0.00     0.105 A 
ATOM     19  O   UNL A   1      49.047  27.940  26.808  1.00  0.00    -0.461 OA
ATOM     20  C   UNL A   1      47.201  28.532  27.964  1.00  0.00    -0.002 A 
ATOM     21  C   UNL A   1      47.982  27.317  26.228  1.00  0.00     0.141 A 
ATOM     22  C   UNL A   1      46.816  27.649  26.906  1.00  0.00     0.025 A 
ATOM     23  C   UNL A   1      46.328  29.121  29.009  1.00  0.00     0.049 C 
ATOM     24  C   UNL A   1      48.066  26.399  25.177  1.00  0.00     0.036 A 
ATOM     25  C   UNL A   1      45.611  27.023  26.522  1.00  0.00     0.024 A 
ATOM     26  C   UNL A   1      49.358  26.083  24.491  1.00  0.00     0.052 C 
ATOM     27  C   UNL A   1      46.866  25.689  24.953  1.00  0.00     0.145 A 
ATOM     28  C   UNL A   1      45.645  25.987  25.572  1.00  0.00     0.022 A 
ATOM     29  O   UNL A   1      46.970  24.522  24.165  1.00  0.00    -0.422 OA
ATOM     30  C   UNL A   1      44.483  25.111  25.323  1.00  0.00    -0.030 A 
ATOM     31  C   UNL A   1      46.064  23.491  24.356  1.00  0.00     0.339 A 
ATOM     32  C   UNL A   1      43.107  25.623  25.655  1.00  0.00     0.046 C 
ATOM     33  O   UNL A   1      46.351  22.334  24.071  1.00  0.00    -0.246 OA
ENDBRANCH  15  16
ENDBRANCH  14  15
ENDBRANCH  11  14
ENDBRANCH   9  10
BRANCH   9  34
ATOM     34  C   UNL A   1      40.793  22.275  28.105  1.00  0.00     0.072 C 
BRANCH  34  35
ATOM     35  C   UNL A   1      41.914  23.206  28.510  1.00  0.00    -0.045 A 
ATOM     36  C   UNL A   1      41.726  24.602  28.506  1.00  0.00     0.005 A 
ATOM     37  C   UNL A   1      43.156  22.703  28.907  1.00  0.00     0.005 A 
ATOM     38  C   UNL A   1      42.706  25.463  29.003  1.00  0.00     0.021 A 
ATOM     39  C   UNL A   1      44.157  23.569  29.359  1.00  0.00     0.021 A 
ATOM     40  C   UNL A   1      43.916  24.940  29.437  1.00  0.00     0.041 A 
ATOM     41  Cl  UNL A   1      45.119  25.992  30.077  1.00  0.00    -0.084 Cl
ENDBRANCH  34  35
ENDBRANCH   9  34
ENDBRANCH   7   9
ENDBRANCH   6   7
ENDBRANCH   5   6
ENDBRANCH   4   5
ENDBRANCH   3   4
ENDBRANCH   2   3
ENDBRANCH   1   2
BRANCH   1  42
ATOM     42  O   UNL A   1      32.692  26.276  25.643  1.00  0.00    -0.377 OA
BRANCH  42  43
ATOM     43  C   UNL A   1      32.158  27.599  25.594  1.00  0.00     0.188 C 
BRANCH  43  44
ATOM     44  C   UNL A   1      31.745  28.179  26.951  1.00  0.00     0.188 C 
BRANCH  44  45
ATOM     45  O   UNL A   1      31.428  29.564  27.070  1.00  0.00    -0.376 OA
BRANCH  45  46
ATOM     46  C   UNL A   1      32.391  30.541  26.709  1.00  0.00     0.202 C 
BRANCH  46  47
ATOM     47  C   UNL A   1      33.856  30.148  26.953  1.00  0.00     0.261 C 
BRANCH  47  48
ATOM     48  O   UNL A   1      34.428  30.669  28.157  1.00  0.00    -0.460 OA
BRANCH  48  49
ATOM     49  C   UNL A   1      35.347  31.645  27.969  1.00  0.00     0.338 C 
ATOM     50  O   UNL A   1      35.170  32.790  27.598  1.00  0.00    -0.246 OA
BRANCH  49  51
ATOM     51  C   UNL A   1      36.667  31.102  28.313  1.00  0.00     0.060 A 
ATOM     52  C   UNL A   1      36.898  29.727  28.224  1.00  0.00     0.016 A 
ATOM     53  C   UNL A   1      37.626  31.961  28.842  1.00  0.00     0.016 A 
ATOM     54  C   UNL A   1      38.098  29.202  28.700  1.00  0.00     0.010 A 
ATOM     55  C   UNL A   1      38.803  31.429  29.353  1.00  0.00     0.010 A 
ATOM     56  C   UNL A   1      39.040  30.044  29.310  1.00  0.00    -0.014 A 
BRANCH  56  57
ATOM     57  C   UNL A   1      40.214  29.445  29.988  1.00  0.00     0.031 A 
ATOM     58  C   UNL A   1      41.558  29.901  29.526  1.00  0.00     0.074 A 
ATOM     59  C   UNL A   1      40.131  29.124  31.300  1.00  0.00     0.049 A 
ATOM     60  N   UNL A   1      42.040  31.061  29.869  1.00  0.00    -0.248 NA
ATOM     61  C   UNL A   1      42.324  29.227  28.481  1.00  0.00     0.031 C 
ATOM     62  C   UNL A   1      39.150  29.729  32.215  1.00  0.00     0.029 A 
ATOM     63  N   UNL A   1      41.006  28.460  32.128  1.00  0.00    -0.354 N 
ATOM     64  C   UNL A   1      43.076  31.340  29.007  1.00  0.00     0.074 A 
ATOM     65  C   UNL A   1      43.261  30.150  28.204  1.00  0.00     0.031 C 
ATOM     66  C   UNL A   1      39.584  29.569  33.479  1.00  0.00     0.029 A 
ATOM     67  C   UNL A   1      40.767  28.721  33.475  1.00  0.00     0.049 A 
ATOM     68  H   UNL A   1      41.722  27.865  31.806  1.00  0.00     0.167 HD
ATOM     69  C   UNL A   1      43.671  32.559  28.957  1.00  0.00     0.037 A 
ATOM     70  C   UNL A   1      41.700  28.703  34.462  1.00  0.00     0.037 A 
ATOM     71  C   UNL A   1      43.154  33.552  29.851  1.00  0.00     0.049 A 
ATOM     72  C   UNL A   1      42.483  29.952  34.161  1.00  0.00     0.074 A 
ATOM     73  C   UNL A   1      42.177  34.525  29.800  1.00  0.00     0.029 A 
ATOM     74  N   UNL A   1      43.612  33.575  31.147  1.00  0.00    -0.354 N 
ATOM     75  N   UNL A   1      42.137  31.172  34.482  1.00  0.00    -0.248 NA
ATOM     76  C   UNL A   1      43.550  29.867  33.163  1.00  0.00     0.031 C 
ATOM     77  C   UNL A   1      41.800  34.763  31.158  1.00  0.00     0.029 A 
ATOM     78  C   UNL A   1      42.534  33.877  31.944  1.00  0.00     0.049 A 
ATOM     79  H   UNL A   1      44.535  33.408  31.446  1.00  0.00     0.167 HD
ATOM     80  C   UNL A   1      42.735  31.988  33.517  1.00  0.00     0.074 A 
ATOM     81  C   UNL A   1      43.647  31.135  32.786  1.00  0.00     0.031 C 
ATOM     82  C   UNL A   1      42.299  33.246  33.223  1.00  0.00     0.037 A 
BRANCH  69  83
ATOM     83  C   UNL A   1      44.807  32.882  28.083  1.00  0.00     0.057 A 
ATOM     84  C   UNL A   1      46.105  32.738  28.582  1.00  0.00     0.134 A 
ATOM     85  C   UNL A   1      44.642  33.494  26.840  1.00  0.00     0.134 A 
ATOM     86  F   UNL A   1      46.306  32.170  29.784  1.00  0.00    -0.206 F 
ATOM     87  C   UNL A   1      47.210  33.211  27.880  1.00  0.00     0.040 A 
ATOM     88  C   UNL A   1      45.741  33.972  26.125  1.00  0.00     0.040 A 
ATOM     89  F   UNL A   1      43.416  33.673  26.327  1.00  0.00    -0.206 F 
ATOM     90  C   UNL A   1      47.027  33.840  26.651  1.00  0.00     0.006 A 
ENDBRANCH  69  83
BRANCH  70  91
ATOM     91  C   UNL A   1      42.303  27.361  34.718  1.00  0.00     0.057 A 
ATOM     92  C   UNL A   1      41.983  26.714  35.930  1.00  0.00     0.134 A 
ATOM     93  C   UNL A   1      43.174  26.666  33.873  1.00  0.00     0.134 A 
ATOM     94  F   UNL A   1      41.252  27.342  36.866  1.00  0.00    -0.206 F 
ATOM     95  C   UNL A   1      42.396  25.412  36.223  1.00  0.00     0.040 A 
ATOM     96  C   UNL A   1      43.578  25.352  34.141  1.00  0.00     0.040 A 
ATOM     97  F   UNL A   1      43.662  27.225  32.759  1.00  0.00    -0.206 F 
ATOM     98  C   UNL A   1      43.173  24.713  35.308  1.00  0.00     0.006 A 
ENDBRANCH  70  91
BRANCH  82  99
ATOM     99  C   UNL A   1      41.295  33.815  34.166  1.00  0.00     0.057 A 
ATOM    100  C   UNL A   1      39.929  33.613  33.949  1.00  0.00     0.134 A 
ATOM    101  C   UNL A   1      41.671  34.543  35.301  1.00  0.00     0.134 A 
ATOM    102  F   UNL A   1      39.505  32.916  32.882  1.00  0.00    -0.206 F 
ATOM    103  C   UNL A   1      38.970  34.102  34.838  1.00  0.00     0.040 A 
ATOM    104  C   UNL A   1      40.723  35.020  36.209  1.00  0.00     0.040 A 
ATOM    105  F   UNL A   1      42.963  34.790  35.567  1.00  0.00    -0.206 F 
ATOM    106  C   UNL A   1      39.367  34.799  35.978  1.00  0.00     0.006 A 
ENDBRANCH  82  99
ENDBRANCH  56  57
ENDBRANCH  49  51
ENDBRANCH  48  49
ENDBRANCH  47  48
ENDBRANCH  46  47
ENDBRANCH  45  46
ENDBRANCH  44  45
ENDBRANCH  43  44
ENDBRANCH  42  43
ENDBRANCH   1  42
TORSDOF 26
ENDMDL
MODEL 3
REMARK VINA RESULT:      -8.4      1.562      2.214
REMARK SMILES Cc1oc2c(C)c3oc(=O)c(CCC(=O)N[C@H](Cc4ccc(Cl)cc4)C(=O)OCCOCCOCCOCCOC(=O)c4ccc(-c5c6nc(c(-c7c(F)cccc7F)c7ccc([nH]7)c(-c7c(F)cccc7F)c7nc(c(-c8c(F)cccc8F)c8ccc5[nH]8)C=C7)C=C6)cc4)c(C)c3cc2c1C
REMARK SMILES IDX 33 1 32 2 31 3 30 4 29 5 28 6 26 7 27 8 17 9 16 10 14 11
REMARK SMILES IDX 15 12 13 14 12 15 11 16 1 17 2 18 3 19 102 20 4 21 101 22
REMARK SMILES IDX 103 23 5 24 100 25 6 26 7 27 99 28 8 29 97 30 9 31 98 32
REMARK SMILES IDX 10 33 18 34 19 35 20 36 25 37 21 38 24 39 22 40 23 41 34 42
REMARK SMILES IDX 35 43 36 44 37 45 38 46 39 47 40 48 41 49 42 50 43 51 44 52
REMARK SMILES IDX 96 53 45 54 95 55 46 56 47 57 48 58 89 59 49 60 94 61 88 62
REMARK SMILES IDX 90 63 50 64 93 65 87 66 86 67 51 69 77 70 60 71 76 72 61 73
REMARK SMILES IDX 64 74 75 75 91 76 62 77 63 78 74 80 92 81 65 82 52 83 53 84
REMARK SMILES IDX 58 85 54 86 55 87 57 88 59 89 56 90 78 91 79 92 84 93 80 94
REMARK SMILES IDX 81 95 83 96 85 97 82 98 66 99 67 100 72 101 68 102 69 103
REMARK SMILES IDX 71 104 73 105 70 106
REMARK H PARENT 16 13 90 68 64 79
REMARK Flexibility Score: inf
ROOT
ATOM      1  C   UNL A   1      33.394  27.270  24.474  1.00  0.00     0.188 C 
ENDROOT
BRANCH   1   2
ATOM      2  C   UNL A   1      33.142  25.799  24.206  1.00  0.00     0.188 C 
BRANCH   2   3
ATOM      3  O   UNL A   1      33.440  24.949  25.306  1.00  0.00    -0.376 OA
BRANCH   3   4
ATOM      4  C   UNL A   1      34.838  24.742  25.560  1.00  0.00     0.202 C 
BRANCH   4   5
ATOM      5  C   UNL A   1      35.331  23.301  25.386  1.00  0.00     0.261 C 
BRANCH   5   6
ATOM      6  O   UNL A   1      36.716  23.357  25.001  1.00  0.00    -0.462 OA
BRANCH   6   7
ATOM      7  C   UNL A   1      37.564  22.503  25.611  1.00  0.00     0.329 C 
ATOM      8  O   UNL A   1      37.427  21.285  25.579  1.00  0.00    -0.250 OA
BRANCH   7   9
ATOM      9  C   UNL A   1      38.843  23.203  26.146  1.00  0.00     0.196 C 
BRANCH   9  10
ATOM     10  N   UNL A   1      39.543  22.207  26.968  1.00  0.00    -0.342 N 
ATOM     11  C   UNL A   1      40.740  21.607  26.685  1.00  0.00     0.221 C 
ATOM     12  O   UNL A   1      40.943  20.473  27.119  1.00  0.00    -0.275 OA
ATOM     13  H   UNL A   1      39.105  21.943  27.809  1.00  0.00     0.164 HD
BRANCH  11  14
ATOM     14  C   UNL A   1      41.828  22.378  25.955  1.00  0.00     0.105 C 
BRANCH  14  15
ATOM     15  C   UNL A   1      43.235  21.776  26.121  1.00  0.00     0.053 C 
BRANCH  15  16
ATOM     16  C   UNL A   1      44.366  22.784  26.007  1.00  0.00     0.042 A 
ATOM     17  C   UNL A   1      51.951  25.757  27.142  1.00  0.00     0.088 C 
ATOM     18  C   UNL A   1      50.479  25.620  27.150  1.00  0.00     0.105 A 
ATOM     19  O   UNL A   1      49.851  25.808  25.958  1.00  0.00    -0.461 OA
ATOM     20  C   UNL A   1      49.570  25.248  28.127  1.00  0.00    -0.002 A 
ATOM     21  C   UNL A   1      48.553  25.424  26.118  1.00  0.00     0.141 A 
ATOM     22  C   UNL A   1      48.327  25.066  27.441  1.00  0.00     0.025 A 
ATOM     23  C   UNL A   1      49.868  24.947  29.549  1.00  0.00     0.049 C 
ATOM     24  C   UNL A   1      47.619  25.305  25.084  1.00  0.00     0.036 A 
ATOM     25  C   UNL A   1      47.066  24.540  27.792  1.00  0.00     0.024 A 
ATOM     26  C   UNL A   1      47.928  25.705  23.676  1.00  0.00     0.052 C 
ATOM     27  C   UNL A   1      46.443  24.622  25.464  1.00  0.00     0.145 A 
ATOM     28  C   UNL A   1      46.130  24.260  26.781  1.00  0.00     0.022 A 
ATOM     29  O   UNL A   1      45.623  24.160  24.412  1.00  0.00    -0.422 OA
ATOM     30  C   UNL A   1      44.911  23.467  27.036  1.00  0.00    -0.030 A 
ATOM     31  C   UNL A   1      44.826  23.046  24.612  1.00  0.00     0.339 A 
ATOM     32  C   UNL A   1      44.367  23.407  28.438  1.00  0.00     0.046 C 
ATOM     33  O   UNL A   1      44.469  22.343  23.672  1.00  0.00    -0.246 OA
ENDBRANCH  15  16
ENDBRANCH  14  15
ENDBRANCH  11  14
ENDBRANCH   9  10
BRANCH   9  34
ATOM     34  C   UNL A   1      38.800  24.607  26.814  1.00  0.00     0.072 C 
BRANCH  34  35
ATOM     35  C   UNL A   1      40.080  25.368  27.077  1.00  0.00    -0.045 A 
ATOM     36  C   UNL A   1      40.598  25.475  28.383  1.00  0.00     0.005 A 
ATOM     37  C   UNL A   1      40.782  25.974  26.031  1.00  0.00     0.005 A 
ATOM     38  C   UNL A   1      41.843  26.060  28.620  1.00  0.00     0.021 A 
ATOM     39  C   UNL A   1      42.008  26.604  26.276  1.00  0.00     0.021 A 
ATOM     40  C   UNL A   1      42.548  26.615  27.561  1.00  0.00     0.041 A 
ATOM     41  Cl  UNL A   1      44.096  27.312  27.840  1.00  0.00    -0.084 Cl
ENDBRANCH  34  35
ENDBRANCH   9  34
ENDBRANCH   7   9
ENDBRANCH   6   7
ENDBRANCH   5   6
ENDBRANCH   4   5
ENDBRANCH   3   4
ENDBRANCH   2   3
ENDBRANCH   1   2
BRANCH   1  42
ATOM     42  O   UNL A   1      32.158  27.939  24.733  1.00  0.00    -0.377 OA
BRANCH  42  43
ATOM     43  C   UNL A   1      32.287  29.296  25.161  1.00  0.00     0.188 C 
BRANCH  43  44
ATOM     44  C   UNL A   1      31.945  29.544  26.633  1.00  0.00     0.188 C 
BRANCH  44  45
ATOM     45  O   UNL A   1      32.969  29.914  27.554  1.00  0.00    -0.376 OA
BRANCH  45  46
ATOM     46  C   UNL A   1      33.528  31.217  27.499  1.00  0.00     0.202 C 
BRANCH  46  47
ATOM     47  C   UNL A   1      34.796  31.429  28.340  1.00  0.00     0.261 C 
BRANCH  47  48
ATOM     48  O   UNL A   1      35.480  30.229  28.715  1.00  0.00    -0.460 OA
BRANCH  48  49
ATOM     49  C   UNL A   1      36.283  29.712  27.755  1.00  0.00     0.338 C 
ATOM     50  O   UNL A   1      36.029  29.515  26.583  1.00  0.00    -0.246 OA
BRANCH  49  51
ATOM     51  C   UNL A   1      37.588  29.422  28.360  1.00  0.00     0.060 A 
ATOM     52  C   UNL A   1      37.726  29.424  29.751  1.00  0.00     0.016 A 
ATOM     53  C   UNL A   1      38.693  29.274  27.527  1.00  0.00     0.016 A 
ATOM     54  C   UNL A   1      38.996  29.304  30.313  1.00  0.00     0.010 A 
ATOM     55  C   UNL A   1      39.960  29.195  28.090  1.00  0.00     0.010 A 
ATOM     56  C   UNL A   1      40.127  29.235  29.485  1.00  0.00    -0.014 A 
BRANCH  56  57
ATOM     57  C   UNL A   1      41.476  29.310  30.095  1.00  0.00     0.031 A 
ATOM     58  C   UNL A   1      42.241  30.572  29.873  1.00  0.00     0.074 A 
ATOM     59  C   UNL A   1      41.704  28.697  31.280  1.00  0.00     0.049 A 
ATOM     60  N   UNL A   1      41.962  31.664  30.523  1.00  0.00    -0.248 NA
ATOM     61  C   UNL A   1      43.173  30.765  28.765  1.00  0.00     0.031 C 
ATOM     62  C   UNL A   1      40.631  28.354  32.227  1.00  0.00     0.029 A 
ATOM     63  N   UNL A   1      42.864  28.508  31.995  1.00  0.00    -0.354 N 
ATOM     64  C   UNL A   1      42.555  32.704  29.845  1.00  0.00     0.074 A 
ATOM     65  C   UNL A   1      43.349  32.097  28.798  1.00  0.00     0.031 C 
ATOM     66  C   UNL A   1      41.172  28.183  33.448  1.00  0.00     0.029 A 
ATOM     67  C   UNL A   1      42.622  28.239  33.340  1.00  0.00     0.049 A 
ATOM     68  H   UNL A   1      43.765  28.557  31.601  1.00  0.00     0.167 HD
ATOM     69  C   UNL A   1      42.300  34.004  30.140  1.00  0.00     0.037 A 
ATOM     70  C   UNL A   1      43.456  28.541  34.369  1.00  0.00     0.037 A 
ATOM     71  C   UNL A   1      41.365  34.240  31.199  1.00  0.00     0.049 A 
ATOM     72  C   UNL A   1      43.313  30.037  34.444  1.00  0.00     0.074 A 
ATOM     73  C   UNL A   1      40.000  34.415  31.302  1.00  0.00     0.029 A 
ATOM     74  N   UNL A   1      41.818  34.216  32.497  1.00  0.00    -0.354 N 
ATOM     75  N   UNL A   1      42.335  30.688  35.019  1.00  0.00    -0.248 NA
ATOM     76  C   UNL A   1      44.139  30.850  33.549  1.00  0.00     0.031 C 
ATOM     77  C   UNL A   1      39.664  34.044  32.640  1.00  0.00     0.029 A 
ATOM     78  C   UNL A   1      40.840  33.612  33.249  1.00  0.00     0.049 A 
ATOM     79  H   UNL A   1      42.679  34.564  32.824  1.00  0.00     0.167 HD
ATOM     80  C   UNL A   1      42.250  31.903  34.333  1.00  0.00     0.074 A 
ATOM     81  C   UNL A   1      43.430  31.970  33.498  1.00  0.00     0.031 C 
ATOM     82  C   UNL A   1      41.128  32.678  34.315  1.00  0.00     0.037 A 
BRANCH  69  83
ATOM     83  C   UNL A   1      42.947  35.139  29.468  1.00  0.00     0.057 A 
ATOM     84  C   UNL A   1      44.163  35.615  29.968  1.00  0.00     0.134 A 
ATOM     85  C   UNL A   1      42.312  35.874  28.467  1.00  0.00     0.134 A 
ATOM     86  F   UNL A   1      44.798  34.947  30.946  1.00  0.00    -0.206 F 
ATOM     87  C   UNL A   1      44.724  36.802  29.504  1.00  0.00     0.040 A 
ATOM     88  C   UNL A   1      42.863  37.064  27.992  1.00  0.00     0.040 A 
ATOM     89  F   UNL A   1      41.134  35.469  27.968  1.00  0.00    -0.206 F 
ATOM     90  C   UNL A   1      44.067  37.535  28.519  1.00  0.00     0.006 A 
ENDBRANCH  69  83
BRANCH  70  91
ATOM     91  C   UNL A   1      44.758  27.810  34.345  1.00  0.00     0.057 A 
ATOM     92  C   UNL A   1      44.760  26.480  33.875  1.00  0.00     0.134 A 
ATOM     93  C   UNL A   1      45.999  28.310  34.753  1.00  0.00     0.134 A 
ATOM     94  F   UNL A   1      43.606  25.863  33.572  1.00  0.00    -0.206 F 
ATOM     95  C   UNL A   1      45.934  25.743  33.701  1.00  0.00     0.040 A 
ATOM     96  C   UNL A   1      47.187  27.592  34.563  1.00  0.00     0.040 A 
ATOM     97  F   UNL A   1      46.112  29.506  35.343  1.00  0.00    -0.206 F 
ATOM     98  C   UNL A   1      47.159  26.313  34.017  1.00  0.00     0.006 A 
ENDBRANCH  70  91
BRANCH  82  99
ATOM     99  C   UNL A   1      40.062  32.288  35.278  1.00  0.00     0.057 A 
ATOM    100  C   UNL A   1      39.965  32.924  36.519  1.00  0.00     0.134 A 
ATOM    101  C   UNL A   1      39.113  31.302  34.979  1.00  0.00     0.134 A 
ATOM    102  F   UNL A   1      40.838  33.883  36.863  1.00  0.00    -0.206 F 
ATOM    103  C   UNL A   1      38.950  32.604  37.424  1.00  0.00     0.040 A 
ATOM    104  C   UNL A   1      38.083  30.987  35.866  1.00  0.00     0.040 A 
ATOM    105  F   UNL A   1      39.153  30.638  33.812  1.00  0.00    -0.206 F 
ATOM    106  C   UNL A   1      37.999  31.640  37.094  1.00  0.00     0.006 A 
ENDBRANCH  82  99
ENDBRANCH  56  57
ENDBRANCH  49  51
ENDBRANCH  48  49
ENDBRANCH  47  48
ENDBRANCH  46  47
ENDBRANCH  45  46
ENDBRANCH  44  45
ENDBRANCH  43  44
ENDBRANCH  42  43
ENDBRANCH   1  42
TORSDOF 26
ENDMDL
