MODEL 1
REMARK VINA RESULT:      -7.4      0.000      0.000
REMARK SMILES COc1ccccc1N1CC[NH+]([C@@H](C(=O)OCCOCCOCCOCCOC(=O)c2ccc(-c3c4nc(c(-c5c(F)cccc5F)c5ccc([nH]5)c(-c5c(F)cccc5F)c5nc(c(-c6c(F)cccc6F)c6ccc3[nH]6)C=C5)C=C4)cc2)c2c[nH]c3ccc(OCC#N)cc23)CC1
REMARK SMILES IDX 21 1 20 2 19 3 18 4 17 5 16 6 14 7 15 8 13 9 12 10 9 11
REMARK SMILES IDX 10 12 99 13 11 14 98 15 8 17 3 18 4 19 5 20 7 21 6 22 2 23
REMARK SMILES IDX 1 24 85 25 86 26 97 27 87 28 88 29 96 30 89 32 91 33 90 34
REMARK SMILES IDX 92 35 93 36 94 37 95 38 22 39 23 40 24 41 25 42 26 43 27 44
REMARK SMILES IDX 28 45 29 46 30 47 31 48 32 49 84 50 33 51 83 52 34 53 35 54
REMARK SMILES IDX 36 55 77 56 37 57 82 58 76 59 78 60 38 61 81 62 75 63 74 64
REMARK SMILES IDX 39 66 65 67 48 68 64 69 49 70 52 71 63 72 79 73 50 74 51 75
REMARK SMILES IDX 62 77 80 78 53 79 40 80 41 81 46 82 42 83 43 84 45 85 47 86
REMARK SMILES IDX 44 87 66 88 67 89 72 90 68 91 69 92 71 93 73 94 70 95 54 96
REMARK SMILES IDX 55 97 60 98 56 99 57 100 59 101 61 102 58 103
REMARK H PARENT 12 16 87 31 78 65 52 76
REMARK Flexibility Score: inf
ROOT
ATOM      1  C   UNL A   1      44.273  40.131  31.728  1.00  0.00     0.188 C 
ENDROOT
BRANCH   1   2
ATOM      2  C   UNL A   1      43.154  39.752  32.682  1.00  0.00     0.188 C 
BRANCH   2   3
ATOM      3  O   UNL A   1      43.068  38.389  33.038  1.00  0.00    -0.376 OA
BRANCH   3   4
ATOM      4  C   UNL A   1      43.207  38.012  34.405  1.00  0.00     0.202 C 
BRANCH   4   5
ATOM      5  C   UNL A   1      42.983  36.569  34.877  1.00  0.00     0.261 C 
BRANCH   5   6
ATOM      6  O   UNL A   1      41.808  35.953  34.308  1.00  0.00    -0.459 OA
BRANCH   6   7
ATOM      7  C   UNL A   1      42.011  34.896  33.468  1.00  0.00     0.370 C 
ATOM      8  O   UNL A   1      42.467  35.027  32.331  1.00  0.00    -0.245 OA
BRANCH   7   9
ATOM      9  C   UNL A   1      41.512  33.548  34.001  1.00  0.00     0.328 C 
BRANCH   9  10
ATOM     10  N   UNL A   1      40.079  33.473  34.489  1.00  0.00    -0.316 N 
ATOM     11  N   UNL A   1      37.924  32.985  32.462  1.00  0.00    -0.357 N 
ATOM     12  C   UNL A   1      38.702  34.222  32.607  1.00  0.00     0.178 C 
ATOM     13  C   UNL A   1      38.459  31.806  33.168  1.00  0.00     0.178 C 
ATOM     14  C   UNL A   1      39.137  34.471  34.034  1.00  0.00     0.284 C 
ATOM     15  C   UNL A   1      39.349  32.177  34.445  1.00  0.00     0.284 C 
ATOM     16  H   UNL A   1      40.361  33.661  35.450  1.00  0.00     0.349 HD
BRANCH  11  17
ATOM     17  C   UNL A   1      37.092  32.993  31.321  1.00  0.00     0.080 A 
ATOM     18  C   UNL A   1      35.316  33.362  31.551  1.00  0.00     0.142 A 
ATOM     19  C   UNL A   1      34.251  33.745  30.114  1.00  0.00     0.048 A 
ATOM     20  C   UNL A   1      34.874  33.534  28.421  1.00  0.00     0.004 A 
ATOM     21  C   UNL A   1      37.763  33.035  29.616  1.00  0.00     0.030 A 
ATOM     22  C   UNL A   1      36.649  33.194  28.151  1.00  0.00     0.002 A 
BRANCH  18  23
ATOM     23  O   UNL A   1      34.599  33.289  32.716  1.00  0.00    -0.495 OA
ATOM     24  C   UNL A   1      35.237  33.678  33.916  1.00  0.00     0.278 C 
ENDBRANCH  18  23
ENDBRANCH  11  17
ENDBRANCH   9  10
BRANCH   9  25
ATOM     25  C   UNL A   1      42.562  32.389  34.345  1.00  0.00     0.046 A 
ATOM     26  C   UNL A   1      43.426  32.543  35.441  1.00  0.00     0.094 A 
ATOM     27  C   UNL A   1      43.381  31.437  33.589  1.00  0.00     0.013 A 
ATOM     28  N   UNL A   1      44.615  32.822  34.755  1.00  0.00    -0.361 N 
ATOM     29  C   UNL A   1      44.692  31.910  33.722  1.00  0.00     0.046 A 
ATOM     30  C   UNL A   1      43.320  30.120  33.058  1.00  0.00     0.057 A 
ATOM     31  H   UNL A   1      45.266  33.530  34.966  1.00  0.00     0.166 HD
ATOM     32  C   UNL A   1      45.780  31.422  32.984  1.00  0.00     0.030 A 
ATOM     33  C   UNL A   1      44.400  29.539  32.362  1.00  0.00     0.121 A 
ATOM     34  C   UNL A   1      45.602  30.228  32.268  1.00  0.00     0.048 A 
BRANCH  33  35
ATOM     35  O   UNL A   1      44.102  28.344  31.761  1.00  0.00    -0.479 OA
BRANCH  35  36
ATOM     36  C   UNL A   1      44.632  27.126  32.304  1.00  0.00     0.349 C 
BRANCH  36  37
ATOM     37  C   UNL A   1      45.823  26.640  31.590  1.00  0.00     0.104 C 
ATOM     38  N   UNL A   1      46.771  26.271  31.028  1.00  0.00    -0.195 NA
ENDBRANCH  36  37
ENDBRANCH  35  36
ENDBRANCH  33  35
ENDBRANCH   9  25
ENDBRANCH   7   9
ENDBRANCH   6   7
ENDBRANCH   5   6
ENDBRANCH   4   5
ENDBRANCH   3   4
ENDBRANCH   2   3
ENDBRANCH   1   2
BRANCH   1  39
ATOM     39  O   UNL A   1      43.939  40.952  30.645  1.00  0.00    -0.377 OA
BRANCH  39  40
ATOM     40  C   UNL A   1      45.044  41.541  30.009  1.00  0.00     0.188 C 
BRANCH  40  41
ATOM     41  C   UNL A   1      46.457  40.992  30.279  1.00  0.00     0.188 C 
BRANCH  41  42
ATOM     42  O   UNL A   1      47.518  40.977  29.341  1.00  0.00    -0.376 OA
BRANCH  42  43
ATOM     43  C   UNL A   1      47.738  39.870  28.492  1.00  0.00     0.202 C 
BRANCH  43  44
ATOM     44  C   UNL A   1      46.509  39.136  27.936  1.00  0.00     0.261 C 
BRANCH  44  45
ATOM     45  O   UNL A   1      46.209  37.892  28.612  1.00  0.00    -0.460 OA
BRANCH  45  46
ATOM     46  C   UNL A   1      45.618  36.799  27.876  1.00  0.00     0.338 C 
ATOM     47  O   UNL A   1      44.871  37.434  27.081  1.00  0.00    -0.246 OA
BRANCH  46  48
ATOM     48  C   UNL A   1      45.981  34.682  28.114  1.00  0.00     0.060 A 
ATOM     49  C   UNL A   1      45.751  33.583  27.092  1.00  0.00     0.016 A 
ATOM     50  C   UNL A   1      46.296  33.867  29.322  1.00  0.00     0.016 A 
ATOM     51  C   UNL A   1      45.133  32.375  27.301  1.00  0.00     0.010 A 
ATOM     52  C   UNL A   1      45.971  32.521  29.524  1.00  0.00     0.010 A 
ATOM     53  C   UNL A   1      45.298  31.835  28.533  1.00  0.00    -0.014 A 
BRANCH  53  54
ATOM     54  C   UNL A   1      44.955  30.448  28.725  1.00  0.00     0.031 A 
ATOM     55  C   UNL A   1      46.000  29.465  28.377  1.00  0.00     0.074 A 
ATOM     56  C   UNL A   1      43.666  30.227  29.021  1.00  0.00     0.049 A 
ATOM     57  N   UNL A   1      45.847  28.224  28.041  1.00  0.00    -0.248 NA
ATOM     58  C   UNL A   1      47.386  29.965  28.296  1.00  0.00     0.031 C 
ATOM     59  C   UNL A   1      42.673  31.264  29.362  1.00  0.00     0.029 A 
ATOM     60  N   UNL A   1      42.944  29.079  29.011  1.00  0.00    -0.354 N 
ATOM     61  C   UNL A   1      47.105  27.803  27.646  1.00  0.00     0.074 A 
ATOM     62  C   UNL A   1      48.004  28.927  27.753  1.00  0.00     0.031 C 
ATOM     63  C   UNL A   1      41.467  30.708  29.492  1.00  0.00     0.029 A 
ATOM     64  C   UNL A   1      41.597  29.308  29.152  1.00  0.00     0.049 A 
ATOM     65  H   UNL A   1      43.340  28.184  28.913  1.00  0.00     0.167 HD
ATOM     66  C   UNL A   1      47.422  26.564  27.219  1.00  0.00     0.037 A 
ATOM     67  C   UNL A   1      40.579  28.469  28.935  1.00  0.00     0.037 A 
ATOM     68  C   UNL A   1      46.416  25.538  27.132  1.00  0.00     0.049 A 
ATOM     69  C   UNL A   1      40.971  27.100  28.484  1.00  0.00     0.074 A 
ATOM     70  C   UNL A   1      46.550  24.212  26.784  1.00  0.00     0.029 A 
ATOM     71  N   UNL A   1      45.063  25.754  27.407  1.00  0.00    -0.354 N 
ATOM     72  N   UNL A   1      42.164  26.660  28.148  1.00  0.00    -0.248 NA
ATOM     73  C   UNL A   1      39.905  26.109  28.400  1.00  0.00     0.031 C 
ATOM     74  C   UNL A   1      45.271  23.643  26.798  1.00  0.00     0.029 A 
ATOM     75  C   UNL A   1      44.347  24.590  27.227  1.00  0.00     0.049 A 
ATOM     76  H   UNL A   1      44.676  26.615  27.687  1.00  0.00     0.167 HD
ATOM     77  C   UNL A   1      42.009  25.321  27.852  1.00  0.00     0.074 A 
ATOM     78  C   UNL A   1      40.596  25.031  28.054  1.00  0.00     0.031 C 
ATOM     79  C   UNL A   1      42.930  24.406  27.459  1.00  0.00     0.037 A 
BRANCH  66  80
ATOM     80  C   UNL A   1      48.842  26.306  26.812  1.00  0.00     0.057 A 
ATOM     81  C   UNL A   1      49.331  26.665  25.546  1.00  0.00     0.134 A 
ATOM     82  C   UNL A   1      49.734  25.669  27.683  1.00  0.00     0.134 A 
ATOM     83  F   UNL A   1      48.529  27.256  24.647  1.00  0.00    -0.206 F 
ATOM     84  C   UNL A   1      50.639  26.373  25.152  1.00  0.00     0.040 A 
ATOM     85  C   UNL A   1      51.055  25.403  27.313  1.00  0.00     0.040 A 
ATOM     86  F   UNL A   1      49.337  25.281  28.903  1.00  0.00    -0.206 F 
ATOM     87  C   UNL A   1      51.509  25.746  26.041  1.00  0.00     0.006 A 
ENDBRANCH  66  80
BRANCH  67  88
ATOM     88  C   UNL A   1      39.191  28.907  29.196  1.00  0.00     0.057 A 
ATOM     89  C   UNL A   1      38.385  29.341  28.139  1.00  0.00     0.134 A 
ATOM     90  C   UNL A   1      38.591  28.801  30.460  1.00  0.00     0.134 A 
ATOM     91  F   UNL A   1      38.892  29.427  26.901  1.00  0.00    -0.206 F 
ATOM     92  C   UNL A   1      37.047  29.687  28.331  1.00  0.00     0.040 A 
ATOM     93  C   UNL A   1      37.247  29.119  30.661  1.00  0.00     0.040 A 
ATOM     94  F   UNL A   1      39.288  28.333  31.506  1.00  0.00    -0.206 F 
ATOM     95  C   UNL A   1      36.473  29.574  29.595  1.00  0.00     0.006 A 
ENDBRANCH  67  88
BRANCH  79  96
ATOM     96  C   UNL A   1      42.417  23.016  27.282  1.00  0.00     0.057 A 
ATOM     97  C   UNL A   1      42.120  22.196  28.374  1.00  0.00     0.134 A 
ATOM     98  C   UNL A   1      42.163  22.528  25.995  1.00  0.00     0.134 A 
ATOM     99  F   UNL A   1      42.367  22.613  29.626  1.00  0.00    -0.206 F 
ATOM    100  C   UNL A   1      41.601  20.918  28.191  1.00  0.00     0.040 A 
ATOM    101  C   UNL A   1      41.605  21.269  25.802  1.00  0.00     0.040 A 
ATOM    102  F   UNL A   1      42.422  23.280  24.915  1.00  0.00    -0.206 F 
ATOM    103  C   UNL A   1      41.330  20.459  26.902  1.00  0.00     0.006 A 
ENDBRANCH  79  96
ENDBRANCH  53  54
ENDBRANCH  46  48
ENDBRANCH  45  46
ENDBRANCH  44  45
ENDBRANCH  43  44
ENDBRANCH  42  43
ENDBRANCH  41  42
ENDBRANCH  40  41
ENDBRANCH  39  40
ENDBRANCH   1  39
TORSDOF 27
ENDMDL
MODEL 2
REMARK VINA RESULT:      -7.4      6.220     13.056
REMARK SMILES COc1ccccc1N1CC[NH+]([C@@H](C(=O)OCCOCCOCCOCCOC(=O)c2ccc(-c3c4nc(c(-c5c(F)cccc5F)c5ccc([nH]5)c(-c5c(F)cccc5F)c5nc(c(-c6c(F)cccc6F)c6ccc3[nH]6)C=C5)C=C4)cc2)c2c[nH]c3ccc(OCC#N)cc23)CC1
REMARK SMILES IDX 21 1 20 2 19 3 18 4 17 5 16 6 14 7 15 8 13 9 12 10 9 11
REMARK SMILES IDX 10 12 99 13 11 14 98 15 8 17 3 18 4 19 5 20 7 21 6 22 2 23
REMARK SMILES IDX 1 24 85 25 86 26 97 27 87 28 88 29 96 30 89 32 91 33 90 34
REMARK SMILES IDX 92 35 93 36 94 37 95 38 22 39 23 40 24 41 25 42 26 43 27 44
REMARK SMILES IDX 28 45 29 46 30 47 31 48 32 49 84 50 33 51 83 52 34 53 35 54
REMARK SMILES IDX 36 55 77 56 37 57 82 58 76 59 78 60 38 61 81 62 75 63 74 64
REMARK SMILES IDX 39 66 65 67 48 68 64 69 49 70 52 71 63 72 79 73 50 74 51 75
REMARK SMILES IDX 62 77 80 78 53 79 40 80 41 81 46 82 42 83 43 84 45 85 47 86
REMARK SMILES IDX 44 87 66 88 67 89 72 90 68 91 69 92 71 93 73 94 70 95 54 96
REMARK SMILES IDX 55 97 60 98 56 99 57 100 59 101 61 102 58 103
REMARK H PARENT 12 16 87 31 78 65 52 76
REMARK Flexibility Score: inf
ROOT
ATOM      1  C   UNL A   1      32.950  31.459  26.843  1.00  0.00     0.188 C 
ENDROOT
BRANCH   1   2
ATOM      2  C   UNL A   1      31.739  30.563  26.656  1.00  0.00     0.188 C 
BRANCH   2   3
ATOM      3  O   UNL A   1      31.934  29.397  25.884  1.00  0.00    -0.376 OA
BRANCH   3   4
ATOM      4  C   UNL A   1      33.178  29.199  25.217  1.00  0.00     0.202 C 
BRANCH   4   5
ATOM      5  C   UNL A   1      34.042  27.955  25.463  1.00  0.00     0.261 C 
BRANCH   5   6
ATOM      6  O   UNL A   1      33.405  26.968  26.302  1.00  0.00    -0.459 OA
BRANCH   6   7
ATOM      7  C   UNL A   1      33.387  25.683  25.838  1.00  0.00     0.370 C 
ATOM      8  O   UNL A   1      34.413  25.040  25.619  1.00  0.00    -0.245 OA
BRANCH   7   9
ATOM      9  C   UNL A   1      31.993  25.148  25.492  1.00  0.00     0.328 C 
BRANCH   9  10
ATOM     10  N   UNL A   1      31.471  23.975  26.298  1.00  0.00    -0.316 N 
ATOM     11  N   UNL A   1      32.694  21.279  25.819  1.00  0.00    -0.357 N 
ATOM     12  C   UNL A   1      31.816  22.001  24.890  1.00  0.00     0.178 C 
ATOM     13  C   UNL A   1      33.248  22.079  26.927  1.00  0.00     0.178 C 
ATOM     14  C   UNL A   1      30.819  22.888  25.602  1.00  0.00     0.284 C 
ATOM     15  C   UNL A   1      32.340  23.336  27.323  1.00  0.00     0.284 C 
ATOM     16  H   UNL A   1      30.782  24.561  26.768  1.00  0.00     0.349 HD
BRANCH  11  17
ATOM     17  C   UNL A   1      33.241  20.106  25.255  1.00  0.00     0.080 A 
ATOM     18  C   UNL A   1      35.054  20.020  25.034  1.00  0.00     0.142 A 
ATOM     19  C   UNL A   1      35.872  18.429  24.654  1.00  0.00     0.048 A 
ATOM     20  C   UNL A   1      34.886  16.956  24.256  1.00  0.00     0.004 A 
ATOM     21  C   UNL A   1      32.284  18.551  25.099  1.00  0.00     0.030 A 
ATOM     22  C   UNL A   1      33.074  16.995  24.493  1.00  0.00     0.002 A 
BRANCH  18  23
ATOM     23  O   UNL A   1      35.937  21.068  25.011  1.00  0.00    -0.495 OA
ATOM     24  C   UNL A   1      35.704  22.114  24.088  1.00  0.00     0.278 C 
ENDBRANCH  18  23
ENDBRANCH  11  17
ENDBRANCH   9  10
BRANCH   9  25
ATOM     25  C   UNL A   1      31.288  25.584  24.122  1.00  0.00     0.046 A 
ATOM     26  C   UNL A   1      31.803  25.120  22.902  1.00  0.00     0.094 A 
ATOM     27  C   UNL A   1      30.622  26.784  23.604  1.00  0.00     0.013 A 
ATOM     28  N   UNL A   1      32.423  26.294  22.455  1.00  0.00    -0.361 N 
ATOM     29  C   UNL A   1      31.523  27.317  22.673  1.00  0.00     0.046 A 
ATOM     30  C   UNL A   1      29.330  27.369  23.521  1.00  0.00     0.057 A 
ATOM     31  H   UNL A   1      33.323  26.375  22.065  1.00  0.00     0.166 HD
ATOM     32  C   UNL A   1      31.385  28.583  22.086  1.00  0.00     0.030 A 
ATOM     33  C   UNL A   1      29.106  28.609  22.888  1.00  0.00     0.121 A 
ATOM     34  C   UNL A   1      30.155  29.243  22.235  1.00  0.00     0.048 A 
BRANCH  33  35
ATOM     35  O   UNL A   1      27.842  29.109  23.065  1.00  0.00    -0.479 OA
BRANCH  35  36
ATOM     36  C   UNL A   1      27.543  30.446  22.639  1.00  0.00     0.349 C 
BRANCH  36  37
ATOM     37  C   UNL A   1      28.344  31.470  23.330  1.00  0.00     0.104 C 
ATOM     38  N   UNL A   1      28.991  32.270  23.869  1.00  0.00    -0.195 NA
ENDBRANCH  36  37
ENDBRANCH  35  36
ENDBRANCH  33  35
ENDBRANCH   9  25
ENDBRANCH   7   9
ENDBRANCH   6   7
ENDBRANCH   5   6
ENDBRANCH   4   5
ENDBRANCH   3   4
ENDBRANCH   2   3
ENDBRANCH   1   2
BRANCH   1  39
ATOM     39  O   UNL A   1      33.646  31.350  28.052  1.00  0.00    -0.377 OA
BRANCH  39  40
ATOM     40  C   UNL A   1      35.043  31.300  27.908  1.00  0.00     0.188 C 
BRANCH  40  41
ATOM     41  C   UNL A   1      35.886  30.524  28.937  1.00  0.00     0.188 C 
BRANCH  41  42
ATOM     42  O   UNL A   1      36.209  30.983  30.237  1.00  0.00    -0.376 OA
BRANCH  42  43
ATOM     43  C   UNL A   1      36.894  30.164  31.161  1.00  0.00     0.202 C 
BRANCH  43  44
ATOM     44  C   UNL A   1      37.482  28.842  30.649  1.00  0.00     0.261 C 
BRANCH  44  45
ATOM     45  O   UNL A   1      38.245  28.113  31.640  1.00  0.00    -0.460 OA
BRANCH  45  46
ATOM     46  C   UNL A   1      39.363  28.750  32.297  1.00  0.00     0.338 C 
ATOM     47  O   UNL A   1      39.388  28.107  33.383  1.00  0.00    -0.246 OA
BRANCH  46  48
ATOM     48  C   UNL A   1      40.612  30.348  31.552  1.00  0.00     0.060 A 
ATOM     49  C   UNL A   1      40.437  31.138  30.267  1.00  0.00     0.016 A 
ATOM     50  C   UNL A   1      41.953  30.833  31.987  1.00  0.00     0.016 A 
ATOM     51  C   UNL A   1      41.405  31.440  29.343  1.00  0.00     0.010 A 
ATOM     52  C   UNL A   1      42.921  31.439  31.177  1.00  0.00     0.010 A 
ATOM     53  C   UNL A   1      42.652  31.632  29.838  1.00  0.00    -0.014 A 
BRANCH  53  54
ATOM     54  C   UNL A   1      43.638  32.254  28.989  1.00  0.00     0.031 A 
ATOM     55  C   UNL A   1      44.754  31.394  28.549  1.00  0.00     0.074 A 
ATOM     56  C   UNL A   1      43.507  33.582  28.862  1.00  0.00     0.049 A 
ATOM     57  N   UNL A   1      45.941  31.754  28.177  1.00  0.00    -0.248 NA
ATOM     58  C   UNL A   1      44.545  29.935  28.633  1.00  0.00     0.031 C 
ATOM     59  C   UNL A   1      42.357  34.381  29.329  1.00  0.00     0.029 A 
ATOM     60  N   UNL A   1      44.370  34.510  28.378  1.00  0.00    -0.354 N 
ATOM     61  C   UNL A   1      46.648  30.572  28.041  1.00  0.00     0.074 A 
ATOM     62  C   UNL A   1      45.769  29.485  28.400  1.00  0.00     0.031 C 
ATOM     63  C   UNL A   1      42.604  35.679  29.139  1.00  0.00     0.029 A 
ATOM     64  C   UNL A   1      43.954  35.794  28.634  1.00  0.00     0.049 A 
ATOM     65  H   UNL A   1      45.201  34.289  27.899  1.00  0.00     0.167 HD
ATOM     66  C   UNL A   1      47.936  30.466  27.659  1.00  0.00     0.037 A 
ATOM     67  C   UNL A   1      44.649  36.932  28.541  1.00  0.00     0.037 A 
ATOM     68  C   UNL A   1      48.712  31.640  27.356  1.00  0.00     0.049 A 
ATOM     69  C   UNL A   1      46.065  36.776  28.095  1.00  0.00     0.074 A 
ATOM     70  C   UNL A   1      50.006  31.737  26.897  1.00  0.00     0.029 A 
ATOM     71  N   UNL A   1      48.229  32.945  27.497  1.00  0.00    -0.354 N 
ATOM     72  N   UNL A   1      46.747  35.666  27.912  1.00  0.00    -0.248 NA
ATOM     73  C   UNL A   1      46.803  38.003  27.820  1.00  0.00     0.031 C 
ATOM     74  C   UNL A   1      50.321  33.098  26.809  1.00  0.00     0.029 A 
ATOM     75  C   UNL A   1      49.201  33.855  27.142  1.00  0.00     0.049 A 
ATOM     76  H   UNL A   1      47.324  33.181  27.806  1.00  0.00     0.167 HD
ATOM     77  C   UNL A   1      47.991  36.052  27.456  1.00  0.00     0.074 A 
ATOM     78  C   UNL A   1      47.957  37.507  27.391  1.00  0.00     0.031 C 
ATOM     79  C   UNL A   1      49.063  35.295  27.111  1.00  0.00     0.037 A 
BRANCH  66  80
ATOM     80  C   UNL A   1      48.535  29.093  27.593  1.00  0.00     0.057 A 
ATOM     81  C   UNL A   1      48.348  28.251  26.486  1.00  0.00     0.134 A 
ATOM     82  C   UNL A   1      49.290  28.587  28.658  1.00  0.00     0.134 A 
ATOM     83  F   UNL A   1      47.614  28.656  25.437  1.00  0.00    -0.206 F 
ATOM     84  C   UNL A   1      48.861  26.952  26.453  1.00  0.00     0.040 A 
ATOM     85  C   UNL A   1      49.838  27.302  28.622  1.00  0.00     0.040 A 
ATOM     86  F   UNL A   1      49.499  29.324  29.758  1.00  0.00    -0.206 F 
ATOM     87  C   UNL A   1      49.617  26.477  27.522  1.00  0.00     0.006 A 
ENDBRANCH  66  80
BRANCH  67  88
ATOM     88  C   UNL A   1      43.989  38.226  28.820  1.00  0.00     0.057 A 
ATOM     89  C   UNL A   1      43.209  38.839  27.836  1.00  0.00     0.134 A 
ATOM     90  C   UNL A   1      44.015  38.828  30.087  1.00  0.00     0.134 A 
ATOM     91  F   UNL A   1      43.115  38.291  26.616  1.00  0.00    -0.206 F 
ATOM     92  C   UNL A   1      42.507  40.019  28.085  1.00  0.00     0.040 A 
ATOM     93  C   UNL A   1      43.296  39.994  30.359  1.00  0.00     0.040 A 
ATOM     94  F   UNL A   1      44.692  38.260  31.096  1.00  0.00    -0.206 F 
ATOM     95  C   UNL A   1      42.546  40.598  29.351  1.00  0.00     0.006 A 
ENDBRANCH  67  88
BRANCH  79  96
ATOM     96  C   UNL A   1      50.241  36.051  26.594  1.00  0.00     0.057 A 
ATOM     97  C   UNL A   1      50.443  36.256  25.226  1.00  0.00     0.134 A 
ATOM     98  C   UNL A   1      51.145  36.629  27.493  1.00  0.00     0.134 A 
ATOM     99  F   UNL A   1      49.615  35.703  24.326  1.00  0.00    -0.206 F 
ATOM    100  C   UNL A   1      51.523  37.000  24.765  1.00  0.00     0.040 A 
ATOM    101  C   UNL A   1      52.203  37.411  27.044  1.00  0.00     0.040 A 
ATOM    102  F   UNL A   1      50.989  36.470  28.816  1.00  0.00    -0.206 F 
ATOM    103  C   UNL A   1      52.398  37.591  25.676  1.00  0.00     0.006 A 
ENDBRANCH  79  96
ENDBRANCH  53  54
ENDBRANCH  46  48
ENDBRANCH  45  46
ENDBRANCH  44  45
ENDBRANCH  43  44
ENDBRANCH  42  43
ENDBRANCH  41  42
ENDBRANCH  40  41
ENDBRANCH  39  40
ENDBRANCH   1  39
TORSDOF 27
ENDMDL
MODEL 3
REMARK VINA RESULT:      -7.0      6.330     13.895
REMARK SMILES COc1ccccc1N1CC[NH+]([C@@H](C(=O)OCCOCCOCCOCCOC(=O)c2ccc(-c3c4nc(c(-c5c(F)cccc5F)c5ccc([nH]5)c(-c5c(F)cccc5F)c5nc(c(-c6c(F)cccc6F)c6ccc3[nH]6)C=C5)C=C4)cc2)c2c[nH]c3ccc(OCC#N)cc23)CC1
REMARK SMILES IDX 21 1 20 2 19 3 18 4 17 5 16 6 14 7 15 8 13 9 12 10 9 11
REMARK SMILES IDX 10 12 99 13 11 14 98 15 8 17 3 18 4 19 5 20 7 21 6 22 2 23
REMARK SMILES IDX 1 24 85 25 86 26 97 27 87 28 88 29 96 30 89 32 91 33 90 34
REMARK SMILES IDX 92 35 93 36 94 37 95 38 22 39 23 40 24 41 25 42 26 43 27 44
REMARK SMILES IDX 28 45 29 46 30 47 31 48 32 49 84 50 33 51 83 52 34 53 35 54
REMARK SMILES IDX 36 55 77 56 37 57 82 58 76 59 78 60 38 61 81 62 75 63 74 64
REMARK SMILES IDX 39 66 65 67 48 68 64 69 49 70 52 71 63 72 79 73 50 74 51 75
REMARK SMILES IDX 62 77 80 78 53 79 40 80 41 81 46 82 42 83 43 84 45 85 47 86
REMARK SMILES IDX 44 87 66 88 67 89 72 90 68 91 69 92 71 93 73 94 70 95 54 96
REMARK SMILES IDX 55 97 60 98 56 99 57 100 59 101 61 102 58 103
REMARK H PARENT 12 16 87 31 78 65 52 76
REMARK Flexibility Score: inf
ROOT
ATOM      1  C   UNL A   1      34.042  28.494  25.065  1.00  0.00     0.188 C 
ENDROOT
BRANCH   1   2
ATOM      2  C   UNL A   1      34.005  28.079  23.606  1.00  0.00     0.188 C 
BRANCH   2   3
ATOM      3  O   UNL A   1      33.155  27.000  23.281  1.00  0.00    -0.376 OA
BRANCH   3   4
ATOM      4  C   UNL A   1      33.177  26.464  21.960  1.00  0.00     0.202 C 
BRANCH   4   5
ATOM      5  C   UNL A   1      32.820  25.000  21.671  1.00  0.00     0.261 C 
BRANCH   5   6
ATOM      6  O   UNL A   1      33.915  24.087  21.894  1.00  0.00    -0.459 OA
BRANCH   6   7
ATOM      7  C   UNL A   1      33.624  22.920  22.542  1.00  0.00     0.370 C 
ATOM      8  O   UNL A   1      32.725  22.162  22.175  1.00  0.00    -0.245 OA
BRANCH   7   9
ATOM      9  C   UNL A   1      34.419  22.687  23.831  1.00  0.00     0.328 C 
BRANCH   9  10
ATOM     10  N   UNL A   1      35.728  21.929  23.723  1.00  0.00    -0.316 N 
ATOM     11  N   UNL A   1      37.903  22.588  25.679  1.00  0.00    -0.357 N 
ATOM     12  C   UNL A   1      37.443  23.451  24.583  1.00  0.00     0.178 C 
ATOM     13  C   UNL A   1      37.020  21.455  26.014  1.00  0.00     0.178 C 
ATOM     14  C   UNL A   1      36.931  22.663  23.399  1.00  0.00     0.284 C 
ATOM     15  C   UNL A   1      36.116  20.966  24.789  1.00  0.00     0.284 C 
ATOM     16  H   UNL A   1      35.397  21.409  22.911  1.00  0.00     0.349 HD
BRANCH  11  17
ATOM     17  C   UNL A   1      38.830  23.230  26.529  1.00  0.00     0.080 A 
ATOM     18  C   UNL A   1      40.575  22.688  26.468  1.00  0.00     0.142 A 
ATOM     19  C   UNL A   1      41.889  23.688  27.254  1.00  0.00     0.048 A 
ATOM     20  C   UNL A   1      41.465  25.106  28.308  1.00  0.00     0.004 A 
ATOM     21  C   UNL A   1      38.452  24.806  27.384  1.00  0.00     0.030 A 
ATOM     22  C   UNL A   1      39.736  25.695  28.370  1.00  0.00     0.002 A 
BRANCH  18  23
ATOM     23  O   UNL A   1      41.059  21.505  25.971  1.00  0.00    -0.495 OA
ATOM     24  C   UNL A   1      40.657  20.305  26.600  1.00  0.00     0.278 C 
ENDBRANCH  18  23
ENDBRANCH  11  17
ENDBRANCH   9  10
BRANCH   9  25
ATOM     25  C   UNL A   1      33.721  22.928  25.252  1.00  0.00     0.046 A 
ATOM     26  C   UNL A   1      33.779  21.922  26.229  1.00  0.00     0.094 A 
ATOM     27  C   UNL A   1      32.516  23.602  25.745  1.00  0.00     0.013 A 
ATOM     28  N   UNL A   1      32.463  21.449  26.147  1.00  0.00    -0.361 N 
ATOM     29  C   UNL A   1      31.651  22.564  26.110  1.00  0.00     0.046 A 
ATOM     30  C   UNL A   1      32.089  24.872  26.221  1.00  0.00     0.057 A 
ATOM     31  H   UNL A   1      32.174  20.508  26.119  1.00  0.00     0.166 HD
ATOM     32  C   UNL A   1      30.300  22.748  26.439  1.00  0.00     0.030 A 
ATOM     33  C   UNL A   1      30.761  25.112  26.631  1.00  0.00     0.121 A 
ATOM     34  C   UNL A   1      29.855  24.060  26.668  1.00  0.00     0.048 A 
BRANCH  33  35
ATOM     35  O   UNL A   1      30.481  26.431  26.880  1.00  0.00    -0.479 OA
BRANCH  35  36
ATOM     36  C   UNL A   1      30.764  27.416  25.875  1.00  0.00     0.349 C 
BRANCH  36  37
ATOM     37  C   UNL A   1      30.112  27.137  24.586  1.00  0.00     0.104 C 
ATOM     38  N   UNL A   1      29.614  26.917  23.560  1.00  0.00    -0.195 NA
ENDBRANCH  36  37
ENDBRANCH  35  36
ENDBRANCH  33  35
ENDBRANCH   9  25
ENDBRANCH   7   9
ENDBRANCH   6   7
ENDBRANCH   5   6
ENDBRANCH   4   5
ENDBRANCH   3   4
ENDBRANCH   2   3
ENDBRANCH   1   2
BRANCH   1  39
ATOM     39  O   UNL A   1      33.289  29.616  25.431  1.00  0.00    -0.377 OA
BRANCH  39  40
ATOM     40  C   UNL A   1      33.407  29.970  26.785  1.00  0.00     0.188 C 
BRANCH  40  41
ATOM     41  C   UNL A   1      33.094  31.412  27.224  1.00  0.00     0.188 C 
BRANCH  41  42
ATOM     42  O   UNL A   1      33.756  32.108  28.266  1.00  0.00    -0.376 OA
BRANCH  42  43
ATOM     43  C   UNL A   1      35.071  32.596  28.109  1.00  0.00     0.202 C 
BRANCH  43  44
ATOM     44  C   UNL A   1      36.086  32.298  29.222  1.00  0.00     0.261 C 
BRANCH  44  45
ATOM     45  O   UNL A   1      35.524  31.604  30.361  1.00  0.00    -0.460 OA
BRANCH  45  46
ATOM     46  C   UNL A   1      35.544  32.227  31.664  1.00  0.00     0.338 C 
ATOM     47  O   UNL A   1      34.310  32.411  31.849  1.00  0.00    -0.246 OA
BRANCH  46  48
ATOM     48  C   UNL A   1      37.258  32.671  32.902  1.00  0.00     0.060 A 
ATOM     49  C   UNL A   1      38.631  33.136  32.451  1.00  0.00     0.016 A 
ATOM     50  C   UNL A   1      37.521  32.416  34.348  1.00  0.00     0.016 A 
ATOM     51  C   UNL A   1      39.847  32.651  32.866  1.00  0.00     0.010 A 
ATOM     52  C   UNL A   1      38.770  32.202  34.940  1.00  0.00     0.010 A 
ATOM     53  C   UNL A   1      39.902  32.224  34.151  1.00  0.00    -0.014 A 
BRANCH  53  54
ATOM     54  C   UNL A   1      41.197  32.004  34.745  1.00  0.00     0.031 A 
ATOM     55  C   UNL A   1      41.668  30.605  34.780  1.00  0.00     0.074 A 
ATOM     56  C   UNL A   1      41.722  33.077  35.353  1.00  0.00     0.049 A 
ATOM     57  N   UNL A   1      42.526  30.072  35.591  1.00  0.00    -0.248 NA
ATOM     58  C   UNL A   1      41.018  29.658  33.853  1.00  0.00     0.031 C 
ATOM     59  C   UNL A   1      41.195  34.454  35.272  1.00  0.00     0.029 A 
ATOM     60  N   UNL A   1      42.762  33.180  36.217  1.00  0.00    -0.354 N 
ATOM     61  C   UNL A   1      42.479  28.716  35.320  1.00  0.00     0.074 A 
ATOM     62  C   UNL A   1      41.487  28.501  34.294  1.00  0.00     0.031 C 
ATOM     63  C   UNL A   1      41.893  35.251  36.082  1.00  0.00     0.029 A 
ATOM     64  C   UNL A   1      42.840  34.422  36.796  1.00  0.00     0.049 A 
ATOM     65  H   UNL A   1      43.390  32.446  36.408  1.00  0.00     0.167 HD
ATOM     66  C   UNL A   1      43.220  27.767  35.928  1.00  0.00     0.037 A 
ATOM     67  C   UNL A   1      43.553  34.806  37.859  1.00  0.00     0.037 A 
ATOM     68  C   UNL A   1      44.157  28.117  36.963  1.00  0.00     0.049 A 
ATOM     69  C   UNL A   1      44.377  33.733  38.492  1.00  0.00     0.074 A 
ATOM     70  C   UNL A   1      45.037  27.314  37.651  1.00  0.00     0.029 A 
ATOM     71  N   UNL A   1      44.319  29.416  37.453  1.00  0.00    -0.354 N 
ATOM     72  N   UNL A   1      44.387  32.445  38.223  1.00  0.00    -0.248 NA
ATOM     73  C   UNL A   1      45.295  34.148  39.545  1.00  0.00     0.031 C 
ATOM     74  C   UNL A   1      45.693  28.116  38.592  1.00  0.00     0.029 A 
ATOM     75  C   UNL A   1      45.278  29.436  38.443  1.00  0.00     0.049 A 
ATOM     76  H   UNL A   1      43.819  30.204  37.139  1.00  0.00     0.167 HD
ATOM     77  C   UNL A   1      45.347  31.891  39.044  1.00  0.00     0.074 A 
ATOM     78  C   UNL A   1      45.895  32.997  39.818  1.00  0.00     0.031 C 
ATOM     79  C   UNL A   1      45.756  30.602  39.156  1.00  0.00     0.037 A 
BRANCH  66  80
ATOM     80  C   UNL A   1      43.009  26.342  35.511  1.00  0.00     0.057 A 
ATOM     81  C   UNL A   1      41.987  25.549  36.055  1.00  0.00     0.134 A 
ATOM     82  C   UNL A   1      43.850  25.738  34.569  1.00  0.00     0.134 A 
ATOM     83  F   UNL A   1      41.156  26.051  36.983  1.00  0.00    -0.206 F 
ATOM     84  C   UNL A   1      41.830  24.207  35.704  1.00  0.00     0.040 A 
ATOM     85  C   UNL A   1      43.682  24.406  34.183  1.00  0.00     0.040 A 
ATOM     86  F   UNL A   1      44.860  26.425  34.016  1.00  0.00    -0.206 F 
ATOM     87  C   UNL A   1      42.675  23.633  34.758  1.00  0.00     0.006 A 
ENDBRANCH  66  80
BRANCH  67  88
ATOM     88  C   UNL A   1      43.530  36.220  38.295  1.00  0.00     0.057 A 
ATOM     89  C   UNL A   1      44.391  37.147  37.703  1.00  0.00     0.134 A 
ATOM     90  C   UNL A   1      42.589  36.711  39.212  1.00  0.00     0.134 A 
ATOM     91  F   UNL A   1      45.288  36.744  36.790  1.00  0.00    -0.206 F 
ATOM     92  C   UNL A   1      44.345  38.504  38.028  1.00  0.00     0.040 A 
ATOM     93  C   UNL A   1      42.514  38.069  39.528  1.00  0.00     0.040 A 
ATOM     94  F   UNL A   1      41.690  35.886  39.772  1.00  0.00    -0.206 F 
ATOM     95  C   UNL A   1      43.402  38.968  38.941  1.00  0.00     0.006 A 
ENDBRANCH  67  88
BRANCH  79  96
ATOM     96  C   UNL A   1      46.873  30.365  40.116  1.00  0.00     0.057 A 
ATOM     97  C   UNL A   1      46.638  30.035  41.454  1.00  0.00     0.134 A 
ATOM     98  C   UNL A   1      48.198  30.411  39.665  1.00  0.00     0.134 A 
ATOM     99  F   UNL A   1      45.386  30.000  41.937  1.00  0.00    -0.206 F 
ATOM    100  C   UNL A   1      47.692  29.776  42.324  1.00  0.00     0.040 A 
ATOM    101  C   UNL A   1      49.256  30.112  40.516  1.00  0.00     0.040 A 
ATOM    102  F   UNL A   1      48.475  30.714  38.388  1.00  0.00    -0.206 F 
ATOM    103  C   UNL A   1      49.004  29.800  41.850  1.00  0.00     0.006 A 
ENDBRANCH  79  96
ENDBRANCH  53  54
ENDBRANCH  46  48
ENDBRANCH  45  46
ENDBRANCH  44  45
ENDBRANCH  43  44
ENDBRANCH  42  43
ENDBRANCH  41  42
ENDBRANCH  40  41
ENDBRANCH  39  40
ENDBRANCH   1  39
TORSDOF 27
ENDMDL
