MODEL 1
REMARK VINA RESULT:      -9.9      0.000      0.000
REMARK SMILES CC(C)n1cc(C(=O)OCCOCCOCCOCCOC(=O)c2ccc(-c3c4nc(c(-c5c(F)cccc5F)c5ccc([nH]5)c(-c5c(F)cccc5F)c5nc(c(-c6c(F)cccc6F)c6ccc3[nH]6)C=C5)C=C4)cc2)c2ccccc2c1=O
REMARK SMILES IDX 16 1 15 2 14 3 13 4 12 5 11 6 10 7 9 8 7 9 8 10 6 11 4 12
REMARK SMILES IDX 5 13 84 14 83 15 85 16 78 17 82 18 79 19 81 20 80 21 2 22
REMARK SMILES IDX 1 23 3 24 17 25 18 26 19 27 20 28 21 29 22 30 23 31 24 32
REMARK SMILES IDX 25 33 77 34 26 35 76 36 27 37 28 38 29 39 70 40 30 41 75 42
REMARK SMILES IDX 69 43 71 44 31 45 74 46 68 47 67 48 32 50 58 51 41 52 57 53
REMARK SMILES IDX 42 54 45 55 56 56 72 57 43 58 44 59 55 61 73 62 46 63 33 64
REMARK SMILES IDX 34 65 39 66 35 67 36 68 38 69 40 70 37 71 59 72 60 73 65 74
REMARK SMILES IDX 61 75 62 76 64 77 66 78 63 79 47 80 48 81 53 82 49 83 50 84
REMARK SMILES IDX 52 85 54 86 51 87
REMARK H PARENT 71 49 45 60
REMARK Flexibility Score: inf
ROOT
ATOM      1  C   UNL A   1      32.783  29.345  25.104  1.00  0.00     0.188 C 
ENDROOT
BRANCH   1   2
ATOM      2  O   UNL A   1      32.508  28.019  24.669  1.00  0.00    -0.377 OA
BRANCH   2   3
ATOM      3  C   UNL A   1      31.990  27.807  23.366  1.00  0.00     0.188 C 
BRANCH   3   4
ATOM      4  C   UNL A   1      32.915  27.168  22.315  1.00  0.00     0.188 C 
BRANCH   4   5
ATOM      5  O   UNL A   1      32.634  25.800  22.036  1.00  0.00    -0.376 OA
BRANCH   5   6
ATOM      6  C   UNL A   1      31.523  25.239  22.721  1.00  0.00     0.202 C 
BRANCH   6   7
ATOM      7  C   UNL A   1      31.864  23.980  23.526  1.00  0.00     0.261 C 
BRANCH   7   8
ATOM      8  O   UNL A   1      32.804  24.200  24.589  1.00  0.00    -0.460 OA
BRANCH   8   9
ATOM      9  C   UNL A   1      32.784  23.329  25.628  1.00  0.00     0.340 C 
ATOM     10  O   UNL A   1      31.988  23.340  26.553  1.00  0.00    -0.246 OA
BRANCH   9  11
ATOM     11  C   UNL A   1      33.785  22.254  25.377  1.00  0.00     0.084 A 
ATOM     12  N   UNL A   1      34.127  19.923  24.892  1.00  0.00    -0.312 N 
ATOM     13  C   UNL A   1      33.312  21.024  25.112  1.00  0.00     0.105 A 
ATOM     14  C   UNL A   1      35.524  20.031  24.894  1.00  0.00     0.258 A 
ATOM     15  C   UNL A   1      36.092  21.356  25.261  1.00  0.00     0.048 A 
ATOM     16  O   UNL A   1      36.291  19.107  24.634  1.00  0.00    -0.269 OA
ATOM     17  C   UNL A   1      35.243  22.448  25.491  1.00  0.00     0.003 A 
ATOM     18  C   UNL A   1      37.482  21.477  25.421  1.00  0.00     0.014 A 
ATOM     19  C   UNL A   1      35.824  23.660  25.897  1.00  0.00     0.010 A 
ATOM     20  C   UNL A   1      38.036  22.683  25.841  1.00  0.00     0.001 A 
ATOM     21  C   UNL A   1      37.206  23.771  26.085  1.00  0.00     0.001 A 
BRANCH  12  22
ATOM     22  C   UNL A   1      33.487  18.615  24.632  1.00  0.00     0.084 C 
ATOM     23  C   UNL A   1      32.727  18.100  25.855  1.00  0.00     0.031 C 
ATOM     24  C   UNL A   1      32.602  18.631  23.382  1.00  0.00     0.031 C 
ENDBRANCH  12  22
ENDBRANCH   9  11
ENDBRANCH   8   9
ENDBRANCH   7   8
ENDBRANCH   6   7
ENDBRANCH   5   6
ENDBRANCH   4   5
ENDBRANCH   3   4
ENDBRANCH   2   3
ENDBRANCH   1   2
BRANCH   1  25
ATOM     25  C   UNL A   1      33.543  29.632  26.417  1.00  0.00     0.188 C 
BRANCH  25  26
ATOM     26  O   UNL A   1      32.943  30.613  27.253  1.00  0.00    -0.376 OA
BRANCH  26  27
ATOM     27  C   UNL A   1      31.767  31.234  26.756  1.00  0.00     0.202 C 
BRANCH  27  28
ATOM     28  C   UNL A   1      31.766  32.756  26.921  1.00  0.00     0.261 C 
BRANCH  28  29
ATOM     29  O   UNL A   1      33.063  33.341  27.113  1.00  0.00    -0.460 OA
BRANCH  29  30
ATOM     30  C   UNL A   1      33.246  34.117  28.204  1.00  0.00     0.338 C 
ATOM     31  O   UNL A   1      32.509  34.989  28.627  1.00  0.00    -0.246 OA
BRANCH  30  32
ATOM     32  C   UNL A   1      34.425  33.585  28.916  1.00  0.00     0.060 A 
ATOM     33  C   UNL A   1      34.267  32.591  29.885  1.00  0.00     0.016 A 
ATOM     34  C   UNL A   1      35.688  34.133  28.658  1.00  0.00     0.016 A 
ATOM     35  C   UNL A   1      35.381  32.125  30.580  1.00  0.00     0.010 A 
ATOM     36  C   UNL A   1      36.802  33.672  29.363  1.00  0.00     0.010 A 
ATOM     37  C   UNL A   1      36.656  32.650  30.313  1.00  0.00    -0.014 A 
BRANCH  37  38
ATOM     38  C   UNL A   1      37.846  31.984  30.890  1.00  0.00     0.031 A 
ATOM     39  C   UNL A   1      38.363  32.309  32.256  1.00  0.00     0.074 A 
ATOM     40  C   UNL A   1      38.455  31.048  30.139  1.00  0.00     0.049 A 
ATOM     41  N   UNL A   1      39.327  31.728  32.927  1.00  0.00    -0.248 NA
ATOM     42  C   UNL A   1      37.727  33.430  32.959  1.00  0.00     0.031 C 
ATOM     43  C   UNL A   1      38.054  30.673  28.780  1.00  0.00     0.029 A 
ATOM     44  N   UNL A   1      39.528  30.240  30.408  1.00  0.00    -0.354 N 
ATOM     45  C   UNL A   1      39.399  32.392  34.143  1.00  0.00     0.074 A 
ATOM     46  C   UNL A   1      38.413  33.455  34.095  1.00  0.00     0.031 C 
ATOM     47  C   UNL A   1      38.859  29.695  28.342  1.00  0.00     0.029 A 
ATOM     48  C   UNL A   1      39.839  29.387  29.378  1.00  0.00     0.049 A 
ATOM     49  H   UNL A   1      40.027  30.268  31.257  1.00  0.00     0.167 HD
ATOM     50  C   UNL A   1      40.203  32.125  35.201  1.00  0.00     0.037 A 
ATOM     51  C   UNL A   1      40.803  28.456  29.283  1.00  0.00     0.037 A 
ATOM     52  C   UNL A   1      41.205  31.085  35.226  1.00  0.00     0.049 A 
ATOM     53  C   UNL A   1      41.710  28.216  30.452  1.00  0.00     0.074 A 
ATOM     54  C   UNL A   1      42.041  30.714  36.266  1.00  0.00     0.029 A 
ATOM     55  N   UNL A   1      41.521  30.264  34.153  1.00  0.00    -0.354 N 
ATOM     56  N   UNL A   1      41.709  28.789  31.631  1.00  0.00    -0.248 NA
ATOM     57  C   UNL A   1      42.749  27.192  30.280  1.00  0.00     0.031 C 
ATOM     58  C   UNL A   1      42.895  29.704  35.806  1.00  0.00     0.029 A 
ATOM     59  C   UNL A   1      42.559  29.410  34.496  1.00  0.00     0.049 A 
ATOM     60  H   UNL A   1      41.072  30.283  33.276  1.00  0.00     0.167 HD
ATOM     61  C   UNL A   1      42.727  28.179  32.350  1.00  0.00     0.074 A 
ATOM     62  C   UNL A   1      43.311  27.179  31.480  1.00  0.00     0.031 C 
ATOM     63  C   UNL A   1      43.143  28.427  33.616  1.00  0.00     0.037 A 
BRANCH  50  64
ATOM     64  C   UNL A   1      40.034  32.974  36.429  1.00  0.00     0.057 A 
ATOM     65  C   UNL A   1      39.069  32.663  37.395  1.00  0.00     0.134 A 
ATOM     66  C   UNL A   1      40.797  34.133  36.631  1.00  0.00     0.134 A 
ATOM     67  F   UNL A   1      38.295  31.575  37.259  1.00  0.00    -0.206 F 
ATOM     68  C   UNL A   1      38.869  33.472  38.516  1.00  0.00     0.040 A 
ATOM     69  C   UNL A   1      40.623  34.936  37.759  1.00  0.00     0.040 A 
ATOM     70  F   UNL A   1      41.742  34.487  35.747  1.00  0.00    -0.206 F 
ATOM     71  C   UNL A   1      39.651  34.609  38.703  1.00  0.00     0.006 A 
ENDBRANCH  50  64
BRANCH  51  72
ATOM     72  C   UNL A   1      40.940  27.661  28.038  1.00  0.00     0.057 A 
ATOM     73  C   UNL A   1      40.225  26.473  27.852  1.00  0.00     0.134 A 
ATOM     74  C   UNL A   1      41.786  28.078  27.006  1.00  0.00     0.134 A 
ATOM     75  F   UNL A   1      39.406  26.017  28.812  1.00  0.00    -0.206 F 
ATOM     76  C   UNL A   1      40.348  25.725  26.682  1.00  0.00     0.040 A 
ATOM     77  C   UNL A   1      41.900  27.353  25.819  1.00  0.00     0.040 A 
ATOM     78  F   UNL A   1      42.485  29.216  27.123  1.00  0.00    -0.206 F 
ATOM     79  C   UNL A   1      41.181  26.170  25.657  1.00  0.00     0.006 A 
ENDBRANCH  51  72
BRANCH  63  80
ATOM     80  C   UNL A   1      44.273  27.584  34.133  1.00  0.00     0.057 A 
ATOM     81  C   UNL A   1      44.026  26.341  34.728  1.00  0.00     0.134 A 
ATOM     82  C   UNL A   1      45.609  28.000  34.037  1.00  0.00     0.134 A 
ATOM     83  F   UNL A   1      42.771  25.883  34.855  1.00  0.00    -0.206 F 
ATOM     84  C   UNL A   1      45.066  25.540  35.203  1.00  0.00     0.040 A 
ATOM     85  C   UNL A   1      46.658  27.195  34.485  1.00  0.00     0.040 A 
ATOM     86  F   UNL A   1      45.915  29.172  33.462  1.00  0.00    -0.206 F 
ATOM     87  C   UNL A   1      46.387  25.963  35.074  1.00  0.00     0.006 A 
ENDBRANCH  63  80
ENDBRANCH  37  38
ENDBRANCH  30  32
ENDBRANCH  29  30
ENDBRANCH  28  29
ENDBRANCH  27  28
ENDBRANCH  26  27
ENDBRANCH  25  26
ENDBRANCH   1  25
TORSDOF 21
ENDMDL
MODEL 2
REMARK VINA RESULT:      -9.8      1.668      2.375
REMARK SMILES CC(C)n1cc(C(=O)OCCOCCOCCOCCOC(=O)c2ccc(-c3c4nc(c(-c5c(F)cccc5F)c5ccc([nH]5)c(-c5c(F)cccc5F)c5nc(c(-c6c(F)cccc6F)c6ccc3[nH]6)C=C5)C=C4)cc2)c2ccccc2c1=O
REMARK SMILES IDX 16 1 15 2 14 3 13 4 12 5 11 6 10 7 9 8 7 9 8 10 6 11 4 12
REMARK SMILES IDX 5 13 84 14 83 15 85 16 78 17 82 18 79 19 81 20 80 21 2 22
REMARK SMILES IDX 1 23 3 24 17 25 18 26 19 27 20 28 21 29 22 30 23 31 24 32
REMARK SMILES IDX 25 33 77 34 26 35 76 36 27 37 28 38 29 39 70 40 30 41 75 42
REMARK SMILES IDX 69 43 71 44 31 45 74 46 68 47 67 48 32 50 58 51 41 52 57 53
REMARK SMILES IDX 42 54 45 55 56 56 72 57 43 58 44 59 55 61 73 62 46 63 33 64
REMARK SMILES IDX 34 65 39 66 35 67 36 68 38 69 40 70 37 71 59 72 60 73 65 74
REMARK SMILES IDX 61 75 62 76 64 77 66 78 63 79 47 80 48 81 53 82 49 83 50 84
REMARK SMILES IDX 52 85 54 86 51 87
REMARK H PARENT 71 49 45 60
REMARK Flexibility Score: inf
ROOT
ATOM      1  C   UNL A   1      33.705  28.984  27.141  1.00  0.00     0.188 C 
ENDROOT
BRANCH   1   2
ATOM      2  O   UNL A   1      34.066  28.249  25.978  1.00  0.00    -0.377 OA
BRANCH   2   3
ATOM      3  C   UNL A   1      33.093  28.016  24.973  1.00  0.00     0.188 C 
BRANCH   3   4
ATOM      4  C   UNL A   1      33.062  28.966  23.762  1.00  0.00     0.188 C 
BRANCH   4   5
ATOM      5  O   UNL A   1      32.861  28.318  22.509  1.00  0.00    -0.376 OA
BRANCH   5   6
ATOM      6  C   UNL A   1      31.665  27.562  22.384  1.00  0.00     0.202 C 
BRANCH   6   7
ATOM      7  C   UNL A   1      31.878  26.159  21.806  1.00  0.00     0.261 C 
BRANCH   7   8
ATOM      8  O   UNL A   1      33.159  25.588  22.110  1.00  0.00    -0.460 OA
BRANCH   8   9
ATOM      9  C   UNL A   1      33.244  24.235  22.155  1.00  0.00     0.340 C 
ATOM     10  O   UNL A   1      33.308  23.492  21.188  1.00  0.00    -0.246 OA
BRANCH   9  11
ATOM     11  C   UNL A   1      33.415  23.807  23.572  1.00  0.00     0.084 A 
ATOM     12  N   UNL A   1      32.440  23.756  25.771  1.00  0.00    -0.312 N 
ATOM     13  C   UNL A   1      32.403  24.067  24.418  1.00  0.00     0.105 A 
ATOM     14  C   UNL A   1      33.538  23.103  26.345  1.00  0.00     0.258 A 
ATOM     15  C   UNL A   1      34.713  22.867  25.463  1.00  0.00     0.048 A 
ATOM     16  O   UNL A   1      33.593  22.740  27.517  1.00  0.00    -0.269 OA
ATOM     17  C   UNL A   1      34.652  23.204  24.103  1.00  0.00     0.003 A 
ATOM     18  C   UNL A   1      35.891  22.351  26.026  1.00  0.00     0.014 A 
ATOM     19  C   UNL A   1      35.808  23.022  23.327  1.00  0.00     0.010 A 
ATOM     20  C   UNL A   1      37.031  22.194  25.243  1.00  0.00     0.001 A 
ATOM     21  C   UNL A   1      36.991  22.536  23.896  1.00  0.00     0.001 A 
BRANCH  12  22
ATOM     22  C   UNL A   1      31.272  24.113  26.605  1.00  0.00     0.084 C 
ATOM     23  C   UNL A   1      30.584  25.385  26.108  1.00  0.00     0.031 C 
ATOM     24  C   UNL A   1      30.280  22.956  26.757  1.00  0.00     0.031 C 
ENDBRANCH  12  22
ENDBRANCH   9  11
ENDBRANCH   8   9
ENDBRANCH   7   8
ENDBRANCH   6   7
ENDBRANCH   5   6
ENDBRANCH   4   5
ENDBRANCH   3   4
ENDBRANCH   2   3
ENDBRANCH   1   2
BRANCH   1  25
ATOM     25  C   UNL A   1      33.322  30.479  27.077  1.00  0.00     0.188 C 
BRANCH  25  26
ATOM     26  O   UNL A   1      31.937  30.733  26.878  1.00  0.00    -0.376 OA
BRANCH  26  27
ATOM     27  C   UNL A   1      31.555  32.095  26.756  1.00  0.00     0.202 C 
BRANCH  27  28
ATOM     28  C   UNL A   1      32.612  33.072  27.277  1.00  0.00     0.261 C 
BRANCH  28  29
ATOM     29  O   UNL A   1      32.233  33.798  28.456  1.00  0.00    -0.460 OA
BRANCH  29  30
ATOM     30  C   UNL A   1      32.965  34.884  28.788  1.00  0.00     0.338 C 
ATOM     31  O   UNL A   1      32.632  36.053  28.720  1.00  0.00    -0.246 OA
BRANCH  30  32
ATOM     32  C   UNL A   1      34.194  34.390  29.442  1.00  0.00     0.060 A 
ATOM     33  C   UNL A   1      34.133  33.850  30.729  1.00  0.00     0.016 A 
ATOM     34  C   UNL A   1      35.424  34.530  28.785  1.00  0.00     0.016 A 
ATOM     35  C   UNL A   1      35.304  33.425  31.352  1.00  0.00     0.010 A 
ATOM     36  C   UNL A   1      36.598  34.113  29.416  1.00  0.00     0.010 A 
ATOM     37  C   UNL A   1      36.541  33.537  30.695  1.00  0.00    -0.014 A 
BRANCH  37  38
ATOM     38  C   UNL A   1      37.730  32.872  31.275  1.00  0.00     0.031 A 
ATOM     39  C   UNL A   1      38.362  33.331  32.551  1.00  0.00     0.074 A 
ATOM     40  C   UNL A   1      38.229  31.813  30.612  1.00  0.00     0.049 A 
ATOM     41  N   UNL A   1      39.338  32.776  33.227  1.00  0.00    -0.248 NA
ATOM     42  C   UNL A   1      37.842  34.569  33.144  1.00  0.00     0.031 C 
ATOM     43  C   UNL A   1      37.711  31.300  29.341  1.00  0.00     0.029 A 
ATOM     44  N   UNL A   1      39.272  30.977  30.913  1.00  0.00    -0.354 N 
ATOM     45  C   UNL A   1      39.534  33.580  34.341  1.00  0.00     0.074 A 
ATOM     46  C   UNL A   1      38.609  34.690  34.221  1.00  0.00     0.031 C 
ATOM     47  C   UNL A   1      38.426  30.225  28.981  1.00  0.00     0.029 A 
ATOM     48  C   UNL A   1      39.459  29.984  29.983  1.00  0.00     0.049 A 
ATOM     49  H   UNL A   1      39.831  31.078  31.716  1.00  0.00     0.167 HD
ATOM     50  C   UNL A   1      40.397  33.395  35.371  1.00  0.00     0.037 A 
ATOM     51  C   UNL A   1      40.359  28.988  29.946  1.00  0.00     0.037 A 
ATOM     52  C   UNL A   1      41.337  32.303  35.464  1.00  0.00     0.049 A 
ATOM     53  C   UNL A   1      41.334  28.837  31.075  1.00  0.00     0.074 A 
ATOM     54  C   UNL A   1      42.224  32.010  36.486  1.00  0.00     0.029 A 
ATOM     55  N   UNL A   1      41.528  31.336  34.487  1.00  0.00    -0.354 N 
ATOM     56  N   UNL A   1      41.450  29.550  32.168  1.00  0.00    -0.248 NA
ATOM     57  C   UNL A   1      42.298  27.734  30.969  1.00  0.00     0.031 C 
ATOM     58  C   UNL A   1      42.985  30.897  36.106  1.00  0.00     0.029 A 
ATOM     59  C   UNL A   1      42.539  30.466  34.868  1.00  0.00     0.049 A 
ATOM     60  H   UNL A   1      41.019  31.275  33.646  1.00  0.00     0.167 HD
ATOM     61  C   UNL A   1      42.482  28.970  32.892  1.00  0.00     0.074 A 
ATOM     62  C   UNL A   1      42.945  27.834  32.122  1.00  0.00     0.031 C 
ATOM     63  C   UNL A   1      43.001  29.345  34.087  1.00  0.00     0.037 A 
BRANCH  50  64
ATOM     64  C   UNL A   1      40.365  34.398  36.488  1.00  0.00     0.057 A 
ATOM     65  C   UNL A   1      39.481  34.253  37.564  1.00  0.00     0.134 A 
ATOM     66  C   UNL A   1      41.178  35.540  36.472  1.00  0.00     0.134 A 
ATOM     67  F   UNL A   1      38.665  33.190  37.638  1.00  0.00    -0.206 F 
ATOM     68  C   UNL A   1      39.408  35.205  38.584  1.00  0.00     0.040 A 
ATOM     69  C   UNL A   1      41.130  36.487  37.497  1.00  0.00     0.040 A 
ATOM     70  F   UNL A   1      42.050  35.740  35.471  1.00  0.00    -0.206 F 
ATOM     71  C   UNL A   1      40.238  36.323  38.555  1.00  0.00     0.006 A 
ENDBRANCH  50  64
BRANCH  51  72
ATOM     72  C   UNL A   1      40.361  28.038  28.807  1.00  0.00     0.057 A 
ATOM     73  C   UNL A   1      39.601  26.864  28.838  1.00  0.00     0.134 A 
ATOM     74  C   UNL A   1      41.122  28.288  27.660  1.00  0.00     0.134 A 
ATOM     75  F   UNL A   1      38.860  26.565  29.916  1.00  0.00    -0.206 F 
ATOM     76  C   UNL A   1      39.596  25.970  27.769  1.00  0.00     0.040 A 
ATOM     77  C   UNL A   1      41.107  27.415  26.572  1.00  0.00     0.040 A 
ATOM     78  F   UNL A   1      41.859  29.404  27.569  1.00  0.00    -0.206 F 
ATOM     79  C   UNL A   1      40.345  26.250  26.627  1.00  0.00     0.006 A 
ENDBRANCH  51  72
BRANCH  63  80
ATOM     80  C   UNL A   1      44.117  28.501  34.634  1.00  0.00     0.057 A 
ATOM     81  C   UNL A   1      45.451  28.782  34.313  1.00  0.00     0.134 A 
ATOM     82  C   UNL A   1      43.872  27.414  35.484  1.00  0.00     0.134 A 
ATOM     83  F   UNL A   1      45.755  29.806  33.501  1.00  0.00    -0.206 F 
ATOM     84  C   UNL A   1      46.500  28.015  34.820  1.00  0.00     0.040 A 
ATOM     85  C   UNL A   1      44.916  26.657  36.020  1.00  0.00     0.040 A 
ATOM     86  F   UNL A   1      42.618  27.104  35.846  1.00  0.00    -0.206 F 
ATOM     87  C   UNL A   1      46.235  26.955  35.684  1.00  0.00     0.006 A 
ENDBRANCH  63  80
ENDBRANCH  37  38
ENDBRANCH  30  32
ENDBRANCH  29  30
ENDBRANCH  28  29
ENDBRANCH  27  28
ENDBRANCH  26  27
ENDBRANCH  25  26
ENDBRANCH   1  25
TORSDOF 21
ENDMDL
MODEL 3
REMARK VINA RESULT:      -9.8      4.089      7.731
REMARK SMILES CC(C)n1cc(C(=O)OCCOCCOCCOCCOC(=O)c2ccc(-c3c4nc(c(-c5c(F)cccc5F)c5ccc([nH]5)c(-c5c(F)cccc5F)c5nc(c(-c6c(F)cccc6F)c6ccc3[nH]6)C=C5)C=C4)cc2)c2ccccc2c1=O
REMARK SMILES IDX 16 1 15 2 14 3 13 4 12 5 11 6 10 7 9 8 7 9 8 10 6 11 4 12
REMARK SMILES IDX 5 13 84 14 83 15 85 16 78 17 82 18 79 19 81 20 80 21 2 22
REMARK SMILES IDX 1 23 3 24 17 25 18 26 19 27 20 28 21 29 22 30 23 31 24 32
REMARK SMILES IDX 25 33 77 34 26 35 76 36 27 37 28 38 29 39 70 40 30 41 75 42
REMARK SMILES IDX 69 43 71 44 31 45 74 46 68 47 67 48 32 50 58 51 41 52 57 53
REMARK SMILES IDX 42 54 45 55 56 56 72 57 43 58 44 59 55 61 73 62 46 63 33 64
REMARK SMILES IDX 34 65 39 66 35 67 36 68 38 69 40 70 37 71 59 72 60 73 65 74
REMARK SMILES IDX 61 75 62 76 64 77 66 78 63 79 47 80 48 81 53 82 49 83 50 84
REMARK SMILES IDX 52 85 54 86 51 87
REMARK H PARENT 71 49 45 60
REMARK Flexibility Score: inf
ROOT
ATOM      1  C   UNL A   1      33.161  30.946  27.026  1.00  0.00     0.188 C 
ENDROOT
BRANCH   1   2
ATOM      2  O   UNL A   1      32.384  29.781  27.277  1.00  0.00    -0.377 OA
BRANCH   2   3
ATOM      3  C   UNL A   1      31.943  28.991  26.186  1.00  0.00     0.188 C 
BRANCH   3   4
ATOM      4  C   UNL A   1      33.007  28.354  25.275  1.00  0.00     0.188 C 
BRANCH   4   5
ATOM      5  O   UNL A   1      32.728  28.453  23.882  1.00  0.00    -0.376 OA
BRANCH   5   6
ATOM      6  C   UNL A   1      33.648  27.804  23.015  1.00  0.00     0.202 C 
BRANCH   6   7
ATOM      7  C   UNL A   1      33.092  26.534  22.363  1.00  0.00     0.261 C 
BRANCH   7   8
ATOM      8  O   UNL A   1      34.047  25.469  22.246  1.00  0.00    -0.460 OA
BRANCH   8   9
ATOM      9  C   UNL A   1      33.568  24.200  22.245  1.00  0.00     0.340 C 
ATOM     10  O   UNL A   1      33.278  23.548  21.254  1.00  0.00    -0.246 OA
BRANCH   9  11
ATOM     11  C   UNL A   1      33.609  23.665  23.635  1.00  0.00     0.084 A 
ATOM     12  N   UNL A   1      32.508  23.581  25.772  1.00  0.00    -0.312 N 
ATOM     13  C   UNL A   1      32.584  23.980  24.445  1.00  0.00     0.105 A 
ATOM     14  C   UNL A   1      33.495  22.774  26.354  1.00  0.00     0.258 A 
ATOM     15  C   UNL A   1      34.687  22.466  25.518  1.00  0.00     0.048 A 
ATOM     16  O   UNL A   1      33.442  22.332  27.499  1.00  0.00    -0.269 OA
ATOM     17  C   UNL A   1      34.741  22.895  24.184  1.00  0.00     0.003 A 
ATOM     18  C   UNL A   1      35.767  21.788  26.103  1.00  0.00     0.014 A 
ATOM     19  C   UNL A   1      35.914  22.636  23.457  1.00  0.00     0.010 A 
ATOM     20  C   UNL A   1      36.928  21.556  25.370  1.00  0.00     0.001 A 
ATOM     21  C   UNL A   1      37.003  21.986  24.050  1.00  0.00     0.001 A 
BRANCH  12  22
ATOM     22  C   UNL A   1      31.339  24.011  26.569  1.00  0.00     0.084 C 
ATOM     23  C   UNL A   1      30.806  25.369  26.111  1.00  0.00     0.031 C 
ATOM     24  C   UNL A   1      30.232  22.953  26.611  1.00  0.00     0.031 C 
ENDBRANCH  12  22
ENDBRANCH   9  11
ENDBRANCH   8   9
ENDBRANCH   7   8
ENDBRANCH   6   7
ENDBRANCH   5   6
ENDBRANCH   4   5
ENDBRANCH   3   4
ENDBRANCH   2   3
ENDBRANCH   1   2
BRANCH   1  25
ATOM     25  C   UNL A   1      34.414  31.288  27.862  1.00  0.00     0.188 C 
BRANCH  25  26
ATOM     26  O   UNL A   1      34.149  31.938  29.099  1.00  0.00    -0.376 OA
BRANCH  26  27
ATOM     27  C   UNL A   1      34.390  33.336  29.142  1.00  0.00     0.202 C 
BRANCH  27  28
ATOM     28  C   UNL A   1      34.627  33.869  30.557  1.00  0.00     0.261 C 
BRANCH  28  29
ATOM     29  O   UNL A   1      35.976  33.743  31.030  1.00  0.00    -0.460 OA
BRANCH  29  30
ATOM     30  C   UNL A   1      36.258  32.712  31.857  1.00  0.00     0.338 C 
ATOM     31  O   UNL A   1      35.612  32.332  32.816  1.00  0.00    -0.246 OA
BRANCH  30  32
ATOM     32  C   UNL A   1      37.405  31.992  31.270  1.00  0.00     0.060 A 
ATOM     33  C   UNL A   1      37.501  31.838  29.884  1.00  0.00     0.016 A 
ATOM     34  C   UNL A   1      38.357  31.410  32.118  1.00  0.00     0.016 A 
ATOM     35  C   UNL A   1      38.566  31.121  29.343  1.00  0.00     0.010 A 
ATOM     36  C   UNL A   1      39.419  30.683  31.574  1.00  0.00     0.010 A 
ATOM     37  C   UNL A   1      39.540  30.554  30.182  1.00  0.00    -0.014 A 
BRANCH  37  38
ATOM     38  C   UNL A   1      40.776  30.002  29.582  1.00  0.00     0.031 A 
ATOM     39  C   UNL A   1      40.882  28.580  29.131  1.00  0.00     0.074 A 
ATOM     40  C   UNL A   1      41.820  30.839  29.440  1.00  0.00     0.049 A 
ATOM     41  N   UNL A   1      41.865  27.994  28.492  1.00  0.00    -0.248 NA
ATOM     42  C   UNL A   1      39.749  27.697  29.440  1.00  0.00     0.031 C 
ATOM     43  C   UNL A   1      41.837  32.238  29.874  1.00  0.00     0.029 A 
ATOM     44  N   UNL A   1      43.058  30.642  28.889  1.00  0.00    -0.354 N 
ATOM     45  C   UNL A   1      41.461  26.681  28.295  1.00  0.00     0.074 A 
ATOM     46  C   UNL A   1      40.164  26.544  28.929  1.00  0.00     0.031 C 
ATOM     47  C   UNL A   1      43.021  32.779  29.556  1.00  0.00     0.029 A 
ATOM     48  C   UNL A   1      43.849  31.765  28.912  1.00  0.00     0.049 A 
ATOM     49  H   UNL A   1      43.353  29.781  28.513  1.00  0.00     0.167 HD
ATOM     50  C   UNL A   1      42.111  25.692  27.632  1.00  0.00     0.037 A 
ATOM     51  C   UNL A   1      45.099  31.956  28.460  1.00  0.00     0.037 A 
ATOM     52  C   UNL A   1      43.417  25.830  27.032  1.00  0.00     0.049 A 
ATOM     53  C   UNL A   1      45.812  30.828  27.774  1.00  0.00     0.074 A 
ATOM     54  C   UNL A   1      44.138  24.896  26.307  1.00  0.00     0.029 A 
ATOM     55  N   UNL A   1      44.207  26.968  27.106  1.00  0.00    -0.354 N 
ATOM     56  N   UNL A   1      45.385  29.617  27.513  1.00  0.00    -0.248 NA
ATOM     57  C   UNL A   1      47.180  31.098  27.312  1.00  0.00     0.031 C 
ATOM     58  C   UNL A   1      45.383  25.452  25.987  1.00  0.00     0.029 A 
ATOM     59  C   UNL A   1      45.419  26.749  26.469  1.00  0.00     0.049 A 
ATOM     60  H   UNL A   1      43.945  27.809  27.547  1.00  0.00     0.167 HD
ATOM     61  C   UNL A   1      46.420  28.988  26.835  1.00  0.00     0.074 A 
ATOM     62  C   UNL A   1      47.487  29.959  26.709  1.00  0.00     0.031 C 
ATOM     63  C   UNL A   1      46.481  27.720  26.361  1.00  0.00     0.037 A 
BRANCH  50  64
ATOM     64  C   UNL A   1      41.416  24.365  27.518  1.00  0.00     0.057 A 
ATOM     65  C   UNL A   1      41.813  23.272  28.299  1.00  0.00     0.134 A 
ATOM     66  C   UNL A   1      40.383  24.154  26.594  1.00  0.00     0.134 A 
ATOM     67  F   UNL A   1      42.803  23.399  29.196  1.00  0.00    -0.206 F 
ATOM     68  C   UNL A   1      41.207  22.020  28.167  1.00  0.00     0.040 A 
ATOM     69  C   UNL A   1      39.755  22.914  26.468  1.00  0.00     0.040 A 
ATOM     70  F   UNL A   1      39.952  25.159  25.815  1.00  0.00    -0.206 F 
ATOM     71  C   UNL A   1      40.172  21.841  27.253  1.00  0.00     0.006 A 
ENDBRANCH  50  64
BRANCH  51  72
ATOM     72  C   UNL A   1      45.747  33.280  28.618  1.00  0.00     0.057 A 
ATOM     73  C   UNL A   1      46.536  33.574  29.735  1.00  0.00     0.134 A 
ATOM     74  C   UNL A   1      45.592  34.279  27.652  1.00  0.00     0.134 A 
ATOM     75  F   UNL A   1      46.712  32.660  30.702  1.00  0.00    -0.206 F 
ATOM     76  C   UNL A   1      47.150  34.817  29.887  1.00  0.00     0.040 A 
ATOM     77  C   UNL A   1      46.221  35.518  27.778  1.00  0.00     0.040 A 
ATOM     78  F   UNL A   1      44.858  34.049  26.554  1.00  0.00    -0.206 F 
ATOM     79  C   UNL A   1      47.000  35.790  28.901  1.00  0.00     0.006 A 
ENDBRANCH  51  72
BRANCH  63  80
ATOM     80  C   UNL A   1      47.743  27.325  25.647  1.00  0.00     0.057 A 
ATOM     81  C   UNL A   1      48.834  26.806  26.355  1.00  0.00     0.134 A 
ATOM     82  C   UNL A   1      47.876  27.453  24.258  1.00  0.00     0.134 A 
ATOM     83  F   UNL A   1      48.774  26.660  27.688  1.00  0.00    -0.206 F 
ATOM     84  C   UNL A   1      50.009  26.424  25.707  1.00  0.00     0.040 A 
ATOM     85  C   UNL A   1      49.037  27.049  23.596  1.00  0.00     0.040 A 
ATOM     86  F   UNL A   1      46.861  27.926  23.519  1.00  0.00    -0.206 F 
ATOM     87  C   UNL A   1      50.110  26.537  24.322  1.00  0.00     0.006 A 
ENDBRANCH  63  80
ENDBRANCH  37  38
ENDBRANCH  30  32
ENDBRANCH  29  30
ENDBRANCH  28  29
ENDBRANCH  27  28
ENDBRANCH  26  27
ENDBRANCH  25  26
ENDBRANCH   1  25
TORSDOF 21
ENDMDL
