MODEL 1
REMARK VINA RESULT:     -11.5      0.000      0.000
REMARK SMILES Cc1ccc(C(=O)NC2CC2)cc1NC(=O)[C@@H]1[C@@H](C(=O)OCCOCCOCCOCCOC(=O)c2ccc(-c3c4nc(c(-c5c(F)cccc5F)c5ccc([nH]5)c(-c5c(F)cccc5F)c5nc(c(-c6c(F)cccc6F)c6ccc3[nH]6)C=C5)C=C4)cc2)[C@H]2C=C[C@@H]1C2
REMARK SMILES IDX 26 1 25 2 24 3 23 4 22 5 21 6 19 7 20 8 18 9 17 10 93 11
REMARK SMILES IDX 90 12 92 13 94 14 91 15 15 16 14 17 16 19 13 20 1 21 2 22
REMARK SMILES IDX 3 23 4 24 12 25 5 26 6 27 7 28 8 29 9 31 10 32 11 33 27 34
REMARK SMILES IDX 28 35 29 36 30 37 31 38 32 39 33 40 34 41 35 42 36 43 37 44
REMARK SMILES IDX 89 45 38 46 88 47 39 48 40 49 41 50 82 51 42 52 87 53 81 54
REMARK SMILES IDX 83 55 43 56 86 57 80 58 79 59 44 61 70 62 53 63 69 64 54 65
REMARK SMILES IDX 57 66 68 67 84 68 55 69 56 70 67 72 85 73 58 74 45 75 46 76
REMARK SMILES IDX 51 77 47 78 48 79 50 80 52 81 49 82 71 83 72 84 77 85 73 86
REMARK SMILES IDX 74 87 76 88 78 89 75 90 59 91 60 92 65 93 61 94 62 95 64 96
REMARK SMILES IDX 66 97 63 98
REMARK H PARENT 14 18 8 30 83 60 57 71
REMARK Flexibility Score: inf
ROOT
ATOM      1  C   UNL A   1      35.144  30.796  27.628  1.00  0.00     0.188 C 
ENDROOT
BRANCH   1   2
ATOM      2  C   UNL A   1      34.684  29.353  27.340  1.00  0.00     0.188 C 
BRANCH   2   3
ATOM      3  O   UNL A   1      33.815  29.150  26.240  1.00  0.00    -0.376 OA
BRANCH   3   4
ATOM      4  C   UNL A   1      32.446  29.348  26.555  1.00  0.00     0.202 C 
BRANCH   4   5
ATOM      5  C   UNL A   1      31.661  28.054  26.657  1.00  0.00     0.261 C 
BRANCH   5   6
ATOM      6  O   UNL A   1      31.899  27.030  25.649  1.00  0.00    -0.463 OA
BRANCH   6   7
ATOM      7  C   UNL A   1      30.862  26.565  24.961  1.00  0.00     0.310 C 
ATOM      8  O   UNL A   1      29.805  26.232  25.492  1.00  0.00    -0.252 OA
BRANCH   7   9
ATOM      9  C   UNL A   1      31.040  26.377  23.469  1.00  0.00     0.119 C 
ATOM     10  C   UNL A   1      31.982  25.130  23.445  1.00  0.00     0.100 C 
ATOM     11  C   UNL A   1      32.843  25.349  22.196  1.00  0.00     0.025 C 
ATOM     12  C   UNL A   1      31.683  27.277  22.381  1.00  0.00     0.027 C 
ATOM     13  C   UNL A   1      33.829  26.462  22.525  1.00  0.00    -0.027 C 
ATOM     14  C   UNL A   1      31.931  26.185  21.300  1.00  0.00     0.017 C 
ATOM     15  C   UNL A   1      33.133  27.606  22.626  1.00  0.00    -0.027 C 
BRANCH  10  16
ATOM     16  C   UNL A   1      31.141  23.878  23.587  1.00  0.00     0.228 C 
ATOM     17  N   UNL A   1      31.475  22.820  24.393  1.00  0.00    -0.326 N 
ATOM     18  H   UNL A   1      30.746  22.161  24.451  1.00  0.00     0.169 HD
ATOM     19  O   UNL A   1      30.071  23.788  22.970  1.00  0.00    -0.274 OA
BRANCH  17  20
ATOM     20  C   UNL A   1      32.602  22.431  25.167  1.00  0.00     0.044 A 
ATOM     21  C   UNL A   1      31.829  23.883  27.120  1.00  0.00     0.046 C 
ATOM     22  C   UNL A   1      32.707  22.838  26.496  1.00  0.00    -0.027 A 
ATOM     23  C   UNL A   1      33.684  22.240  27.322  1.00  0.00     0.006 A 
ATOM     24  C   UNL A   1      34.610  21.316  26.831  1.00  0.00     0.014 A 
ATOM     25  C   UNL A   1      33.650  21.648  24.689  1.00  0.00     0.040 A 
ATOM     26  C   UNL A   1      34.643  21.025  25.478  1.00  0.00     0.041 A 
BRANCH  26  27
ATOM     27  C   UNL A   1      35.744  20.070  25.023  1.00  0.00     0.251 C 
ATOM     28  O   UNL A   1      36.913  20.451  24.975  1.00  0.00    -0.269 OA
ATOM     29  N   UNL A   1      35.478  18.756  24.687  1.00  0.00    -0.349 N 
ATOM     30  H   UNL A   1      36.236  18.141  24.555  1.00  0.00     0.164 HD
BRANCH  29  31
ATOM     31  C   UNL A   1      34.184  18.263  24.525  1.00  0.00     0.082 C 
ATOM     32  C   UNL A   1      34.227  17.171  23.491  1.00  0.00     0.027 C 
ATOM     33  C   UNL A   1      33.526  16.971  24.780  1.00  0.00     0.027 C 
ENDBRANCH  29  31
ENDBRANCH  26  27
ENDBRANCH  17  20
ENDBRANCH  10  16
ENDBRANCH   7   9
ENDBRANCH   6   7
ENDBRANCH   5   6
ENDBRANCH   4   5
ENDBRANCH   3   4
ENDBRANCH   2   3
ENDBRANCH   1   2
BRANCH   1  34
ATOM     34  O   UNL A   1      34.144  31.689  28.143  1.00  0.00    -0.377 OA
BRANCH  34  35
ATOM     35  C   UNL A   1      34.427  33.089  28.079  1.00  0.00     0.188 C 
BRANCH  35  36
ATOM     36  C   UNL A   1      33.290  34.067  28.411  1.00  0.00     0.188 C 
BRANCH  36  37
ATOM     37  O   UNL A   1      33.826  35.318  28.833  1.00  0.00    -0.376 OA
BRANCH  37  38
ATOM     38  C   UNL A   1      32.899  36.272  29.340  1.00  0.00     0.202 C 
BRANCH  38  39
ATOM     39  C   UNL A   1      32.741  36.193  30.860  1.00  0.00     0.261 C 
BRANCH  39  40
ATOM     40  O   UNL A   1      34.011  36.477  31.479  1.00  0.00    -0.460 OA
BRANCH  40  41
ATOM     41  C   UNL A   1      34.251  35.806  32.644  1.00  0.00     0.338 C 
ATOM     42  O   UNL A   1      34.253  36.289  33.749  1.00  0.00    -0.246 OA
BRANCH  41  43
ATOM     43  C   UNL A   1      34.822  34.462  32.328  1.00  0.00     0.060 A 
ATOM     44  C   UNL A   1      34.711  33.427  33.273  1.00  0.00     0.016 A 
ATOM     45  C   UNL A   1      35.742  34.358  31.294  1.00  0.00     0.016 A 
ATOM     46  C   UNL A   1      35.645  32.385  33.288  1.00  0.00     0.010 A 
ATOM     47  C   UNL A   1      36.727  33.405  31.392  1.00  0.00     0.010 A 
ATOM     48  C   UNL A   1      36.717  32.432  32.405  1.00  0.00    -0.014 A 
BRANCH  48  49
ATOM     49  C   UNL A   1      37.955  31.654  32.536  1.00  0.00     0.031 A 
ATOM     50  C   UNL A   1      38.128  30.426  31.679  1.00  0.00     0.074 A 
ATOM     51  C   UNL A   1      38.991  32.279  33.146  1.00  0.00     0.049 A 
ATOM     52  N   UNL A   1      39.182  29.689  31.590  1.00  0.00    -0.248 NA
ATOM     53  C   UNL A   1      37.055  29.915  30.823  1.00  0.00     0.031 C 
ATOM     54  C   UNL A   1      40.379  32.207  32.769  1.00  0.00     0.029 A 
ATOM     55  N   UNL A   1      39.063  33.246  34.118  1.00  0.00    -0.354 N 
ATOM     56  C   UNL A   1      39.034  28.790  30.534  1.00  0.00     0.074 A 
ATOM     57  C   UNL A   1      37.669  28.958  30.123  1.00  0.00     0.031 C 
ATOM     58  C   UNL A   1      41.220  32.746  33.652  1.00  0.00     0.029 A 
ATOM     59  C   UNL A   1      40.363  33.261  34.669  1.00  0.00     0.049 A 
ATOM     60  H   UNL A   1      38.324  33.838  34.389  1.00  0.00     0.167 HD
ATOM     61  C   UNL A   1      40.114  28.068  30.091  1.00  0.00     0.037 A 
ATOM     62  C   UNL A   1      40.542  33.013  35.983  1.00  0.00     0.037 A 
ATOM     63  C   UNL A   1      41.201  28.089  31.112  1.00  0.00     0.049 A 
ATOM     64  C   UNL A   1      41.112  31.592  36.093  1.00  0.00     0.074 A 
ATOM     65  C   UNL A   1      42.578  28.065  31.101  1.00  0.00     0.029 A 
ATOM     66  N   UNL A   1      40.886  28.191  32.494  1.00  0.00    -0.354 N 
ATOM     67  N   UNL A   1      40.859  30.582  35.270  1.00  0.00    -0.248 NA
ATOM     68  C   UNL A   1      42.270  31.333  36.950  1.00  0.00     0.031 C 
ATOM     69  C   UNL A   1      43.052  28.428  32.389  1.00  0.00     0.029 A 
ATOM     70  C   UNL A   1      41.984  28.507  33.261  1.00  0.00     0.049 A 
ATOM     71  H   UNL A   1      39.984  28.050  32.862  1.00  0.00     0.167 HD
ATOM     72  C   UNL A   1      41.818  29.596  35.452  1.00  0.00     0.074 A 
ATOM     73  C   UNL A   1      42.675  30.134  36.502  1.00  0.00     0.031 C 
ATOM     74  C   UNL A   1      42.026  28.449  34.717  1.00  0.00     0.037 A 
BRANCH  61  75
ATOM     75  C   UNL A   1      40.273  27.503  28.625  1.00  0.00     0.057 A 
ATOM     76  C   UNL A   1      39.814  26.214  28.247  1.00  0.00     0.134 A 
ATOM     77  C   UNL A   1      40.985  28.117  27.566  1.00  0.00     0.134 A 
ATOM     78  F   UNL A   1      38.967  25.515  29.005  1.00  0.00    -0.206 F 
ATOM     79  C   UNL A   1      40.152  25.562  27.035  1.00  0.00     0.040 A 
ATOM     80  C   UNL A   1      41.266  27.508  26.319  1.00  0.00     0.040 A 
ATOM     81  F   UNL A   1      41.475  29.354  27.647  1.00  0.00    -0.206 F 
ATOM     82  C   UNL A   1      40.888  26.207  26.062  1.00  0.00     0.006 A 
ENDBRANCH  61  75
BRANCH  62  83
ATOM     83  C   UNL A   1      39.576  33.923  36.704  1.00  0.00     0.057 A 
ATOM     84  C   UNL A   1      38.631  33.197  37.495  1.00  0.00     0.134 A 
ATOM     85  C   UNL A   1      40.009  35.138  37.255  1.00  0.00     0.134 A 
ATOM     86  F   UNL A   1      38.161  32.017  37.053  1.00  0.00    -0.206 F 
ATOM     87  C   UNL A   1      38.383  33.502  38.845  1.00  0.00     0.040 A 
ATOM     88  C   UNL A   1      39.727  35.468  38.601  1.00  0.00     0.040 A 
ATOM     89  F   UNL A   1      40.917  35.885  36.613  1.00  0.00    -0.206 F 
ATOM     90  C   UNL A   1      38.980  34.616  39.418  1.00  0.00     0.006 A 
ENDBRANCH  62  83
BRANCH  74  91
ATOM     91  C   UNL A   1      42.693  27.185  35.275  1.00  0.00     0.057 A 
ATOM     92  C   UNL A   1      42.024  25.971  35.443  1.00  0.00     0.134 A 
ATOM     93  C   UNL A   1      44.094  27.109  35.529  1.00  0.00     0.134 A 
ATOM     94  F   UNL A   1      40.747  25.815  35.069  1.00  0.00    -0.206 F 
ATOM     95  C   UNL A   1      42.654  24.827  35.952  1.00  0.00     0.040 A 
ATOM     96  C   UNL A   1      44.730  25.985  36.054  1.00  0.00     0.040 A 
ATOM     97  F   UNL A   1      44.950  28.090  35.214  1.00  0.00    -0.206 F 
ATOM     98  C   UNL A   1      44.003  24.837  36.282  1.00  0.00     0.006 A 
ENDBRANCH  74  91
ENDBRANCH  48  49
ENDBRANCH  41  43
ENDBRANCH  40  41
ENDBRANCH  39  40
ENDBRANCH  38  39
ENDBRANCH  37  38
ENDBRANCH  36  37
ENDBRANCH  35  36
ENDBRANCH  34  35
ENDBRANCH   1  34
TORSDOF 24
ENDMDL
MODEL 2
REMARK VINA RESULT:     -10.7      1.547      2.159
REMARK SMILES Cc1ccc(C(=O)NC2CC2)cc1NC(=O)[C@@H]1[C@@H](C(=O)OCCOCCOCCOCCOC(=O)c2ccc(-c3c4nc(c(-c5c(F)cccc5F)c5ccc([nH]5)c(-c5c(F)cccc5F)c5nc(c(-c6c(F)cccc6F)c6ccc3[nH]6)C=C5)C=C4)cc2)[C@H]2C=C[C@@H]1C2
REMARK SMILES IDX 26 1 25 2 24 3 23 4 22 5 21 6 19 7 20 8 18 9 17 10 93 11
REMARK SMILES IDX 90 12 92 13 94 14 91 15 15 16 14 17 16 19 13 20 1 21 2 22
REMARK SMILES IDX 3 23 4 24 12 25 5 26 6 27 7 28 8 29 9 31 10 32 11 33 27 34
REMARK SMILES IDX 28 35 29 36 30 37 31 38 32 39 33 40 34 41 35 42 36 43 37 44
REMARK SMILES IDX 89 45 38 46 88 47 39 48 40 49 41 50 82 51 42 52 87 53 81 54
REMARK SMILES IDX 83 55 43 56 86 57 80 58 79 59 44 61 70 62 53 63 69 64 54 65
REMARK SMILES IDX 57 66 68 67 84 68 55 69 56 70 67 72 85 73 58 74 45 75 46 76
REMARK SMILES IDX 51 77 47 78 48 79 50 80 52 81 49 82 71 83 72 84 77 85 73 86
REMARK SMILES IDX 74 87 76 88 78 89 75 90 59 91 60 92 65 93 61 94 62 95 64 96
REMARK SMILES IDX 66 97 63 98
REMARK H PARENT 14 18 8 30 83 60 57 71
REMARK Flexibility Score: inf
ROOT
ATOM      1  C   UNL A   1      34.761  33.443  28.376  1.00  0.00     0.188 C 
ENDROOT
BRANCH   1   2
ATOM      2  C   UNL A   1      34.235  32.229  27.584  1.00  0.00     0.188 C 
BRANCH   2   3
ATOM      3  O   UNL A   1      34.185  30.982  28.255  1.00  0.00    -0.376 OA
BRANCH   3   4
ATOM      4  C   UNL A   1      34.984  29.979  27.648  1.00  0.00     0.202 C 
BRANCH   4   5
ATOM      5  C   UNL A   1      34.194  28.752  27.236  1.00  0.00     0.261 C 
BRANCH   5   6
ATOM      6  O   UNL A   1      33.223  28.895  26.159  1.00  0.00    -0.463 OA
BRANCH   6   7
ATOM      7  C   UNL A   1      31.944  28.651  26.424  1.00  0.00     0.310 C 
ATOM      8  O   UNL A   1      31.456  28.791  27.544  1.00  0.00    -0.252 OA
BRANCH   7   9
ATOM      9  C   UNL A   1      31.088  28.107  25.299  1.00  0.00     0.119 C 
ATOM     10  C   UNL A   1      31.914  26.843  24.893  1.00  0.00     0.100 C 
ATOM     11  C   UNL A   1      31.668  26.716  23.386  1.00  0.00     0.025 C 
ATOM     12  C   UNL A   1      30.707  28.690  23.913  1.00  0.00     0.027 C 
ATOM     13  C   UNL A   1      32.466  27.824  22.710  1.00  0.00    -0.027 C 
ATOM     14  C   UNL A   1      30.295  27.362  23.213  1.00  0.00     0.017 C 
ATOM     15  C   UNL A   1      31.883  28.993  23.022  1.00  0.00    -0.027 C 
BRANCH  10  16
ATOM     16  C   UNL A   1      31.558  25.704  25.827  1.00  0.00     0.228 C 
ATOM     17  N   UNL A   1      32.263  24.531  25.906  1.00  0.00    -0.326 N 
ATOM     18  H   UNL A   1      31.958  23.970  26.656  1.00  0.00     0.169 HD
ATOM     19  O   UNL A   1      30.594  25.824  26.595  1.00  0.00    -0.274 OA
BRANCH  17  20
ATOM     20  C   UNL A   1      33.321  23.914  25.183  1.00  0.00     0.044 A 
ATOM     21  C   UNL A   1      31.733  23.298  23.281  1.00  0.00     0.046 C 
ATOM     22  C   UNL A   1      33.095  23.439  23.892  1.00  0.00    -0.027 A 
ATOM     23  C   UNL A   1      34.201  23.069  23.094  1.00  0.00     0.006 A 
ATOM     24  C   UNL A   1      35.510  23.081  23.584  1.00  0.00     0.014 A 
ATOM     25  C   UNL A   1      34.612  23.739  25.676  1.00  0.00     0.040 A 
ATOM     26  C   UNL A   1      35.746  23.379  24.915  1.00  0.00     0.041 A 
BRANCH  26  27
ATOM     27  C   UNL A   1      37.198  23.281  25.378  1.00  0.00     0.251 C 
ATOM     28  O   UNL A   1      37.748  24.252  25.897  1.00  0.00    -0.269 OA
ATOM     29  N   UNL A   1      37.923  22.110  25.265  1.00  0.00    -0.349 N 
ATOM     30  H   UNL A   1      38.795  22.051  25.719  1.00  0.00     0.164 HD
BRANCH  29  31
ATOM     31  C   UNL A   1      37.474  21.010  24.535  1.00  0.00     0.082 C 
ATOM     32  C   UNL A   1      38.212  19.794  25.027  1.00  0.00     0.027 C 
ATOM     33  C   UNL A   1      36.740  19.777  24.863  1.00  0.00     0.027 C 
ENDBRANCH  29  31
ENDBRANCH  26  27
ENDBRANCH  17  20
ENDBRANCH  10  16
ENDBRANCH   7   9
ENDBRANCH   6   7
ENDBRANCH   5   6
ENDBRANCH   4   5
ENDBRANCH   3   4
ENDBRANCH   2   3
ENDBRANCH   1   2
BRANCH   1  34
ATOM     34  O   UNL A   1      33.853  34.547  28.519  1.00  0.00    -0.377 OA
BRANCH  34  35
ATOM     35  C   UNL A   1      34.402  35.861  28.391  1.00  0.00     0.188 C 
BRANCH  35  36
ATOM     36  C   UNL A   1      33.512  37.051  28.778  1.00  0.00     0.188 C 
BRANCH  36  37
ATOM     37  O   UNL A   1      32.701  36.714  29.900  1.00  0.00    -0.376 OA
BRANCH  37  38
ATOM     38  C   UNL A   1      33.148  37.170  31.172  1.00  0.00     0.202 C 
BRANCH  38  39
ATOM     39  C   UNL A   1      33.034  36.098  32.257  1.00  0.00     0.261 C 
BRANCH  39  40
ATOM     40  O   UNL A   1      33.370  34.817  31.688  1.00  0.00    -0.460 OA
BRANCH  40  41
ATOM     41  C   UNL A   1      33.673  33.842  32.595  1.00  0.00     0.338 C 
ATOM     42  O   UNL A   1      32.881  33.242  33.278  1.00  0.00    -0.246 OA
BRANCH  41  43
ATOM     43  C   UNL A   1      35.146  33.845  32.847  1.00  0.00     0.060 A 
ATOM     44  C   UNL A   1      36.029  34.057  31.773  1.00  0.00     0.016 A 
ATOM     45  C   UNL A   1      35.618  33.297  34.032  1.00  0.00     0.016 A 
ATOM     46  C   UNL A   1      37.331  33.548  31.823  1.00  0.00     0.010 A 
ATOM     47  C   UNL A   1      36.851  32.692  34.023  1.00  0.00     0.010 A 
ATOM     48  C   UNL A   1      37.708  32.774  32.913  1.00  0.00    -0.014 A 
BRANCH  48  49
ATOM     49  C   UNL A   1      38.866  31.872  32.951  1.00  0.00     0.031 A 
ATOM     50  C   UNL A   1      38.884  30.684  32.023  1.00  0.00     0.074 A 
ATOM     51  C   UNL A   1      39.981  32.357  33.549  1.00  0.00     0.049 A 
ATOM     52  N   UNL A   1      39.855  29.855  31.850  1.00  0.00    -0.248 NA
ATOM     53  C   UNL A   1      37.735  30.331  31.186  1.00  0.00     0.031 C 
ATOM     54  C   UNL A   1      41.340  32.171  33.111  1.00  0.00     0.029 A 
ATOM     55  N   UNL A   1      40.185  33.255  34.568  1.00  0.00    -0.354 N 
ATOM     56  C   UNL A   1      39.580  29.036  30.755  1.00  0.00     0.074 A 
ATOM     57  C   UNL A   1      38.224  29.360  30.411  1.00  0.00     0.031 C 
ATOM     58  C   UNL A   1      42.262  32.574  33.986  1.00  0.00     0.029 A 
ATOM     59  C   UNL A   1      41.499  33.111  35.063  1.00  0.00     0.049 A 
ATOM     60  H   UNL A   1      39.519  33.900  34.900  1.00  0.00     0.167 HD
ATOM     61  C   UNL A   1      40.566  28.238  30.229  1.00  0.00     0.037 A 
ATOM     62  C   UNL A   1      41.701  32.772  36.354  1.00  0.00     0.037 A 
ATOM     63  C   UNL A   1      41.686  28.095  31.203  1.00  0.00     0.049 A 
ATOM     64  C   UNL A   1      42.129  31.298  36.364  1.00  0.00     0.074 A 
ATOM     65  C   UNL A   1      43.052  27.937  31.133  1.00  0.00     0.029 A 
ATOM     66  N   UNL A   1      41.433  28.147  32.601  1.00  0.00    -0.354 N 
ATOM     67  N   UNL A   1      41.747  30.367  35.499  1.00  0.00    -0.248 NA
ATOM     68  C   UNL A   1      43.286  30.878  37.156  1.00  0.00     0.031 C 
ATOM     69  C   UNL A   1      43.607  28.178  32.418  1.00  0.00     0.029 A 
ATOM     70  C   UNL A   1      42.584  28.310  33.337  1.00  0.00     0.049 A 
ATOM     71  H   UNL A   1      40.536  28.075  32.998  1.00  0.00     0.167 HD
ATOM     72  C   UNL A   1      42.608  29.283  35.588  1.00  0.00     0.074 A 
ATOM     73  C   UNL A   1      43.553  29.673  36.628  1.00  0.00     0.031 C 
ATOM     74  C   UNL A   1      42.674  28.165  34.785  1.00  0.00     0.037 A 
BRANCH  61  75
ATOM     75  C   UNL A   1      40.613  27.745  28.729  1.00  0.00     0.057 A 
ATOM     76  C   UNL A   1      40.087  26.494  28.317  1.00  0.00     0.134 A 
ATOM     77  C   UNL A   1      41.280  28.391  27.659  1.00  0.00     0.134 A 
ATOM     78  F   UNL A   1      39.264  25.784  29.092  1.00  0.00    -0.206 F 
ATOM     79  C   UNL A   1      40.325  25.895  27.056  1.00  0.00     0.040 A 
ATOM     80  C   UNL A   1      41.462  27.839  26.368  1.00  0.00     0.040 A 
ATOM     81  F   UNL A   1      41.817  29.605  27.771  1.00  0.00    -0.206 F 
ATOM     82  C   UNL A   1      41.022  26.565  26.072  1.00  0.00     0.006 A 
ENDBRANCH  61  75
BRANCH  62  83
ATOM     83  C   UNL A   1      40.857  33.729  37.162  1.00  0.00     0.057 A 
ATOM     84  C   UNL A   1      39.796  33.067  37.856  1.00  0.00     0.134 A 
ATOM     85  C   UNL A   1      41.446  34.799  37.851  1.00  0.00     0.134 A 
ATOM     86  F   UNL A   1      39.172  32.025  37.279  1.00  0.00    -0.206 F 
ATOM     87  C   UNL A   1      39.558  33.256  39.229  1.00  0.00     0.040 A 
ATOM     88  C   UNL A   1      41.179  35.018  39.222  1.00  0.00     0.040 A 
ATOM     89  F   UNL A   1      42.470  35.471  37.307  1.00  0.00    -0.206 F 
ATOM     90  C   UNL A   1      40.295  34.200  39.930  1.00  0.00     0.006 A 
ENDBRANCH  62  83
BRANCH  74  91
ATOM     91  C   UNL A   1      43.231  26.812  35.245  1.00  0.00     0.057 A 
ATOM     92  C   UNL A   1      42.447  25.666  35.394  1.00  0.00     0.134 A 
ATOM     93  C   UNL A   1      44.627  26.580  35.417  1.00  0.00     0.134 A 
ATOM     94  F   UNL A   1      41.144  25.662  35.085  1.00  0.00    -0.206 F 
ATOM     95  C   UNL A   1      42.978  24.439  35.814  1.00  0.00     0.040 A 
ATOM     96  C   UNL A   1      45.166  25.370  35.853  1.00  0.00     0.040 A 
ATOM     97  F   UNL A   1      45.565  27.482  35.100  1.00  0.00    -0.206 F 
ATOM     98  C   UNL A   1      44.335  24.293  36.069  1.00  0.00     0.006 A 
ENDBRANCH  74  91
ENDBRANCH  48  49
ENDBRANCH  41  43
ENDBRANCH  40  41
ENDBRANCH  39  40
ENDBRANCH  38  39
ENDBRANCH  37  38
ENDBRANCH  36  37
ENDBRANCH  35  36
ENDBRANCH  34  35
ENDBRANCH   1  34
TORSDOF 24
ENDMDL
MODEL 3
REMARK VINA RESULT:     -10.3      1.406      2.272
REMARK SMILES Cc1ccc(C(=O)NC2CC2)cc1NC(=O)[C@@H]1[C@@H](C(=O)OCCOCCOCCOCCOC(=O)c2ccc(-c3c4nc(c(-c5c(F)cccc5F)c5ccc([nH]5)c(-c5c(F)cccc5F)c5nc(c(-c6c(F)cccc6F)c6ccc3[nH]6)C=C5)C=C4)cc2)[C@H]2C=C[C@@H]1C2
REMARK SMILES IDX 26 1 25 2 24 3 23 4 22 5 21 6 19 7 20 8 18 9 17 10 93 11
REMARK SMILES IDX 90 12 92 13 94 14 91 15 15 16 14 17 16 19 13 20 1 21 2 22
REMARK SMILES IDX 3 23 4 24 12 25 5 26 6 27 7 28 8 29 9 31 10 32 11 33 27 34
REMARK SMILES IDX 28 35 29 36 30 37 31 38 32 39 33 40 34 41 35 42 36 43 37 44
REMARK SMILES IDX 89 45 38 46 88 47 39 48 40 49 41 50 82 51 42 52 87 53 81 54
REMARK SMILES IDX 83 55 43 56 86 57 80 58 79 59 44 61 70 62 53 63 69 64 54 65
REMARK SMILES IDX 57 66 68 67 84 68 55 69 56 70 67 72 85 73 58 74 45 75 46 76
REMARK SMILES IDX 51 77 47 78 48 79 50 80 52 81 49 82 71 83 72 84 77 85 73 86
REMARK SMILES IDX 74 87 76 88 78 89 75 90 59 91 60 92 65 93 61 94 62 95 64 96
REMARK SMILES IDX 66 97 63 98
REMARK H PARENT 14 18 8 30 83 60 57 71
REMARK Flexibility Score: inf
ROOT
ATOM      1  C   UNL A   1      33.273  32.629  27.705  1.00  0.00     0.188 C 
ENDROOT
BRANCH   1   2
ATOM      2  C   UNL A   1      32.256  31.835  26.861  1.00  0.00     0.188 C 
BRANCH   2   3
ATOM      3  O   UNL A   1      32.038  30.479  27.206  1.00  0.00    -0.376 OA
BRANCH   3   4
ATOM      4  C   UNL A   1      33.216  29.688  27.167  1.00  0.00     0.202 C 
BRANCH   4   5
ATOM      5  C   UNL A   1      32.972  28.232  27.513  1.00  0.00     0.261 C 
BRANCH   5   6
ATOM      6  O   UNL A   1      32.649  27.317  26.427  1.00  0.00    -0.463 OA
BRANCH   6   7
ATOM      7  C   UNL A   1      31.373  27.158  26.091  1.00  0.00     0.310 C 
ATOM      8  O   UNL A   1      30.586  26.490  26.758  1.00  0.00    -0.252 OA
BRANCH   7   9
ATOM      9  C   UNL A   1      30.912  27.773  24.786  1.00  0.00     0.119 C 
ATOM     10  C   UNL A   1      31.362  26.671  23.772  1.00  0.00     0.100 C 
ATOM     11  C   UNL A   1      31.712  27.462  22.507  1.00  0.00     0.025 C 
ATOM     12  C   UNL A   1      31.332  29.070  24.046  1.00  0.00     0.027 C 
ATOM     13  C   UNL A   1      33.030  28.175  22.779  1.00  0.00    -0.027 C 
ATOM     14  C   UNL A   1      30.821  28.697  22.624  1.00  0.00     0.017 C 
ATOM     15  C   UNL A   1      32.795  29.135  23.689  1.00  0.00    -0.027 C 
BRANCH  10  16
ATOM     16  C   UNL A   1      30.308  25.583  23.729  1.00  0.00     0.228 C 
ATOM     17  N   UNL A   1      30.582  24.247  23.870  1.00  0.00    -0.326 N 
ATOM     18  H   UNL A   1      29.759  23.711  23.943  1.00  0.00     0.169 HD
ATOM     19  O   UNL A   1      29.117  25.893  23.586  1.00  0.00    -0.274 OA
BRANCH  17  20
ATOM     20  C   UNL A   1      31.748  23.437  23.939  1.00  0.00     0.044 A 
ATOM     21  C   UNL A   1      32.510  24.247  21.640  1.00  0.00     0.046 C 
ATOM     22  C   UNL A   1      32.717  23.527  22.940  1.00  0.00    -0.027 A 
ATOM     23  C   UNL A   1      33.975  22.919  23.148  1.00  0.00     0.006 A 
ATOM     24  C   UNL A   1      34.253  22.154  24.283  1.00  0.00     0.014 A 
ATOM     25  C   UNL A   1      32.012  22.525  24.958  1.00  0.00     0.040 A 
ATOM     26  C   UNL A   1      33.254  21.900  25.207  1.00  0.00     0.041 A 
BRANCH  26  27
ATOM     27  C   UNL A   1      33.631  20.983  26.369  1.00  0.00     0.251 C 
ATOM     28  O   UNL A   1      34.266  21.427  27.325  1.00  0.00    -0.269 OA
ATOM     29  N   UNL A   1      33.250  19.655  26.405  1.00  0.00    -0.349 N 
ATOM     30  H   UNL A   1      33.377  19.152  27.241  1.00  0.00     0.164 HD
BRANCH  29  31
ATOM     31  C   UNL A   1      32.693  18.998  25.308  1.00  0.00     0.082 C 
ATOM     32  C   UNL A   1      33.802  18.291  24.578  1.00  0.00     0.027 C 
ATOM     33  C   UNL A   1      32.541  17.589  24.910  1.00  0.00     0.027 C 
ENDBRANCH  29  31
ENDBRANCH  26  27
ENDBRANCH  17  20
ENDBRANCH  10  16
ENDBRANCH   7   9
ENDBRANCH   6   7
ENDBRANCH   5   6
ENDBRANCH   4   5
ENDBRANCH   3   4
ENDBRANCH   2   3
ENDBRANCH   1   2
BRANCH   1  34
ATOM     34  O   UNL A   1      32.863  33.941  28.123  1.00  0.00    -0.377 OA
BRANCH  34  35
ATOM     35  C   UNL A   1      33.887  34.929  28.263  1.00  0.00     0.188 C 
BRANCH  35  36
ATOM     36  C   UNL A   1      33.474  36.328  28.743  1.00  0.00     0.188 C 
BRANCH  36  37
ATOM     37  O   UNL A   1      32.491  36.225  29.770  1.00  0.00    -0.376 OA
BRANCH  37  38
ATOM     38  C   UNL A   1      32.845  36.743  31.048  1.00  0.00     0.202 C 
BRANCH  38  39
ATOM     39  C   UNL A   1      32.897  35.662  32.130  1.00  0.00     0.261 C 
BRANCH  39  40
ATOM     40  O   UNL A   1      33.620  34.524  31.621  1.00  0.00    -0.460 OA
BRANCH  40  41
ATOM     41  C   UNL A   1      33.938  33.575  32.550  1.00  0.00     0.338 C 
ATOM     42  O   UNL A   1      33.158  33.002  33.270  1.00  0.00    -0.246 OA
BRANCH  41  43
ATOM     43  C   UNL A   1      35.416  33.577  32.770  1.00  0.00     0.060 A 
ATOM     44  C   UNL A   1      36.275  33.787  31.677  1.00  0.00     0.016 A 
ATOM     45  C   UNL A   1      35.913  33.029  33.944  1.00  0.00     0.016 A 
ATOM     46  C   UNL A   1      37.578  33.276  31.699  1.00  0.00     0.010 A 
ATOM     47  C   UNL A   1      37.145  32.422  33.910  1.00  0.00     0.010 A 
ATOM     48  C   UNL A   1      37.977  32.503  32.781  1.00  0.00    -0.014 A 
BRANCH  48  49
ATOM     49  C   UNL A   1      39.135  31.599  32.793  1.00  0.00     0.031 A 
ATOM     50  C   UNL A   1      39.158  30.446  31.823  1.00  0.00     0.074 A 
ATOM     51  C   UNL A   1      40.246  32.062  33.417  1.00  0.00     0.049 A 
ATOM     52  N   UNL A   1      40.131  29.622  31.628  1.00  0.00    -0.248 NA
ATOM     53  C   UNL A   1      38.015  30.124  30.967  1.00  0.00     0.031 C 
ATOM     54  C   UNL A   1      41.608  31.891  32.981  1.00  0.00     0.029 A 
ATOM     55  N   UNL A   1      40.443  32.922  34.468  1.00  0.00    -0.354 N 
ATOM     56  C   UNL A   1      39.862  28.844  30.502  1.00  0.00     0.074 A 
ATOM     57  C   UNL A   1      38.509  29.181  30.160  1.00  0.00     0.031 C 
ATOM     58  C   UNL A   1      42.524  32.261  33.876  1.00  0.00     0.029 A 
ATOM     59  C   UNL A   1      41.754  32.759  34.967  1.00  0.00     0.049 A 
ATOM     60  H   UNL A   1      39.775  33.555  34.819  1.00  0.00     0.167 HD
ATOM     61  C   UNL A   1      40.852  28.065  29.954  1.00  0.00     0.037 A 
ATOM     62  C   UNL A   1      41.947  32.374  36.246  1.00  0.00     0.037 A 
ATOM     63  C   UNL A   1      41.965  27.886  30.929  1.00  0.00     0.049 A 
ATOM     64  C   UNL A   1      42.374  30.901  36.205  1.00  0.00     0.074 A 
ATOM     65  C   UNL A   1      43.332  27.730  30.863  1.00  0.00     0.029 A 
ATOM     66  N   UNL A   1      41.703  27.888  32.326  1.00  0.00    -0.354 N 
ATOM     67  N   UNL A   1      41.998  30.001  35.305  1.00  0.00    -0.248 NA
ATOM     68  C   UNL A   1      43.526  30.452  36.989  1.00  0.00     0.031 C 
ATOM     69  C   UNL A   1      43.878  27.924  32.160  1.00  0.00     0.029 A 
ATOM     70  C   UNL A   1      42.849  28.023  33.076  1.00  0.00     0.049 A 
ATOM     71  H   UNL A   1      40.803  27.802  32.715  1.00  0.00     0.167 HD
ATOM     72  C   UNL A   1      42.858  28.915  35.360  1.00  0.00     0.074 A 
ATOM     73  C   UNL A   1      43.796  29.266  36.421  1.00  0.00     0.031 C 
ATOM     74  C   UNL A   1      42.929  27.826  34.518  1.00  0.00     0.037 A 
BRANCH  61  75
ATOM     75  C   UNL A   1      40.909  27.627  28.437  1.00  0.00     0.057 A 
ATOM     76  C   UNL A   1      40.116  26.572  27.915  1.00  0.00     0.134 A 
ATOM     77  C   UNL A   1      41.818  28.108  27.463  1.00  0.00     0.134 A 
ATOM     78  F   UNL A   1      39.069  26.080  28.579  1.00  0.00    -0.206 F 
ATOM     79  C   UNL A   1      40.308  25.973  26.645  1.00  0.00     0.040 A 
ATOM     80  C   UNL A   1      41.969  27.570  26.162  1.00  0.00     0.040 A 
ATOM     81  F   UNL A   1      42.639  29.133  27.686  1.00  0.00    -0.206 F 
ATOM     82  C   UNL A   1      41.244  26.468  25.760  1.00  0.00     0.006 A 
ENDBRANCH  61  75
BRANCH  62  83
ATOM     83  C   UNL A   1      41.098  33.302  37.082  1.00  0.00     0.057 A 
ATOM     84  C   UNL A   1      41.586  34.646  37.070  1.00  0.00     0.134 A 
ATOM     85  C   UNL A   1      39.701  33.173  37.104  1.00  0.00     0.134 A 
ATOM     86  F   UNL A   1      42.911  34.872  37.044  1.00  0.00    -0.206 F 
ATOM     87  C   UNL A   1      40.759  35.748  36.790  1.00  0.00     0.040 A 
ATOM     88  C   UNL A   1      38.864  34.287  36.863  1.00  0.00     0.040 A 
ATOM     89  F   UNL A   1      39.135  31.959  37.086  1.00  0.00    -0.206 F 
ATOM     90  C   UNL A   1      39.393  35.558  36.630  1.00  0.00     0.006 A 
ENDBRANCH  62  83
BRANCH  74  91
ATOM     91  C   UNL A   1      43.483  26.457  34.933  1.00  0.00     0.057 A 
ATOM     92  C   UNL A   1      44.836  26.214  35.173  1.00  0.00     0.134 A 
ATOM     93  C   UNL A   1      42.636  25.355  35.251  1.00  0.00     0.134 A 
ATOM     94  F   UNL A   1      45.748  27.194  35.108  1.00  0.00    -0.206 F 
ATOM     95  C   UNL A   1      45.321  24.955  35.553  1.00  0.00     0.040 A 
ATOM     96  C   UNL A   1      43.104  24.093  35.612  1.00  0.00     0.040 A 
ATOM     97  F   UNL A   1      41.301  25.449  35.309  1.00  0.00    -0.206 F 
ATOM     98  C   UNL A   1      44.459  23.884  35.751  1.00  0.00     0.006 A 
ENDBRANCH  74  91
ENDBRANCH  48  49
ENDBRANCH  41  43
ENDBRANCH  40  41
ENDBRANCH  39  40
ENDBRANCH  38  39
ENDBRANCH  37  38
ENDBRANCH  36  37
ENDBRANCH  35  36
ENDBRANCH  34  35
ENDBRANCH   1  34
TORSDOF 24
ENDMDL
