MODEL 1
REMARK VINA RESULT:     -10.1      0.000      0.000
REMARK SMILES O=C(CCCN1C(=O)C(=O)/C(=C(/[O-])c2ccccc2)[C@@H]1/C=C/c1ccccc1)OCCOCCOCCOCCOC(=O)c1ccc(-c2c3nc(c(-c4c(F)cccc4F)c4ccc([nH]4)c(-c4c(F)cccc4F)c4nc(c(-c5c(F)cccc5F)c5ccc2[nH]5)C=C4)C=C3)cc1
REMARK SMILES IDX 33 1 32 2 31 3 30 4 29 5 2 6 1 7 3 8 4 9 5 10 6 11 7 12
REMARK SMILES IDX 20 13 8 14 9 15 11 16 10 17 12 18 13 19 21 20 22 21 23 22
REMARK SMILES IDX 24 23 28 24 25 25 27 26 26 27 14 28 15 29 19 30 16 31 18 32
REMARK SMILES IDX 17 33 34 34 35 35 36 36 37 37 38 38 39 39 40 40 41 41 42 42
REMARK SMILES IDX 43 43 44 44 45 45 97 46 46 47 96 48 47 49 48 50 49 51 90 52
REMARK SMILES IDX 50 53 95 54 89 55 91 56 51 57 94 58 88 59 87 60 52 62 78 63
REMARK SMILES IDX 61 64 77 65 62 66 65 67 76 68 92 69 63 70 64 71 75 73 93 74
REMARK SMILES IDX 66 75 53 76 54 77 59 78 55 79 56 80 58 81 60 82 57 83 79 84
REMARK SMILES IDX 80 85 85 86 81 87 82 88 84 89 86 90 83 91 67 92 68 93 73 94
REMARK SMILES IDX 69 95 70 96 72 97 74 98 71 99
REMARK H PARENT 91 61 65 72
REMARK Flexibility Score: inf
ROOT
ATOM      1  C   UNL A   1      42.364  18.899  26.261  1.00  0.00     0.188 C 
ENDROOT
BRANCH   1   2
ATOM      2  O   UNL A   1      41.106  19.429  25.849  1.00  0.00    -0.376 OA
BRANCH   2   3
ATOM      3  C   UNL A   1      40.845  20.810  26.041  1.00  0.00     0.202 C 
BRANCH   3   4
ATOM      4  C   UNL A   1      39.434  21.284  26.336  1.00  0.00     0.261 C 
BRANCH   4   5
ATOM      5  O   UNL A   1      38.617  21.695  25.242  1.00  0.00    -0.463 OA
BRANCH   5   6
ATOM      6  C   UNL A   1      37.316  22.016  25.245  1.00  0.00     0.305 C 
ATOM      7  O   UNL A   1      36.535  21.295  24.621  1.00  0.00    -0.252 OA
BRANCH   6   8
ATOM      8  C   UNL A   1      36.800  23.253  25.941  1.00  0.00     0.124 C 
BRANCH   8   9
ATOM      9  C   UNL A   1      35.391  23.725  25.633  1.00  0.00     0.033 C 
BRANCH   9  10
ATOM     10  C   UNL A   1      35.121  24.782  24.559  1.00  0.00     0.121 C 
BRANCH  10  11
ATOM     11  N   UNL A   1      33.801  25.361  24.285  1.00  0.00    -0.325 N 
ATOM     12  C   UNL A   1      33.365  25.413  22.972  1.00  0.00     0.295 C 
ATOM     13  C   UNL A   1      32.902  26.076  25.192  1.00  0.00     0.143 C 
ATOM     14  O   UNL A   1      33.862  24.881  21.997  1.00  0.00    -0.265 OA
ATOM     15  C   UNL A   1      32.104  26.257  22.933  1.00  0.00     0.248 C 
ATOM     16  C   UNL A   1      31.875  26.773  24.310  1.00  0.00     0.024 C 
ATOM     17  O   UNL A   1      31.422  26.390  21.938  1.00  0.00    -0.283 OA
ATOM     18  C   UNL A   1      30.932  27.688  24.625  1.00  0.00    -0.092 C 
ATOM     19  O   UNL A   1      30.723  28.154  25.909  1.00  0.00    -0.872 OA
BRANCH  13  20
ATOM     20  C   UNL A   1      33.704  26.998  26.053  1.00  0.00     0.003 C 
ATOM     21  C   UNL A   1      33.948  28.277  25.722  1.00  0.00     0.006 C 
BRANCH  21  22
ATOM     22  C   UNL A   1      34.509  29.218  26.692  1.00  0.00    -0.026 A 
ATOM     23  C   UNL A   1      33.814  30.406  26.953  1.00  0.00     0.008 A 
ATOM     24  C   UNL A   1      35.687  28.941  27.391  1.00  0.00     0.008 A 
ATOM     25  C   UNL A   1      34.269  31.289  27.932  1.00  0.00     0.001 A 
ATOM     26  C   UNL A   1      36.148  29.833  28.360  1.00  0.00     0.001 A 
ATOM     27  C   UNL A   1      35.434  31.000  28.636  1.00  0.00     0.000 A 
ENDBRANCH  21  22
ENDBRANCH  13  20
BRANCH  18  28
ATOM     28  C   UNL A   1      30.034  28.358  23.659  1.00  0.00    -0.033 A 
ATOM     29  C   UNL A   1      30.533  29.389  22.849  1.00  0.00     0.007 A 
ATOM     30  C   UNL A   1      28.676  28.023  23.553  1.00  0.00     0.007 A 
ATOM     31  C   UNL A   1      29.705  30.047  21.933  1.00  0.00     0.001 A 
ATOM     32  C   UNL A   1      27.849  28.676  22.632  1.00  0.00     0.001 A 
ATOM     33  C   UNL A   1      28.364  29.686  21.821  1.00  0.00     0.000 A 
ENDBRANCH  18  28
ENDBRANCH  10  11
ENDBRANCH   9  10
ENDBRANCH   8   9
ENDBRANCH   6   8
ENDBRANCH   5   6
ENDBRANCH   4   5
ENDBRANCH   3   4
ENDBRANCH   2   3
ENDBRANCH   1   2
BRANCH   1  34
ATOM     34  C   UNL A   1      43.442  18.729  25.189  1.00  0.00     0.188 C 
BRANCH  34  35
ATOM     35  O   UNL A   1      44.552  17.989  25.663  1.00  0.00    -0.377 OA
BRANCH  35  36
ATOM     36  C   UNL A   1      45.829  18.618  25.517  1.00  0.00     0.188 C 
BRANCH  36  37
ATOM     37  C   UNL A   1      46.028  19.782  24.511  1.00  0.00     0.188 C 
BRANCH  37  38
ATOM     38  O   UNL A   1      46.545  20.965  25.113  1.00  0.00    -0.376 OA
BRANCH  38  39
ATOM     39  C   UNL A   1      45.764  22.147  24.984  1.00  0.00     0.202 C 
BRANCH  39  40
ATOM     40  C   UNL A   1      44.307  22.067  25.476  1.00  0.00     0.261 C 
BRANCH  40  41
ATOM     41  O   UNL A   1      44.043  22.594  26.789  1.00  0.00    -0.460 OA
BRANCH  41  42
ATOM     42  C   UNL A   1      43.203  23.646  26.914  1.00  0.00     0.338 C 
ATOM     43  O   UNL A   1      42.025  23.594  27.214  1.00  0.00    -0.246 OA
BRANCH  42  44
ATOM     44  C   UNL A   1      44.017  24.898  26.879  1.00  0.00     0.060 A 
ATOM     45  C   UNL A   1      44.161  25.566  25.654  1.00  0.00     0.016 A 
ATOM     46  C   UNL A   1      44.552  25.472  28.041  1.00  0.00     0.016 A 
ATOM     47  C   UNL A   1      44.873  26.769  25.578  1.00  0.00     0.010 A 
ATOM     48  C   UNL A   1      45.273  26.672  27.963  1.00  0.00     0.010 A 
ATOM     49  C   UNL A   1      45.476  27.307  26.724  1.00  0.00    -0.014 A 
BRANCH  49  50
ATOM     50  C   UNL A   1      46.529  28.350  26.588  1.00  0.00     0.031 A 
ATOM     51  C   UNL A   1      46.091  29.792  26.665  1.00  0.00     0.074 A 
ATOM     52  C   UNL A   1      47.834  28.063  26.425  1.00  0.00     0.049 A 
ATOM     53  N   UNL A   1      46.791  30.890  26.542  1.00  0.00    -0.248 NA
ATOM     54  C   UNL A   1      44.656  30.018  26.908  1.00  0.00     0.031 C 
ATOM     55  C   UNL A   1      48.412  26.723  26.376  1.00  0.00     0.029 A 
ATOM     56  N   UNL A   1      48.914  28.901  26.264  1.00  0.00    -0.354 N 
ATOM     57  C   UNL A   1      45.883  31.932  26.691  1.00  0.00     0.074 A 
ATOM     58  C   UNL A   1      44.578  31.338  26.870  1.00  0.00     0.031 C 
ATOM     59  C   UNL A   1      49.740  26.827  26.187  1.00  0.00     0.029 A 
ATOM     60  C   UNL A   1      50.106  28.240  26.074  1.00  0.00     0.049 A 
ATOM     61  H   UNL A   1      48.841  29.882  26.283  1.00  0.00     0.167 HD
ATOM     62  C   UNL A   1      46.111  33.267  26.692  1.00  0.00     0.037 A 
ATOM     63  C   UNL A   1      51.340  28.722  25.822  1.00  0.00     0.037 A 
ATOM     64  C   UNL A   1      47.404  33.867  26.505  1.00  0.00     0.049 A 
ATOM     65  C   UNL A   1      51.559  30.214  25.739  1.00  0.00     0.074 A 
ATOM     66  C   UNL A   1      47.737  35.210  26.501  1.00  0.00     0.029 A 
ATOM     67  N   UNL A   1      48.575  33.162  26.276  1.00  0.00    -0.354 N 
ATOM     68  N   UNL A   1      50.700  31.191  25.910  1.00  0.00    -0.248 NA
ATOM     69  C   UNL A   1      52.923  30.671  25.427  1.00  0.00     0.031 C 
ATOM     70  C   UNL A   1      49.101  35.320  26.212  1.00  0.00     0.029 A 
ATOM     71  C   UNL A   1      49.628  34.043  26.098  1.00  0.00     0.049 A 
ATOM     72  H   UNL A   1      48.647  32.181  26.245  1.00  0.00     0.167 HD
ATOM     73  C   UNL A   1      51.423  32.369  25.761  1.00  0.00     0.074 A 
ATOM     74  C   UNL A   1      52.794  31.988  25.495  1.00  0.00     0.031 C 
ATOM     75  C   UNL A   1      50.991  33.653  25.841  1.00  0.00     0.037 A 
BRANCH  62  76
ATOM     76  C   UNL A   1      44.921  34.163  26.868  1.00  0.00     0.057 A 
ATOM     77  C   UNL A   1      44.146  34.592  25.782  1.00  0.00     0.134 A 
ATOM     78  C   UNL A   1      44.544  34.604  28.143  1.00  0.00     0.134 A 
ATOM     79  F   UNL A   1      44.465  34.224  24.531  1.00  0.00    -0.206 F 
ATOM     80  C   UNL A   1      43.059  35.451  25.954  1.00  0.00     0.040 A 
ATOM     81  C   UNL A   1      43.441  35.438  28.330  1.00  0.00     0.040 A 
ATOM     82  F   UNL A   1      45.241  34.231  29.226  1.00  0.00    -0.206 F 
ATOM     83  C   UNL A   1      42.701  35.871  27.233  1.00  0.00     0.006 A 
ENDBRANCH  62  76
BRANCH  63  84
ATOM     84  C   UNL A   1      52.482  27.790  25.611  1.00  0.00     0.057 A 
ATOM     85  C   UNL A   1      52.698  27.169  24.375  1.00  0.00     0.134 A 
ATOM     86  C   UNL A   1      53.359  27.466  26.654  1.00  0.00     0.134 A 
ATOM     87  F   UNL A   1      51.873  27.408  23.345  1.00  0.00    -0.206 F 
ATOM     88  C   UNL A   1      53.734  26.250  24.187  1.00  0.00     0.040 A 
ATOM     89  C   UNL A   1      54.414  26.569  26.472  1.00  0.00     0.040 A 
ATOM     90  F   UNL A   1      53.202  28.016  27.867  1.00  0.00    -0.206 F 
ATOM     91  C   UNL A   1      54.600  25.952  25.237  1.00  0.00     0.006 A 
ENDBRANCH  63  84
BRANCH  75  92
ATOM     92  C   UNL A   1      52.011  34.745  25.680  1.00  0.00     0.057 A 
ATOM     93  C   UNL A   1      52.649  35.335  26.778  1.00  0.00     0.134 A 
ATOM     94  C   UNL A   1      52.399  35.173  24.404  1.00  0.00     0.134 A 
ATOM     95  F   UNL A   1      52.319  34.978  28.029  1.00  0.00    -0.206 F 
ATOM     96  C   UNL A   1      53.620  36.326  26.613  1.00  0.00     0.040 A 
ATOM     97  C   UNL A   1      53.388  36.142  24.225  1.00  0.00     0.040 A 
ATOM     98  F   UNL A   1      51.839  34.642  23.307  1.00  0.00    -0.206 F 
ATOM     99  C   UNL A   1      53.997  36.725  25.333  1.00  0.00     0.006 A 
ENDBRANCH  75  92
ENDBRANCH  49  50
ENDBRANCH  42  44
ENDBRANCH  41  42
ENDBRANCH  40  41
ENDBRANCH  39  40
ENDBRANCH  38  39
ENDBRANCH  37  38
ENDBRANCH  36  37
ENDBRANCH  35  36
ENDBRANCH  34  35
ENDBRANCH   1  34
TORSDOF 26
ENDMDL
MODEL 2
REMARK VINA RESULT:      -9.9      0.634      5.658
REMARK SMILES O=C(CCCN1C(=O)C(=O)/C(=C(/[O-])c2ccccc2)[C@@H]1/C=C/c1ccccc1)OCCOCCOCCOCCOC(=O)c1ccc(-c2c3nc(c(-c4c(F)cccc4F)c4ccc([nH]4)c(-c4c(F)cccc4F)c4nc(c(-c5c(F)cccc5F)c5ccc2[nH]5)C=C4)C=C3)cc1
REMARK SMILES IDX 33 1 32 2 31 3 30 4 29 5 2 6 1 7 3 8 4 9 5 10 6 11 7 12
REMARK SMILES IDX 20 13 8 14 9 15 11 16 10 17 12 18 13 19 21 20 22 21 23 22
REMARK SMILES IDX 24 23 28 24 25 25 27 26 26 27 14 28 15 29 19 30 16 31 18 32
REMARK SMILES IDX 17 33 34 34 35 35 36 36 37 37 38 38 39 39 40 40 41 41 42 42
REMARK SMILES IDX 43 43 44 44 45 45 97 46 46 47 96 48 47 49 48 50 49 51 90 52
REMARK SMILES IDX 50 53 95 54 89 55 91 56 51 57 94 58 88 59 87 60 52 62 78 63
REMARK SMILES IDX 61 64 77 65 62 66 65 67 76 68 92 69 63 70 64 71 75 73 93 74
REMARK SMILES IDX 66 75 53 76 54 77 59 78 55 79 56 80 58 81 60 82 57 83 79 84
REMARK SMILES IDX 80 85 85 86 81 87 82 88 84 89 86 90 83 91 67 92 68 93 73 94
REMARK SMILES IDX 69 95 70 96 72 97 74 98 71 99
REMARK H PARENT 91 61 65 72
REMARK Flexibility Score: inf
ROOT
ATOM      1  C   UNL A   1      42.675  18.833  26.314  1.00  0.00     0.188 C 
ENDROOT
BRANCH   1   2
ATOM      2  O   UNL A   1      41.327  19.134  25.959  1.00  0.00    -0.376 OA
BRANCH   2   3
ATOM      3  C   UNL A   1      40.909  20.490  25.935  1.00  0.00     0.202 C 
BRANCH   3   4
ATOM      4  C   UNL A   1      39.479  20.850  26.293  1.00  0.00     0.261 C 
BRANCH   4   5
ATOM      5  O   UNL A   1      38.702  21.567  25.335  1.00  0.00    -0.463 OA
BRANCH   5   6
ATOM      6  C   UNL A   1      37.371  21.700  25.270  1.00  0.00     0.305 C 
ATOM      7  O   UNL A   1      36.719  20.809  24.722  1.00  0.00    -0.252 OA
BRANCH   6   8
ATOM      8  C   UNL A   1      36.665  22.927  25.799  1.00  0.00     0.124 C 
BRANCH   8   9
ATOM      9  C   UNL A   1      35.376  23.368  25.131  1.00  0.00     0.033 C 
BRANCH   9  10
ATOM     10  C   UNL A   1      35.140  24.829  24.738  1.00  0.00     0.121 C 
BRANCH  10  11
ATOM     11  N   UNL A   1      33.823  25.398  24.430  1.00  0.00    -0.325 N 
ATOM     12  C   UNL A   1      33.412  25.429  23.108  1.00  0.00     0.295 C 
ATOM     13  C   UNL A   1      32.904  26.123  25.309  1.00  0.00     0.143 C 
ATOM     14  O   UNL A   1      33.930  24.885  22.151  1.00  0.00    -0.265 OA
ATOM     15  C   UNL A   1      32.149  26.267  23.034  1.00  0.00     0.248 C 
ATOM     16  C   UNL A   1      31.892  26.802  24.397  1.00  0.00     0.024 C 
ATOM     17  O   UNL A   1      31.485  26.382  22.024  1.00  0.00    -0.283 OA
ATOM     18  C   UNL A   1      30.940  27.717  24.682  1.00  0.00    -0.092 C 
ATOM     19  O   UNL A   1      30.704  28.201  25.954  1.00  0.00    -0.872 OA
BRANCH  13  20
ATOM     20  C   UNL A   1      33.687  27.060  26.172  1.00  0.00     0.003 C 
ATOM     21  C   UNL A   1      34.012  28.306  25.786  1.00  0.00     0.006 C 
BRANCH  21  22
ATOM     22  C   UNL A   1      34.548  29.279  26.738  1.00  0.00    -0.026 A 
ATOM     23  C   UNL A   1      33.801  30.432  27.008  1.00  0.00     0.008 A 
ATOM     24  C   UNL A   1      35.753  29.065  27.411  1.00  0.00     0.008 A 
ATOM     25  C   UNL A   1      34.233  31.343  27.972  1.00  0.00     0.001 A 
ATOM     26  C   UNL A   1      36.191  29.984  28.365  1.00  0.00     0.001 A 
ATOM     27  C   UNL A   1      35.426  31.117  28.652  1.00  0.00     0.000 A 
ENDBRANCH  21  22
ENDBRANCH  13  20
BRANCH  18  28
ATOM     28  C   UNL A   1      30.057  28.369  23.688  1.00  0.00    -0.033 A 
ATOM     29  C   UNL A   1      30.552  29.427  22.910  1.00  0.00     0.007 A 
ATOM     30  C   UNL A   1      28.716  27.991  23.527  1.00  0.00     0.007 A 
ATOM     31  C   UNL A   1      29.739  30.068  21.970  1.00  0.00     0.001 A 
ATOM     32  C   UNL A   1      27.904  28.629  22.581  1.00  0.00     0.001 A 
ATOM     33  C   UNL A   1      28.416  29.665  21.802  1.00  0.00     0.000 A 
ENDBRANCH  18  28
ENDBRANCH  10  11
ENDBRANCH   9  10
ENDBRANCH   8   9
ENDBRANCH   6   8
ENDBRANCH   5   6
ENDBRANCH   4   5
ENDBRANCH   3   4
ENDBRANCH   2   3
ENDBRANCH   1   2
BRANCH   1  34
ATOM     34  C   UNL A   1      43.669  18.599  25.174  1.00  0.00     0.188 C 
BRANCH  34  35
ATOM     35  O   UNL A   1      44.859  17.981  25.624  1.00  0.00    -0.377 OA
BRANCH  35  36
ATOM     36  C   UNL A   1      46.056  18.755  25.485  1.00  0.00     0.188 C 
BRANCH  36  37
ATOM     37  C   UNL A   1      46.117  19.945  24.493  1.00  0.00     0.188 C 
BRANCH  37  38
ATOM     38  O   UNL A   1      46.631  21.139  25.076  1.00  0.00    -0.376 OA
BRANCH  38  39
ATOM     39  C   UNL A   1      45.788  22.285  25.044  1.00  0.00     0.202 C 
BRANCH  39  40
ATOM     40  C   UNL A   1      44.329  22.080  25.492  1.00  0.00     0.261 C 
BRANCH  40  41
ATOM     41  O   UNL A   1      43.988  22.560  26.806  1.00  0.00    -0.460 OA
BRANCH  41  42
ATOM     42  C   UNL A   1      43.015  23.490  26.930  1.00  0.00     0.338 C 
ATOM     43  O   UNL A   1      41.846  23.279  27.194  1.00  0.00    -0.246 OA
BRANCH  42  44
ATOM     44  C   UNL A   1      43.661  24.838  26.946  1.00  0.00     0.060 A 
ATOM     45  C   UNL A   1      43.720  25.563  25.747  1.00  0.00     0.016 A 
ATOM     46  C   UNL A   1      44.114  25.432  28.132  1.00  0.00     0.016 A 
ATOM     47  C   UNL A   1      44.271  26.851  25.721  1.00  0.00     0.010 A 
ATOM     48  C   UNL A   1      44.673  26.718  28.103  1.00  0.00     0.010 A 
ATOM     49  C   UNL A   1      44.795  27.419  26.890  1.00  0.00    -0.014 A 
BRANCH  49  50
ATOM     50  C   UNL A   1      45.705  28.594  26.800  1.00  0.00     0.031 A 
ATOM     51  C   UNL A   1      47.176  28.319  26.608  1.00  0.00     0.074 A 
ATOM     52  C   UNL A   1      45.272  29.867  26.858  1.00  0.00     0.049 A 
ATOM     53  N   UNL A   1      48.184  29.151  26.533  1.00  0.00    -0.248 NA
ATOM     54  C   UNL A   1      47.557  26.901  26.489  1.00  0.00     0.031 C 
ATOM     55  C   UNL A   1      43.882  30.289  26.998  1.00  0.00     0.029 A 
ATOM     56  N   UNL A   1      45.978  31.048  26.813  1.00  0.00    -0.354 N 
ATOM     57  C   UNL A   1      49.312  28.358  26.363  1.00  0.00     0.074 A 
ATOM     58  C   UNL A   1      48.873  26.981  26.387  1.00  0.00     0.031 C 
ATOM     59  C   UNL A   1      43.834  31.633  27.036  1.00  0.00     0.029 A 
ATOM     60  C   UNL A   1      45.194  32.170  26.952  1.00  0.00     0.049 A 
ATOM     61  H   UNL A   1      46.954  31.087  26.692  1.00  0.00     0.167 HD
ATOM     62  C   UNL A   1      50.601  28.736  26.189  1.00  0.00     0.037 A 
ATOM     63  C   UNL A   1      45.538  33.472  27.021  1.00  0.00     0.037 A 
ATOM     64  C   UNL A   1      51.048  30.102  26.174  1.00  0.00     0.049 A 
ATOM     65  C   UNL A   1      46.991  33.870  26.912  1.00  0.00     0.074 A 
ATOM     66  C   UNL A   1      52.331  30.586  25.993  1.00  0.00     0.029 A 
ATOM     67  N   UNL A   1      50.226  31.203  26.359  1.00  0.00    -0.354 N 
ATOM     68  N   UNL A   1      48.047  33.115  26.722  1.00  0.00    -0.248 NA
ATOM     69  C   UNL A   1      47.300  35.304  27.029  1.00  0.00     0.031 C 
ATOM     70  C   UNL A   1      52.295  31.978  26.126  1.00  0.00     0.029 A 
ATOM     71  C   UNL A   1      50.980  32.364  26.327  1.00  0.00     0.049 A 
ATOM     72  H   UNL A   1      49.251  31.165  26.492  1.00  0.00     0.167 HD
ATOM     73  C   UNL A   1      49.133  33.981  26.663  1.00  0.00     0.074 A 
ATOM     74  C   UNL A   1      48.610  35.320  26.828  1.00  0.00     0.031 C 
ATOM     75  C   UNL A   1      50.448  33.693  26.485  1.00  0.00     0.037 A 
BRANCH  62  76
ATOM     76  C   UNL A   1      51.619  27.644  26.037  1.00  0.00     0.057 A 
ATOM     77  C   UNL A   1      52.362  27.164  27.124  1.00  0.00     0.134 A 
ATOM     78  C   UNL A   1      51.860  27.065  24.785  1.00  0.00     0.134 A 
ATOM     79  F   UNL A   1      52.195  27.690  28.348  1.00  0.00    -0.206 F 
ATOM     80  C   UNL A   1      53.328  26.170  26.965  1.00  0.00     0.040 A 
ATOM     81  C   UNL A   1      52.802  26.049  24.620  1.00  0.00     0.040 A 
ATOM     82  F   UNL A   1      51.184  27.477  23.702  1.00  0.00    -0.206 F 
ATOM     83  C   UNL A   1      53.546  25.605  25.711  1.00  0.00     0.006 A 
ENDBRANCH  62  76
BRANCH  63  84
ATOM     84  C   UNL A   1      44.494  34.516  27.215  1.00  0.00     0.057 A 
ATOM     85  C   UNL A   1      43.738  35.000  26.141  1.00  0.00     0.134 A 
ATOM     86  C   UNL A   1      44.257  35.082  28.474  1.00  0.00     0.134 A 
ATOM     87  F   UNL A   1      43.941  34.525  24.903  1.00  0.00    -0.206 F 
ATOM     88  C   UNL A   1      42.796  36.019  26.307  1.00  0.00     0.040 A 
ATOM     89  C   UNL A   1      43.300  36.084  28.658  1.00  0.00     0.040 A 
ATOM     90  F   UNL A   1      44.954  34.673  29.544  1.00  0.00    -0.206 F 
ATOM     91  C   UNL A   1      42.571  36.560  27.571  1.00  0.00     0.006 A 
ENDBRANCH  63  84
BRANCH  75  92
ATOM     92  C   UNL A   1      51.412  34.844  26.417  1.00  0.00     0.057 A 
ATOM     93  C   UNL A   1      52.082  35.321  27.551  1.00  0.00     0.134 A 
ATOM     94  C   UNL A   1      51.715  35.446  25.190  1.00  0.00     0.134 A 
ATOM     95  F   UNL A   1      51.833  34.794  28.760  1.00  0.00    -0.206 F 
ATOM     96  C   UNL A   1      53.002  36.369  27.469  1.00  0.00     0.040 A 
ATOM     97  C   UNL A   1      52.653  36.475  25.090  1.00  0.00     0.040 A 
ATOM     98  F   UNL A   1      51.121  35.031  24.061  1.00  0.00    -0.206 F 
ATOM     99  C   UNL A   1      53.295  36.943  26.234  1.00  0.00     0.006 A 
ENDBRANCH  75  92
ENDBRANCH  49  50
ENDBRANCH  42  44
ENDBRANCH  41  42
ENDBRANCH  40  41
ENDBRANCH  39  40
ENDBRANCH  38  39
ENDBRANCH  37  38
ENDBRANCH  36  37
ENDBRANCH  35  36
ENDBRANCH  34  35
ENDBRANCH   1  34
TORSDOF 26
ENDMDL
MODEL 3
REMARK VINA RESULT:      -8.8      9.597     17.161
REMARK SMILES O=C(CCCN1C(=O)C(=O)/C(=C(/[O-])c2ccccc2)[C@@H]1/C=C/c1ccccc1)OCCOCCOCCOCCOC(=O)c1ccc(-c2c3nc(c(-c4c(F)cccc4F)c4ccc([nH]4)c(-c4c(F)cccc4F)c4nc(c(-c5c(F)cccc5F)c5ccc2[nH]5)C=C4)C=C3)cc1
REMARK SMILES IDX 33 1 32 2 31 3 30 4 29 5 2 6 1 7 3 8 4 9 5 10 6 11 7 12
REMARK SMILES IDX 20 13 8 14 9 15 11 16 10 17 12 18 13 19 21 20 22 21 23 22
REMARK SMILES IDX 24 23 28 24 25 25 27 26 26 27 14 28 15 29 19 30 16 31 18 32
REMARK SMILES IDX 17 33 34 34 35 35 36 36 37 37 38 38 39 39 40 40 41 41 42 42
REMARK SMILES IDX 43 43 44 44 45 45 97 46 46 47 96 48 47 49 48 50 49 51 90 52
REMARK SMILES IDX 50 53 95 54 89 55 91 56 51 57 94 58 88 59 87 60 52 62 78 63
REMARK SMILES IDX 61 64 77 65 62 66 65 67 76 68 92 69 63 70 64 71 75 73 93 74
REMARK SMILES IDX 66 75 53 76 54 77 59 78 55 79 56 80 58 81 60 82 57 83 79 84
REMARK SMILES IDX 80 85 85 86 81 87 82 88 84 89 86 90 83 91 67 92 68 93 73 94
REMARK SMILES IDX 69 95 70 96 72 97 74 98 71 99
REMARK H PARENT 91 61 65 72
REMARK Flexibility Score: inf
ROOT
ATOM      1  C   UNL A   1      43.553  39.887  28.813  1.00  0.00     0.188 C 
ENDROOT
BRANCH   1   2
ATOM      2  O   UNL A   1      44.868  39.475  28.445  1.00  0.00    -0.376 OA
BRANCH   2   3
ATOM      3  C   UNL A   1      45.083  38.943  27.147  1.00  0.00     0.202 C 
BRANCH   3   4
ATOM      4  C   UNL A   1      45.571  39.845  26.028  1.00  0.00     0.261 C 
BRANCH   4   5
ATOM      5  O   UNL A   1      44.600  40.552  25.259  1.00  0.00    -0.463 OA
BRANCH   5   6
ATOM      6  C   UNL A   1      43.747  41.504  25.661  1.00  0.00     0.305 C 
ATOM      7  O   UNL A   1      44.116  42.288  26.537  1.00  0.00    -0.252 OA
BRANCH   6   8
ATOM      8  C   UNL A   1      42.344  41.604  25.109  1.00  0.00     0.124 C 
BRANCH   8   9
ATOM      9  C   UNL A   1      42.129  42.347  23.804  1.00  0.00     0.033 C 
BRANCH   9  10
ATOM     10  C   UNL A   1      42.977  43.566  23.430  1.00  0.00     0.121 C 
BRANCH  10  11
ATOM     11  N   UNL A   1      44.351  43.491  22.921  1.00  0.00    -0.325 N 
ATOM     12  C   UNL A   1      45.346  44.163  23.610  1.00  0.00     0.295 C 
ATOM     13  C   UNL A   1      44.835  42.938  21.655  1.00  0.00     0.143 C 
ATOM     14  O   UNL A   1      45.274  44.687  24.706  1.00  0.00    -0.265 OA
ATOM     15  C   UNL A   1      46.605  44.127  22.762  1.00  0.00     0.248 C 
ATOM     16  C   UNL A   1      46.255  43.460  21.480  1.00  0.00     0.024 C 
ATOM     17  O   UNL A   1      47.680  44.532  23.151  1.00  0.00    -0.283 OA
ATOM     18  C   UNL A   1      47.085  43.388  20.416  1.00  0.00    -0.092 C 
ATOM     19  O   UNL A   1      46.753  42.757  19.233  1.00  0.00    -0.872 OA
BRANCH  13  20
ATOM     20  C   UNL A   1      43.895  43.324  20.558  1.00  0.00     0.003 C 
ATOM     21  C   UNL A   1      43.799  44.579  20.088  1.00  0.00     0.006 C 
BRANCH  21  22
ATOM     22  C   UNL A   1      43.068  44.874  18.856  1.00  0.00    -0.026 A 
ATOM     23  C   UNL A   1      43.661  45.721  17.912  1.00  0.00     0.008 A 
ATOM     24  C   UNL A   1      41.824  44.301  18.582  1.00  0.00     0.008 A 
ATOM     25  C   UNL A   1      43.037  45.960  16.687  1.00  0.00     0.001 A 
ATOM     26  C   UNL A   1      41.194  44.552  17.363  1.00  0.00     0.001 A 
ATOM     27  C   UNL A   1      41.806  45.372  16.413  1.00  0.00     0.000 A 
ENDBRANCH  21  22
ENDBRANCH  13  20
BRANCH  18  28
ATOM     28  C   UNL A   1      48.428  44.005  20.336  1.00  0.00    -0.033 A 
ATOM     29  C   UNL A   1      48.565  45.299  19.810  1.00  0.00     0.007 A 
ATOM     30  C   UNL A   1      49.584  43.319  20.732  1.00  0.00     0.007 A 
ATOM     31  C   UNL A   1      49.822  45.905  19.712  1.00  0.00     0.001 A 
ATOM     32  C   UNL A   1      50.842  43.928  20.642  1.00  0.00     0.001 A 
ATOM     33  C   UNL A   1      50.960  45.221  20.134  1.00  0.00     0.000 A 
ENDBRANCH  18  28
ENDBRANCH  10  11
ENDBRANCH   9  10
ENDBRANCH   8   9
ENDBRANCH   6   8
ENDBRANCH   5   6
ENDBRANCH   4   5
ENDBRANCH   3   4
ENDBRANCH   2   3
ENDBRANCH   1   2
BRANCH   1  34
ATOM     34  C   UNL A   1      43.427  40.930  29.926  1.00  0.00     0.188 C 
BRANCH  34  35
ATOM     35  O   UNL A   1      44.579  41.744  30.026  1.00  0.00    -0.377 OA
BRANCH  35  36
ATOM     36  C   UNL A   1      44.369  43.064  30.537  1.00  0.00     0.188 C 
BRANCH  36  37
ATOM     37  C   UNL A   1      43.080  43.411  31.327  1.00  0.00     0.188 C 
BRANCH  37  38
ATOM     38  O   UNL A   1      43.174  44.633  32.051  1.00  0.00    -0.376 OA
BRANCH  38  39
ATOM     39  C   UNL A   1      43.304  44.536  33.465  1.00  0.00     0.202 C 
BRANCH  39  40
ATOM     40  C   UNL A   1      44.629  43.961  33.997  1.00  0.00     0.261 C 
BRANCH  40  41
ATOM     41  O   UNL A   1      44.539  42.756  34.779  1.00  0.00    -0.460 OA
BRANCH  41  42
ATOM     42  C   UNL A   1      45.538  41.848  34.698  1.00  0.00     0.338 C 
ATOM     43  O   UNL A   1      46.675  41.991  35.106  1.00  0.00    -0.246 OA
BRANCH  42  44
ATOM     44  C   UNL A   1      44.948  40.547  34.260  1.00  0.00     0.060 A 
ATOM     45  C   UNL A   1      45.561  39.360  34.688  1.00  0.00     0.016 A 
ATOM     46  C   UNL A   1      43.756  40.479  33.525  1.00  0.00     0.016 A 
ATOM     47  C   UNL A   1      45.018  38.115  34.344  1.00  0.00     0.010 A 
ATOM     48  C   UNL A   1      43.218  39.231  33.174  1.00  0.00     0.010 A 
ATOM     49  C   UNL A   1      43.869  38.041  33.545  1.00  0.00    -0.014 A 
BRANCH  49  50
ATOM     50  C   UNL A   1      43.515  36.761  32.872  1.00  0.00     0.031 A 
ATOM     51  C   UNL A   1      42.452  35.909  33.519  1.00  0.00     0.074 A 
ATOM     52  C   UNL A   1      44.080  36.354  31.720  1.00  0.00     0.049 A 
ATOM     53  N   UNL A   1      41.982  34.740  33.166  1.00  0.00    -0.248 NA
ATOM     54  C   UNL A   1      41.841  36.458  34.741  1.00  0.00     0.031 C 
ATOM     55  C   UNL A   1      45.086  37.087  30.958  1.00  0.00     0.029 A 
ATOM     56  N   UNL A   1      43.881  35.202  30.992  1.00  0.00    -0.354 N 
ATOM     57  C   UNL A   1      41.026  34.416  34.121  1.00  0.00     0.074 A 
ATOM     58  C   UNL A   1      41.011  35.488  35.090  1.00  0.00     0.031 C 
ATOM     59  C   UNL A   1      45.425  36.365  29.874  1.00  0.00     0.029 A 
ATOM     60  C   UNL A   1      44.681  35.104  29.878  1.00  0.00     0.049 A 
ATOM     61  H   UNL A   1      43.227  34.512  31.246  1.00  0.00     0.167 HD
ATOM     62  C   UNL A   1      40.219  33.330  34.185  1.00  0.00     0.037 A 
ATOM     63  C   UNL A   1      44.808  34.106  28.979  1.00  0.00     0.037 A 
ATOM     64  C   UNL A   1      40.233  32.255  33.232  1.00  0.00     0.049 A 
ATOM     65  C   UNL A   1      43.961  32.863  29.117  1.00  0.00     0.074 A 
ATOM     66  C   UNL A   1      39.446  31.117  33.205  1.00  0.00     0.029 A 
ATOM     67  N   UNL A   1      41.087  32.177  32.142  1.00  0.00    -0.354 N 
ATOM     68  N   UNL A   1      43.040  32.579  30.007  1.00  0.00    -0.248 NA
ATOM     69  C   UNL A   1      44.174  31.798  28.122  1.00  0.00     0.031 C 
ATOM     70  C   UNL A   1      39.863  30.323  32.132  1.00  0.00     0.029 A 
ATOM     71  C   UNL A   1      40.867  30.996  31.455  1.00  0.00     0.049 A 
ATOM     72  H   UNL A   1      41.750  32.862  31.894  1.00  0.00     0.167 HD
ATOM     73  C   UNL A   1      42.543  31.327  29.660  1.00  0.00     0.074 A 
ATOM     74  C   UNL A   1      43.257  30.908  28.474  1.00  0.00     0.031 C 
ATOM     75  C   UNL A   1      41.579  30.591  30.269  1.00  0.00     0.037 A 
BRANCH  62  76
ATOM     76  C   UNL A   1      39.280  33.245  35.352  1.00  0.00     0.057 A 
ATOM     77  C   UNL A   1      37.972  33.747  35.292  1.00  0.00     0.134 A 
ATOM     78  C   UNL A   1      39.688  32.651  36.553  1.00  0.00     0.134 A 
ATOM     79  F   UNL A   1      37.525  34.347  34.178  1.00  0.00    -0.206 F 
ATOM     80  C   UNL A   1      37.117  33.691  36.393  1.00  0.00     0.040 A 
ATOM     81  C   UNL A   1      38.831  32.562  37.651  1.00  0.00     0.040 A 
ATOM     82  F   UNL A   1      40.925  32.150  36.679  1.00  0.00    -0.206 F 
ATOM     83  C   UNL A   1      37.545  33.090  37.575  1.00  0.00     0.006 A 
ENDBRANCH  62  76
BRANCH  63  84
ATOM     84  C   UNL A   1      45.786  34.220  27.863  1.00  0.00     0.057 A 
ATOM     85  C   UNL A   1      47.119  33.817  28.017  1.00  0.00     0.134 A 
ATOM     86  C   UNL A   1      45.422  34.773  26.629  1.00  0.00     0.134 A 
ATOM     87  F   UNL A   1      47.541  33.313  29.186  1.00  0.00    -0.206 F 
ATOM     88  C   UNL A   1      48.056  33.973  26.993  1.00  0.00     0.040 A 
ATOM     89  C   UNL A   1      46.343  34.910  25.587  1.00  0.00     0.040 A 
ATOM     90  F   UNL A   1      44.165  35.189  26.418  1.00  0.00    -0.206 F 
ATOM     91  C   UNL A   1      47.666  34.517  25.770  1.00  0.00     0.006 A 
ENDBRANCH  63  84
BRANCH  75  92
ATOM     92  C   UNL A   1      41.206  29.276  29.647  1.00  0.00     0.057 A 
ATOM     93  C   UNL A   1      41.936  28.104  29.888  1.00  0.00     0.134 A 
ATOM     94  C   UNL A   1      40.068  29.169  28.837  1.00  0.00     0.134 A 
ATOM     95  F   UNL A   1      43.042  28.137  30.647  1.00  0.00    -0.206 F 
ATOM     96  C   UNL A   1      41.559  26.881  29.330  1.00  0.00     0.040 A 
ATOM     97  C   UNL A   1      39.664  27.946  28.297  1.00  0.00     0.040 A 
ATOM     98  F   UNL A   1      39.315  30.247  28.575  1.00  0.00    -0.206 F 
ATOM     99  C   UNL A   1      40.415  26.799  28.539  1.00  0.00     0.006 A 
ENDBRANCH  75  92
ENDBRANCH  49  50
ENDBRANCH  42  44
ENDBRANCH  41  42
ENDBRANCH  40  41
ENDBRANCH  39  40
ENDBRANCH  38  39
ENDBRANCH  37  38
ENDBRANCH  36  37
ENDBRANCH  35  36
ENDBRANCH  34  35
ENDBRANCH   1  34
TORSDOF 26
ENDMDL
