MODEL 1
REMARK VINA RESULT:      -9.9      0.000      0.000
REMARK SMILES O=C(CCCc1nc(-c2ccc(Cl)c(Cl)c2)c(-c2ccccc2)o1)OCCOCCOCCOCCOC(=O)c1ccc(-c2c3nc(c(-c4c(F)cccc4F)c4ccc([nH]4)c(-c4c(F)cccc4F)c4nc(c(-c5c(F)cccc5F)c5ccc2[nH]5)C=C4)C=C3)cc1
REMARK SMILES IDX 30 1 29 2 28 3 27 4 26 5 25 6 2 7 1 8 3 9 4 10 5 11 6 12
REMARK SMILES IDX 7 13 24 14 8 15 17 16 9 17 10 18 16 19 11 20 14 21 12 22
REMARK SMILES IDX 15 23 13 24 18 25 19 26 23 27 20 28 22 29 21 30 31 31 32 32
REMARK SMILES IDX 33 33 34 34 35 35 36 36 37 37 38 38 39 39 40 40 41 41 93 42
REMARK SMILES IDX 42 43 92 44 43 45 44 46 45 47 86 48 46 49 91 50 85 51 87 52
REMARK SMILES IDX 47 53 90 54 84 55 83 56 48 58 74 59 57 60 73 61 58 62 61 63
REMARK SMILES IDX 72 64 88 65 59 66 60 67 71 69 89 70 62 71 49 72 50 73 55 74
REMARK SMILES IDX 51 75 52 76 54 77 56 78 53 79 75 80 76 81 81 82 77 83 78 84
REMARK SMILES IDX 80 85 82 86 79 87 63 88 64 89 69 90 65 91 66 92 68 93 70 94
REMARK SMILES IDX 67 95
REMARK H PARENT 87 57 61 68
REMARK Flexibility Score: inf
ROOT
ATOM      1  C   UNL A   1      30.854  26.572  25.953  1.00  0.00     0.188 C 
ENDROOT
BRANCH   1   2
ATOM      2  C   UNL A   1      30.243  25.180  26.153  1.00  0.00     0.188 C 
BRANCH   2   3
ATOM      3  O   UNL A   1      31.133  24.173  26.674  1.00  0.00    -0.376 OA
BRANCH   3   4
ATOM      4  C   UNL A   1      32.257  23.901  25.840  1.00  0.00     0.202 C 
BRANCH   4   5
ATOM      5  C   UNL A   1      33.302  23.006  26.509  1.00  0.00     0.261 C 
BRANCH   5   6
ATOM      6  O   UNL A   1      34.662  23.467  26.534  1.00  0.00    -0.463 OA
BRANCH   6   7
ATOM      7  C   UNL A   1      35.627  22.646  26.079  1.00  0.00     0.305 C 
ATOM      8  O   UNL A   1      35.476  21.441  25.920  1.00  0.00    -0.252 OA
BRANCH   7   9
ATOM      9  C   UNL A   1      36.952  23.376  25.927  1.00  0.00     0.123 C 
BRANCH   9  10
ATOM     10  C   UNL A   1      38.119  22.607  25.304  1.00  0.00     0.021 C 
BRANCH  10  11
ATOM     11  C   UNL A   1      38.796  21.474  26.078  1.00  0.00     0.098 C 
BRANCH  11  12
ATOM     12  C   UNL A   1      40.240  21.555  26.444  1.00  0.00     0.195 A 
ATOM     13  N   UNL A   1      40.728  22.320  27.404  1.00  0.00    -0.213 NA
ATOM     14  O   UNL A   1      41.194  20.938  25.672  1.00  0.00    -0.440 OA
ATOM     15  C   UNL A   1      42.082  22.259  27.224  1.00  0.00     0.117 A 
ATOM     16  C   UNL A   1      42.395  21.371  26.208  1.00  0.00     0.162 A 
BRANCH  15  17
ATOM     17  C   UNL A   1      43.018  23.067  27.976  1.00  0.00     0.006 A 
ATOM     18  C   UNL A   1      43.310  22.756  29.308  1.00  0.00     0.012 A 
ATOM     19  C   UNL A   1      43.666  24.148  27.362  1.00  0.00     0.032 A 
ATOM     20  C   UNL A   1      44.275  23.491  30.003  1.00  0.00     0.023 A 
ATOM     21  C   UNL A   1      44.630  24.884  28.055  1.00  0.00     0.060 A 
ATOM     22  C   UNL A   1      44.944  24.549  29.377  1.00  0.00     0.059 A 
ATOM     23  Cl  UNL A   1      45.412  26.176  27.215  1.00  0.00    -0.083 Cl
ATOM     24  Cl  UNL A   1      46.151  25.389  30.283  1.00  0.00    -0.083 Cl
ENDBRANCH  15  17
BRANCH  16  25
ATOM     25  C   UNL A   1      43.639  20.854  25.639  1.00  0.00     0.020 A 
ATOM     26  C   UNL A   1      44.719  21.691  25.343  1.00  0.00     0.012 A 
ATOM     27  C   UNL A   1      43.787  19.477  25.387  1.00  0.00     0.012 A 
ATOM     28  C   UNL A   1      45.912  21.163  24.829  1.00  0.00     0.001 A 
ATOM     29  C   UNL A   1      44.976  18.948  24.881  1.00  0.00     0.001 A 
ATOM     30  C   UNL A   1      46.042  19.794  24.602  1.00  0.00     0.000 A 
ENDBRANCH  16  25
ENDBRANCH  11  12
ENDBRANCH  10  11
ENDBRANCH   9  10
ENDBRANCH   7   9
ENDBRANCH   6   7
ENDBRANCH   5   6
ENDBRANCH   4   5
ENDBRANCH   3   4
ENDBRANCH   2   3
ENDBRANCH   1   2
BRANCH   1  31
ATOM     31  O   UNL A   1      31.225  27.189  27.174  1.00  0.00    -0.377 OA
BRANCH  31  32
ATOM     32  C   UNL A   1      31.872  28.452  27.102  1.00  0.00     0.188 C 
BRANCH  32  33
ATOM     33  C   UNL A   1      31.904  29.248  25.788  1.00  0.00     0.188 C 
BRANCH  33  34
ATOM     34  O   UNL A   1      31.544  30.619  25.975  1.00  0.00    -0.376 OA
BRANCH  34  35
ATOM     35  C   UNL A   1      32.370  31.353  26.875  1.00  0.00     0.202 C 
BRANCH  35  36
ATOM     36  C   UNL A   1      31.803  32.737  27.205  1.00  0.00     0.261 C 
BRANCH  36  37
ATOM     37  O   UNL A   1      32.768  33.802  27.180  1.00  0.00    -0.460 OA
BRANCH  37  38
ATOM     38  C   UNL A   1      33.066  34.431  28.341  1.00  0.00     0.338 C 
ATOM     39  O   UNL A   1      32.372  35.238  28.936  1.00  0.00    -0.246 OA
BRANCH  38  40
ATOM     40  C   UNL A   1      34.290  33.800  28.896  1.00  0.00     0.060 A 
ATOM     41  C   UNL A   1      34.175  32.583  29.583  1.00  0.00     0.016 A 
ATOM     42  C   UNL A   1      35.555  34.350  28.660  1.00  0.00     0.016 A 
ATOM     43  C   UNL A   1      35.322  31.923  30.045  1.00  0.00     0.010 A 
ATOM     44  C   UNL A   1      36.697  33.696  29.129  1.00  0.00     0.010 A 
ATOM     45  C   UNL A   1      36.588  32.491  29.843  1.00  0.00    -0.014 A 
BRANCH  45  46
ATOM     46  C   UNL A   1      37.793  31.955  30.526  1.00  0.00     0.031 A 
ATOM     47  C   UNL A   1      38.578  30.880  29.825  1.00  0.00     0.074 A 
ATOM     48  C   UNL A   1      38.149  32.347  31.762  1.00  0.00     0.049 A 
ATOM     49  N   UNL A   1      39.560  30.141  30.271  1.00  0.00    -0.248 NA
ATOM     50  C   UNL A   1      38.188  30.592  28.434  1.00  0.00     0.031 C 
ATOM     51  C   UNL A   1      37.493  33.390  32.548  1.00  0.00     0.029 A 
ATOM     52  N   UNL A   1      39.144  31.878  32.590  1.00  0.00    -0.354 N 
ATOM     53  C   UNL A   1      39.890  29.288  29.226  1.00  0.00     0.074 A 
ATOM     54  C   UNL A   1      39.002  29.594  28.127  1.00  0.00     0.031 C 
ATOM     55  C   UNL A   1      38.083  33.459  33.757  1.00  0.00     0.029 A 
ATOM     56  C   UNL A   1      39.129  32.440  33.843  1.00  0.00     0.049 A 
ATOM     57  H   UNL A   1      39.804  31.203  32.310  1.00  0.00     0.167 HD
ATOM     58  C   UNL A   1      40.845  28.332  29.185  1.00  0.00     0.037 A 
ATOM     59  C   UNL A   1      39.846  32.136  34.946  1.00  0.00     0.037 A 
ATOM     60  C   UNL A   1      41.738  28.028  30.270  1.00  0.00     0.049 A 
ATOM     61  C   UNL A   1      40.860  31.018  34.895  1.00  0.00     0.074 A 
ATOM     62  C   UNL A   1      42.779  27.116  30.296  1.00  0.00     0.029 A 
ATOM     63  N   UNL A   1      41.685  28.616  31.522  1.00  0.00    -0.354 N 
ATOM     64  N   UNL A   1      41.205  30.256  33.885  1.00  0.00    -0.248 NA
ATOM     65  C   UNL A   1      41.575  30.708  36.144  1.00  0.00     0.031 C 
ATOM     66  C   UNL A   1      43.323  27.114  31.584  1.00  0.00     0.029 A 
ATOM     67  C   UNL A   1      42.649  28.057  32.343  1.00  0.00     0.049 A 
ATOM     68  H   UNL A   1      41.056  29.324  31.789  1.00  0.00     0.167 HD
ATOM     69  C   UNL A   1      42.186  29.398  34.370  1.00  0.00     0.074 A 
ATOM     70  C   UNL A   1      42.394  29.739  35.760  1.00  0.00     0.031 C 
ATOM     71  C   UNL A   1      42.853  28.411  33.723  1.00  0.00     0.037 A 
BRANCH  58  72
ATOM     72  C   UNL A   1      40.959  27.518  27.934  1.00  0.00     0.057 A 
ATOM     73  C   UNL A   1      41.841  27.863  26.903  1.00  0.00     0.134 A 
ATOM     74  C   UNL A   1      40.207  26.345  27.782  1.00  0.00     0.134 A 
ATOM     75  F   UNL A   1      42.575  28.984  26.983  1.00  0.00    -0.206 F 
ATOM     76  C   UNL A   1      41.964  27.075  25.758  1.00  0.00     0.040 A 
ATOM     77  C   UNL A   1      40.338  25.538  26.652  1.00  0.00     0.040 A 
ATOM     78  F   UNL A   1      39.344  25.962  28.735  1.00  0.00    -0.206 F 
ATOM     79  C   UNL A   1      41.217  25.904  25.635  1.00  0.00     0.006 A 
ENDBRANCH  58  72
BRANCH  59  80
ATOM     80  C   UNL A   1      39.606  32.854  36.225  1.00  0.00     0.057 A 
ATOM     81  C   UNL A   1      40.364  33.974  36.585  1.00  0.00     0.134 A 
ATOM     82  C   UNL A   1      38.660  32.393  37.150  1.00  0.00     0.134 A 
ATOM     83  F   UNL A   1      41.310  34.442  35.757  1.00  0.00    -0.206 F 
ATOM     84  C   UNL A   1      40.209  34.595  37.826  1.00  0.00     0.040 A 
ATOM     85  C   UNL A   1      38.475  33.021  38.383  1.00  0.00     0.040 A 
ATOM     86  F   UNL A   1      37.907  31.319  36.871  1.00  0.00    -0.206 F 
ATOM     87  C   UNL A   1      39.259  34.120  38.729  1.00  0.00     0.006 A 
ENDBRANCH  59  80
BRANCH  71  88
ATOM     88  C   UNL A   1      43.888  27.644  34.492  1.00  0.00     0.057 A 
ATOM     89  C   UNL A   1      43.587  26.430  35.121  1.00  0.00     0.134 A 
ATOM     90  C   UNL A   1      45.217  28.086  34.539  1.00  0.00     0.134 A 
ATOM     91  F   UNL A   1      42.332  25.956  35.121  1.00  0.00    -0.206 F 
ATOM     92  C   UNL A   1      44.570  25.687  35.779  1.00  0.00     0.040 A 
ATOM     93  C   UNL A   1      46.212  27.341  35.174  1.00  0.00     0.040 A 
ATOM     94  F   UNL A   1      45.574  29.236  33.947  1.00  0.00    -0.206 F 
ATOM     95  C   UNL A   1      45.888  26.138  35.798  1.00  0.00     0.006 A 
ENDBRANCH  71  88
ENDBRANCH  45  46
ENDBRANCH  38  40
ENDBRANCH  37  38
ENDBRANCH  36  37
ENDBRANCH  35  36
ENDBRANCH  34  35
ENDBRANCH  33  34
ENDBRANCH  32  33
ENDBRANCH  31  32
ENDBRANCH   1  31
TORSDOF 25
ENDMDL
MODEL 2
REMARK VINA RESULT:      -9.5      4.593     10.630
REMARK SMILES O=C(CCCc1nc(-c2ccc(Cl)c(Cl)c2)c(-c2ccccc2)o1)OCCOCCOCCOCCOC(=O)c1ccc(-c2c3nc(c(-c4c(F)cccc4F)c4ccc([nH]4)c(-c4c(F)cccc4F)c4nc(c(-c5c(F)cccc5F)c5ccc2[nH]5)C=C4)C=C3)cc1
REMARK SMILES IDX 30 1 29 2 28 3 27 4 26 5 25 6 2 7 1 8 3 9 4 10 5 11 6 12
REMARK SMILES IDX 7 13 24 14 8 15 17 16 9 17 10 18 16 19 11 20 14 21 12 22
REMARK SMILES IDX 15 23 13 24 18 25 19 26 23 27 20 28 22 29 21 30 31 31 32 32
REMARK SMILES IDX 33 33 34 34 35 35 36 36 37 37 38 38 39 39 40 40 41 41 93 42
REMARK SMILES IDX 42 43 92 44 43 45 44 46 45 47 86 48 46 49 91 50 85 51 87 52
REMARK SMILES IDX 47 53 90 54 84 55 83 56 48 58 74 59 57 60 73 61 58 62 61 63
REMARK SMILES IDX 72 64 88 65 59 66 60 67 71 69 89 70 62 71 49 72 50 73 55 74
REMARK SMILES IDX 51 75 52 76 54 77 56 78 53 79 75 80 76 81 81 82 77 83 78 84
REMARK SMILES IDX 80 85 82 86 79 87 63 88 64 89 69 90 65 91 66 92 68 93 70 94
REMARK SMILES IDX 67 95
REMARK H PARENT 87 57 61 68
REMARK Flexibility Score: inf
ROOT
ATOM      1  C   UNL A   1      35.644  22.420  24.191  1.00  0.00     0.188 C 
ENDROOT
BRANCH   1   2
ATOM      2  C   UNL A   1      35.541  23.783  24.886  1.00  0.00     0.188 C 
BRANCH   2   3
ATOM      3  O   UNL A   1      34.465  23.923  25.835  1.00  0.00    -0.376 OA
BRANCH   3   4
ATOM      4  C   UNL A   1      34.669  23.213  27.054  1.00  0.00     0.202 C 
BRANCH   4   5
ATOM      5  C   UNL A   1      33.509  22.278  27.408  1.00  0.00     0.261 C 
BRANCH   5   6
ATOM      6  O   UNL A   1      32.279  22.874  27.845  1.00  0.00    -0.463 OA
BRANCH   6   7
ATOM      7  C   UNL A   1      31.352  23.188  26.920  1.00  0.00     0.305 C 
ATOM      8  O   UNL A   1      30.534  24.090  27.055  1.00  0.00    -0.252 OA
BRANCH   7   9
ATOM      9  C   UNL A   1      31.362  22.200  25.766  1.00  0.00     0.123 C 
BRANCH   9  10
ATOM     10  C   UNL A   1      30.897  22.701  24.397  1.00  0.00     0.021 C 
BRANCH  10  11
ATOM     11  C   UNL A   1      31.788  23.634  23.575  1.00  0.00     0.098 C 
BRANCH  11  12
ATOM     12  C   UNL A   1      31.671  25.116  23.706  1.00  0.00     0.195 A 
ATOM     13  N   UNL A   1      32.397  25.854  24.527  1.00  0.00    -0.213 NA
ATOM     14  O   UNL A   1      30.661  25.797  23.075  1.00  0.00    -0.440 OA
ATOM     15  C   UNL A   1      31.797  27.082  24.489  1.00  0.00     0.117 A 
ATOM     16  C   UNL A   1      30.769  27.089  23.560  1.00  0.00     0.162 A 
BRANCH  15  17
ATOM     17  C   UNL A   1      32.180  28.178  25.353  1.00  0.00     0.006 A 
ATOM     18  C   UNL A   1      33.294  28.061  26.191  1.00  0.00     0.012 A 
ATOM     19  C   UNL A   1      31.457  29.379  25.331  1.00  0.00     0.032 A 
ATOM     20  C   UNL A   1      33.707  29.152  26.963  1.00  0.00     0.023 A 
ATOM     21  C   UNL A   1      31.868  30.469  26.102  1.00  0.00     0.060 A 
ATOM     22  C   UNL A   1      33.002  30.359  26.913  1.00  0.00     0.059 A 
ATOM     23  Cl  UNL A   1      30.946  31.926  25.987  1.00  0.00    -0.083 Cl
ATOM     24  Cl  UNL A   1      33.591  31.676  27.864  1.00  0.00    -0.083 Cl
ENDBRANCH  15  17
BRANCH  16  25
ATOM     25  C   UNL A   1      29.853  28.107  23.046  1.00  0.00     0.020 A 
ATOM     26  C   UNL A   1      28.493  28.108  23.369  1.00  0.00     0.012 A 
ATOM     27  C   UNL A   1      30.331  29.137  22.213  1.00  0.00     0.012 A 
ATOM     28  C   UNL A   1      27.645  29.116  22.888  1.00  0.00     0.001 A 
ATOM     29  C   UNL A   1      29.491  30.145  21.739  1.00  0.00     0.001 A 
ATOM     30  C   UNL A   1      28.143  30.134  22.078  1.00  0.00     0.000 A 
ENDBRANCH  16  25
ENDBRANCH  11  12
ENDBRANCH  10  11
ENDBRANCH   9  10
ENDBRANCH   7   9
ENDBRANCH   6   7
ENDBRANCH   5   6
ENDBRANCH   4   5
ENDBRANCH   3   4
ENDBRANCH   2   3
ENDBRANCH   1   2
BRANCH   1  31
ATOM     31  O   UNL A   1      36.985  22.015  23.974  1.00  0.00    -0.377 OA
BRANCH  31  32
ATOM     32  C   UNL A   1      37.656  21.365  25.044  1.00  0.00     0.188 C 
BRANCH  32  33
ATOM     33  C   UNL A   1      38.523  22.162  26.032  1.00  0.00     0.188 C 
BRANCH  33  34
ATOM     34  O   UNL A   1      39.657  21.416  26.481  1.00  0.00    -0.376 OA
BRANCH  34  35
ATOM     35  C   UNL A   1      40.054  20.335  25.642  1.00  0.00     0.202 C 
BRANCH  35  36
ATOM     36  C   UNL A   1      40.790  19.230  26.405  1.00  0.00     0.261 C 
BRANCH  36  37
ATOM     37  O   UNL A   1      42.151  19.543  26.746  1.00  0.00    -0.460 OA
BRANCH  37  38
ATOM     38  C   UNL A   1      42.933  20.131  25.810  1.00  0.00     0.338 C 
ATOM     39  O   UNL A   1      43.271  19.660  24.737  1.00  0.00    -0.246 OA
BRANCH  38  40
ATOM     40  C   UNL A   1      43.125  21.548  26.207  1.00  0.00     0.060 A 
ATOM     41  C   UNL A   1      43.152  21.874  27.572  1.00  0.00     0.016 A 
ATOM     42  C   UNL A   1      43.375  22.539  25.250  1.00  0.00     0.016 A 
ATOM     43  C   UNL A   1      43.414  23.189  27.978  1.00  0.00     0.010 A 
ATOM     44  C   UNL A   1      43.627  23.851  25.656  1.00  0.00     0.010 A 
ATOM     45  C   UNL A   1      43.627  24.190  27.019  1.00  0.00    -0.014 A 
BRANCH  45  46
ATOM     46  C   UNL A   1      43.661  25.626  27.397  1.00  0.00     0.031 A 
ATOM     47  C   UNL A   1      45.007  26.264  27.616  1.00  0.00     0.074 A 
ATOM     48  C   UNL A   1      42.540  26.336  27.615  1.00  0.00     0.049 A 
ATOM     49  N   UNL A   1      45.301  27.440  28.103  1.00  0.00    -0.248 NA
ATOM     50  C   UNL A   1      46.178  25.452  27.245  1.00  0.00     0.031 C 
ATOM     51  C   UNL A   1      41.175  25.852  27.424  1.00  0.00     0.029 A 
ATOM     52  N   UNL A   1      42.380  27.620  28.086  1.00  0.00    -0.354 N 
ATOM     53  C   UNL A   1      46.688  27.502  28.119  1.00  0.00     0.074 A 
ATOM     54  C   UNL A   1      47.178  26.244  27.600  1.00  0.00     0.031 C 
ATOM     55  C   UNL A   1      40.314  26.817  27.804  1.00  0.00     0.029 A 
ATOM     56  C   UNL A   1      41.068  27.967  28.303  1.00  0.00     0.049 A 
ATOM     57  H   UNL A   1      43.134  28.231  28.251  1.00  0.00     0.167 HD
ATOM     58  C   UNL A   1      47.485  28.513  28.532  1.00  0.00     0.037 A 
ATOM     59  C   UNL A   1      40.541  29.068  28.879  1.00  0.00     0.037 A 
ATOM     60  C   UNL A   1      47.006  29.769  29.040  1.00  0.00     0.049 A 
ATOM     61  C   UNL A   1      41.454  30.154  29.395  1.00  0.00     0.074 A 
ATOM     62  C   UNL A   1      47.741  30.877  29.425  1.00  0.00     0.029 A 
ATOM     63  N   UNL A   1      45.673  30.077  29.249  1.00  0.00    -0.354 N 
ATOM     64  N   UNL A   1      42.762  30.228  29.352  1.00  0.00    -0.248 NA
ATOM     65  C   UNL A   1      40.815  31.307  30.054  1.00  0.00     0.031 C 
ATOM     66  C   UNL A   1      46.854  31.838  29.919  1.00  0.00     0.029 A 
ATOM     67  C   UNL A   1      45.565  31.344  29.797  1.00  0.00     0.049 A 
ATOM     68  H   UNL A   1      44.915  29.485  29.041  1.00  0.00     0.167 HD
ATOM     69  C   UNL A   1      43.098  31.436  29.954  1.00  0.00     0.074 A 
ATOM     70  C   UNL A   1      41.858  32.072  30.343  1.00  0.00     0.031 C 
ATOM     71  C   UNL A   1      44.325  31.970  30.171  1.00  0.00     0.037 A 
BRANCH  58  72
ATOM     72  C   UNL A   1      48.965  28.295  28.481  1.00  0.00     0.057 A 
ATOM     73  C   UNL A   1      49.716  28.574  27.333  1.00  0.00     0.134 A 
ATOM     74  C   UNL A   1      49.653  27.845  29.615  1.00  0.00     0.134 A 
ATOM     75  F   UNL A   1      49.111  28.992  26.210  1.00  0.00    -0.206 F 
ATOM     76  C   UNL A   1      51.100  28.402  27.311  1.00  0.00     0.040 A 
ATOM     77  C   UNL A   1      51.039  27.690  29.612  1.00  0.00     0.040 A 
ATOM     78  F   UNL A   1      48.989  27.560  30.746  1.00  0.00    -0.206 F 
ATOM     79  C   UNL A   1      51.766  27.967  28.456  1.00  0.00     0.006 A 
ENDBRANCH  58  72
BRANCH  59  80
ATOM     80  C   UNL A   1      39.071  29.193  29.062  1.00  0.00     0.057 A 
ATOM     81  C   UNL A   1      38.232  29.551  28.000  1.00  0.00     0.134 A 
ATOM     82  C   UNL A   1      38.478  29.028  30.320  1.00  0.00     0.134 A 
ATOM     83  F   UNL A   1      38.744  29.759  26.777  1.00  0.00    -0.206 F 
ATOM     84  C   UNL A   1      36.865  29.764  28.185  1.00  0.00     0.040 A 
ATOM     85  C   UNL A   1      37.108  29.211  30.516  1.00  0.00     0.040 A 
ATOM     86  F   UNL A   1      39.226  28.694  31.383  1.00  0.00    -0.206 F 
ATOM     87  C   UNL A   1      36.298  29.591  29.447  1.00  0.00     0.006 A 
ENDBRANCH  59  80
BRANCH  71  88
ATOM     88  C   UNL A   1      44.396  33.316  30.831  1.00  0.00     0.057 A 
ATOM     89  C   UNL A   1      44.575  33.448  32.214  1.00  0.00     0.134 A 
ATOM     90  C   UNL A   1      44.362  34.490  30.068  1.00  0.00     0.134 A 
ATOM     91  F   UNL A   1      44.607  32.363  33.002  1.00  0.00    -0.206 F 
ATOM     92  C   UNL A   1      44.707  34.702  32.815  1.00  0.00     0.040 A 
ATOM     93  C   UNL A   1      44.516  35.747  30.654  1.00  0.00     0.040 A 
ATOM     94  F   UNL A   1      44.204  34.433  28.737  1.00  0.00    -0.206 F 
ATOM     95  C   UNL A   1      44.688  35.854  32.032  1.00  0.00     0.006 A 
ENDBRANCH  71  88
ENDBRANCH  45  46
ENDBRANCH  38  40
ENDBRANCH  37  38
ENDBRANCH  36  37
ENDBRANCH  35  36
ENDBRANCH  34  35
ENDBRANCH  33  34
ENDBRANCH  32  33
ENDBRANCH  31  32
ENDBRANCH   1  31
TORSDOF 25
ENDMDL
MODEL 3
REMARK VINA RESULT:      -9.1      4.683     10.788
REMARK SMILES O=C(CCCc1nc(-c2ccc(Cl)c(Cl)c2)c(-c2ccccc2)o1)OCCOCCOCCOCCOC(=O)c1ccc(-c2c3nc(c(-c4c(F)cccc4F)c4ccc([nH]4)c(-c4c(F)cccc4F)c4nc(c(-c5c(F)cccc5F)c5ccc2[nH]5)C=C4)C=C3)cc1
REMARK SMILES IDX 30 1 29 2 28 3 27 4 26 5 25 6 2 7 1 8 3 9 4 10 5 11 6 12
REMARK SMILES IDX 7 13 24 14 8 15 17 16 9 17 10 18 16 19 11 20 14 21 12 22
REMARK SMILES IDX 15 23 13 24 18 25 19 26 23 27 20 28 22 29 21 30 31 31 32 32
REMARK SMILES IDX 33 33 34 34 35 35 36 36 37 37 38 38 39 39 40 40 41 41 93 42
REMARK SMILES IDX 42 43 92 44 43 45 44 46 45 47 86 48 46 49 91 50 85 51 87 52
REMARK SMILES IDX 47 53 90 54 84 55 83 56 48 58 74 59 57 60 73 61 58 62 61 63
REMARK SMILES IDX 72 64 88 65 59 66 60 67 71 69 89 70 62 71 49 72 50 73 55 74
REMARK SMILES IDX 51 75 52 76 54 77 56 78 53 79 75 80 76 81 81 82 77 83 78 84
REMARK SMILES IDX 80 85 82 86 79 87 63 88 64 89 69 90 65 91 66 92 68 93 70 94
REMARK SMILES IDX 67 95
REMARK H PARENT 87 57 61 68
REMARK Flexibility Score: inf
ROOT
ATOM      1  C   UNL A   1      36.152  21.293  25.539  1.00  0.00     0.188 C 
ENDROOT
BRANCH   1   2
ATOM      2  C   UNL A   1      34.907  21.905  24.886  1.00  0.00     0.188 C 
BRANCH   2   3
ATOM      3  O   UNL A   1      34.678  23.302  25.159  1.00  0.00    -0.376 OA
BRANCH   3   4
ATOM      4  C   UNL A   1      34.512  23.604  26.543  1.00  0.00     0.202 C 
BRANCH   4   5
ATOM      5  C   UNL A   1      33.320  22.884  27.178  1.00  0.00     0.261 C 
BRANCH   5   6
ATOM      6  O   UNL A   1      32.094  23.618  27.323  1.00  0.00    -0.463 OA
BRANCH   6   7
ATOM      7  C   UNL A   1      30.958  23.071  26.851  1.00  0.00     0.305 C 
ATOM      8  O   UNL A   1      29.865  23.204  27.386  1.00  0.00    -0.252 OA
BRANCH   7   9
ATOM      9  C   UNL A   1      31.230  22.164  25.662  1.00  0.00     0.123 C 
BRANCH   9  10
ATOM     10  C   UNL A   1      30.861  22.684  24.272  1.00  0.00     0.021 C 
BRANCH  10  11
ATOM     11  C   UNL A   1      31.824  23.597  23.509  1.00  0.00     0.098 C 
BRANCH  11  12
ATOM     12  C   UNL A   1      31.749  25.080  23.655  1.00  0.00     0.195 A 
ATOM     13  N   UNL A   1      32.533  25.795  24.441  1.00  0.00    -0.213 NA
ATOM     14  O   UNL A   1      30.723  25.789  23.082  1.00  0.00    -0.440 OA
ATOM     15  C   UNL A   1      31.961  27.037  24.441  1.00  0.00     0.117 A 
ATOM     16  C   UNL A   1      30.887  27.074  23.568  1.00  0.00     0.162 A 
BRANCH  15  17
ATOM     17  C   UNL A   1      32.415  28.117  25.291  1.00  0.00     0.006 A 
ATOM     18  C   UNL A   1      33.635  28.020  25.968  1.00  0.00     0.012 A 
ATOM     19  C   UNL A   1      31.649  29.286  25.413  1.00  0.00     0.032 A 
ATOM     20  C   UNL A   1      34.105  29.100  26.722  1.00  0.00     0.023 A 
ATOM     21  C   UNL A   1      32.118  30.365  26.166  1.00  0.00     0.060 A 
ATOM     22  C   UNL A   1      33.354  30.277  26.815  1.00  0.00     0.059 A 
ATOM     23  Cl  UNL A   1      31.134  31.784  26.234  1.00  0.00    -0.083 Cl
ATOM     24  Cl  UNL A   1      34.014  31.583  27.732  1.00  0.00    -0.083 Cl
ENDBRANCH  15  17
BRANCH  16  25
ATOM     25  C   UNL A   1      29.969  28.117  23.108  1.00  0.00     0.020 A 
ATOM     26  C   UNL A   1      30.419  29.240  22.408  1.00  0.00     0.012 A 
ATOM     27  C   UNL A   1      28.587  28.003  23.349  1.00  0.00     0.012 A 
ATOM     28  C   UNL A   1      29.513  30.207  21.951  1.00  0.00     0.001 A 
ATOM     29  C   UNL A   1      27.681  28.961  22.889  1.00  0.00     0.001 A 
ATOM     30  C   UNL A   1      28.147  30.066  22.187  1.00  0.00     0.000 A 
ENDBRANCH  16  25
ENDBRANCH  11  12
ENDBRANCH  10  11
ENDBRANCH   9  10
ENDBRANCH   7   9
ENDBRANCH   6   7
ENDBRANCH   5   6
ENDBRANCH   4   5
ENDBRANCH   3   4
ENDBRANCH   2   3
ENDBRANCH   1   2
BRANCH   1  31
ATOM     31  O   UNL A   1      37.184  21.023  24.605  1.00  0.00    -0.377 OA
BRANCH  31  32
ATOM     32  C   UNL A   1      38.434  20.584  25.117  1.00  0.00     0.188 C 
BRANCH  32  33
ATOM     33  C   UNL A   1      39.219  21.438  26.125  1.00  0.00     0.188 C 
BRANCH  33  34
ATOM     34  O   UNL A   1      40.374  20.762  26.626  1.00  0.00    -0.376 OA
BRANCH  34  35
ATOM     35  C   UNL A   1      40.940  19.785  25.757  1.00  0.00     0.202 C 
BRANCH  35  36
ATOM     36  C   UNL A   1      41.898  18.833  26.478  1.00  0.00     0.261 C 
BRANCH  36  37
ATOM     37  O   UNL A   1      43.274  19.250  26.476  1.00  0.00    -0.460 OA
BRANCH  37  38
ATOM     38  C   UNL A   1      43.725  19.977  25.426  1.00  0.00     0.338 C 
ATOM     39  O   UNL A   1      43.946  19.575  24.297  1.00  0.00    -0.246 OA
BRANCH  38  40
ATOM     40  C   UNL A   1      43.691  21.408  25.820  1.00  0.00     0.060 A 
ATOM     41  C   UNL A   1      43.562  22.385  24.822  1.00  0.00     0.016 A 
ATOM     42  C   UNL A   1      43.689  21.786  27.168  1.00  0.00     0.016 A 
ATOM     43  C   UNL A   1      43.444  23.737  25.169  1.00  0.00     0.010 A 
ATOM     44  C   UNL A   1      43.581  23.135  27.513  1.00  0.00     0.010 A 
ATOM     45  C   UNL A   1      43.480  24.121  26.517  1.00  0.00    -0.014 A 
BRANCH  45  46
ATOM     46  C   UNL A   1      43.607  25.548  26.911  1.00  0.00     0.031 A 
ATOM     47  C   UNL A   1      44.989  26.141  26.967  1.00  0.00     0.074 A 
ATOM     48  C   UNL A   1      42.546  26.286  27.283  1.00  0.00     0.049 A 
ATOM     49  N   UNL A   1      45.380  27.298  27.432  1.00  0.00    -0.248 NA
ATOM     50  C   UNL A   1      46.077  25.302  26.436  1.00  0.00     0.031 C 
ATOM     51  C   UNL A   1      41.153  25.846  27.260  1.00  0.00     0.029 A 
ATOM     52  N   UNL A   1      42.488  27.563  27.792  1.00  0.00    -0.354 N 
ATOM     53  C   UNL A   1      46.760  27.318  27.270  1.00  0.00     0.074 A 
ATOM     54  C   UNL A   1      47.139  26.058  26.672  1.00  0.00     0.031 C 
ATOM     55  C   UNL A   1      40.379  26.828  27.764  1.00  0.00     0.029 A 
ATOM     56  C   UNL A   1      41.226  27.945  28.181  1.00  0.00     0.049 A 
ATOM     57  H   UNL A   1      43.276  28.149  27.869  1.00  0.00     0.167 HD
ATOM     58  C   UNL A   1      47.634  28.297  27.595  1.00  0.00     0.037 A 
ATOM     59  C   UNL A   1      40.812  29.049  28.838  1.00  0.00     0.037 A 
ATOM     60  C   UNL A   1      47.264  29.556  28.182  1.00  0.00     0.049 A 
ATOM     61  C   UNL A   1      41.817  30.097  29.251  1.00  0.00     0.074 A 
ATOM     62  C   UNL A   1      48.077  30.633  28.487  1.00  0.00     0.029 A 
ATOM     63  N   UNL A   1      45.979  29.899  28.565  1.00  0.00    -0.354 N 
ATOM     64  N   UNL A   1      43.112  30.133  29.042  1.00  0.00    -0.248 NA
ATOM     65  C   UNL A   1      41.305  31.254  30.005  1.00  0.00     0.031 C 
ATOM     66  C   UNL A   1      47.291  31.610  29.106  1.00  0.00     0.029 A 
ATOM     67  C   UNL A   1      45.982  31.157  29.142  1.00  0.00     0.049 A 
ATOM     68  H   UNL A   1      45.182  29.333  28.445  1.00  0.00     0.167 HD
ATOM     69  C   UNL A   1      43.559  31.318  29.616  1.00  0.00     0.074 A 
ATOM     70  C   UNL A   1      42.400  31.982  30.171  1.00  0.00     0.031 C 
ATOM     71  C   UNL A   1      44.820  31.811  29.682  1.00  0.00     0.037 A 
BRANCH  58  72
ATOM     72  C   UNL A   1      49.088  28.037  27.352  1.00  0.00     0.057 A 
ATOM     73  C   UNL A   1      49.965  27.704  28.391  1.00  0.00     0.134 A 
ATOM     74  C   UNL A   1      49.605  28.074  26.051  1.00  0.00     0.134 A 
ATOM     75  F   UNL A   1      49.532  27.669  29.661  1.00  0.00    -0.206 F 
ATOM     76  C   UNL A   1      51.311  27.427  28.145  1.00  0.00     0.040 A 
ATOM     77  C   UNL A   1      50.943  27.778  25.791  1.00  0.00     0.040 A 
ATOM     78  F   UNL A   1      48.815  28.387  25.013  1.00  0.00    -0.206 F 
ATOM     79  C   UNL A   1      51.800  27.456  26.840  1.00  0.00     0.006 A 
ENDBRANCH  58  72
BRANCH  59  80
ATOM     80  C   UNL A   1      39.382  29.213  29.210  1.00  0.00     0.057 A 
ATOM     81  C   UNL A   1      38.920  28.883  30.490  1.00  0.00     0.134 A 
ATOM     82  C   UNL A   1      38.432  29.637  28.274  1.00  0.00     0.134 A 
ATOM     83  F   UNL A   1      39.776  28.437  31.422  1.00  0.00    -0.206 F 
ATOM     84  C   UNL A   1      37.564  28.944  30.817  1.00  0.00     0.040 A 
ATOM     85  C   UNL A   1      37.076  29.728  28.594  1.00  0.00     0.040 A 
ATOM     86  F   UNL A   1      38.806  29.959  27.027  1.00  0.00    -0.206 F 
ATOM     87  C   UNL A   1      36.637  29.371  29.868  1.00  0.00     0.006 A 
ENDBRANCH  59  80
BRANCH  71  88
ATOM     88  C   UNL A   1      45.018  33.141  30.351  1.00  0.00     0.057 A 
ATOM     89  C   UNL A   1      44.911  34.343  29.642  1.00  0.00     0.134 A 
ATOM     90  C   UNL A   1      45.243  33.220  31.732  1.00  0.00     0.134 A 
ATOM     91  F   UNL A   1      44.706  34.336  28.316  1.00  0.00    -0.206 F 
ATOM     92  C   UNL A   1      45.031  35.579  30.282  1.00  0.00     0.040 A 
ATOM     93  C   UNL A   1      45.341  34.448  32.385  1.00  0.00     0.040 A 
ATOM     94  F   UNL A   1      45.345  32.105  32.470  1.00  0.00    -0.206 F 
ATOM     95  C   UNL A   1      45.236  35.633  31.659  1.00  0.00     0.006 A 
ENDBRANCH  71  88
ENDBRANCH  45  46
ENDBRANCH  38  40
ENDBRANCH  37  38
ENDBRANCH  36  37
ENDBRANCH  35  36
ENDBRANCH  34  35
ENDBRANCH  33  34
ENDBRANCH  32  33
ENDBRANCH  31  32
ENDBRANCH   1  31
TORSDOF 25
ENDMDL
