MODEL 1
REMARK VINA RESULT:      -9.6      0.000      0.000
REMARK SMILES CC(C)(C)c1cc2c(cc1Cl)C=C(C(=O)OCCOCCOCCOCCOC(=O)c1ccc(-c3c4nc(c(-c5c(F)cccc5F)c5ccc([nH]5)c(-c5c(F)cccc5F)c5nc(c(-c6c(F)cccc6F)c6ccc3[nH]6)C=C5)C=C4)cc1)[C@@H](C(F)(F)F)O2
REMARK SMILES IDX 23 1 22 2 21 3 20 4 19 5 18 6 17 7 16 8 14 9 15 10 13 11
REMARK SMILES IDX 5 12 6 13 10 14 7 15 9 16 11 17 8 18 90 19 12 20 85 21 2 22
REMARK SMILES IDX 1 23 3 24 4 25 86 26 87 27 88 28 89 29 24 30 25 31 26 32
REMARK SMILES IDX 27 33 28 34 29 35 30 36 31 37 32 38 84 39 33 40 83 41 34 42
REMARK SMILES IDX 35 43 36 44 77 45 37 46 82 47 76 48 78 49 38 50 81 51 75 52
REMARK SMILES IDX 74 53 39 55 65 56 48 57 64 58 49 59 52 60 63 61 79 62 50 63
REMARK SMILES IDX 51 64 62 66 80 67 53 68 40 69 41 70 46 71 42 72 43 73 45 74
REMARK SMILES IDX 47 75 44 76 66 77 67 78 72 79 68 80 69 81 71 82 73 83 70 84
REMARK SMILES IDX 54 85 55 86 60 87 56 88 57 89 59 90 61 91 58 92
REMARK H PARENT 78 54 52 65
REMARK Flexibility Score: inf
ROOT
ATOM      1  C   UNL A   1      36.374  30.829  28.041  1.00  0.00     0.188 C 
ENDROOT
BRANCH   1   2
ATOM      2  O   UNL A   1      35.926  29.744  27.229  1.00  0.00    -0.377 OA
BRANCH   2   3
ATOM      3  C   UNL A   1      34.702  29.118  27.578  1.00  0.00     0.188 C 
BRANCH   3   4
ATOM      4  C   UNL A   1      33.760  28.905  26.380  1.00  0.00     0.188 C 
BRANCH   4   5
ATOM      5  O   UNL A   1      32.420  29.333  26.630  1.00  0.00    -0.376 OA
BRANCH   5   6
ATOM      6  C   UNL A   1      31.882  30.302  25.739  1.00  0.00     0.202 C 
BRANCH   6   7
ATOM      7  C   UNL A   1      30.965  29.756  24.635  1.00  0.00     0.261 C 
BRANCH   7   8
ATOM      8  O   UNL A   1      31.656  29.218  23.497  1.00  0.00    -0.460 OA
BRANCH   8   9
ATOM      9  C   UNL A   1      31.191  28.061  22.989  1.00  0.00     0.338 C 
ATOM     10  O   UNL A   1      30.487  27.926  22.004  1.00  0.00    -0.246 OA
BRANCH   9  11
ATOM     11  C   UNL A   1      31.814  26.949  23.736  1.00  0.00     0.087 C 
ATOM     12  C   UNL A   1      34.596  22.965  25.128  1.00  0.00    -0.020 A 
ATOM     13  C   UNL A   1      33.480  23.658  25.658  1.00  0.00     0.053 A 
ATOM     14  C   UNL A   1      35.246  23.587  24.037  1.00  0.00     0.045 A 
ATOM     15  C   UNL A   1      32.974  24.827  25.079  1.00  0.00     0.128 A 
ATOM     16  C   UNL A   1      34.749  24.773  23.471  1.00  0.00     0.032 A 
ATOM     17  Cl  UNL A   1      36.640  22.953  23.233  1.00  0.00    -0.084 Cl
ATOM     18  C   UNL A   1      33.584  25.363  23.955  1.00  0.00     0.019 A 
ATOM     19  O   UNL A   1      31.856  25.351  25.659  1.00  0.00    -0.475 OA
ATOM     20  C   UNL A   1      32.967  26.471  23.249  1.00  0.00     0.027 C 
ATOM     21  C   UNL A   1      31.173  26.461  25.010  1.00  0.00     0.316 C 
BRANCH  12  22
ATOM     22  C   UNL A   1      34.937  21.549  25.662  1.00  0.00    -0.012 C 
ATOM     23  C   UNL A   1      36.463  21.264  25.740  1.00  0.00     0.016 C 
ATOM     24  C   UNL A   1      34.357  20.397  24.812  1.00  0.00     0.016 C 
ATOM     25  C   UNL A   1      34.403  21.451  27.111  1.00  0.00     0.016 C 
ENDBRANCH  12  22
BRANCH  21  26
ATOM     26  C   UNL A   1      29.704  26.066  24.805  1.00  0.00     0.430 C 
ATOM     27  F   UNL A   1      28.954  27.129  24.426  1.00  0.00    -0.167 F 
ATOM     28  F   UNL A   1      29.555  25.127  23.841  1.00  0.00    -0.167 F 
ATOM     29  F   UNL A   1      29.154  25.568  25.937  1.00  0.00    -0.167 F 
ENDBRANCH  21  26
ENDBRANCH   9  11
ENDBRANCH   8   9
ENDBRANCH   7   8
ENDBRANCH   6   7
ENDBRANCH   5   6
ENDBRANCH   4   5
ENDBRANCH   3   4
ENDBRANCH   2   3
ENDBRANCH   1   2
BRANCH   1  30
ATOM     30  C   UNL A   1      35.406  31.888  28.615  1.00  0.00     0.188 C 
BRANCH  30  31
ATOM     31  O   UNL A   1      35.071  31.688  29.985  1.00  0.00    -0.376 OA
BRANCH  31  32
ATOM     32  C   UNL A   1      34.431  32.770  30.649  1.00  0.00     0.202 C 
BRANCH  32  33
ATOM     33  C   UNL A   1      34.810  32.881  32.128  1.00  0.00     0.261 C 
BRANCH  33  34
ATOM     34  O   UNL A   1      36.170  33.268  32.377  1.00  0.00    -0.460 OA
BRANCH  34  35
ATOM     35  C   UNL A   1      36.939  32.440  33.119  1.00  0.00     0.338 C 
ATOM     36  O   UNL A   1      36.673  31.952  34.202  1.00  0.00    -0.246 OA
BRANCH  35  37
ATOM     37  C   UNL A   1      38.097  32.068  32.281  1.00  0.00     0.060 A 
ATOM     38  C   UNL A   1      39.166  31.366  32.844  1.00  0.00     0.016 A 
ATOM     39  C   UNL A   1      38.138  32.479  30.943  1.00  0.00     0.016 A 
ATOM     40  C   UNL A   1      40.277  31.062  32.059  1.00  0.00     0.010 A 
ATOM     41  C   UNL A   1      39.257  32.178  30.160  1.00  0.00     0.010 A 
ATOM     42  C   UNL A   1      40.324  31.453  30.711  1.00  0.00    -0.014 A 
BRANCH  42  43
ATOM     43  C   UNL A   1      41.422  30.947  29.857  1.00  0.00     0.031 A 
ATOM     44  C   UNL A   1      42.609  31.788  29.503  1.00  0.00     0.074 A 
ATOM     45  C   UNL A   1      41.341  29.674  29.430  1.00  0.00     0.049 A 
ATOM     46  N   UNL A   1      43.707  31.436  28.885  1.00  0.00    -0.248 NA
ATOM     47  C   UNL A   1      42.556  33.205  29.887  1.00  0.00     0.031 C 
ATOM     48  C   UNL A   1      40.220  28.770  29.696  1.00  0.00     0.029 A 
ATOM     49  N   UNL A   1      42.219  28.915  28.700  1.00  0.00    -0.354 N 
ATOM     50  C   UNL A   1      44.494  32.577  28.827  1.00  0.00     0.074 A 
ATOM     51  C   UNL A   1      43.722  33.646  29.430  1.00  0.00     0.031 C 
ATOM     52  C   UNL A   1      40.488  27.572  29.157  1.00  0.00     0.029 A 
ATOM     53  C   UNL A   1      41.788  27.628  28.499  1.00  0.00     0.049 A 
ATOM     54  H   UNL A   1      43.073  29.260  28.355  1.00  0.00     0.167 HD
ATOM     55  C   UNL A   1      45.750  32.711  28.331  1.00  0.00     0.037 A 
ATOM     56  C   UNL A   1      42.383  26.602  27.863  1.00  0.00     0.037 A 
ATOM     57  C   UNL A   1      46.499  31.646  27.707  1.00  0.00     0.049 A 
ATOM     58  C   UNL A   1      43.751  26.795  27.278  1.00  0.00     0.074 A 
ATOM     59  C   UNL A   1      47.792  31.675  27.211  1.00  0.00     0.029 A 
ATOM     60  N   UNL A   1      46.014  30.367  27.473  1.00  0.00    -0.354 N 
ATOM     61  N   UNL A   1      44.522  27.855  27.311  1.00  0.00    -0.248 NA
ATOM     62  C   UNL A   1      44.334  25.644  26.577  1.00  0.00     0.031 C 
ATOM     63  C   UNL A   1      48.070  30.429  26.635  1.00  0.00     0.029 A 
ATOM     64  C   UNL A   1      46.968  29.609  26.812  1.00  0.00     0.049 A 
ATOM     65  H   UNL A   1      45.123  30.044  27.739  1.00  0.00     0.167 HD
ATOM     66  C   UNL A   1      45.691  27.491  26.655  1.00  0.00     0.074 A 
ATOM     67  C   UNL A   1      45.533  26.107  26.255  1.00  0.00     0.031 C 
ATOM     68  C   UNL A   1      46.795  28.236  26.407  1.00  0.00     0.037 A 
BRANCH  55  69
ATOM     69  C   UNL A   1      46.397  34.061  28.442  1.00  0.00     0.057 A 
ATOM     70  C   UNL A   1      47.126  34.420  29.582  1.00  0.00     0.134 A 
ATOM     71  C   UNL A   1      46.251  35.028  27.437  1.00  0.00     0.134 A 
ATOM     72  F   UNL A   1      47.295  33.547  30.586  1.00  0.00    -0.206 F 
ATOM     73  C   UNL A   1      47.687  35.692  29.720  1.00  0.00     0.040 A 
ATOM     74  C   UNL A   1      46.826  36.295  27.554  1.00  0.00     0.040 A 
ATOM     75  F   UNL A   1      45.567  34.748  26.318  1.00  0.00    -0.206 F 
ATOM     76  C   UNL A   1      47.542  36.631  28.701  1.00  0.00     0.006 A 
ENDBRANCH  55  69
BRANCH  56  77
ATOM     77  C   UNL A   1      41.695  25.293  27.772  1.00  0.00     0.057 A 
ATOM     78  C   UNL A   1      40.659  25.077  26.856  1.00  0.00     0.134 A 
ATOM     79  C   UNL A   1      42.067  24.223  28.594  1.00  0.00     0.134 A 
ATOM     80  F   UNL A   1      40.253  26.068  26.048  1.00  0.00    -0.206 F 
ATOM     81  C   UNL A   1      40.014  23.845  26.761  1.00  0.00     0.040 A 
ATOM     82  C   UNL A   1      41.447  22.977  28.493  1.00  0.00     0.040 A 
ATOM     83  F   UNL A   1      43.063  24.368  29.480  1.00  0.00    -0.206 F 
ATOM     84  C   UNL A   1      40.415  22.787  27.576  1.00  0.00     0.006 A 
ENDBRANCH  56  77
BRANCH  68  85
ATOM     85  C   UNL A   1      47.921  27.556  25.682  1.00  0.00     0.057 A 
ATOM     86  C   UNL A   1      47.936  27.491  24.283  1.00  0.00     0.134 A 
ATOM     87  C   UNL A   1      48.993  26.971  26.368  1.00  0.00     0.134 A 
ATOM     88  F   UNL A   1      46.939  28.028  23.564  1.00  0.00    -0.206 F 
ATOM     89  C   UNL A   1      48.980  26.872  23.593  1.00  0.00     0.040 A 
ATOM     90  C   UNL A   1      50.056  26.373  25.688  1.00  0.00     0.040 A 
ATOM     91  F   UNL A   1      49.049  27.016  27.708  1.00  0.00    -0.206 F 
ATOM     92  C   UNL A   1      50.048  26.319  24.296  1.00  0.00     0.006 A 
ENDBRANCH  68  85
ENDBRANCH  42  43
ENDBRANCH  35  37
ENDBRANCH  34  35
ENDBRANCH  33  34
ENDBRANCH  32  33
ENDBRANCH  31  32
ENDBRANCH  30  31
ENDBRANCH   1  30
TORSDOF 22
ENDMDL
MODEL 2
REMARK VINA RESULT:      -9.6      1.610      6.307
REMARK SMILES CC(C)(C)c1cc2c(cc1Cl)C=C(C(=O)OCCOCCOCCOCCOC(=O)c1ccc(-c3c4nc(c(-c5c(F)cccc5F)c5ccc([nH]5)c(-c5c(F)cccc5F)c5nc(c(-c6c(F)cccc6F)c6ccc3[nH]6)C=C5)C=C4)cc1)[C@@H](C(F)(F)F)O2
REMARK SMILES IDX 23 1 22 2 21 3 20 4 19 5 18 6 17 7 16 8 14 9 15 10 13 11
REMARK SMILES IDX 5 12 6 13 10 14 7 15 9 16 11 17 8 18 90 19 12 20 85 21 2 22
REMARK SMILES IDX 1 23 3 24 4 25 86 26 87 27 88 28 89 29 24 30 25 31 26 32
REMARK SMILES IDX 27 33 28 34 29 35 30 36 31 37 32 38 84 39 33 40 83 41 34 42
REMARK SMILES IDX 35 43 36 44 77 45 37 46 82 47 76 48 78 49 38 50 81 51 75 52
REMARK SMILES IDX 74 53 39 55 65 56 48 57 64 58 49 59 52 60 63 61 79 62 50 63
REMARK SMILES IDX 51 64 62 66 80 67 53 68 40 69 41 70 46 71 42 72 43 73 45 74
REMARK SMILES IDX 47 75 44 76 66 77 67 78 72 79 68 80 69 81 71 82 73 83 70 84
REMARK SMILES IDX 54 85 55 86 60 87 56 88 57 89 59 90 61 91 58 92
REMARK H PARENT 78 54 52 65
REMARK Flexibility Score: inf
ROOT
ATOM      1  C   UNL A   1      35.463  30.952  27.926  1.00  0.00     0.188 C 
ENDROOT
BRANCH   1   2
ATOM      2  O   UNL A   1      34.872  30.134  26.916  1.00  0.00    -0.377 OA
BRANCH   2   3
ATOM      3  C   UNL A   1      33.483  29.866  27.011  1.00  0.00     0.188 C 
BRANCH   3   4
ATOM      4  C   UNL A   1      33.073  28.529  26.368  1.00  0.00     0.188 C 
BRANCH   4   5
ATOM      5  O   UNL A   1      31.793  28.575  25.736  1.00  0.00    -0.376 OA
BRANCH   5   6
ATOM      6  C   UNL A   1      31.780  28.839  24.338  1.00  0.00     0.202 C 
BRANCH   6   7
ATOM      7  C   UNL A   1      31.227  27.713  23.453  1.00  0.00     0.261 C 
BRANCH   7   8
ATOM      8  O   UNL A   1      31.723  26.404  23.774  1.00  0.00    -0.460 OA
BRANCH   8   9
ATOM      9  C   UNL A   1      30.817  25.410  23.857  1.00  0.00     0.338 C 
ATOM     10  O   UNL A   1      29.618  25.496  23.664  1.00  0.00    -0.246 OA
BRANCH   9  11
ATOM     11  C   UNL A   1      31.547  24.143  24.066  1.00  0.00     0.087 C 
ATOM     12  C   UNL A   1      33.159  19.356  23.874  1.00  0.00    -0.020 A 
ATOM     13  C   UNL A   1      33.379  20.467  24.725  1.00  0.00     0.053 A 
ATOM     14  C   UNL A   1      32.469  19.629  22.671  1.00  0.00     0.045 A 
ATOM     15  C   UNL A   1      32.853  21.736  24.458  1.00  0.00     0.128 A 
ATOM     16  C   UNL A   1      31.962  20.911  22.394  1.00  0.00     0.032 A 
ATOM     17  Cl  UNL A   1      32.101  18.450  21.460  1.00  0.00    -0.084 Cl
ATOM     18  C   UNL A   1      32.105  21.948  23.311  1.00  0.00     0.019 A 
ATOM     19  O   UNL A   1      33.091  22.696  25.399  1.00  0.00    -0.475 OA
ATOM     20  C   UNL A   1      31.415  23.210  23.114  1.00  0.00     0.027 C 
ATOM     21  C   UNL A   1      32.431  23.988  25.277  1.00  0.00     0.316 C 
BRANCH  12  22
ATOM     22  C   UNL A   1      33.548  17.935  24.361  1.00  0.00    -0.012 C 
ATOM     23  C   UNL A   1      35.065  17.772  24.657  1.00  0.00     0.016 C 
ATOM     24  C   UNL A   1      33.212  16.811  23.356  1.00  0.00     0.016 C 
ATOM     25  C   UNL A   1      32.814  17.679  25.698  1.00  0.00     0.016 C 
ENDBRANCH  12  22
BRANCH  21  26
ATOM     26  C   UNL A   1      31.676  24.265  26.585  1.00  0.00     0.430 C 
ATOM     27  F   UNL A   1      30.461  23.665  26.592  1.00  0.00    -0.167 F 
ATOM     28  F   UNL A   1      32.341  23.800  27.669  1.00  0.00    -0.167 F 
ATOM     29  F   UNL A   1      31.473  25.590  26.777  1.00  0.00    -0.167 F 
ENDBRANCH  21  26
ENDBRANCH   9  11
ENDBRANCH   8   9
ENDBRANCH   7   8
ENDBRANCH   6   7
ENDBRANCH   5   6
ENDBRANCH   4   5
ENDBRANCH   3   4
ENDBRANCH   2   3
ENDBRANCH   1   2
BRANCH   1  30
ATOM     30  C   UNL A   1      34.986  32.396  28.205  1.00  0.00     0.188 C 
BRANCH  30  31
ATOM     31  O   UNL A   1      34.379  32.571  29.482  1.00  0.00    -0.376 OA
BRANCH  31  32
ATOM     32  C   UNL A   1      34.351  33.895  29.997  1.00  0.00     0.202 C 
BRANCH  32  33
ATOM     33  C   UNL A   1      34.927  34.008  31.411  1.00  0.00     0.261 C 
BRANCH  33  34
ATOM     34  O   UNL A   1      36.300  33.610  31.539  1.00  0.00    -0.460 OA
BRANCH  34  35
ATOM     35  C   UNL A   1      36.564  32.420  32.122  1.00  0.00     0.338 C 
ATOM     36  O   UNL A   1      35.846  31.785  32.872  1.00  0.00    -0.246 OA
BRANCH  35  37
ATOM     37  C   UNL A   1      37.820  31.921  31.525  1.00  0.00     0.060 A 
ATOM     38  C   UNL A   1      38.763  31.271  32.327  1.00  0.00     0.016 A 
ATOM     39  C   UNL A   1      38.081  32.162  30.171  1.00  0.00     0.016 A 
ATOM     40  C   UNL A   1      39.966  30.848  31.767  1.00  0.00     0.010 A 
ATOM     41  C   UNL A   1      39.292  31.741  29.612  1.00  0.00     0.010 A 
ATOM     42  C   UNL A   1      40.233  31.067  30.405  1.00  0.00    -0.014 A 
BRANCH  42  43
ATOM     43  C   UNL A   1      41.426  30.435  29.799  1.00  0.00     0.031 A 
ATOM     44  C   UNL A   1      41.416  29.021  29.308  1.00  0.00     0.074 A 
ATOM     45  C   UNL A   1      42.530  31.192  29.665  1.00  0.00     0.049 A 
ATOM     46  N   UNL A   1      42.337  28.382  28.632  1.00  0.00    -0.248 NA
ATOM     47  C   UNL A   1      40.225  28.220  29.617  1.00  0.00     0.031 C 
ATOM     48  C   UNL A   1      42.660  32.575  30.129  1.00  0.00     0.029 A 
ATOM     49  N   UNL A   1      43.743  30.915  29.090  1.00  0.00    -0.354 N 
ATOM     50  C   UNL A   1      41.830  27.110  28.407  1.00  0.00     0.074 A 
ATOM     51  C   UNL A   1      40.539  27.054  29.065  1.00  0.00     0.031 C 
ATOM     52  C   UNL A   1      43.876  33.034  29.799  1.00  0.00     0.029 A 
ATOM     53  C   UNL A   1      44.613  31.976  29.115  1.00  0.00     0.049 A 
ATOM     54  H   UNL A   1      43.968  30.041  28.698  1.00  0.00     0.167 HD
ATOM     55  C   UNL A   1      42.387  26.093  27.703  1.00  0.00     0.037 A 
ATOM     56  C   UNL A   1      45.862  32.088  28.631  1.00  0.00     0.037 A 
ATOM     57  C   UNL A   1      43.686  26.150  27.076  1.00  0.00     0.049 A 
ATOM     58  C   UNL A   1      46.473  30.928  27.901  1.00  0.00     0.074 A 
ATOM     59  C   UNL A   1      44.318  25.187  26.308  1.00  0.00     0.029 A 
ATOM     60  N   UNL A   1      44.563  27.223  27.164  1.00  0.00    -0.354 N 
ATOM     61  N   UNL A   1      45.947  29.761  27.616  1.00  0.00    -0.248 NA
ATOM     62  C   UNL A   1      47.848  31.105  27.417  1.00  0.00     0.031 C 
ATOM     63  C   UNL A   1      45.594  25.657  25.972  1.00  0.00     0.029 A 
ATOM     64  C   UNL A   1      45.741  26.932  26.493  1.00  0.00     0.049 A 
ATOM     65  H   UNL A   1      44.375  28.067  27.634  1.00  0.00     0.167 HD
ATOM     66  C   UNL A   1      46.918  29.075  26.900  1.00  0.00     0.074 A 
ATOM     67  C   UNL A   1      48.055  29.964  26.777  1.00  0.00     0.031 C 
ATOM     68  C   UNL A   1      46.871  27.820  26.389  1.00  0.00     0.037 A 
BRANCH  55  69
ATOM     69  C   UNL A   1      41.593  24.826  27.571  1.00  0.00     0.057 A 
ATOM     70  C   UNL A   1      40.530  24.732  26.665  1.00  0.00     0.134 A 
ATOM     71  C   UNL A   1      41.849  23.713  28.385  1.00  0.00     0.134 A 
ATOM     72  F   UNL A   1      40.223  25.764  25.865  1.00  0.00    -0.206 F 
ATOM     73  C   UNL A   1      39.748  23.578  26.573  1.00  0.00     0.040 A 
ATOM     74  C   UNL A   1      41.090  22.546  28.285  1.00  0.00     0.040 A 
ATOM     75  F   UNL A   1      42.854  23.737  29.272  1.00  0.00    -0.206 F 
ATOM     76  C   UNL A   1      40.032  22.478  27.380  1.00  0.00     0.006 A 
ENDBRANCH  55  69
BRANCH  56  77
ATOM     77  C   UNL A   1      46.607  33.358  28.798  1.00  0.00     0.057 A 
ATOM     78  C   UNL A   1      47.400  33.593  29.927  1.00  0.00     0.134 A 
ATOM     79  C   UNL A   1      46.553  34.361  27.825  1.00  0.00     0.134 A 
ATOM     80  F   UNL A   1      47.485  32.672  30.899  1.00  0.00    -0.206 F 
ATOM     81  C   UNL A   1      48.109  34.783  30.086  1.00  0.00     0.040 A 
ATOM     82  C   UNL A   1      47.276  35.546  27.958  1.00  0.00     0.040 A 
ATOM     83  F   UNL A   1      45.821  34.184  26.714  1.00  0.00    -0.206 F 
ATOM     84  C   UNL A   1      48.055  35.760  29.093  1.00  0.00     0.006 A 
ENDBRANCH  56  77
BRANCH  68  85
ATOM     85  C   UNL A   1      48.085  27.350  25.639  1.00  0.00     0.057 A 
ATOM     86  C   UNL A   1      49.154  26.745  26.312  1.00  0.00     0.134 A 
ATOM     87  C   UNL A   1      48.193  27.490  24.249  1.00  0.00     0.134 A 
ATOM     88  F   UNL A   1      49.117  26.583  27.644  1.00  0.00    -0.206 F 
ATOM     89  C   UNL A   1      50.284  26.293  25.630  1.00  0.00     0.040 A 
ATOM     90  C   UNL A   1      49.306  27.018  23.552  1.00  0.00     0.040 A 
ATOM     91  F   UNL A   1      47.196  28.043  23.542  1.00  0.00    -0.206 F 
ATOM     92  C   UNL A   1      50.358  26.421  24.244  1.00  0.00     0.006 A 
ENDBRANCH  68  85
ENDBRANCH  42  43
ENDBRANCH  35  37
ENDBRANCH  34  35
ENDBRANCH  33  34
ENDBRANCH  32  33
ENDBRANCH  31  32
ENDBRANCH  30  31
ENDBRANCH   1  30
TORSDOF 22
ENDMDL
MODEL 3
REMARK VINA RESULT:      -9.6      4.434      6.242
REMARK SMILES CC(C)(C)c1cc2c(cc1Cl)C=C(C(=O)OCCOCCOCCOCCOC(=O)c1ccc(-c3c4nc(c(-c5c(F)cccc5F)c5ccc([nH]5)c(-c5c(F)cccc5F)c5nc(c(-c6c(F)cccc6F)c6ccc3[nH]6)C=C5)C=C4)cc1)[C@@H](C(F)(F)F)O2
REMARK SMILES IDX 23 1 22 2 21 3 20 4 19 5 18 6 17 7 16 8 14 9 15 10 13 11
REMARK SMILES IDX 5 12 6 13 10 14 7 15 9 16 11 17 8 18 90 19 12 20 85 21 2 22
REMARK SMILES IDX 1 23 3 24 4 25 86 26 87 27 88 28 89 29 24 30 25 31 26 32
REMARK SMILES IDX 27 33 28 34 29 35 30 36 31 37 32 38 84 39 33 40 83 41 34 42
REMARK SMILES IDX 35 43 36 44 77 45 37 46 82 47 76 48 78 49 38 50 81 51 75 52
REMARK SMILES IDX 74 53 39 55 65 56 48 57 64 58 49 59 52 60 63 61 79 62 50 63
REMARK SMILES IDX 51 64 62 66 80 67 53 68 40 69 41 70 46 71 42 72 43 73 45 74
REMARK SMILES IDX 47 75 44 76 66 77 67 78 72 79 68 80 69 81 71 82 73 83 70 84
REMARK SMILES IDX 54 85 55 86 60 87 56 88 57 89 59 90 61 91 58 92
REMARK H PARENT 78 54 52 65
REMARK Flexibility Score: inf
ROOT
ATOM      1  C   UNL A   1      34.407  34.547  30.078  1.00  0.00     0.188 C 
ENDROOT
BRANCH   1   2
ATOM      2  O   UNL A   1      33.428  33.757  29.404  1.00  0.00    -0.377 OA
BRANCH   2   3
ATOM      3  C   UNL A   1      33.590  33.546  28.012  1.00  0.00     0.188 C 
BRANCH   3   4
ATOM      4  C   UNL A   1      33.691  32.060  27.625  1.00  0.00     0.188 C 
BRANCH   4   5
ATOM      5  O   UNL A   1      34.640  31.335  28.408  1.00  0.00    -0.376 OA
BRANCH   5   6
ATOM      6  C   UNL A   1      35.720  30.733  27.705  1.00  0.00     0.202 C 
BRANCH   6   7
ATOM      7  C   UNL A   1      36.511  29.670  28.482  1.00  0.00     0.261 C 
BRANCH   7   8
ATOM      8  O   UNL A   1      37.820  29.400  27.957  1.00  0.00    -0.460 OA
BRANCH   8   9
ATOM      9  C   UNL A   1      38.865  29.943  28.611  1.00  0.00     0.338 C 
ATOM     10  O   UNL A   1      38.904  31.036  29.147  1.00  0.00    -0.246 OA
BRANCH   9  11
ATOM     11  C   UNL A   1      39.922  28.916  28.718  1.00  0.00     0.087 C 
ATOM     12  C   UNL A   1      43.272  25.251  27.771  1.00  0.00    -0.020 A 
ATOM     13  C   UNL A   1      42.726  25.851  28.933  1.00  0.00     0.053 A 
ATOM     14  C   UNL A   1      42.983  25.900  26.549  1.00  0.00     0.045 A 
ATOM     15  C   UNL A   1      41.862  26.951  28.878  1.00  0.00     0.128 A 
ATOM     16  C   UNL A   1      42.134  27.018  26.499  1.00  0.00     0.032 A 
ATOM     17  Cl  UNL A   1      43.552  25.377  25.002  1.00  0.00    -0.084 Cl
ATOM     18  C   UNL A   1      41.530  27.509  27.653  1.00  0.00     0.019 A 
ATOM     19  O   UNL A   1      41.362  27.384  30.071  1.00  0.00    -0.475 OA
ATOM     20  C   UNL A   1      40.505  28.534  27.574  1.00  0.00     0.027 C 
ATOM     21  C   UNL A   1      40.326  28.406  30.077  1.00  0.00     0.316 C 
BRANCH  12  22
ATOM     22  C   UNL A   1      44.005  23.889  27.891  1.00  0.00    -0.012 C 
ATOM     23  C   UNL A   1      43.990  23.298  29.329  1.00  0.00     0.016 C 
ATOM     24  C   UNL A   1      45.496  23.938  27.493  1.00  0.00     0.016 C 
ATOM     25  C   UNL A   1      43.257  22.872  26.997  1.00  0.00     0.016 C 
ENDBRANCH  12  22
BRANCH  21  26
ATOM     26  C   UNL A   1      39.128  27.869  30.874  1.00  0.00     0.430 C 
ATOM     27  F   UNL A   1      38.176  28.820  31.038  1.00  0.00    -0.167 F 
ATOM     28  F   UNL A   1      38.526  26.826  30.255  1.00  0.00    -0.167 F 
ATOM     29  F   UNL A   1      39.493  27.447  32.107  1.00  0.00    -0.167 F 
ENDBRANCH  21  26
ENDBRANCH   9  11
ENDBRANCH   8   9
ENDBRANCH   7   8
ENDBRANCH   6   7
ENDBRANCH   5   6
ENDBRANCH   4   5
ENDBRANCH   3   4
ENDBRANCH   2   3
ENDBRANCH   1   2
BRANCH   1  30
ATOM     30  C   UNL A   1      34.316  34.868  31.587  1.00  0.00     0.188 C 
BRANCH  30  31
ATOM     31  O   UNL A   1      35.056  33.976  32.417  1.00  0.00    -0.376 OA
BRANCH  31  32
ATOM     32  C   UNL A   1      36.090  34.550  33.205  1.00  0.00     0.202 C 
BRANCH  32  33
ATOM     33  C   UNL A   1      36.168  33.967  34.618  1.00  0.00     0.261 C 
BRANCH  33  34
ATOM     34  O   UNL A   1      37.489  33.914  35.178  1.00  0.00    -0.460 OA
BRANCH  34  35
ATOM     35  C   UNL A   1      37.849  32.798  35.850  1.00  0.00     0.338 C 
ATOM     36  O   UNL A   1      37.322  32.325  36.840  1.00  0.00    -0.246 OA
BRANCH  35  37
ATOM     37  C   UNL A   1      38.893  32.132  35.043  1.00  0.00     0.060 A 
ATOM     38  C   UNL A   1      38.530  31.211  34.058  1.00  0.00     0.016 A 
ATOM     39  C   UNL A   1      40.242  32.387  35.320  1.00  0.00     0.016 A 
ATOM     40  C   UNL A   1      39.522  30.552  33.335  1.00  0.00     0.010 A 
ATOM     41  C   UNL A   1      41.236  31.719  34.598  1.00  0.00     0.010 A 
ATOM     42  C   UNL A   1      40.879  30.810  33.590  1.00  0.00    -0.014 A 
BRANCH  42  43
ATOM     43  C   UNL A   1      41.898  30.245  32.678  1.00  0.00     0.031 A 
ATOM     44  C   UNL A   1      42.398  30.993  31.481  1.00  0.00     0.074 A 
ATOM     45  C   UNL A   1      42.400  29.034  32.980  1.00  0.00     0.049 A 
ATOM     46  N   UNL A   1      43.384  30.686  30.677  1.00  0.00    -0.248 NA
ATOM     47  C   UNL A   1      41.704  32.241  31.140  1.00  0.00     0.031 C 
ATOM     48  C   UNL A   1      41.970  28.206  34.109  1.00  0.00     0.029 A 
ATOM     49  N   UNL A   1      43.387  28.297  32.379  1.00  0.00    -0.354 N 
ATOM     50  C   UNL A   1      43.452  31.713  29.747  1.00  0.00     0.074 A 
ATOM     51  C   UNL A   1      42.371  32.629  30.060  1.00  0.00     0.031 C 
ATOM     52  C   UNL A   1      42.705  27.085  34.133  1.00  0.00     0.029 A 
ATOM     53  C   UNL A   1      43.644  27.110  33.017  1.00  0.00     0.049 A 
ATOM     54  H   UNL A   1      43.863  28.590  31.570  1.00  0.00     0.167 HD
ATOM     55  C   UNL A   1      44.344  31.881  28.740  1.00  0.00     0.037 A 
ATOM     56  C   UNL A   1      44.547  26.152  32.740  1.00  0.00     0.037 A 
ATOM     57  C   UNL A   1      45.398  30.949  28.419  1.00  0.00     0.049 A 
ATOM     58  C   UNL A   1      45.487  26.341  31.586  1.00  0.00     0.074 A 
ATOM     59  C   UNL A   1      46.376  31.052  27.444  1.00  0.00     0.029 A 
ATOM     60  N   UNL A   1      45.601  29.731  29.054  1.00  0.00    -0.354 N 
ATOM     61  N   UNL A   1      45.600  27.361  30.770  1.00  0.00    -0.248 NA
ATOM     62  C   UNL A   1      46.432  25.249  31.322  1.00  0.00     0.031 C 
ATOM     63  C   UNL A   1      47.137  29.876  27.456  1.00  0.00     0.029 A 
ATOM     64  C   UNL A   1      46.664  29.060  28.470  1.00  0.00     0.049 A 
ATOM     65  H   UNL A   1      45.067  29.394  29.809  1.00  0.00     0.167 HD
ATOM     66  C   UNL A   1      46.643  27.044  29.911  1.00  0.00     0.074 A 
ATOM     67  C   UNL A   1      47.141  25.746  30.319  1.00  0.00     0.031 C 
ATOM     68  C   UNL A   1      47.143  27.763  28.877  1.00  0.00     0.037 A 
BRANCH  55  69
ATOM     69  C   UNL A   1      44.219  33.123  27.905  1.00  0.00     0.057 A 
ATOM     70  C   UNL A   1      43.778  33.058  26.577  1.00  0.00     0.134 A 
ATOM     71  C   UNL A   1      44.588  34.380  28.402  1.00  0.00     0.134 A 
ATOM     72  F   UNL A   1      43.419  31.885  26.035  1.00  0.00    -0.206 F 
ATOM     73  C   UNL A   1      43.709  34.198  25.774  1.00  0.00     0.040 A 
ATOM     74  C   UNL A   1      44.502  35.531  27.615  1.00  0.00     0.040 A 
ATOM     75  F   UNL A   1      45.018  34.513  29.665  1.00  0.00    -0.206 F 
ATOM     76  C   UNL A   1      44.066  35.440  26.295  1.00  0.00     0.006 A 
ENDBRANCH  55  69
BRANCH  56  77
ATOM     77  C   UNL A   1      44.621  24.940  33.589  1.00  0.00     0.057 A 
ATOM     78  C   UNL A   1      45.261  24.963  34.834  1.00  0.00     0.134 A 
ATOM     79  C   UNL A   1      44.042  23.734  33.180  1.00  0.00     0.134 A 
ATOM     80  F   UNL A   1      45.843  26.088  35.276  1.00  0.00    -0.206 F 
ATOM     81  C   UNL A   1      45.327  23.827  35.641  1.00  0.00     0.040 A 
ATOM     82  C   UNL A   1      44.079  22.597  33.988  1.00  0.00     0.040 A 
ATOM     83  F   UNL A   1      43.402  23.658  32.004  1.00  0.00    -0.206 F 
ATOM     84  C   UNL A   1      44.726  22.642  35.221  1.00  0.00     0.006 A 
ENDBRANCH  56  77
BRANCH  68  85
ATOM     85  C   UNL A   1      48.299  27.160  28.130  1.00  0.00     0.057 A 
ATOM     86  C   UNL A   1      49.600  27.232  28.644  1.00  0.00     0.134 A 
ATOM     87  C   UNL A   1      48.122  26.502  26.906  1.00  0.00     0.134 A 
ATOM     88  F   UNL A   1      49.839  27.851  29.810  1.00  0.00    -0.206 F 
ATOM     89  C   UNL A   1      50.683  26.667  27.969  1.00  0.00     0.040 A 
ATOM     90  C   UNL A   1      49.194  25.910  26.235  1.00  0.00     0.040 A 
ATOM     91  F   UNL A   1      46.899  26.380  26.369  1.00  0.00    -0.206 F 
ATOM     92  C   UNL A   1      50.480  25.996  26.765  1.00  0.00     0.006 A 
ENDBRANCH  68  85
ENDBRANCH  42  43
ENDBRANCH  35  37
ENDBRANCH  34  35
ENDBRANCH  33  34
ENDBRANCH  32  33
ENDBRANCH  31  32
ENDBRANCH  30  31
ENDBRANCH   1  30
TORSDOF 22
ENDMDL
