MODEL 1
REMARK VINA RESULT:      -9.4      0.000      0.000
REMARK SMILES O=C(OCCOCCOCCOCCOC(=O)c1cccnc1Nc1cccc(C(F)(F)F)c1)c1ccc(-c2c3nc(c(-c4c(F)cccc4F)c4ccc([nH]4)c(-c4c(F)cccc4F)c4nc(c(-c5c(F)cccc5F)c5ccc2[nH]5)C=C4)C=C3)cc1
REMARK SMILES IDX 10 1 9 2 8 3 7 4 6 5 5 6 4 7 3 8 2 9 1 10 35 11 36 12 88 13
REMARK SMILES IDX 37 14 87 15 38 16 39 17 40 18 81 19 41 20 86 21 80 22 82 23
REMARK SMILES IDX 42 24 85 25 79 26 78 27 43 29 69 30 52 31 68 32 53 33 56 34
REMARK SMILES IDX 67 35 83 36 54 37 55 38 66 40 84 41 57 42 44 43 45 44 50 45
REMARK SMILES IDX 46 46 47 47 49 48 51 49 48 50 70 51 71 52 76 53 72 54 73 55
REMARK SMILES IDX 75 56 77 57 74 58 58 59 59 60 64 61 60 62 61 63 63 64 65 65
REMARK SMILES IDX 62 66 11 67 12 68 13 69 14 70 15 71 16 72 17 73 18 74 19 75
REMARK SMILES IDX 23 76 20 77 22 78 21 79 24 80 25 82 26 83 34 84 27 85 29 86
REMARK SMILES IDX 28 87 30 88 31 89 32 90 33 91
REMARK H PARENT 82 28 56 39 24 81
REMARK Flexibility Score: inf
ROOT
ATOM      1  C   UNL A   1      32.559  25.294  25.235  1.00  0.00     0.188 C 
ENDROOT
BRANCH   1   2
ATOM      2  O   UNL A   1      32.733  26.370  24.326  1.00  0.00    -0.377 OA
BRANCH   2   3
ATOM      3  C   UNL A   1      32.554  27.678  24.858  1.00  0.00     0.188 C 
BRANCH   3   4
ATOM      4  C   UNL A   1      31.199  28.329  24.587  1.00  0.00     0.188 C 
BRANCH   4   5
ATOM      5  O   UNL A   1      31.282  29.723  24.840  1.00  0.00    -0.376 OA
BRANCH   5   6
ATOM      6  C   UNL A   1      32.219  30.198  25.800  1.00  0.00     0.202 C 
BRANCH   6   7
ATOM      7  C   UNL A   1      31.714  31.236  26.786  1.00  0.00     0.261 C 
BRANCH   7   8
ATOM      8  O   UNL A   1      32.434  32.477  26.794  1.00  0.00    -0.460 OA
BRANCH   8   9
ATOM      9  C   UNL A   1      33.257  33.024  27.715  1.00  0.00     0.338 C 
ATOM     10  O   UNL A   1      32.939  34.106  28.208  1.00  0.00    -0.246 OA
BRANCH   9  11
ATOM     11  C   UNL A   1      34.504  32.386  28.217  1.00  0.00     0.060 A 
ATOM     12  C   UNL A   1      34.657  31.042  28.543  1.00  0.00     0.016 A 
ATOM     13  C   UNL A   1      35.644  33.201  28.285  1.00  0.00     0.016 A 
ATOM     14  C   UNL A   1      35.824  30.536  29.062  1.00  0.00     0.010 A 
ATOM     15  C   UNL A   1      36.859  32.691  28.746  1.00  0.00     0.010 A 
ATOM     16  C   UNL A   1      36.922  31.366  29.188  1.00  0.00    -0.014 A 
BRANCH  16  17
ATOM     17  C   UNL A   1      38.008  30.860  30.028  1.00  0.00     0.031 A 
ATOM     18  C   UNL A   1      39.068  30.062  29.338  1.00  0.00     0.074 A 
ATOM     19  C   UNL A   1      38.137  31.300  31.290  1.00  0.00     0.049 A 
ATOM     20  N   UNL A   1      40.076  29.414  29.842  1.00  0.00    -0.248 NA
ATOM     21  C   UNL A   1      38.980  29.993  27.865  1.00  0.00     0.031 C 
ATOM     22  C   UNL A   1      37.256  32.275  31.944  1.00  0.00     0.029 A 
ATOM     23  N   UNL A   1      39.085  31.025  32.231  1.00  0.00    -0.354 N 
ATOM     24  C   UNL A   1      40.694  28.799  28.760  1.00  0.00     0.074 A 
ATOM     25  C   UNL A   1      39.959  29.158  27.572  1.00  0.00     0.031 C 
ATOM     26  C   UNL A   1      37.723  32.532  33.175  1.00  0.00     0.029 A 
ATOM     27  C   UNL A   1      38.866  31.665  33.425  1.00  0.00     0.049 A 
ATOM     28  H   UNL A   1      39.851  30.428  32.068  1.00  0.00     0.167 HD
ATOM     29  C   UNL A   1      41.771  27.985  28.785  1.00  0.00     0.037 A 
ATOM     30  C   UNL A   1      39.499  31.504  34.599  1.00  0.00     0.037 A 
ATOM     31  C   UNL A   1      42.466  27.682  30.004  1.00  0.00     0.049 A 
ATOM     32  C   UNL A   1      40.616  30.498  34.632  1.00  0.00     0.074 A 
ATOM     33  C   UNL A   1      43.520  26.820  30.216  1.00  0.00     0.029 A 
ATOM     34  N   UNL A   1      42.158  28.260  31.233  1.00  0.00    -0.354 N 
ATOM     35  N   UNL A   1      41.128  29.799  33.644  1.00  0.00    -0.248 NA
ATOM     36  C   UNL A   1      41.226  30.238  35.937  1.00  0.00     0.031 C 
ATOM     37  C   UNL A   1      43.811  26.832  31.585  1.00  0.00     0.029 A 
ATOM     38  C   UNL A   1      42.987  27.756  32.215  1.00  0.00     0.049 A 
ATOM     39  H   UNL A   1      41.453  28.930  31.380  1.00  0.00     0.167 HD
ATOM     40  C   UNL A   1      42.143  29.036  34.198  1.00  0.00     0.074 A 
ATOM     41  C   UNL A   1      42.174  29.370  35.612  1.00  0.00     0.031 C 
ATOM     42  C   UNL A   1      42.977  28.144  33.605  1.00  0.00     0.037 A 
BRANCH  29  43
ATOM     43  C   UNL A   1      42.130  27.303  27.498  1.00  0.00     0.057 A 
ATOM     44  C   UNL A   1      43.100  27.802  26.616  1.00  0.00     0.134 A 
ATOM     45  C   UNL A   1      41.405  26.178  27.084  1.00  0.00     0.134 A 
ATOM     46  F   UNL A   1      43.801  28.902  26.927  1.00  0.00    -0.206 F 
ATOM     47  C   UNL A   1      43.302  27.233  25.355  1.00  0.00     0.040 A 
ATOM     48  C   UNL A   1      41.621  25.582  25.840  1.00  0.00     0.040 A 
ATOM     49  F   UNL A   1      40.449  25.658  27.869  1.00  0.00    -0.206 F 
ATOM     50  C   UNL A   1      42.562  26.119  24.965  1.00  0.00     0.006 A 
ENDBRANCH  29  43
BRANCH  30  51
ATOM     51  C   UNL A   1      39.059  32.246  35.806  1.00  0.00     0.057 A 
ATOM     52  C   UNL A   1      38.163  31.683  36.720  1.00  0.00     0.134 A 
ATOM     53  C   UNL A   1      39.523  33.541  36.081  1.00  0.00     0.134 A 
ATOM     54  F   UNL A   1      37.671  30.453  36.512  1.00  0.00    -0.206 F 
ATOM     55  C   UNL A   1      37.733  32.381  37.852  1.00  0.00     0.040 A 
ATOM     56  C   UNL A   1      39.124  34.240  37.223  1.00  0.00     0.040 A 
ATOM     57  F   UNL A   1      40.387  34.144  35.252  1.00  0.00    -0.206 F 
ATOM     58  C   UNL A   1      38.218  33.661  38.108  1.00  0.00     0.006 A 
ENDBRANCH  30  51
BRANCH  42  59
ATOM     59  C   UNL A   1      44.028  27.534  34.480  1.00  0.00     0.057 A 
ATOM     60  C   UNL A   1      45.268  28.144  34.693  1.00  0.00     0.134 A 
ATOM     61  C   UNL A   1      43.760  26.337  35.158  1.00  0.00     0.134 A 
ATOM     62  F   UNL A   1      45.584  29.285  34.060  1.00  0.00    -0.206 F 
ATOM     63  C   UNL A   1      46.221  27.569  35.531  1.00  0.00     0.040 A 
ATOM     64  C   UNL A   1      44.691  25.773  36.026  1.00  0.00     0.040 A 
ATOM     65  F   UNL A   1      42.582  25.714  35.003  1.00  0.00    -0.206 F 
ATOM     66  C   UNL A   1      45.929  26.385  36.208  1.00  0.00     0.006 A 
ENDBRANCH  42  59
ENDBRANCH  16  17
ENDBRANCH   9  11
ENDBRANCH   8   9
ENDBRANCH   7   8
ENDBRANCH   6   7
ENDBRANCH   5   6
ENDBRANCH   4   5
ENDBRANCH   3   4
ENDBRANCH   2   3
ENDBRANCH   1   2
BRANCH   1  67
ATOM     67  C   UNL A   1      32.737  23.845  24.721  1.00  0.00     0.188 C 
BRANCH  67  68
ATOM     68  O   UNL A   1      33.384  22.922  25.563  1.00  0.00    -0.376 OA
BRANCH  68  69
ATOM     69  C   UNL A   1      34.629  23.255  26.148  1.00  0.00     0.202 C 
BRANCH  69  70
ATOM     70  C   UNL A   1      35.742  24.121  25.507  1.00  0.00     0.261 C 
BRANCH  70  71
ATOM     71  O   UNL A   1      36.940  23.512  25.002  1.00  0.00    -0.460 OA
BRANCH  71  72
ATOM     72  C   UNL A   1      37.998  23.350  25.837  1.00  0.00     0.341 C 
ATOM     73  O   UNL A   1      38.424  24.161  26.647  1.00  0.00    -0.246 OA
BRANCH  72  74
ATOM     74  C   UNL A   1      38.484  21.955  25.731  1.00  0.00     0.102 A 
ATOM     75  C   UNL A   1      37.731  21.060  24.960  1.00  0.00     0.021 A 
ATOM     76  C   UNL A   1      39.613  21.485  26.436  1.00  0.00     0.144 A 
ATOM     77  C   UNL A   1      38.131  19.734  24.872  1.00  0.00     0.021 A 
ATOM     78  N   UNL A   1      39.990  20.185  26.339  1.00  0.00    -0.238 NA
ATOM     79  C   UNL A   1      39.265  19.351  25.562  1.00  0.00     0.113 A 
BRANCH  76  80
ATOM     80  N   UNL A   1      40.282  22.280  27.393  1.00  0.00    -0.340 N 
ATOM     81  H   UNL A   1      39.721  22.719  28.073  1.00  0.00     0.168 HD
BRANCH  80  82
ATOM     82  C   UNL A   1      41.673  22.509  27.473  1.00  0.00     0.040 A 
ATOM     83  C   UNL A   1      42.284  22.859  28.681  1.00  0.00     0.026 A 
ATOM     84  C   UNL A   1      42.455  22.485  26.317  1.00  0.00     0.039 A 
ATOM     85  C   UNL A   1      43.631  23.239  28.730  1.00  0.00     0.003 A 
ATOM     86  C   UNL A   1      43.818  22.828  26.351  1.00  0.00     0.058 A 
ATOM     87  C   UNL A   1      44.393  23.238  27.564  1.00  0.00     0.013 A 
BRANCH  86  88
ATOM     88  C   UNL A   1      44.660  22.759  25.105  1.00  0.00     0.416 C 
ATOM     89  F   UNL A   1      45.254  21.544  24.945  1.00  0.00    -0.166 F 
ATOM     90  F   UNL A   1      43.933  22.971  23.972  1.00  0.00    -0.166 F 
ATOM     91  F   UNL A   1      45.669  23.675  25.076  1.00  0.00    -0.166 F 
ENDBRANCH  86  88
ENDBRANCH  80  82
ENDBRANCH  76  80
ENDBRANCH  72  74
ENDBRANCH  71  72
ENDBRANCH  70  71
ENDBRANCH  69  70
ENDBRANCH  68  69
ENDBRANCH  67  68
ENDBRANCH   1  67
TORSDOF 23
ENDMDL
MODEL 2
REMARK VINA RESULT:      -9.3      1.045      2.016
REMARK SMILES O=C(OCCOCCOCCOCCOC(=O)c1cccnc1Nc1cccc(C(F)(F)F)c1)c1ccc(-c2c3nc(c(-c4c(F)cccc4F)c4ccc([nH]4)c(-c4c(F)cccc4F)c4nc(c(-c5c(F)cccc5F)c5ccc2[nH]5)C=C4)C=C3)cc1
REMARK SMILES IDX 10 1 9 2 8 3 7 4 6 5 5 6 4 7 3 8 2 9 1 10 35 11 36 12 88 13
REMARK SMILES IDX 37 14 87 15 38 16 39 17 40 18 81 19 41 20 86 21 80 22 82 23
REMARK SMILES IDX 42 24 85 25 79 26 78 27 43 29 69 30 52 31 68 32 53 33 56 34
REMARK SMILES IDX 67 35 83 36 54 37 55 38 66 40 84 41 57 42 44 43 45 44 50 45
REMARK SMILES IDX 46 46 47 47 49 48 51 49 48 50 70 51 71 52 76 53 72 54 73 55
REMARK SMILES IDX 75 56 77 57 74 58 58 59 59 60 64 61 60 62 61 63 63 64 65 65
REMARK SMILES IDX 62 66 11 67 12 68 13 69 14 70 15 71 16 72 17 73 18 74 19 75
REMARK SMILES IDX 23 76 20 77 22 78 21 79 24 80 25 82 26 83 34 84 27 85 29 86
REMARK SMILES IDX 28 87 30 88 31 89 32 90 33 91
REMARK H PARENT 82 28 56 39 24 81
REMARK Flexibility Score: inf
ROOT
ATOM      1  C   UNL A   1      34.141  25.127  25.259  1.00  0.00     0.188 C 
ENDROOT
BRANCH   1   2
ATOM      2  O   UNL A   1      33.976  26.519  25.031  1.00  0.00    -0.377 OA
BRANCH   2   3
ATOM      3  C   UNL A   1      33.455  27.277  26.117  1.00  0.00     0.188 C 
BRANCH   3   4
ATOM      4  C   UNL A   1      31.935  27.277  26.263  1.00  0.00     0.188 C 
BRANCH   4   5
ATOM      5  O   UNL A   1      31.425  28.560  25.929  1.00  0.00    -0.376 OA
BRANCH   5   6
ATOM      6  C   UNL A   1      32.259  29.701  26.098  1.00  0.00     0.202 C 
BRANCH   6   7
ATOM      7  C   UNL A   1      31.655  30.880  26.839  1.00  0.00     0.261 C 
BRANCH   7   8
ATOM      8  O   UNL A   1      32.369  32.117  26.712  1.00  0.00    -0.460 OA
BRANCH   8   9
ATOM      9  C   UNL A   1      33.236  32.737  27.542  1.00  0.00     0.338 C 
ATOM     10  O   UNL A   1      32.944  33.858  27.954  1.00  0.00    -0.246 OA
BRANCH   9  11
ATOM     11  C   UNL A   1      34.504  32.135  28.039  1.00  0.00     0.060 A 
ATOM     12  C   UNL A   1      34.710  30.790  28.325  1.00  0.00     0.016 A 
ATOM     13  C   UNL A   1      35.607  32.995  28.145  1.00  0.00     0.016 A 
ATOM     14  C   UNL A   1      35.892  30.317  28.842  1.00  0.00     0.010 A 
ATOM     15  C   UNL A   1      36.838  32.522  28.603  1.00  0.00     0.010 A 
ATOM     16  C   UNL A   1      36.953  31.188  29.005  1.00  0.00    -0.014 A 
BRANCH  16  17
ATOM     17  C   UNL A   1      38.051  30.702  29.842  1.00  0.00     0.031 A 
ATOM     18  C   UNL A   1      39.113  29.908  29.152  1.00  0.00     0.074 A 
ATOM     19  C   UNL A   1      38.185  31.156  31.099  1.00  0.00     0.049 A 
ATOM     20  N   UNL A   1      40.132  29.275  29.653  1.00  0.00    -0.248 NA
ATOM     21  C   UNL A   1      39.014  29.823  27.680  1.00  0.00     0.031 C 
ATOM     22  C   UNL A   1      37.299  32.128  31.749  1.00  0.00     0.029 A 
ATOM     23  N   UNL A   1      39.143  30.900  32.034  1.00  0.00    -0.354 N 
ATOM     24  C   UNL A   1      40.748  28.656  28.573  1.00  0.00     0.074 A 
ATOM     25  C   UNL A   1      40.000  28.995  27.387  1.00  0.00     0.031 C 
ATOM     26  C   UNL A   1      37.773  32.402  32.974  1.00  0.00     0.029 A 
ATOM     27  C   UNL A   1      38.926  31.550  33.224  1.00  0.00     0.049 A 
ATOM     28  H   UNL A   1      39.914  30.309  31.872  1.00  0.00     0.167 HD
ATOM     29  C   UNL A   1      41.833  27.854  28.598  1.00  0.00     0.037 A 
ATOM     30  C   UNL A   1      39.571  31.408  34.394  1.00  0.00     0.037 A 
ATOM     31  C   UNL A   1      42.542  27.571  29.814  1.00  0.00     0.049 A 
ATOM     32  C   UNL A   1      40.698  30.414  34.428  1.00  0.00     0.074 A 
ATOM     33  C   UNL A   1      43.606  26.721  30.026  1.00  0.00     0.029 A 
ATOM     34  N   UNL A   1      42.237  28.158  31.040  1.00  0.00    -0.354 N 
ATOM     35  N   UNL A   1      41.210  29.710  33.443  1.00  0.00    -0.248 NA
ATOM     36  C   UNL A   1      41.322  30.173  35.731  1.00  0.00     0.031 C 
ATOM     37  C   UNL A   1      43.908  26.750  31.393  1.00  0.00     0.029 A 
ATOM     38  C   UNL A   1      43.079  27.673  32.021  1.00  0.00     0.049 A 
ATOM     39  H   UNL A   1      41.526  28.822  31.186  1.00  0.00     0.167 HD
ATOM     40  C   UNL A   1      42.237  28.963  33.997  1.00  0.00     0.074 A 
ATOM     41  C   UNL A   1      42.276  29.312  35.407  1.00  0.00     0.031 C 
ATOM     42  C   UNL A   1      43.076  28.075  33.407  1.00  0.00     0.037 A 
BRANCH  29  43
ATOM     43  C   UNL A   1      42.189  27.162  27.315  1.00  0.00     0.057 A 
ATOM     44  C   UNL A   1      41.422  26.119  26.774  1.00  0.00     0.134 A 
ATOM     45  C   UNL A   1      43.390  27.478  26.667  1.00  0.00     0.134 A 
ATOM     46  F   UNL A   1      40.285  25.732  27.369  1.00  0.00    -0.206 F 
ATOM     47  C   UNL A   1      41.861  25.390  25.665  1.00  0.00     0.040 A 
ATOM     48  C   UNL A   1      43.822  26.779  25.539  1.00  0.00     0.040 A 
ATOM     49  F   UNL A   1      44.182  28.453  27.139  1.00  0.00    -0.206 F 
ATOM     50  C   UNL A   1      43.063  25.721  25.043  1.00  0.00     0.006 A 
ENDBRANCH  29  43
BRANCH  30  51
ATOM     51  C   UNL A   1      39.132  32.158  35.597  1.00  0.00     0.057 A 
ATOM     52  C   UNL A   1      39.562  33.467  35.836  1.00  0.00     0.134 A 
ATOM     53  C   UNL A   1      38.268  31.586  36.543  1.00  0.00     0.134 A 
ATOM     54  F   UNL A   1      40.399  34.069  34.978  1.00  0.00    -0.206 F 
ATOM     55  C   UNL A   1      39.165  34.174  36.974  1.00  0.00     0.040 A 
ATOM     56  C   UNL A   1      37.840  32.291  37.670  1.00  0.00     0.040 A 
ATOM     57  F   UNL A   1      37.810  30.336  36.378  1.00  0.00    -0.206 F 
ATOM     58  C   UNL A   1      38.296  33.587  37.892  1.00  0.00     0.006 A 
ENDBRANCH  30  51
BRANCH  42  59
ATOM     59  C   UNL A   1      44.140  27.484  34.280  1.00  0.00     0.057 A 
ATOM     60  C   UNL A   1      43.970  26.261  34.936  1.00  0.00     0.134 A 
ATOM     61  C   UNL A   1      45.371  28.138  34.416  1.00  0.00     0.134 A 
ATOM     62  F   UNL A   1      42.807  25.597  34.851  1.00  0.00    -0.206 F 
ATOM     63  C   UNL A   1      44.984  25.718  35.724  1.00  0.00     0.040 A 
ATOM     64  C   UNL A   1      46.403  27.587  35.172  1.00  0.00     0.040 A 
ATOM     65  F   UNL A   1      45.595  29.307  33.799  1.00  0.00    -0.206 F 
ATOM     66  C   UNL A   1      46.208  26.378  35.835  1.00  0.00     0.006 A 
ENDBRANCH  42  59
ENDBRANCH  16  17
ENDBRANCH   9  11
ENDBRANCH   8   9
ENDBRANCH   7   8
ENDBRANCH   6   7
ENDBRANCH   5   6
ENDBRANCH   4   5
ENDBRANCH   3   4
ENDBRANCH   2   3
ENDBRANCH   1   2
BRANCH   1  67
ATOM     67  C   UNL A   1      34.941  24.292  24.231  1.00  0.00     0.188 C 
BRANCH  67  68
ATOM     68  O   UNL A   1      35.883  23.369  24.723  1.00  0.00    -0.376 OA
BRANCH  68  69
ATOM     69  C   UNL A   1      36.591  23.654  25.914  1.00  0.00     0.202 C 
BRANCH  69  70
ATOM     70  C   UNL A   1      38.130  23.637  26.093  1.00  0.00     0.261 C 
BRANCH  70  71
ATOM     71  O   UNL A   1      38.835  22.395  26.230  1.00  0.00    -0.460 OA
BRANCH  71  72
ATOM     72  C   UNL A   1      39.942  22.349  27.015  1.00  0.00     0.341 C 
ATOM     73  O   UNL A   1      40.218  23.100  27.939  1.00  0.00    -0.246 OA
BRANCH  72  74
ATOM     74  C   UNL A   1      40.718  21.133  26.678  1.00  0.00     0.102 A 
ATOM     75  C   UNL A   1      40.032  20.066  26.084  1.00  0.00     0.021 A 
ATOM     76  C   UNL A   1      42.083  20.984  27.006  1.00  0.00     0.144 A 
ATOM     77  C   UNL A   1      40.716  18.894  25.793  1.00  0.00     0.021 A 
ATOM     78  N   UNL A   1      42.737  19.831  26.714  1.00  0.00    -0.238 NA
ATOM     79  C   UNL A   1      42.059  18.831  26.112  1.00  0.00     0.113 A 
BRANCH  76  80
ATOM     80  N   UNL A   1      42.771  21.934  27.794  1.00  0.00    -0.340 N 
ATOM     81  H   UNL A   1      42.395  22.128  28.682  1.00  0.00     0.168 HD
BRANCH  80  82
ATOM     82  C   UNL A   1      43.944  22.634  27.435  1.00  0.00     0.040 A 
ATOM     83  C   UNL A   1      44.520  23.576  28.293  1.00  0.00     0.026 A 
ATOM     84  C   UNL A   1      44.499  22.468  26.165  1.00  0.00     0.039 A 
ATOM     85  C   UNL A   1      45.587  24.382  27.877  1.00  0.00     0.003 A 
ATOM     86  C   UNL A   1      45.594  23.242  25.741  1.00  0.00     0.058 A 
ATOM     87  C   UNL A   1      46.113  24.226  26.597  1.00  0.00     0.013 A 
BRANCH  86  88
ATOM     88  C   UNL A   1      46.209  23.024  24.384  1.00  0.00     0.416 C 
ATOM     89  F   UNL A   1      46.908  21.858  24.310  1.00  0.00    -0.166 F 
ATOM     90  F   UNL A   1      45.276  22.964  23.392  1.00  0.00    -0.166 F 
ATOM     91  F   UNL A   1      47.080  24.006  24.016  1.00  0.00    -0.166 F 
ENDBRANCH  86  88
ENDBRANCH  80  82
ENDBRANCH  76  80
ENDBRANCH  72  74
ENDBRANCH  71  72
ENDBRANCH  70  71
ENDBRANCH  69  70
ENDBRANCH  68  69
ENDBRANCH  67  68
ENDBRANCH   1  67
TORSDOF 23
ENDMDL
MODEL 3
REMARK VINA RESULT:      -9.3      5.254     11.142
REMARK SMILES O=C(OCCOCCOCCOCCOC(=O)c1cccnc1Nc1cccc(C(F)(F)F)c1)c1ccc(-c2c3nc(c(-c4c(F)cccc4F)c4ccc([nH]4)c(-c4c(F)cccc4F)c4nc(c(-c5c(F)cccc5F)c5ccc2[nH]5)C=C4)C=C3)cc1
REMARK SMILES IDX 10 1 9 2 8 3 7 4 6 5 5 6 4 7 3 8 2 9 1 10 35 11 36 12 88 13
REMARK SMILES IDX 37 14 87 15 38 16 39 17 40 18 81 19 41 20 86 21 80 22 82 23
REMARK SMILES IDX 42 24 85 25 79 26 78 27 43 29 69 30 52 31 68 32 53 33 56 34
REMARK SMILES IDX 67 35 83 36 54 37 55 38 66 40 84 41 57 42 44 43 45 44 50 45
REMARK SMILES IDX 46 46 47 47 49 48 51 49 48 50 70 51 71 52 76 53 72 54 73 55
REMARK SMILES IDX 75 56 77 57 74 58 58 59 59 60 64 61 60 62 61 63 63 64 65 65
REMARK SMILES IDX 62 66 11 67 12 68 13 69 14 70 15 71 16 72 17 73 18 74 19 75
REMARK SMILES IDX 23 76 20 77 22 78 21 79 24 80 25 82 26 83 34 84 27 85 29 86
REMARK SMILES IDX 28 87 30 88 31 89 32 90 33 91
REMARK H PARENT 82 28 56 39 24 81
REMARK Flexibility Score: inf
ROOT
ATOM      1  C   UNL A   1      37.011  23.597  25.094  1.00  0.00     0.188 C 
ENDROOT
BRANCH   1   2
ATOM      2  O   UNL A   1      38.009  23.892  26.060  1.00  0.00    -0.377 OA
BRANCH   2   3
ATOM      3  C   UNL A   1      38.798  22.793  26.503  1.00  0.00     0.188 C 
BRANCH   3   4
ATOM      4  C   UNL A   1      40.169  23.144  27.077  1.00  0.00     0.188 C 
BRANCH   4   5
ATOM      5  O   UNL A   1      41.103  22.132  26.732  1.00  0.00    -0.376 OA
BRANCH   5   6
ATOM      6  C   UNL A   1      40.834  20.786  27.106  1.00  0.00     0.202 C 
BRANCH   6   7
ATOM      7  C   UNL A   1      41.267  19.709  26.127  1.00  0.00     0.261 C 
BRANCH   7   8
ATOM      8  O   UNL A   1      42.683  19.513  26.016  1.00  0.00    -0.460 OA
BRANCH   8   9
ATOM      9  C   UNL A   1      43.600  20.072  25.196  1.00  0.00     0.338 C 
ATOM     10  O   UNL A   1      43.927  19.454  24.184  1.00  0.00    -0.246 OA
BRANCH   9  11
ATOM     11  C   UNL A   1      44.210  21.414  25.403  1.00  0.00     0.060 A 
ATOM     12  C   UNL A   1      45.183  21.729  26.345  1.00  0.00     0.016 A 
ATOM     13  C   UNL A   1      43.823  22.425  24.510  1.00  0.00     0.016 A 
ATOM     14  C   UNL A   1      45.654  23.009  26.521  1.00  0.00     0.010 A 
ATOM     15  C   UNL A   1      44.340  23.716  24.627  1.00  0.00     0.010 A 
ATOM     16  C   UNL A   1      45.215  24.011  25.677  1.00  0.00    -0.014 A 
BRANCH  16  17
ATOM     17  C   UNL A   1      45.500  25.379  26.113  1.00  0.00     0.031 A 
ATOM     18  C   UNL A   1      44.389  26.103  26.803  1.00  0.00     0.074 A 
ATOM     19  C   UNL A   1      46.761  25.839  26.088  1.00  0.00     0.049 A 
ATOM     20  N   UNL A   1      44.325  27.341  27.197  1.00  0.00    -0.248 NA
ATOM     21  C   UNL A   1      43.175  25.313  27.096  1.00  0.00     0.031 C 
ATOM     22  C   UNL A   1      47.934  25.078  25.642  1.00  0.00     0.029 A 
ATOM     23  N   UNL A   1      47.274  27.035  26.492  1.00  0.00    -0.354 N 
ATOM     24  C   UNL A   1      43.045  27.496  27.712  1.00  0.00     0.074 A 
ATOM     25  C   UNL A   1      42.365  26.230  27.594  1.00  0.00     0.031 C 
ATOM     26  C   UNL A   1      49.035  25.825  25.821  1.00  0.00     0.029 A 
ATOM     27  C   UNL A   1      48.628  27.141  26.292  1.00  0.00     0.049 A 
ATOM     28  H   UNL A   1      46.728  27.752  26.890  1.00  0.00     0.167 HD
ATOM     29  C   UNL A   1      42.494  28.622  28.215  1.00  0.00     0.037 A 
ATOM     30  C   UNL A   1      49.421  28.216  26.425  1.00  0.00     0.037 A 
ATOM     31  C   UNL A   1      43.235  29.848  28.320  1.00  0.00     0.049 A 
ATOM     32  C   UNL A   1      48.760  29.493  26.866  1.00  0.00     0.074 A 
ATOM     33  C   UNL A   1      42.807  31.093  28.729  1.00  0.00     0.029 A 
ATOM     34  N   UNL A   1      44.586  29.964  28.005  1.00  0.00    -0.354 N 
ATOM     35  N   UNL A   1      47.513  29.696  27.227  1.00  0.00    -0.248 NA
ATOM     36  C   UNL A   1      49.602  30.691  26.897  1.00  0.00     0.031 C 
ATOM     37  C   UNL A   1      43.887  31.975  28.606  1.00  0.00     0.029 A 
ATOM     38  C   UNL A   1      45.007  31.266  28.190  1.00  0.00     0.049 A 
ATOM     39  H   UNL A   1      45.159  29.225  27.697  1.00  0.00     0.167 HD
ATOM     40  C   UNL A   1      47.422  31.038  27.559  1.00  0.00     0.074 A 
ATOM     41  C   UNL A   1      48.749  31.595  27.361  1.00  0.00     0.031 C 
ATOM     42  C   UNL A   1      46.351  31.752  27.990  1.00  0.00     0.037 A 
BRANCH  29  43
ATOM     43  C   UNL A   1      41.030  28.571  28.537  1.00  0.00     0.057 A 
ATOM     44  C   UNL A   1      40.036  28.951  27.623  1.00  0.00     0.134 A 
ATOM     45  C   UNL A   1      40.617  28.237  29.833  1.00  0.00     0.134 A 
ATOM     46  F   UNL A   1      40.363  29.327  26.379  1.00  0.00    -0.206 F 
ATOM     47  C   UNL A   1      38.693  29.042  28.002  1.00  0.00     0.040 A 
ATOM     48  C   UNL A   1      39.275  28.294  30.213  1.00  0.00     0.040 A 
ATOM     49  F   UNL A   1      41.515  27.882  30.764  1.00  0.00    -0.206 F 
ATOM     50  C   UNL A   1      38.310  28.711  29.300  1.00  0.00     0.006 A 
ENDBRANCH  29  43
BRANCH  30  51
ATOM     51  C   UNL A   1      50.863  28.142  26.085  1.00  0.00     0.057 A 
ATOM     52  C   UNL A   1      51.303  28.201  24.758  1.00  0.00     0.134 A 
ATOM     53  C   UNL A   1      51.846  28.011  27.078  1.00  0.00     0.134 A 
ATOM     54  F   UNL A   1      50.416  28.315  23.759  1.00  0.00    -0.206 F 
ATOM     55  C   UNL A   1      52.658  28.118  24.429  1.00  0.00     0.040 A 
ATOM     56  C   UNL A   1      53.206  27.955  26.766  1.00  0.00     0.040 A 
ATOM     57  F   UNL A   1      51.500  27.952  28.372  1.00  0.00    -0.206 F 
ATOM     58  C   UNL A   1      53.615  28.000  25.436  1.00  0.00     0.006 A 
ENDBRANCH  30  51
BRANCH  42  59
ATOM     59  C   UNL A   1      46.605  33.186  28.337  1.00  0.00     0.057 A 
ATOM     60  C   UNL A   1      47.022  33.582  29.612  1.00  0.00     0.134 A 
ATOM     61  C   UNL A   1      46.473  34.174  27.352  1.00  0.00     0.134 A 
ATOM     62  F   UNL A   1      47.153  32.680  30.597  1.00  0.00    -0.206 F 
ATOM     63  C   UNL A   1      47.276  34.921  29.904  1.00  0.00     0.040 A 
ATOM     64  C   UNL A   1      46.758  35.510  27.625  1.00  0.00     0.040 A 
ATOM     65  F   UNL A   1      46.089  33.852  26.109  1.00  0.00    -0.206 F 
ATOM     66  C   UNL A   1      47.154  35.887  28.906  1.00  0.00     0.006 A 
ENDBRANCH  42  59
ENDBRANCH  16  17
ENDBRANCH   9  11
ENDBRANCH   8   9
ENDBRANCH   7   8
ENDBRANCH   6   7
ENDBRANCH   5   6
ENDBRANCH   4   5
ENDBRANCH   3   4
ENDBRANCH   2   3
ENDBRANCH   1   2
BRANCH   1  67
ATOM     67  C   UNL A   1      35.556  24.055  25.360  1.00  0.00     0.188 C 
BRANCH  67  68
ATOM     68  O   UNL A   1      34.912  24.815  24.367  1.00  0.00    -0.376 OA
BRANCH  68  69
ATOM     69  C   UNL A   1      33.955  25.790  24.735  1.00  0.00     0.202 C 
BRANCH  69  70
ATOM     70  C   UNL A   1      33.888  26.546  26.086  1.00  0.00     0.261 C 
BRANCH  70  71
ATOM     71  O   UNL A   1      33.070  27.717  26.225  1.00  0.00    -0.460 OA
BRANCH  71  72
ATOM     72  C   UNL A   1      31.737  27.568  26.434  1.00  0.00     0.341 C 
ATOM     73  O   UNL A   1      31.171  27.451  27.511  1.00  0.00    -0.246 OA
BRANCH  72  74
ATOM     74  C   UNL A   1      31.029  27.724  25.142  1.00  0.00     0.102 A 
ATOM     75  C   UNL A   1      31.150  28.951  24.476  1.00  0.00     0.021 A 
ATOM     76  C   UNL A   1      30.186  26.725  24.609  1.00  0.00     0.144 A 
ATOM     77  C   UNL A   1      30.467  29.149  23.285  1.00  0.00     0.021 A 
ATOM     78  N   UNL A   1      29.525  26.935  23.442  1.00  0.00    -0.238 NA
ATOM     79  C   UNL A   1      29.686  28.115  22.806  1.00  0.00     0.113 A 
BRANCH  76  80
ATOM     80  N   UNL A   1      29.856  25.559  25.336  1.00  0.00    -0.340 N 
ATOM     81  H   UNL A   1      28.985  25.555  25.795  1.00  0.00     0.168 HD
BRANCH  80  82
ATOM     82  C   UNL A   1      30.649  24.399  25.470  1.00  0.00     0.040 A 
ATOM     83  C   UNL A   1      31.079  23.952  26.723  1.00  0.00     0.026 A 
ATOM     84  C   UNL A   1      31.105  23.725  24.335  1.00  0.00     0.039 A 
ATOM     85  C   UNL A   1      31.992  22.897  26.846  1.00  0.00     0.003 A 
ATOM     86  C   UNL A   1      31.994  22.641  24.438  1.00  0.00     0.058 A 
ATOM     87  C   UNL A   1      32.461  22.253  25.704  1.00  0.00     0.013 A 
BRANCH  86  88
ATOM     88  C   UNL A   1      32.446  21.898  23.208  1.00  0.00     0.416 C 
ATOM     89  F   UNL A   1      31.403  21.482  22.439  1.00  0.00    -0.166 F 
ATOM     90  F   UNL A   1      33.228  22.662  22.396  1.00  0.00    -0.166 F 
ATOM     91  F   UNL A   1      33.176  20.780  23.484  1.00  0.00    -0.166 F 
ENDBRANCH  86  88
ENDBRANCH  80  82
ENDBRANCH  76  80
ENDBRANCH  72  74
ENDBRANCH  71  72
ENDBRANCH  70  71
ENDBRANCH  69  70
ENDBRANCH  68  69
ENDBRANCH  67  68
ENDBRANCH   1  67
TORSDOF 23
ENDMDL
