MODEL 1
REMARK VINA RESULT:      -9.9      0.000      0.000
REMARK SMILES O=C(OCCOCCOCCOCCOC(=O)c1ccccc1Nc1nc2ccc([N+](=O)[O-])cc2s1)c1ccc(-c2c3nc(c(-c4c(F)cccc4F)c4ccc([nH]4)c(-c4c(F)cccc4F)c4nc(c(-c5c(F)cccc5F)c5ccc2[nH]5)C=C4)C=C3)cc1
REMARK SMILES IDX 10 1 9 2 8 3 7 4 6 5 5 6 4 7 3 8 2 9 1 10 37 11 38 12 90 13
REMARK SMILES IDX 39 14 89 15 40 16 41 17 42 18 83 19 43 20 88 21 82 22 84 23
REMARK SMILES IDX 44 24 87 25 81 26 80 27 45 29 71 30 54 31 70 32 55 33 58 34
REMARK SMILES IDX 69 35 85 36 56 37 57 38 68 40 86 41 59 42 46 43 47 44 52 45
REMARK SMILES IDX 48 46 49 47 51 48 53 49 50 50 72 51 73 52 78 53 74 54 75 55
REMARK SMILES IDX 77 56 79 57 76 58 60 59 61 60 66 61 62 62 63 63 65 64 67 65
REMARK SMILES IDX 64 66 11 67 12 68 13 69 14 70 15 71 16 72 17 73 18 74 19 75
REMARK SMILES IDX 23 76 20 77 22 78 21 79 24 80 25 82 26 83 36 84 27 85 35 86
REMARK SMILES IDX 28 87 34 88 29 89 30 90 31 91 32 92 33 93
REMARK H PARENT 84 28 58 39 24 81
REMARK Flexibility Score: inf
ROOT
ATOM      1  C   UNL A   1      33.822  23.446  22.876  1.00  0.00     0.188 C 
ENDROOT
BRANCH   1   2
ATOM      2  O   UNL A   1      34.425  24.456  23.679  1.00  0.00    -0.377 OA
BRANCH   2   3
ATOM      3  C   UNL A   1      35.325  24.022  24.697  1.00  0.00     0.188 C 
BRANCH   3   4
ATOM      4  C   UNL A   1      35.934  22.635  24.487  1.00  0.00     0.188 C 
BRANCH   4   5
ATOM      5  O   UNL A   1      37.363  22.700  24.540  1.00  0.00    -0.376 OA
BRANCH   5   6
ATOM      6  C   UNL A   1      37.902  23.089  25.802  1.00  0.00     0.202 C 
BRANCH   6   7
ATOM      7  C   UNL A   1      39.218  22.391  26.150  1.00  0.00     0.261 C 
BRANCH   7   8
ATOM      8  O   UNL A   1      39.957  23.106  27.150  1.00  0.00    -0.460 OA
BRANCH   8   9
ATOM      9  C   UNL A   1      40.621  24.280  27.011  1.00  0.00     0.338 C 
ATOM     10  O   UNL A   1      41.296  24.446  25.995  1.00  0.00    -0.246 OA
BRANCH   9  11
ATOM     11  C   UNL A   1      40.578  25.405  28.005  1.00  0.00     0.060 A 
ATOM     12  C   UNL A   1      41.614  26.302  28.272  1.00  0.00     0.016 A 
ATOM     13  C   UNL A   1      39.354  25.610  28.667  1.00  0.00     0.016 A 
ATOM     14  C   UNL A   1      41.468  27.339  29.186  1.00  0.00     0.010 A 
ATOM     15  C   UNL A   1      39.188  26.663  29.574  1.00  0.00     0.010 A 
ATOM     16  C   UNL A   1      40.258  27.520  29.845  1.00  0.00    -0.014 A 
BRANCH  16  17
ATOM     17  C   UNL A   1      40.192  28.537  30.908  1.00  0.00     0.031 A 
ATOM     18  C   UNL A   1      39.182  29.632  30.772  1.00  0.00     0.074 A 
ATOM     19  C   UNL A   1      40.941  28.399  32.018  1.00  0.00     0.049 A 
ATOM     20  N   UNL A   1      38.977  30.669  31.536  1.00  0.00    -0.248 NA
ATOM     21  C   UNL A   1      38.263  29.535  29.623  1.00  0.00     0.031 C 
ATOM     22  C   UNL A   1      41.856  27.286  32.286  1.00  0.00     0.029 A 
ATOM     23  N   UNL A   1      41.039  29.188  33.132  1.00  0.00    -0.354 N 
ATOM     24  C   UNL A   1      37.929  31.364  30.945  1.00  0.00     0.074 A 
ATOM     25  C   UNL A   1      37.532  30.629  29.767  1.00  0.00     0.031 C 
ATOM     26  C   UNL A   1      42.423  27.467  33.490  1.00  0.00     0.029 A 
ATOM     27  C   UNL A   1      41.961  28.736  34.044  1.00  0.00     0.049 A 
ATOM     28  H   UNL A   1      40.500  30.001  33.266  1.00  0.00     0.167 HD
ATOM     29  C   UNL A   1      37.366  32.522  31.354  1.00  0.00     0.037 A 
ATOM     30  C   UNL A   1      42.407  29.317  35.173  1.00  0.00     0.037 A 
ATOM     31  C   UNL A   1      37.783  33.227  32.534  1.00  0.00     0.049 A 
ATOM     32  C   UNL A   1      41.834  30.659  35.548  1.00  0.00     0.074 A 
ATOM     33  C   UNL A   1      37.323  34.431  33.032  1.00  0.00     0.029 A 
ATOM     34  N   UNL A   1      38.769  32.778  33.402  1.00  0.00    -0.354 N 
ATOM     35  N   UNL A   1      40.878  31.342  34.963  1.00  0.00    -0.248 NA
ATOM     36  C   UNL A   1      42.414  31.324  36.722  1.00  0.00     0.031 C 
ATOM     37  C   UNL A   1      38.067  34.733  34.178  1.00  0.00     0.029 A 
ATOM     38  C   UNL A   1      38.956  33.696  34.418  1.00  0.00     0.049 A 
ATOM     39  H   UNL A   1      39.263  31.932  33.307  1.00  0.00     0.167 HD
ATOM     40  C   UNL A   1      40.736  32.511  35.698  1.00  0.00     0.074 A 
ATOM     41  C   UNL A   1      41.685  32.429  36.791  1.00  0.00     0.031 C 
ATOM     42  C   UNL A   1      39.911  33.565  35.489  1.00  0.00     0.037 A 
BRANCH  29  43
ATOM     43  C   UNL A   1      36.309  33.121  30.477  1.00  0.00     0.057 A 
ATOM     44  C   UNL A   1      34.942  32.934  30.719  1.00  0.00     0.134 A 
ATOM     45  C   UNL A   1      36.672  33.888  29.364  1.00  0.00     0.134 A 
ATOM     46  F   UNL A   1      34.529  32.184  31.751  1.00  0.00    -0.206 F 
ATOM     47  C   UNL A   1      33.973  33.482  29.874  1.00  0.00     0.040 A 
ATOM     48  C   UNL A   1      35.712  34.456  28.524  1.00  0.00     0.040 A 
ATOM     49  F   UNL A   1      37.965  34.095  29.072  1.00  0.00    -0.206 F 
ATOM     50  C   UNL A   1      34.358  34.249  28.777  1.00  0.00     0.006 A 
ENDBRANCH  29  43
BRANCH  30  51
ATOM     51  C   UNL A   1      43.496  28.696  35.974  1.00  0.00     0.057 A 
ATOM     52  C   UNL A   1      43.246  27.643  36.862  1.00  0.00     0.134 A 
ATOM     53  C   UNL A   1      44.811  29.176  35.910  1.00  0.00     0.134 A 
ATOM     54  F   UNL A   1      42.006  27.150  36.993  1.00  0.00    -0.206 F 
ATOM     55  C   UNL A   1      44.255  27.109  37.670  1.00  0.00     0.040 A 
ATOM     56  C   UNL A   1      45.835  28.633  36.688  1.00  0.00     0.040 A 
ATOM     57  F   UNL A   1      45.124  30.187  35.085  1.00  0.00    -0.206 F 
ATOM     58  C   UNL A   1      45.555  27.603  37.582  1.00  0.00     0.006 A 
ENDBRANCH  30  51
BRANCH  42  59
ATOM     59  C   UNL A   1      39.995  34.693  36.469  1.00  0.00     0.057 A 
ATOM     60  C   UNL A   1      39.220  34.710  37.635  1.00  0.00     0.134 A 
ATOM     61  C   UNL A   1      40.900  35.743  36.271  1.00  0.00     0.134 A 
ATOM     62  F   UNL A   1      38.327  33.738  37.871  1.00  0.00    -0.206 F 
ATOM     63  C   UNL A   1      39.332  35.743  38.565  1.00  0.00     0.040 A 
ATOM     64  C   UNL A   1      41.039  36.767  37.206  1.00  0.00     0.040 A 
ATOM     65  F   UNL A   1      41.677  35.777  35.177  1.00  0.00    -0.206 F 
ATOM     66  C   UNL A   1      40.250  36.771  38.354  1.00  0.00     0.006 A 
ENDBRANCH  42  59
ENDBRANCH  16  17
ENDBRANCH   9  11
ENDBRANCH   8   9
ENDBRANCH   7   8
ENDBRANCH   6   7
ENDBRANCH   5   6
ENDBRANCH   4   5
ENDBRANCH   3   4
ENDBRANCH   2   3
ENDBRANCH   1   2
BRANCH   1  67
ATOM     67  C   UNL A   1      33.233  23.840  21.505  1.00  0.00     0.188 C 
BRANCH  67  68
ATOM     68  O   UNL A   1      33.399  25.206  21.141  1.00  0.00    -0.376 OA
BRANCH  68  69
ATOM     69  C   UNL A   1      32.192  25.939  20.946  1.00  0.00     0.202 C 
BRANCH  69  70
ATOM     70  C   UNL A   1      31.454  26.290  22.244  1.00  0.00     0.261 C 
BRANCH  70  71
ATOM     71  O   UNL A   1      31.870  27.523  22.859  1.00  0.00    -0.460 OA
BRANCH  71  72
ATOM     72  C   UNL A   1      31.065  28.076  23.795  1.00  0.00     0.340 C 
ATOM     73  O   UNL A   1      29.856  28.214  23.723  1.00  0.00    -0.246 OA
BRANCH  72  74
ATOM     74  C   UNL A   1      31.873  28.270  25.026  1.00  0.00     0.083 A 
ATOM     75  C   UNL A   1      32.829  29.305  24.978  1.00  0.00     0.018 A 
ATOM     76  C   UNL A   1      31.626  27.561  26.224  1.00  0.00     0.055 A 
ATOM     77  C   UNL A   1      33.533  29.670  26.121  1.00  0.00     0.001 A 
ATOM     78  C   UNL A   1      32.378  27.942  27.351  1.00  0.00     0.027 A 
ATOM     79  C   UNL A   1      33.307  28.986  27.307  1.00  0.00     0.002 A 
BRANCH  76  80
ATOM     80  N   UNL A   1      30.717  26.476  26.252  1.00  0.00    -0.331 N 
ATOM     81  H   UNL A   1      29.762  26.700  26.169  1.00  0.00     0.169 HD
BRANCH  80  82
ATOM     82  C   UNL A   1      31.020  25.165  26.381  1.00  0.00     0.188 A 
ATOM     83  N   UNL A   1      31.829  24.638  27.267  1.00  0.00    -0.220 NA
ATOM     84  S   UNL A   1      30.377  24.024  25.253  1.00  0.00    -0.096 S 
ATOM     85  C   UNL A   1      32.169  23.356  26.919  1.00  0.00     0.084 A 
ATOM     86  C   UNL A   1      31.525  22.855  25.790  1.00  0.00     0.063 A 
ATOM     87  C   UNL A   1      33.138  22.572  27.574  1.00  0.00     0.037 A 
ATOM     88  C   UNL A   1      31.848  21.602  25.246  1.00  0.00     0.107 A 
ATOM     89  C   UNL A   1      33.501  21.337  27.036  1.00  0.00     0.088 A 
ATOM     90  C   UNL A   1      32.875  20.874  25.874  1.00  0.00     0.270 A 
BRANCH  90  91
ATOM     91  N   UNL A   1      33.327  19.611  25.273  1.00  0.00     0.062 N 
ATOM     92  O   UNL A   1      32.573  18.631  25.357  1.00  0.00    -0.258 OA
ATOM     93  O   UNL A   1      34.441  19.598  24.732  1.00  0.00    -0.258 OA
ENDBRANCH  90  91
ENDBRANCH  80  82
ENDBRANCH  76  80
ENDBRANCH  72  74
ENDBRANCH  71  72
ENDBRANCH  70  71
ENDBRANCH  69  70
ENDBRANCH  68  69
ENDBRANCH  67  68
ENDBRANCH   1  67
TORSDOF 23
ENDMDL
MODEL 2
REMARK VINA RESULT:      -9.8      6.236     10.692
REMARK SMILES O=C(OCCOCCOCCOCCOC(=O)c1ccccc1Nc1nc2ccc([N+](=O)[O-])cc2s1)c1ccc(-c2c3nc(c(-c4c(F)cccc4F)c4ccc([nH]4)c(-c4c(F)cccc4F)c4nc(c(-c5c(F)cccc5F)c5ccc2[nH]5)C=C4)C=C3)cc1
REMARK SMILES IDX 10 1 9 2 8 3 7 4 6 5 5 6 4 7 3 8 2 9 1 10 37 11 38 12 90 13
REMARK SMILES IDX 39 14 89 15 40 16 41 17 42 18 83 19 43 20 88 21 82 22 84 23
REMARK SMILES IDX 44 24 87 25 81 26 80 27 45 29 71 30 54 31 70 32 55 33 58 34
REMARK SMILES IDX 69 35 85 36 56 37 57 38 68 40 86 41 59 42 46 43 47 44 52 45
REMARK SMILES IDX 48 46 49 47 51 48 53 49 50 50 72 51 73 52 78 53 74 54 75 55
REMARK SMILES IDX 77 56 79 57 76 58 60 59 61 60 66 61 62 62 63 63 65 64 67 65
REMARK SMILES IDX 64 66 11 67 12 68 13 69 14 70 15 71 16 72 17 73 18 74 19 75
REMARK SMILES IDX 23 76 20 77 22 78 21 79 24 80 25 82 26 83 36 84 27 85 35 86
REMARK SMILES IDX 28 87 34 88 29 89 30 90 31 91 32 92 33 93
REMARK H PARENT 84 28 58 39 24 81
REMARK Flexibility Score: inf
ROOT
ATOM      1  C   UNL A   1      48.443  27.452  24.218  1.00  0.00     0.188 C 
ENDROOT
BRANCH   1   2
ATOM      2  O   UNL A   1      49.639  27.213  23.484  1.00  0.00    -0.377 OA
BRANCH   2   3
ATOM      3  C   UNL A   1      50.867  27.585  24.108  1.00  0.00     0.188 C 
BRANCH   3   4
ATOM      4  C   UNL A   1      52.127  26.975  23.493  1.00  0.00     0.188 C 
BRANCH   4   5
ATOM      5  O   UNL A   1      53.297  27.633  23.989  1.00  0.00    -0.376 OA
BRANCH   5   6
ATOM      6  C   UNL A   1      53.277  27.929  25.384  1.00  0.00     0.202 C 
BRANCH   6   7
ATOM      7  C   UNL A   1      54.138  26.987  26.226  1.00  0.00     0.261 C 
BRANCH   7   8
ATOM      8  O   UNL A   1      53.363  26.277  27.202  1.00  0.00    -0.460 OA
BRANCH   8   9
ATOM      9  C   UNL A   1      52.160  25.677  27.031  1.00  0.00     0.338 C 
ATOM     10  O   UNL A   1      52.107  24.686  26.302  1.00  0.00    -0.246 OA
BRANCH   9  11
ATOM     11  C   UNL A   1      50.884  26.125  27.683  1.00  0.00     0.060 A 
ATOM     12  C   UNL A   1      49.599  25.685  27.358  1.00  0.00     0.016 A 
ATOM     13  C   UNL A   1      51.012  27.011  28.768  1.00  0.00     0.016 A 
ATOM     14  C   UNL A   1      48.476  26.131  28.045  1.00  0.00     0.010 A 
ATOM     15  C   UNL A   1      49.891  27.451  29.481  1.00  0.00     0.010 A 
ATOM     16  C   UNL A   1      48.617  27.020  29.104  1.00  0.00    -0.014 A 
BRANCH  16  17
ATOM     17  C   UNL A   1      47.395  27.577  29.709  1.00  0.00     0.031 A 
ATOM     18  C   UNL A   1      46.821  26.880  30.902  1.00  0.00     0.074 A 
ATOM     19  C   UNL A   1      46.897  28.745  29.264  1.00  0.00     0.049 A 
ATOM     20  N   UNL A   1      45.727  27.138  31.565  1.00  0.00    -0.248 NA
ATOM     21  C   UNL A   1      47.596  25.745  31.433  1.00  0.00     0.031 C 
ATOM     22  C   UNL A   1      47.476  29.555  28.189  1.00  0.00     0.029 A 
ATOM     23  N   UNL A   1      45.803  29.461  29.670  1.00  0.00    -0.354 N 
ATOM     24  C   UNL A   1      45.666  26.180  32.569  1.00  0.00     0.074 A 
ATOM     25  C   UNL A   1      46.836  25.342  32.439  1.00  0.00     0.031 C 
ATOM     26  C   UNL A   1      46.728  30.658  28.021  1.00  0.00     0.029 A 
ATOM     27  C   UNL A   1      45.587  30.598  28.929  1.00  0.00     0.049 A 
ATOM     28  H   UNL A   1      45.227  29.187  30.420  1.00  0.00     0.167 HD
ATOM     29  C   UNL A   1      44.705  26.017  33.504  1.00  0.00     0.037 A 
ATOM     30  C   UNL A   1      44.552  31.458  28.960  1.00  0.00     0.037 A 
ATOM     31  C   UNL A   1      43.555  26.872  33.608  1.00  0.00     0.049 A 
ATOM     32  C   UNL A   1      43.444  31.191  29.944  1.00  0.00     0.074 A 
ATOM     33  C   UNL A   1      42.488  26.786  34.483  1.00  0.00     0.029 A 
ATOM     34  N   UNL A   1      43.329  27.975  32.797  1.00  0.00    -0.354 N 
ATOM     35  N   UNL A   1      43.360  30.255  30.863  1.00  0.00    -0.248 NA
ATOM     36  C   UNL A   1      42.274  32.078  29.885  1.00  0.00     0.031 C 
ATOM     37  C   UNL A   1      41.592  27.813  34.168  1.00  0.00     0.029 A 
ATOM     38  C   UNL A   1      42.123  28.564  33.129  1.00  0.00     0.049 A 
ATOM     39  H   UNL A   1      43.936  28.292  32.090  1.00  0.00     0.167 HD
ATOM     40  C   UNL A   1      42.139  30.444  31.493  1.00  0.00     0.074 A 
ATOM     41  C   UNL A   1      41.528  31.604  30.872  1.00  0.00     0.031 C 
ATOM     42  C   UNL A   1      41.561  29.724  32.484  1.00  0.00     0.037 A 
BRANCH  29  43
ATOM     43  C   UNL A   1      44.827  24.837  34.418  1.00  0.00     0.057 A 
ATOM     44  C   UNL A   1      44.416  23.552  34.040  1.00  0.00     0.134 A 
ATOM     45  C   UNL A   1      45.357  24.996  35.704  1.00  0.00     0.134 A 
ATOM     46  F   UNL A   1      43.871  23.338  32.833  1.00  0.00    -0.206 F 
ATOM     47  C   UNL A   1      44.517  22.469  34.918  1.00  0.00     0.040 A 
ATOM     48  C   UNL A   1      45.480  23.918  36.582  1.00  0.00     0.040 A 
ATOM     49  F   UNL A   1      45.758  26.203  36.129  1.00  0.00    -0.206 F 
ATOM     50  C   UNL A   1      45.055  22.650  36.190  1.00  0.00     0.006 A 
ENDBRANCH  29  43
BRANCH  30  51
ATOM     51  C   UNL A   1      44.464  32.584  27.991  1.00  0.00     0.057 A 
ATOM     52  C   UNL A   1      44.034  32.388  26.674  1.00  0.00     0.134 A 
ATOM     53  C   UNL A   1      44.860  33.880  28.346  1.00  0.00     0.134 A 
ATOM     54  F   UNL A   1      43.664  31.168  26.259  1.00  0.00    -0.206 F 
ATOM     55  C   UNL A   1      44.023  33.430  25.742  1.00  0.00     0.040 A 
ATOM     56  C   UNL A   1      44.826  34.938  27.435  1.00  0.00     0.040 A 
ATOM     57  F   UNL A   1      45.289  34.142  29.590  1.00  0.00    -0.206 F 
ATOM     58  C   UNL A   1      44.419  34.711  26.124  1.00  0.00     0.006 A 
ENDBRANCH  30  51
BRANCH  42  59
ATOM     59  C   UNL A   1      40.217  30.183  32.957  1.00  0.00     0.057 A 
ATOM     60  C   UNL A   1      39.040  29.538  32.557  1.00  0.00     0.134 A 
ATOM     61  C   UNL A   1      40.105  31.243  33.864  1.00  0.00     0.134 A 
ATOM     62  F   UNL A   1      39.086  28.525  31.679  1.00  0.00    -0.206 F 
ATOM     63  C   UNL A   1      37.794  29.944  33.032  1.00  0.00     0.040 A 
ATOM     64  C   UNL A   1      38.867  31.641  34.366  1.00  0.00     0.040 A 
ATOM     65  F   UNL A   1      41.198  31.894  34.292  1.00  0.00    -0.206 F 
ATOM     66  C   UNL A   1      37.707  30.993  33.946  1.00  0.00     0.006 A 
ENDBRANCH  42  59
ENDBRANCH  16  17
ENDBRANCH   9  11
ENDBRANCH   8   9
ENDBRANCH   7   8
ENDBRANCH   6   7
ENDBRANCH   5   6
ENDBRANCH   4   5
ENDBRANCH   3   4
ENDBRANCH   2   3
ENDBRANCH   1   2
BRANCH   1  67
ATOM     67  C   UNL A   1      47.169  27.863  23.448  1.00  0.00     0.188 C 
BRANCH  67  68
ATOM     68  O   UNL A   1      46.037  28.157  24.258  1.00  0.00    -0.376 OA
BRANCH  68  69
ATOM     69  C   UNL A   1      46.058  27.597  25.568  1.00  0.00     0.202 C 
BRANCH  69  70
ATOM     70  C   UNL A   1      44.798  27.887  26.395  1.00  0.00     0.261 C 
BRANCH  70  71
ATOM     71  O   UNL A   1      43.618  27.192  25.957  1.00  0.00    -0.460 OA
BRANCH  71  72
ATOM     72  C   UNL A   1      42.515  27.921  25.667  1.00  0.00     0.340 C 
ATOM     73  O   UNL A   1      42.288  28.512  24.625  1.00  0.00    -0.246 OA
BRANCH  72  74
ATOM     74  C   UNL A   1      41.523  27.685  26.748  1.00  0.00     0.083 A 
ATOM     75  C   UNL A   1      41.407  28.707  27.711  1.00  0.00     0.018 A 
ATOM     76  C   UNL A   1      40.648  26.574  26.754  1.00  0.00     0.055 A 
ATOM     77  C   UNL A   1      40.407  28.657  28.677  1.00  0.00     0.001 A 
ATOM     78  C   UNL A   1      39.668  26.547  27.763  1.00  0.00     0.027 A 
ATOM     79  C   UNL A   1      39.538  27.575  28.702  1.00  0.00     0.002 A 
BRANCH  76  80
ATOM     80  N   UNL A   1      40.812  25.515  25.829  1.00  0.00    -0.331 N 
ATOM     81  H   UNL A   1      40.377  25.625  24.953  1.00  0.00     0.169 HD
BRANCH  80  82
ATOM     82  C   UNL A   1      41.501  24.368  26.020  1.00  0.00     0.188 A 
ATOM     83  N   UNL A   1      42.762  24.162  25.729  1.00  0.00    -0.220 NA
ATOM     84  S   UNL A   1      40.686  22.972  26.630  1.00  0.00    -0.096 S 
ATOM     85  C   UNL A   1      43.054  22.822  25.735  1.00  0.00     0.084 A 
ATOM     86  C   UNL A   1      42.013  21.989  26.139  1.00  0.00     0.063 A 
ATOM     87  C   UNL A   1      44.274  22.260  25.314  1.00  0.00     0.037 A 
ATOM     88  C   UNL A   1      42.122  20.590  26.092  1.00  0.00     0.107 A 
ATOM     89  C   UNL A   1      44.398  20.872  25.228  1.00  0.00     0.088 A 
ATOM     90  C   UNL A   1      43.323  20.054  25.593  1.00  0.00     0.270 A 
BRANCH  90  91
ATOM     91  N   UNL A   1      43.440  18.600  25.417  1.00  0.00     0.062 N 
ATOM     92  O   UNL A   1      42.618  17.881  26.004  1.00  0.00    -0.258 OA
ATOM     93  O   UNL A   1      44.362  18.179  24.705  1.00  0.00    -0.258 OA
ENDBRANCH  90  91
ENDBRANCH  80  82
ENDBRANCH  76  80
ENDBRANCH  72  74
ENDBRANCH  71  72
ENDBRANCH  70  71
ENDBRANCH  69  70
ENDBRANCH  68  69
ENDBRANCH  67  68
ENDBRANCH   1  67
TORSDOF 23
ENDMDL
MODEL 3
REMARK VINA RESULT:      -9.5      3.564      8.648
REMARK SMILES O=C(OCCOCCOCCOCCOC(=O)c1ccccc1Nc1nc2ccc([N+](=O)[O-])cc2s1)c1ccc(-c2c3nc(c(-c4c(F)cccc4F)c4ccc([nH]4)c(-c4c(F)cccc4F)c4nc(c(-c5c(F)cccc5F)c5ccc2[nH]5)C=C4)C=C3)cc1
REMARK SMILES IDX 10 1 9 2 8 3 7 4 6 5 5 6 4 7 3 8 2 9 1 10 37 11 38 12 90 13
REMARK SMILES IDX 39 14 89 15 40 16 41 17 42 18 83 19 43 20 88 21 82 22 84 23
REMARK SMILES IDX 44 24 87 25 81 26 80 27 45 29 71 30 54 31 70 32 55 33 58 34
REMARK SMILES IDX 69 35 85 36 56 37 57 38 68 40 86 41 59 42 46 43 47 44 52 45
REMARK SMILES IDX 48 46 49 47 51 48 53 49 50 50 72 51 73 52 78 53 74 54 75 55
REMARK SMILES IDX 77 56 79 57 76 58 60 59 61 60 66 61 62 62 63 63 65 64 67 65
REMARK SMILES IDX 64 66 11 67 12 68 13 69 14 70 15 71 16 72 17 73 18 74 19 75
REMARK SMILES IDX 23 76 20 77 22 78 21 79 24 80 25 82 26 83 36 84 27 85 35 86
REMARK SMILES IDX 28 87 34 88 29 89 30 90 31 91 32 92 33 93
REMARK H PARENT 84 28 58 39 24 81
REMARK Flexibility Score: inf
ROOT
ATOM      1  C   UNL A   1      35.645  31.574  29.308  1.00  0.00     0.188 C 
ENDROOT
BRANCH   1   2
ATOM      2  O   UNL A   1      34.670  32.569  29.014  1.00  0.00    -0.377 OA
BRANCH   2   3
ATOM      3  C   UNL A   1      35.101  33.928  29.053  1.00  0.00     0.188 C 
BRANCH   3   4
ATOM      4  C   UNL A   1      34.451  34.852  28.023  1.00  0.00     0.188 C 
BRANCH   4   5
ATOM      5  O   UNL A   1      33.912  36.015  28.660  1.00  0.00    -0.376 OA
BRANCH   5   6
ATOM      6  C   UNL A   1      32.766  35.778  29.477  1.00  0.00     0.202 C 
BRANCH   6   7
ATOM      7  C   UNL A   1      32.770  36.570  30.786  1.00  0.00     0.261 C 
BRANCH   7   8
ATOM      8  O   UNL A   1      32.994  35.727  31.923  1.00  0.00    -0.460 OA
BRANCH   8   9
ATOM      9  C   UNL A   1      33.778  35.975  33.001  1.00  0.00     0.338 C 
ATOM     10  O   UNL A   1      33.408  36.837  33.799  1.00  0.00    -0.246 OA
BRANCH   9  11
ATOM     11  C   UNL A   1      35.063  35.260  33.302  1.00  0.00     0.060 A 
ATOM     12  C   UNL A   1      36.227  35.306  32.532  1.00  0.00     0.016 A 
ATOM     13  C   UNL A   1      35.113  34.542  34.511  1.00  0.00     0.016 A 
ATOM     14  C   UNL A   1      37.385  34.638  32.912  1.00  0.00     0.010 A 
ATOM     15  C   UNL A   1      36.278  33.882  34.916  1.00  0.00     0.010 A 
ATOM     16  C   UNL A   1      37.414  33.918  34.101  1.00  0.00    -0.014 A 
BRANCH  16  17
ATOM     17  C   UNL A   1      38.609  33.109  34.394  1.00  0.00     0.031 A 
ATOM     18  C   UNL A   1      38.984  32.034  33.424  1.00  0.00     0.074 A 
ATOM     19  C   UNL A   1      39.393  33.423  35.441  1.00  0.00     0.049 A 
ATOM     20  N   UNL A   1      39.946  31.155  33.493  1.00  0.00    -0.248 NA
ATOM     21  C   UNL A   1      38.173  31.947  32.196  1.00  0.00     0.031 C 
ATOM     22  C   UNL A   1      39.167  34.542  36.360  1.00  0.00     0.029 A 
ATOM     23  N   UNL A   1      40.545  32.843  35.898  1.00  0.00    -0.354 N 
ATOM     24  C   UNL A   1      39.837  30.393  32.337  1.00  0.00     0.074 A 
ATOM     25  C   UNL A   1      38.725  30.916  31.577  1.00  0.00     0.031 C 
ATOM     26  C   UNL A   1      40.152  34.564  37.273  1.00  0.00     0.029 A 
ATOM     27  C   UNL A   1      41.037  33.426  37.041  1.00  0.00     0.049 A 
ATOM     28  H   UNL A   1      40.980  32.081  35.451  1.00  0.00     0.167 HD
ATOM     29  C   UNL A   1      40.597  29.341  31.962  1.00  0.00     0.037 A 
ATOM     30  C   UNL A   1      42.060  33.044  37.828  1.00  0.00     0.037 A 
ATOM     31  C   UNL A   1      41.699  28.847  32.740  1.00  0.00     0.049 A 
ATOM     32  C   UNL A   1      42.824  31.806  37.437  1.00  0.00     0.074 A 
ATOM     33  C   UNL A   1      42.518  27.763  32.491  1.00  0.00     0.029 A 
ATOM     34  N   UNL A   1      42.128  29.418  33.930  1.00  0.00    -0.354 N 
ATOM     35  N   UNL A   1      42.690  31.054  36.369  1.00  0.00    -0.248 NA
ATOM     36  C   UNL A   1      43.863  31.346  38.368  1.00  0.00     0.031 C 
ATOM     37  C   UNL A   1      43.417  27.651  33.557  1.00  0.00     0.029 A 
ATOM     38  C   UNL A   1      43.185  28.691  34.446  1.00  0.00     0.049 A 
ATOM     39  H   UNL A   1      41.739  30.221  34.345  1.00  0.00     0.167 HD
ATOM     40  C   UNL A   1      43.628  30.040  36.495  1.00  0.00     0.074 A 
ATOM     41  C   UNL A   1      44.346  30.291  37.729  1.00  0.00     0.031 C 
ATOM     42  C   UNL A   1      43.872  28.986  35.677  1.00  0.00     0.037 A 
BRANCH  29  43
ATOM     43  C   UNL A   1      40.206  28.623  30.706  1.00  0.00     0.057 A 
ATOM     44  C   UNL A   1      40.775  28.925  29.463  1.00  0.00     0.134 A 
ATOM     45  C   UNL A   1      39.231  27.619  30.746  1.00  0.00     0.134 A 
ATOM     46  F   UNL A   1      41.692  29.898  29.352  1.00  0.00    -0.206 F 
ATOM     47  C   UNL A   1      40.379  28.260  28.300  1.00  0.00     0.040 A 
ATOM     48  C   UNL A   1      38.841  26.934  29.594  1.00  0.00     0.040 A 
ATOM     49  F   UNL A   1      38.639  27.290  31.904  1.00  0.00    -0.206 F 
ATOM     50  C   UNL A   1      39.412  27.258  28.365  1.00  0.00     0.006 A 
ENDBRANCH  29  43
BRANCH  30  51
ATOM     51  C   UNL A   1      42.366  33.770  39.090  1.00  0.00     0.057 A 
ATOM     52  C   UNL A   1      43.296  34.816  39.129  1.00  0.00     0.134 A 
ATOM     53  C   UNL A   1      41.771  33.401  40.304  1.00  0.00     0.134 A 
ATOM     54  F   UNL A   1      43.922  35.205  38.009  1.00  0.00    -0.206 F 
ATOM     55  C   UNL A   1      43.640  35.448  40.328  1.00  0.00     0.040 A 
ATOM     56  C   UNL A   1      42.081  34.043  41.504  1.00  0.00     0.040 A 
ATOM     57  F   UNL A   1      40.874  32.404  40.343  1.00  0.00    -0.206 F 
ATOM     58  C   UNL A   1      43.029  35.063  41.520  1.00  0.00     0.006 A 
ENDBRANCH  30  51
BRANCH  42  59
ATOM     59  C   UNL A   1      44.963  28.049  36.091  1.00  0.00     0.057 A 
ATOM     60  C   UNL A   1      44.702  26.928  36.889  1.00  0.00     0.134 A 
ATOM     61  C   UNL A   1      46.275  28.240  35.642  1.00  0.00     0.134 A 
ATOM     62  F   UNL A   1      43.466  26.702  37.359  1.00  0.00    -0.206 F 
ATOM     63  C   UNL A   1      45.714  26.036  37.239  1.00  0.00     0.040 A 
ATOM     64  C   UNL A   1      47.290  27.341  35.964  1.00  0.00     0.040 A 
ATOM     65  F   UNL A   1      46.585  29.291  34.868  1.00  0.00    -0.206 F 
ATOM     66  C   UNL A   1      47.011  26.237  36.768  1.00  0.00     0.006 A 
ENDBRANCH  42  59
ENDBRANCH  16  17
ENDBRANCH   9  11
ENDBRANCH   8   9
ENDBRANCH   7   8
ENDBRANCH   6   7
ENDBRANCH   5   6
ENDBRANCH   4   5
ENDBRANCH   3   4
ENDBRANCH   2   3
ENDBRANCH   1   2
BRANCH   1  67
ATOM     67  C   UNL A   1      36.054  30.584  28.195  1.00  0.00     0.188 C 
BRANCH  67  68
ATOM     68  O   UNL A   1      35.006  30.186  27.319  1.00  0.00    -0.376 OA
BRANCH  68  69
ATOM     69  C   UNL A   1      34.814  28.779  27.192  1.00  0.00     0.202 C 
BRANCH  69  70
ATOM     70  C   UNL A   1      33.529  28.385  26.453  1.00  0.00     0.261 C 
BRANCH  70  71
ATOM     71  O   UNL A   1      33.279  26.970  26.392  1.00  0.00    -0.460 OA
BRANCH  71  72
ATOM     72  C   UNL A   1      33.396  26.349  25.195  1.00  0.00     0.340 C 
ATOM     73  O   UNL A   1      34.175  26.636  24.302  1.00  0.00    -0.246 OA
BRANCH  72  74
ATOM     74  C   UNL A   1      32.577  25.111  25.248  1.00  0.00     0.083 A 
ATOM     75  C   UNL A   1      32.843  24.244  26.327  1.00  0.00     0.018 A 
ATOM     76  C   UNL A   1      31.507  24.862  24.358  1.00  0.00     0.055 A 
ATOM     77  C   UNL A   1      32.034  23.134  26.556  1.00  0.00     0.001 A 
ATOM     78  C   UNL A   1      30.731  23.716  24.608  1.00  0.00     0.027 A 
ATOM     79  C   UNL A   1      30.979  22.871  25.694  1.00  0.00     0.002 A 
BRANCH  76  80
ATOM     80  N   UNL A   1      31.288  25.695  23.235  1.00  0.00    -0.331 N 
ATOM     81  H   UNL A   1      31.638  25.372  22.373  1.00  0.00     0.169 HD
BRANCH  80  82
ATOM     82  C   UNL A   1      30.650  26.886  23.218  1.00  0.00     0.188 A 
ATOM     83  N   UNL A   1      29.394  27.100  23.524  1.00  0.00    -0.220 NA
ATOM     84  S   UNL A   1      31.488  28.297  22.676  1.00  0.00    -0.096 S 
ATOM     85  C   UNL A   1      28.986  28.335  23.089  1.00  0.00     0.084 A 
ATOM     86  C   UNL A   1      29.984  29.126  22.525  1.00  0.00     0.063 A 
ATOM     87  C   UNL A   1      27.660  28.804  23.123  1.00  0.00     0.037 A 
ATOM     88  C   UNL A   1      29.701  30.368  21.935  1.00  0.00     0.107 A 
ATOM     89  C   UNL A   1      27.346  30.021  22.516  1.00  0.00     0.088 A 
ATOM     90  C   UNL A   1      28.356  30.778  21.912  1.00  0.00     0.270 A 
BRANCH  90  91
ATOM     91  N   UNL A   1      27.997  32.015  21.204  1.00  0.00     0.062 N 
ATOM     92  O   UNL A   1      27.522  31.909  20.064  1.00  0.00    -0.258 OA
ATOM     93  O   UNL A   1      28.205  33.090  21.784  1.00  0.00    -0.258 OA
ENDBRANCH  90  91
ENDBRANCH  80  82
ENDBRANCH  76  80
ENDBRANCH  72  74
ENDBRANCH  71  72
ENDBRANCH  70  71
ENDBRANCH  69  70
ENDBRANCH  68  69
ENDBRANCH  67  68
ENDBRANCH   1  67
TORSDOF 23
ENDMDL
