MODEL 1
REMARK VINA RESULT:     -10.0      0.000      0.000
REMARK SMILES Cc1ccc([C@H](C)Nc2ccc(C(=O)OCCOCCOCCOCCOC(=O)c3ccc(-c4c5nc(c(-c6c(F)cccc6F)c6ccc([nH]6)c(-c6c(F)cccc6F)c6nc(c(-c7c(F)cccc7F)c7ccc4[nH]7)C=C6)C=C5)cc3)cc2Cl)cc1F
REMARK SMILES IDX 20 1 19 2 18 3 17 4 16 5 15 6 13 7 14 8 12 9 9 10 10 11
REMARK SMILES IDX 85 12 11 13 84 14 86 15 8 16 6 18 7 19 5 20 1 21 2 22 3 23
REMARK SMILES IDX 88 24 4 25 87 26 89 27 21 28 22 29 23 30 24 31 25 32 26 33
REMARK SMILES IDX 27 34 28 35 29 36 30 37 31 38 83 39 32 40 82 41 33 42 34 43
REMARK SMILES IDX 35 44 76 45 36 46 81 47 75 48 77 49 37 50 80 51 74 52 73 53
REMARK SMILES IDX 38 55 64 56 47 57 63 58 48 59 51 60 62 61 78 62 49 63 50 64
REMARK SMILES IDX 61 66 79 67 52 68 39 69 40 70 45 71 41 72 42 73 44 74 46 75
REMARK SMILES IDX 43 76 65 77 66 78 71 79 67 80 68 81 70 82 72 83 69 84 53 85
REMARK SMILES IDX 54 86 59 87 55 88 56 89 58 90 60 91 57 92
REMARK H PARENT 8 17 77 54 51 65
REMARK Flexibility Score: inf
ROOT
ATOM      1  C   UNL A   1      39.701  22.751  26.749  1.00  0.00     0.188 C 
ENDROOT
BRANCH   1   2
ATOM      2  C   UNL A   1      38.504  23.514  26.142  1.00  0.00     0.188 C 
BRANCH   2   3
ATOM      3  O   UNL A   1      37.294  22.791  26.054  1.00  0.00    -0.376 OA
BRANCH   3   4
ATOM      4  C   UNL A   1      37.001  21.959  24.949  1.00  0.00     0.202 C 
BRANCH   4   5
ATOM      5  C   UNL A   1      35.805  20.993  24.961  1.00  0.00     0.261 C 
BRANCH   5   6
ATOM      6  O   UNL A   1      34.729  21.294  24.073  1.00  0.00    -0.460 OA
BRANCH   6   7
ATOM      7  C   UNL A   1      33.523  20.748  24.359  1.00  0.00     0.338 C 
ATOM      8  O   UNL A   1      33.286  19.598  24.639  1.00  0.00    -0.246 OA
BRANCH   7   9
ATOM      9  C   UNL A   1      32.568  21.873  24.494  1.00  0.00     0.061 A 
ATOM     10  C   UNL A   1      30.696  23.970  24.671  1.00  0.00     0.053 A 
ATOM     11  C   UNL A   1      31.487  23.802  23.522  1.00  0.00     0.028 A 
ATOM     12  C   UNL A   1      30.837  23.026  25.713  1.00  0.00     0.065 A 
ATOM     13  C   UNL A   1      32.430  22.776  23.438  1.00  0.00     0.018 A 
ATOM     14  C   UNL A   1      31.749  21.975  25.615  1.00  0.00     0.038 A 
ATOM     15  Cl  UNL A   1      29.861  23.033  27.142  1.00  0.00    -0.082 Cl
BRANCH  10  16
ATOM     16  N   UNL A   1      29.898  25.106  24.733  1.00  0.00    -0.377 N 
ATOM     17  H   UNL A   1      29.095  25.107  25.301  1.00  0.00     0.161 HD
BRANCH  16  18
ATOM     18  C   UNL A   1      30.241  26.305  23.958  1.00  0.00     0.106 C 
ATOM     19  C   UNL A   1      28.926  27.003  23.573  1.00  0.00     0.036 C 
BRANCH  18  20
ATOM     20  C   UNL A   1      31.272  27.115  24.737  1.00  0.00    -0.023 A 
ATOM     21  C   UNL A   1      34.349  28.809  27.281  1.00  0.00     0.047 C 
ATOM     22  C   UNL A   1      33.281  28.275  26.381  1.00  0.00    -0.015 A 
ATOM     23  C   UNL A   1      33.475  28.139  25.003  1.00  0.00     0.007 A 
ATOM     24  C   UNL A   1      32.072  27.853  26.923  1.00  0.00     0.126 A 
ATOM     25  C   UNL A   1      32.485  27.561  24.192  1.00  0.00     0.006 A 
ATOM     26  C   UNL A   1      31.083  27.298  26.122  1.00  0.00     0.045 A 
ATOM     27  F   UNL A   1      31.858  27.950  28.243  1.00  0.00    -0.207 F 
ENDBRANCH  18  20
ENDBRANCH  16  18
ENDBRANCH  10  16
ENDBRANCH   7   9
ENDBRANCH   6   7
ENDBRANCH   5   6
ENDBRANCH   4   5
ENDBRANCH   3   4
ENDBRANCH   2   3
ENDBRANCH   1   2
BRANCH   1  28
ATOM     28  O   UNL A   1      39.666  21.336  26.880  1.00  0.00    -0.377 OA
BRANCH  28  29
ATOM     29  C   UNL A   1      40.850  20.569  26.697  1.00  0.00     0.188 C 
BRANCH  29  30
ATOM     30  C   UNL A   1      42.126  21.188  26.059  1.00  0.00     0.188 C 
BRANCH  30  31
ATOM     31  O   UNL A   1      43.120  21.711  26.913  1.00  0.00    -0.376 OA
BRANCH  31  32
ATOM     32  C   UNL A   1      44.119  22.619  26.510  1.00  0.00     0.202 C 
BRANCH  32  33
ATOM     33  C   UNL A   1      43.977  24.125  26.559  1.00  0.00     0.261 C 
BRANCH  33  34
ATOM     34  O   UNL A   1      42.798  24.720  27.098  1.00  0.00    -0.460 OA
BRANCH  34  35
ATOM     35  C   UNL A   1      42.296  25.705  26.313  1.00  0.00     0.338 C 
ATOM     36  O   UNL A   1      42.891  26.240  25.386  1.00  0.00    -0.246 OA
BRANCH  35  37
ATOM     37  C   UNL A   1      41.022  26.293  26.771  1.00  0.00     0.060 A 
ATOM     38  C   UNL A   1      40.822  27.584  26.247  1.00  0.00     0.016 A 
ATOM     39  C   UNL A   1      40.642  25.961  28.068  1.00  0.00     0.016 A 
ATOM     40  C   UNL A   1      40.712  28.622  27.144  1.00  0.00     0.010 A 
ATOM     41  C   UNL A   1      40.499  26.998  28.959  1.00  0.00     0.010 A 
ATOM     42  C   UNL A   1      40.673  28.306  28.504  1.00  0.00    -0.014 A 
BRANCH  42  43
ATOM     43  C   UNL A   1      40.760  29.352  29.499  1.00  0.00     0.031 A 
ATOM     44  C   UNL A   1      39.593  30.233  29.547  1.00  0.00     0.074 A 
ATOM     45  C   UNL A   1      41.894  29.555  30.208  1.00  0.00     0.049 A 
ATOM     46  N   UNL A   1      39.651  31.516  29.569  1.00  0.00    -0.248 NA
ATOM     47  C   UNL A   1      38.233  29.711  29.390  1.00  0.00     0.031 C 
ATOM     48  C   UNL A   1      42.117  30.486  31.301  1.00  0.00     0.029 A 
ATOM     49  N   UNL A   1      43.165  29.024  29.968  1.00  0.00    -0.354 N 
ATOM     50  C   UNL A   1      38.372  31.942  29.845  1.00  0.00     0.074 A 
ATOM     51  C   UNL A   1      37.514  30.831  29.515  1.00  0.00     0.031 C 
ATOM     52  C   UNL A   1      43.442  30.658  31.473  1.00  0.00     0.029 A 
ATOM     53  C   UNL A   1      44.145  29.927  30.429  1.00  0.00     0.049 A 
ATOM     54  H   UNL A   1      43.347  28.155  29.542  1.00  0.00     0.167 HD
ATOM     55  C   UNL A   1      38.210  33.078  30.579  1.00  0.00     0.037 A 
ATOM     56  C   UNL A   1      45.113  30.472  29.617  1.00  0.00     0.037 A 
ATOM     57  C   UNL A   1      39.516  33.660  30.895  1.00  0.00     0.049 A 
ATOM     58  C   UNL A   1      44.825  31.915  29.315  1.00  0.00     0.074 A 
ATOM     59  C   UNL A   1      40.340  33.499  31.998  1.00  0.00     0.029 A 
ATOM     60  N   UNL A   1      40.330  34.136  29.870  1.00  0.00    -0.354 N 
ATOM     61  N   UNL A   1      43.686  32.488  29.569  1.00  0.00    -0.248 NA
ATOM     62  C   UNL A   1      45.787  32.805  28.679  1.00  0.00     0.031 C 
ATOM     63  C   UNL A   1      41.664  33.814  31.613  1.00  0.00     0.029 A 
ATOM     64  C   UNL A   1      41.652  34.184  30.279  1.00  0.00     0.049 A 
ATOM     65  H   UNL A   1      40.010  34.402  28.977  1.00  0.00     0.167 HD
ATOM     66  C   UNL A   1      43.749  33.795  29.193  1.00  0.00     0.074 A 
ATOM     67  C   UNL A   1      45.088  33.950  28.649  1.00  0.00     0.031 C 
ATOM     68  C   UNL A   1      42.702  34.645  29.383  1.00  0.00     0.037 A 
BRANCH  55  69
ATOM     69  C   UNL A   1      36.933  33.355  31.333  1.00  0.00     0.057 A 
ATOM     70  C   UNL A   1      36.794  32.990  32.686  1.00  0.00     0.134 A 
ATOM     71  C   UNL A   1      35.784  33.934  30.765  1.00  0.00     0.134 A 
ATOM     72  F   UNL A   1      37.818  32.495  33.393  1.00  0.00    -0.206 F 
ATOM     73  C   UNL A   1      35.590  33.104  33.389  1.00  0.00     0.040 A 
ATOM     74  C   UNL A   1      34.557  34.014  31.443  1.00  0.00     0.040 A 
ATOM     75  F   UNL A   1      35.811  34.471  29.537  1.00  0.00    -0.206 F 
ATOM     76  C   UNL A   1      34.456  33.593  32.761  1.00  0.00     0.006 A 
ENDBRANCH  55  69
BRANCH  56  77
ATOM     77  C   UNL A   1      45.762  29.585  28.585  1.00  0.00     0.057 A 
ATOM     78  C   UNL A   1      45.325  29.833  27.273  1.00  0.00     0.134 A 
ATOM     79  C   UNL A   1      47.125  29.442  28.779  1.00  0.00     0.134 A 
ATOM     80  F   UNL A   1      44.038  29.659  26.943  1.00  0.00    -0.206 F 
ATOM     81  C   UNL A   1      46.148  30.511  26.389  1.00  0.00     0.040 A 
ATOM     82  C   UNL A   1      47.947  30.166  27.945  1.00  0.00     0.040 A 
ATOM     83  F   UNL A   1      47.623  28.977  29.933  1.00  0.00    -0.206 F 
ATOM     84  C   UNL A   1      47.425  30.813  26.822  1.00  0.00     0.006 A 
ENDBRANCH  56  77
BRANCH  68  85
ATOM     85  C   UNL A   1      42.649  36.049  28.867  1.00  0.00     0.057 A 
ATOM     86  C   UNL A   1      41.954  36.441  27.717  1.00  0.00     0.134 A 
ATOM     87  C   UNL A   1      43.243  37.095  29.607  1.00  0.00     0.134 A 
ATOM     88  F   UNL A   1      41.225  35.571  27.004  1.00  0.00    -0.206 F 
ATOM     89  C   UNL A   1      41.938  37.766  27.274  1.00  0.00     0.040 A 
ATOM     90  C   UNL A   1      43.166  38.429  29.216  1.00  0.00     0.040 A 
ATOM     91  F   UNL A   1      43.907  36.869  30.749  1.00  0.00    -0.206 F 
ATOM     92  C   UNL A   1      42.538  38.765  28.029  1.00  0.00     0.006 A 
ENDBRANCH  68  85
ENDBRANCH  42  43
ENDBRANCH  35  37
ENDBRANCH  34  35
ENDBRANCH  33  34
ENDBRANCH  32  33
ENDBRANCH  31  32
ENDBRANCH  30  31
ENDBRANCH  29  30
ENDBRANCH  28  29
ENDBRANCH   1  28
TORSDOF 23
ENDMDL
MODEL 2
REMARK VINA RESULT:      -9.3      4.534      9.426
REMARK SMILES Cc1ccc([C@H](C)Nc2ccc(C(=O)OCCOCCOCCOCCOC(=O)c3ccc(-c4c5nc(c(-c6c(F)cccc6F)c6ccc([nH]6)c(-c6c(F)cccc6F)c6nc(c(-c7c(F)cccc7F)c7ccc4[nH]7)C=C6)C=C5)cc3)cc2Cl)cc1F
REMARK SMILES IDX 20 1 19 2 18 3 17 4 16 5 15 6 13 7 14 8 12 9 9 10 10 11
REMARK SMILES IDX 85 12 11 13 84 14 86 15 8 16 6 18 7 19 5 20 1 21 2 22 3 23
REMARK SMILES IDX 88 24 4 25 87 26 89 27 21 28 22 29 23 30 24 31 25 32 26 33
REMARK SMILES IDX 27 34 28 35 29 36 30 37 31 38 83 39 32 40 82 41 33 42 34 43
REMARK SMILES IDX 35 44 76 45 36 46 81 47 75 48 77 49 37 50 80 51 74 52 73 53
REMARK SMILES IDX 38 55 64 56 47 57 63 58 48 59 51 60 62 61 78 62 49 63 50 64
REMARK SMILES IDX 61 66 79 67 52 68 39 69 40 70 45 71 41 72 42 73 44 74 46 75
REMARK SMILES IDX 43 76 65 77 66 78 71 79 67 80 68 81 70 82 72 83 69 84 53 85
REMARK SMILES IDX 54 86 59 87 55 88 56 89 58 90 60 91 57 92
REMARK H PARENT 8 17 77 54 51 65
REMARK Flexibility Score: inf
ROOT
ATOM      1  C   UNL A   1      35.553  34.005  29.548  1.00  0.00     0.188 C 
ENDROOT
BRANCH   1   2
ATOM      2  C   UNL A   1      34.974  34.320  28.151  1.00  0.00     0.188 C 
BRANCH   2   3
ATOM      3  O   UNL A   1      33.572  34.205  28.027  1.00  0.00    -0.376 OA
BRANCH   3   4
ATOM      4  C   UNL A   1      32.946  32.965  27.759  1.00  0.00     0.202 C 
BRANCH   4   5
ATOM      5  C   UNL A   1      33.679  31.629  27.964  1.00  0.00     0.261 C 
BRANCH   5   6
ATOM      6  O   UNL A   1      33.408  30.598  27.014  1.00  0.00    -0.460 OA
BRANCH   6   7
ATOM      7  C   UNL A   1      34.307  29.589  26.928  1.00  0.00     0.338 C 
ATOM      8  O   UNL A   1      35.495  29.645  27.133  1.00  0.00    -0.246 OA
BRANCH   7   9
ATOM      9  C   UNL A   1      33.528  28.339  26.762  1.00  0.00     0.061 A 
ATOM     10  C   UNL A   1      31.987  26.014  26.375  1.00  0.00     0.053 A 
ATOM     11  C   UNL A   1      31.419  27.174  26.927  1.00  0.00     0.028 A 
ATOM     12  C   UNL A   1      33.342  26.067  25.978  1.00  0.00     0.065 A 
ATOM     13  C   UNL A   1      32.184  28.322  27.139  1.00  0.00     0.018 A 
ATOM     14  C   UNL A   1      34.098  27.226  26.149  1.00  0.00     0.038 A 
ATOM     15  Cl  UNL A   1      34.153  24.760  25.185  1.00  0.00    -0.082 Cl
BRANCH  10  16
ATOM     16  N   UNL A   1      31.195  24.871  26.346  1.00  0.00    -0.377 N 
ATOM     17  H   UNL A   1      31.064  24.348  27.169  1.00  0.00     0.161 HD
BRANCH  16  18
ATOM     18  C   UNL A   1      30.553  24.437  25.100  1.00  0.00     0.106 C 
ATOM     19  C   UNL A   1      30.461  25.660  24.172  1.00  0.00     0.036 C 
BRANCH  18  20
ATOM     20  C   UNL A   1      31.280  23.203  24.576  1.00  0.00    -0.023 A 
ATOM     21  C   UNL A   1      32.764  19.339  23.281  1.00  0.00     0.047 C 
ATOM     22  C   UNL A   1      32.300  20.694  23.710  1.00  0.00    -0.015 A 
ATOM     23  C   UNL A   1      31.975  21.691  22.785  1.00  0.00     0.007 A 
ATOM     24  C   UNL A   1      32.137  20.969  25.063  1.00  0.00     0.126 A 
ATOM     25  C   UNL A   1      31.466  22.928  23.213  1.00  0.00     0.006 A 
ATOM     26  C   UNL A   1      31.652  22.197  25.491  1.00  0.00     0.045 A 
ATOM     27  F   UNL A   1      32.420  20.030  25.977  1.00  0.00    -0.207 F 
ENDBRANCH  18  20
ENDBRANCH  16  18
ENDBRANCH  10  16
ENDBRANCH   7   9
ENDBRANCH   6   7
ENDBRANCH   5   6
ENDBRANCH   4   5
ENDBRANCH   3   4
ENDBRANCH   2   3
ENDBRANCH   1   2
BRANCH   1  28
ATOM     28  O   UNL A   1      34.693  33.694  30.635  1.00  0.00    -0.377 OA
BRANCH  28  29
ATOM     29  C   UNL A   1      35.177  33.748  31.972  1.00  0.00     0.188 C 
BRANCH  29  30
ATOM     30  C   UNL A   1      35.355  32.457  32.821  1.00  0.00     0.188 C 
BRANCH  30  31
ATOM     31  O   UNL A   1      36.438  31.601  32.528  1.00  0.00    -0.376 OA
BRANCH  31  32
ATOM     32  C   UNL A   1      36.380  30.525  31.621  1.00  0.00     0.202 C 
BRANCH  32  33
ATOM     33  C   UNL A   1      37.119  30.476  30.302  1.00  0.00     0.261 C 
BRANCH  33  34
ATOM     34  O   UNL A   1      38.136  29.500  30.082  1.00  0.00    -0.460 OA
BRANCH  34  35
ATOM     35  C   UNL A   1      38.621  29.516  28.815  1.00  0.00     0.338 C 
ATOM     36  O   UNL A   1      38.497  30.443  28.025  1.00  0.00    -0.246 OA
BRANCH  35  37
ATOM     37  C   UNL A   1      39.143  28.227  28.321  1.00  0.00     0.060 A 
ATOM     38  C   UNL A   1      39.189  27.256  29.337  1.00  0.00     0.016 A 
ATOM     39  C   UNL A   1      40.132  28.317  27.346  1.00  0.00     0.016 A 
ATOM     40  C   UNL A   1      40.420  26.730  29.657  1.00  0.00     0.010 A 
ATOM     41  C   UNL A   1      41.354  27.765  27.648  1.00  0.00     0.010 A 
ATOM     42  C   UNL A   1      41.510  27.097  28.864  1.00  0.00    -0.014 A 
BRANCH  42  43
ATOM     43  C   UNL A   1      42.855  26.744  29.263  1.00  0.00     0.031 A 
ATOM     44  C   UNL A   1      43.738  27.892  29.477  1.00  0.00     0.074 A 
ATOM     45  C   UNL A   1      43.266  25.456  29.289  1.00  0.00     0.049 A 
ATOM     46  N   UNL A   1      44.925  27.995  28.998  1.00  0.00    -0.248 NA
ATOM     47  C   UNL A   1      43.258  29.117  30.121  1.00  0.00     0.031 C 
ATOM     48  C   UNL A   1      44.536  24.926  29.753  1.00  0.00     0.029 A 
ATOM     49  N   UNL A   1      42.625  24.339  28.743  1.00  0.00    -0.354 N 
ATOM     50  C   UNL A   1      45.482  29.091  29.615  1.00  0.00     0.074 A 
ATOM     51  C   UNL A   1      44.369  29.859  30.119  1.00  0.00     0.031 C 
ATOM     52  C   UNL A   1      44.701  23.681  29.266  1.00  0.00     0.029 A 
ATOM     53  C   UNL A   1      43.591  23.381  28.372  1.00  0.00     0.049 A 
ATOM     54  H   UNL A   1      41.653  24.237  28.634  1.00  0.00     0.167 HD
ATOM     55  C   UNL A   1      46.819  29.082  29.872  1.00  0.00     0.037 A 
ATOM     56  C   UNL A   1      43.735  22.910  27.088  1.00  0.00     0.037 A 
ATOM     57  C   UNL A   1      47.418  27.848  29.360  1.00  0.00     0.049 A 
ATOM     58  C   UNL A   1      44.959  23.479  26.430  1.00  0.00     0.074 A 
ATOM     59  C   UNL A   1      47.660  26.631  29.978  1.00  0.00     0.029 A 
ATOM     60  N   UNL A   1      47.423  27.595  27.990  1.00  0.00    -0.354 N 
ATOM     61  N   UNL A   1      45.637  24.477  26.915  1.00  0.00    -0.248 NA
ATOM     62  C   UNL A   1      45.489  22.985  25.165  1.00  0.00     0.031 C 
ATOM     63  C   UNL A   1      47.741  25.634  28.978  1.00  0.00     0.029 A 
ATOM     64  C   UNL A   1      47.565  26.239  27.746  1.00  0.00     0.049 A 
ATOM     65  H   UNL A   1      47.337  28.284  27.292  1.00  0.00     0.167 HD
ATOM     66  C   UNL A   1      46.692  24.741  26.095  1.00  0.00     0.074 A 
ATOM     67  C   UNL A   1      46.563  23.775  25.017  1.00  0.00     0.031 C 
ATOM     68  C   UNL A   1      47.596  25.718  26.387  1.00  0.00     0.037 A 
BRANCH  55  69
ATOM     69  C   UNL A   1      47.424  29.961  30.938  1.00  0.00     0.057 A 
ATOM     70  C   UNL A   1      48.131  31.132  30.602  1.00  0.00     0.134 A 
ATOM     71  C   UNL A   1      47.386  29.679  32.316  1.00  0.00     0.134 A 
ATOM     72  F   UNL A   1      48.197  31.580  29.342  1.00  0.00    -0.206 F 
ATOM     73  C   UNL A   1      48.820  31.906  31.542  1.00  0.00     0.040 A 
ATOM     74  C   UNL A   1      48.109  30.419  33.265  1.00  0.00     0.040 A 
ATOM     75  F   UNL A   1      46.625  28.688  32.802  1.00  0.00    -0.206 F 
ATOM     76  C   UNL A   1      48.835  31.537  32.877  1.00  0.00     0.006 A 
ENDBRANCH  55  69
BRANCH  56  77
ATOM     77  C   UNL A   1      42.488  22.634  26.285  1.00  0.00     0.057 A 
ATOM     78  C   UNL A   1      41.695  21.601  26.811  1.00  0.00     0.134 A 
ATOM     79  C   UNL A   1      41.837  23.790  25.889  1.00  0.00     0.134 A 
ATOM     80  F   UNL A   1      42.181  20.356  26.907  1.00  0.00    -0.206 F 
ATOM     81  C   UNL A   1      40.519  21.905  27.477  1.00  0.00     0.040 A 
ATOM     82  C   UNL A   1      40.704  24.133  26.592  1.00  0.00     0.040 A 
ATOM     83  F   UNL A   1      42.460  24.732  25.168  1.00  0.00    -0.206 F 
ATOM     84  C   UNL A   1      40.128  23.230  27.489  1.00  0.00     0.006 A 
ENDBRANCH  56  77
BRANCH  68  85
ATOM     85  C   UNL A   1      48.691  26.157  25.466  1.00  0.00     0.057 A 
ATOM     86  C   UNL A   1      48.492  26.939  24.322  1.00  0.00     0.134 A 
ATOM     87  C   UNL A   1      50.036  25.872  25.784  1.00  0.00     0.134 A 
ATOM     88  F   UNL A   1      47.280  27.403  23.987  1.00  0.00    -0.206 F 
ATOM     89  C   UNL A   1      49.549  27.320  23.491  1.00  0.00     0.040 A 
ATOM     90  C   UNL A   1      51.102  26.314  25.005  1.00  0.00     0.040 A 
ATOM     91  F   UNL A   1      50.375  25.166  26.873  1.00  0.00    -0.206 F 
ATOM     92  C   UNL A   1      50.859  27.016  23.837  1.00  0.00     0.006 A 
ENDBRANCH  68  85
ENDBRANCH  42  43
ENDBRANCH  35  37
ENDBRANCH  34  35
ENDBRANCH  33  34
ENDBRANCH  32  33
ENDBRANCH  31  32
ENDBRANCH  30  31
ENDBRANCH  29  30
ENDBRANCH  28  29
ENDBRANCH   1  28
TORSDOF 23
ENDMDL
MODEL 3
REMARK VINA RESULT:      -9.1      3.732      8.098
REMARK SMILES Cc1ccc([C@H](C)Nc2ccc(C(=O)OCCOCCOCCOCCOC(=O)c3ccc(-c4c5nc(c(-c6c(F)cccc6F)c6ccc([nH]6)c(-c6c(F)cccc6F)c6nc(c(-c7c(F)cccc7F)c7ccc4[nH]7)C=C6)C=C5)cc3)cc2Cl)cc1F
REMARK SMILES IDX 20 1 19 2 18 3 17 4 16 5 15 6 13 7 14 8 12 9 9 10 10 11
REMARK SMILES IDX 85 12 11 13 84 14 86 15 8 16 6 18 7 19 5 20 1 21 2 22 3 23
REMARK SMILES IDX 88 24 4 25 87 26 89 27 21 28 22 29 23 30 24 31 25 32 26 33
REMARK SMILES IDX 27 34 28 35 29 36 30 37 31 38 83 39 32 40 82 41 33 42 34 43
REMARK SMILES IDX 35 44 76 45 36 46 81 47 75 48 77 49 37 50 80 51 74 52 73 53
REMARK SMILES IDX 38 55 64 56 47 57 63 58 48 59 51 60 62 61 78 62 49 63 50 64
REMARK SMILES IDX 61 66 79 67 52 68 39 69 40 70 45 71 41 72 42 73 44 74 46 75
REMARK SMILES IDX 43 76 65 77 66 78 71 79 67 80 68 81 70 82 72 83 69 84 53 85
REMARK SMILES IDX 54 86 59 87 55 88 56 89 58 90 60 91 57 92
REMARK H PARENT 8 17 77 54 51 65
REMARK Flexibility Score: inf
ROOT
ATOM      1  C   UNL A   1      40.029  22.818  27.289  1.00  0.00     0.188 C 
ENDROOT
BRANCH   1   2
ATOM      2  C   UNL A   1      38.931  23.525  26.464  1.00  0.00     0.188 C 
BRANCH   2   3
ATOM      3  O   UNL A   1      37.801  22.740  26.147  1.00  0.00    -0.376 OA
BRANCH   3   4
ATOM      4  C   UNL A   1      37.744  21.952  24.973  1.00  0.00     0.202 C 
BRANCH   4   5
ATOM      5  C   UNL A   1      36.649  22.159  23.914  1.00  0.00     0.261 C 
BRANCH   5   6
ATOM      6  O   UNL A   1      35.695  23.189  24.172  1.00  0.00    -0.460 OA
BRANCH   6   7
ATOM      7  C   UNL A   1      34.517  22.813  24.724  1.00  0.00     0.338 C 
ATOM      8  O   UNL A   1      34.307  21.852  25.423  1.00  0.00    -0.246 OA
BRANCH   7   9
ATOM      9  C   UNL A   1      33.568  23.931  24.506  1.00  0.00     0.061 A 
ATOM     10  C   UNL A   1      31.739  26.011  23.997  1.00  0.00     0.053 A 
ATOM     11  C   UNL A   1      32.853  25.808  23.165  1.00  0.00     0.028 A 
ATOM     12  C   UNL A   1      31.542  25.109  25.067  1.00  0.00     0.065 A 
ATOM     13  C   UNL A   1      33.772  24.791  23.425  1.00  0.00     0.018 A 
ATOM     14  C   UNL A   1      32.437  24.066  25.305  1.00  0.00     0.038 A 
ATOM     15  Cl  UNL A   1      30.164  25.160  26.112  1.00  0.00    -0.082 Cl
BRANCH  10  16
ATOM     16  N   UNL A   1      30.963  27.140  23.757  1.00  0.00    -0.377 N 
ATOM     17  H   UNL A   1      29.982  27.075  23.802  1.00  0.00     0.161 HD
BRANCH  16  18
ATOM     18  C   UNL A   1      31.592  28.426  23.439  1.00  0.00     0.106 C 
ATOM     19  C   UNL A   1      30.606  29.224  22.569  1.00  0.00     0.036 C 
BRANCH  18  20
ATOM     20  C   UNL A   1      32.078  29.071  24.733  1.00  0.00    -0.023 A 
ATOM     21  C   UNL A   1      33.944  31.222  28.004  1.00  0.00     0.047 C 
ATOM     22  C   UNL A   1      33.264  30.459  26.913  1.00  0.00    -0.015 A 
ATOM     23  C   UNL A   1      31.976  30.781  26.475  1.00  0.00     0.007 A 
ATOM     24  C   UNL A   1      33.940  29.426  26.272  1.00  0.00     0.126 A 
ATOM     25  C   UNL A   1      31.392  30.100  25.396  1.00  0.00     0.006 A 
ATOM     26  C   UNL A   1      33.359  28.737  25.216  1.00  0.00     0.045 A 
ATOM     27  F   UNL A   1      35.184  29.102  26.651  1.00  0.00    -0.207 F 
ENDBRANCH  18  20
ENDBRANCH  16  18
ENDBRANCH  10  16
ENDBRANCH   7   9
ENDBRANCH   6   7
ENDBRANCH   5   6
ENDBRANCH   4   5
ENDBRANCH   3   4
ENDBRANCH   2   3
ENDBRANCH   1   2
BRANCH   1  28
ATOM     28  O   UNL A   1      40.020  21.406  27.448  1.00  0.00    -0.377 OA
BRANCH  28  29
ATOM     29  C   UNL A   1      41.236  20.670  27.399  1.00  0.00     0.188 C 
BRANCH  29  30
ATOM     30  C   UNL A   1      41.667  19.901  26.118  1.00  0.00     0.188 C 
BRANCH  30  31
ATOM     31  O   UNL A   1      42.829  19.102  26.171  1.00  0.00    -0.376 OA
BRANCH  31  32
ATOM     32  C   UNL A   1      43.889  19.174  25.245  1.00  0.00     0.202 C 
BRANCH  32  33
ATOM     33  C   UNL A   1      44.512  20.463  24.757  1.00  0.00     0.261 C 
BRANCH  33  34
ATOM     34  O   UNL A   1      44.315  21.678  25.479  1.00  0.00    -0.460 OA
BRANCH  34  35
ATOM     35  C   UNL A   1      44.251  22.767  24.674  1.00  0.00     0.338 C 
ATOM     36  O   UNL A   1      44.939  22.949  23.677  1.00  0.00    -0.246 OA
BRANCH  35  37
ATOM     37  C   UNL A   1      43.436  23.886  25.186  1.00  0.00     0.060 A 
ATOM     38  C   UNL A   1      43.829  25.118  24.632  1.00  0.00     0.016 A 
ATOM     39  C   UNL A   1      43.032  23.774  26.513  1.00  0.00     0.016 A 
ATOM     40  C   UNL A   1      44.279  26.088  25.498  1.00  0.00     0.010 A 
ATOM     41  C   UNL A   1      43.452  24.758  27.375  1.00  0.00     0.010 A 
ATOM     42  C   UNL A   1      44.188  25.831  26.868  1.00  0.00    -0.014 A 
BRANCH  42  43
ATOM     43  C   UNL A   1      44.822  26.715  27.821  1.00  0.00     0.031 A 
ATOM     44  C   UNL A   1      45.994  26.140  28.483  1.00  0.00     0.074 A 
ATOM     45  C   UNL A   1      44.272  27.906  28.150  1.00  0.00     0.049 A 
ATOM     46  N   UNL A   1      46.202  26.174  29.750  1.00  0.00    -0.248 NA
ATOM     47  C   UNL A   1      46.954  25.310  27.754  1.00  0.00     0.031 C 
ATOM     48  C   UNL A   1      44.820  28.945  29.004  1.00  0.00     0.029 A 
ATOM     49  N   UNL A   1      42.981  28.364  27.865  1.00  0.00    -0.354 N 
ATOM     50  C   UNL A   1      47.496  25.744  29.927  1.00  0.00     0.074 A 
ATOM     51  C   UNL A   1      47.836  25.031  28.719  1.00  0.00     0.031 C 
ATOM     52  C   UNL A   1      43.829  29.775  29.382  1.00  0.00     0.029 A 
ATOM     53  C   UNL A   1      42.567  29.255  28.877  1.00  0.00     0.049 A 
ATOM     54  H   UNL A   1      42.445  28.105  27.081  1.00  0.00     0.167 HD
ATOM     55  C   UNL A   1      48.224  26.274  30.949  1.00  0.00     0.037 A 
ATOM     56  C   UNL A   1      41.446  29.055  29.648  1.00  0.00     0.037 A 
ATOM     57  C   UNL A   1      47.401  27.213  31.714  1.00  0.00     0.049 A 
ATOM     58  C   UNL A   1      41.809  28.630  31.042  1.00  0.00     0.074 A 
ATOM     59  C   UNL A   1      47.242  28.585  31.597  1.00  0.00     0.029 A 
ATOM     60  N   UNL A   1      46.287  26.751  32.410  1.00  0.00    -0.354 N 
ATOM     61  N   UNL A   1      43.003  28.251  31.389  1.00  0.00    -0.248 NA
ATOM     62  C   UNL A   1      40.848  28.572  32.135  1.00  0.00     0.031 C 
ATOM     63  C   UNL A   1      45.995  28.937  32.166  1.00  0.00     0.029 A 
ATOM     64  C   UNL A   1      45.396  27.785  32.645  1.00  0.00     0.049 A 
ATOM     65  H   UNL A   1      46.151  25.819  32.697  1.00  0.00     0.167 HD
ATOM     66  C   UNL A   1      43.008  27.946  32.716  1.00  0.00     0.074 A 
ATOM     67  C   UNL A   1      41.637  28.172  33.144  1.00  0.00     0.031 C 
ATOM     68  C   UNL A   1      44.146  27.556  33.356  1.00  0.00     0.037 A 
BRANCH  55  69
ATOM     69  C   UNL A   1      49.732  26.255  30.937  1.00  0.00     0.057 A 
ATOM     70  C   UNL A   1      50.453  25.290  31.667  1.00  0.00     0.134 A 
ATOM     71  C   UNL A   1      50.533  27.196  30.263  1.00  0.00     0.134 A 
ATOM     72  F   UNL A   1      49.843  24.283  32.302  1.00  0.00    -0.206 F 
ATOM     73  C   UNL A   1      51.847  25.312  31.793  1.00  0.00     0.040 A 
ATOM     74  C   UNL A   1      51.927  27.257  30.416  1.00  0.00     0.040 A 
ATOM     75  F   UNL A   1      49.998  28.077  29.406  1.00  0.00    -0.206 F 
ATOM     76  C   UNL A   1      52.590  26.314  31.189  1.00  0.00     0.006 A 
ENDBRANCH  55  69
BRANCH  56  77
ATOM     77  C   UNL A   1      40.205  28.518  28.979  1.00  0.00     0.057 A 
ATOM     78  C   UNL A   1      39.960  27.161  29.251  1.00  0.00     0.134 A 
ATOM     79  C   UNL A   1      39.129  29.383  29.068  1.00  0.00     0.134 A 
ATOM     80  F   UNL A   1      40.842  26.226  28.875  1.00  0.00    -0.206 F 
ATOM     81  C   UNL A   1      38.955  26.806  30.136  1.00  0.00     0.040 A 
ATOM     82  C   UNL A   1      38.159  29.070  29.994  1.00  0.00     0.040 A 
ATOM     83  F   UNL A   1      39.201  30.640  28.609  1.00  0.00    -0.206 F 
ATOM     84  C   UNL A   1      38.159  27.824  30.626  1.00  0.00     0.006 A 
ENDBRANCH  56  77
BRANCH  68  85
ATOM     85  C   UNL A   1      44.195  27.070  34.771  1.00  0.00     0.057 A 
ATOM     86  C   UNL A   1      43.868  25.769  35.169  1.00  0.00     0.134 A 
ATOM     87  C   UNL A   1      44.691  27.913  35.789  1.00  0.00     0.134 A 
ATOM     88  F   UNL A   1      43.524  24.825  34.282  1.00  0.00    -0.206 F 
ATOM     89  C   UNL A   1      43.926  25.365  36.505  1.00  0.00     0.040 A 
ATOM     90  C   UNL A   1      44.828  27.496  37.109  1.00  0.00     0.040 A 
ATOM     91  F   UNL A   1      45.080  29.173  35.542  1.00  0.00    -0.206 F 
ATOM     92  C   UNL A   1      44.416  26.226  37.478  1.00  0.00     0.006 A 
ENDBRANCH  68  85
ENDBRANCH  42  43
ENDBRANCH  35  37
ENDBRANCH  34  35
ENDBRANCH  33  34
ENDBRANCH  32  33
ENDBRANCH  31  32
ENDBRANCH  30  31
ENDBRANCH  29  30
ENDBRANCH  28  29
ENDBRANCH   1  28
TORSDOF 23
ENDMDL
