MODEL 1
REMARK VINA RESULT:     -10.9      0.000      0.000
REMARK SMILES CC(C)(O)C#Cc1ccc(C(=O)N[C@@H](CC2=c3ccccc3=NC2)C(=O)OCCOCCOCCOCCOC(=O)c2ccc(-c3c4nc(c(-c5c(F)cccc5F)c5ccc([nH]5)c(-c5c(F)cccc5F)c5nc(c(-c6c(F)cccc6F)c6ccc3[nH]6)C=C5)C=C4)cc2)s1
REMARK SMILES IDX 31 1 30 2 29 3 28 4 27 5 25 6 26 7 14 8 13 9 11 10 12 11
REMARK SMILES IDX 10 13 7 14 8 15 96 16 9 17 6 18 5 19 2 20 1 21 3 22 4 23
REMARK SMILES IDX 15 25 16 26 17 27 24 28 18 29 22 30 23 31 19 32 21 33 20 34
REMARK SMILES IDX 32 35 33 36 34 37 35 38 36 39 37 40 38 41 39 42 40 43 41 44
REMARK SMILES IDX 42 45 43 46 95 47 44 48 94 49 45 50 46 51 47 52 88 53 48 54
REMARK SMILES IDX 93 55 87 56 89 57 49 58 92 59 86 60 85 61 50 63 76 64 59 65
REMARK SMILES IDX 75 66 60 67 63 68 74 69 90 70 61 71 62 72 73 74 91 75 64 76
REMARK SMILES IDX 51 77 52 78 57 79 53 80 54 81 56 82 58 83 55 84 77 85 78 86
REMARK SMILES IDX 83 87 79 88 80 89 82 90 84 91 81 92 65 93 66 94 71 95 67 96
REMARK SMILES IDX 68 97 70 98 72 99 69 100
REMARK H PARENT 13 12 4 24 89 62 63 73
REMARK Flexibility Score: inf
ROOT
ATOM      1  C   UNL A   1      34.515  29.667  27.174  1.00  0.00     0.188 C 
ENDROOT
BRANCH   1   2
ATOM      2  O   UNL A   1      33.581  28.649  27.482  1.00  0.00    -0.376 OA
BRANCH   2   3
ATOM      3  C   UNL A   1      32.582  28.188  26.586  1.00  0.00     0.202 C 
BRANCH   3   4
ATOM      4  C   UNL A   1      32.819  27.309  25.359  1.00  0.00     0.261 C 
BRANCH   4   5
ATOM      5  O   UNL A   1      31.909  26.221  25.216  1.00  0.00    -0.462 OA
BRANCH   5   6
ATOM      6  C   UNL A   1      30.847  26.448  24.426  1.00  0.00     0.329 C 
ATOM      7  O   UNL A   1      29.725  25.994  24.639  1.00  0.00    -0.250 OA
BRANCH   6   8
ATOM      8  C   UNL A   1      31.175  27.217  23.133  1.00  0.00     0.196 C 
BRANCH   8   9
ATOM      9  N   UNL A   1      31.782  26.695  21.887  1.00  0.00    -0.338 N 
ATOM     10  C   UNL A   1      32.678  25.672  21.601  1.00  0.00     0.262 C 
ATOM     11  O   UNL A   1      33.074  25.632  20.431  1.00  0.00    -0.268 OA
ATOM     12  H   UNL A   1      31.486  27.181  21.082  1.00  0.00     0.164 HD
BRANCH  10  13
ATOM     13  C   UNL A   1      33.035  24.605  22.541  1.00  0.00     0.093 A 
ATOM     14  C   UNL A   1      33.276  22.407  23.642  1.00  0.00     0.078 A 
ATOM     15  C   UNL A   1      34.383  23.188  23.866  1.00  0.00     0.030 A 
ATOM     16  S   UNL A   1      32.018  23.316  22.971  1.00  0.00    -0.121 S 
ATOM     17  C   UNL A   1      34.234  24.476  23.239  1.00  0.00     0.027 A 
BRANCH  14  18
ATOM     18  C   UNL A   1      33.067  21.020  23.891  1.00  0.00    -0.053 C 
ATOM     19  C   UNL A   1      33.085  19.904  24.313  1.00  0.00    -0.063 C 
BRANCH  19  20
ATOM     20  C   UNL A   1      33.243  18.574  24.927  1.00  0.00     0.120 C 
ATOM     21  C   UNL A   1      34.641  18.017  24.638  1.00  0.00     0.056 C 
ATOM     22  C   UNL A   1      32.159  17.638  24.408  1.00  0.00     0.056 C 
BRANCH  20  23
ATOM     23  O   UNL A   1      33.095  18.705  26.338  1.00  0.00    -0.378 OA
ATOM     24  H   UNL A   1      33.872  18.329  26.781  1.00  0.00     0.212 HD
ENDBRANCH  20  23
ENDBRANCH  19  20
ENDBRANCH  14  18
ENDBRANCH  10  13
ENDBRANCH   8   9
BRANCH   8  25
ATOM     25  C   UNL A   1      29.907  27.976  22.776  1.00  0.00     0.070 C 
BRANCH  25  26
ATOM     26  C   UNL A   1      29.776  29.391  23.246  1.00  0.00    -0.037 C 
ATOM     27  C   UNL A   1      29.115  30.295  22.536  1.00  0.00     0.001 A 
ATOM     28  C   UNL A   1      30.388  30.037  24.457  1.00  0.00     0.174 C 
ATOM     29  C   UNL A   1      28.421  30.237  21.295  1.00  0.00     0.010 A 
ATOM     30  C   UNL A   1      29.284  31.529  23.303  1.00  0.00     0.065 A 
ATOM     31  N   UNL A   1      29.953  31.459  24.412  1.00  0.00    -0.280 NA
ATOM     32  C   UNL A   1      27.912  31.375  20.805  1.00  0.00     0.001 A 
ATOM     33  C   UNL A   1      28.681  32.737  22.710  1.00  0.00     0.028 A 
ATOM     34  C   UNL A   1      28.051  32.632  21.525  1.00  0.00     0.002 A 
ENDBRANCH  25  26
ENDBRANCH   8  25
ENDBRANCH   6   8
ENDBRANCH   5   6
ENDBRANCH   4   5
ENDBRANCH   3   4
ENDBRANCH   2   3
ENDBRANCH   1   2
BRANCH   1  35
ATOM     35  C   UNL A   1      34.707  30.892  28.070  1.00  0.00     0.188 C 
BRANCH  35  36
ATOM     36  O   UNL A   1      34.448  32.135  27.479  1.00  0.00    -0.377 OA
BRANCH  36  37
ATOM     37  C   UNL A   1      33.920  33.144  28.314  1.00  0.00     0.188 C 
BRANCH  37  38
ATOM     38  C   UNL A   1      33.278  34.425  27.719  1.00  0.00     0.188 C 
BRANCH  38  39
ATOM     39  O   UNL A   1      32.623  35.263  28.641  1.00  0.00    -0.376 OA
BRANCH  39  40
ATOM     40  C   UNL A   1      33.187  35.467  29.926  1.00  0.00     0.202 C 
BRANCH  40  41
ATOM     41  C   UNL A   1      32.734  36.599  30.880  1.00  0.00     0.261 C 
BRANCH  41  42
ATOM     42  O   UNL A   1      33.049  36.447  32.280  1.00  0.00    -0.460 OA
BRANCH  42  43
ATOM     43  C   UNL A   1      32.874  35.265  32.919  1.00  0.00     0.338 C 
ATOM     44  O   UNL A   1      31.828  34.651  33.008  1.00  0.00    -0.246 OA
BRANCH  43  45
ATOM     45  C   UNL A   1      34.243  34.666  33.122  1.00  0.00     0.060 A 
ATOM     46  C   UNL A   1      35.422  35.421  33.148  1.00  0.00     0.016 A 
ATOM     47  C   UNL A   1      34.329  33.279  32.914  1.00  0.00     0.016 A 
ATOM     48  C   UNL A   1      36.639  34.808  32.791  1.00  0.00     0.010 A 
ATOM     49  C   UNL A   1      35.536  32.681  32.526  1.00  0.00     0.010 A 
ATOM     50  C   UNL A   1      36.691  33.451  32.392  1.00  0.00    -0.014 A 
BRANCH  50  51
ATOM     51  C   UNL A   1      38.007  32.817  32.118  1.00  0.00     0.031 A 
ATOM     52  C   UNL A   1      38.849  32.836  33.355  1.00  0.00     0.074 A 
ATOM     53  C   UNL A   1      38.430  32.139  31.013  1.00  0.00     0.049 A 
ATOM     54  N   UNL A   1      39.985  33.421  33.541  1.00  0.00    -0.248 NA
ATOM     55  C   UNL A   1      38.253  32.287  34.588  1.00  0.00     0.031 C 
ATOM     56  C   UNL A   1      37.668  31.767  29.817  1.00  0.00     0.029 A 
ATOM     57  N   UNL A   1      39.663  31.579  30.737  1.00  0.00    -0.354 N 
ATOM     58  C   UNL A   1      40.332  33.172  34.870  1.00  0.00     0.074 A 
ATOM     59  C   UNL A   1      39.170  32.608  35.499  1.00  0.00     0.031 C 
ATOM     60  C   UNL A   1      38.381  30.904  29.051  1.00  0.00     0.029 A 
ATOM     61  C   UNL A   1      39.696  30.711  29.631  1.00  0.00     0.049 A 
ATOM     62  H   UNL A   1      40.463  31.773  31.277  1.00  0.00     0.167 HD
ATOM     63  C   UNL A   1      41.620  33.263  35.296  1.00  0.00     0.037 A 
ATOM     64  C   UNL A   1      40.702  29.875  29.228  1.00  0.00     0.037 A 
ATOM     65  C   UNL A   1      42.407  34.050  34.385  1.00  0.00     0.049 A 
ATOM     66  C   UNL A   1      41.957  30.337  29.866  1.00  0.00     0.074 A 
ATOM     67  C   UNL A   1      42.413  35.375  34.002  1.00  0.00     0.029 A 
ATOM     68  N   UNL A   1      43.125  33.379  33.428  1.00  0.00    -0.354 N 
ATOM     69  N   UNL A   1      42.537  31.463  29.563  1.00  0.00    -0.248 NA
ATOM     70  C   UNL A   1      42.243  29.804  31.188  1.00  0.00     0.031 C 
ATOM     71  C   UNL A   1      42.693  35.352  32.605  1.00  0.00     0.029 A 
ATOM     72  C   UNL A   1      42.942  34.030  32.236  1.00  0.00     0.049 A 
ATOM     73  H   UNL A   1      43.675  32.575  33.572  1.00  0.00     0.167 HD
ATOM     74  C   UNL A   1      42.861  32.015  30.791  1.00  0.00     0.074 A 
ATOM     75  C   UNL A   1      42.669  30.933  31.759  1.00  0.00     0.031 C 
ATOM     76  C   UNL A   1      42.966  33.365  30.956  1.00  0.00     0.037 A 
BRANCH  63  77
ATOM     77  C   UNL A   1      42.246  32.328  36.301  1.00  0.00     0.057 A 
ATOM     78  C   UNL A   1      42.441  30.948  36.083  1.00  0.00     0.134 A 
ATOM     79  C   UNL A   1      42.972  32.871  37.377  1.00  0.00     0.134 A 
ATOM     80  F   UNL A   1      41.859  30.289  35.075  1.00  0.00    -0.206 F 
ATOM     81  C   UNL A   1      43.335  30.183  36.835  1.00  0.00     0.040 A 
ATOM     82  C   UNL A   1      43.904  32.122  38.107  1.00  0.00     0.040 A 
ATOM     83  F   UNL A   1      42.865  34.169  37.696  1.00  0.00    -0.206 F 
ATOM     84  C   UNL A   1      44.100  30.776  37.824  1.00  0.00     0.006 A 
ENDBRANCH  63  77
BRANCH  64  85
ATOM     85  C   UNL A   1      40.625  28.515  28.611  1.00  0.00     0.057 A 
ATOM     86  C   UNL A   1      41.144  28.289  27.325  1.00  0.00     0.134 A 
ATOM     87  C   UNL A   1      39.799  27.488  29.111  1.00  0.00     0.134 A 
ATOM     88  F   UNL A   1      41.862  29.235  26.704  1.00  0.00    -0.206 F 
ATOM     89  C   UNL A   1      40.873  27.129  26.586  1.00  0.00     0.040 A 
ATOM     90  C   UNL A   1      39.519  26.317  28.380  1.00  0.00     0.040 A 
ATOM     91  F   UNL A   1      39.191  27.618  30.300  1.00  0.00    -0.206 F 
ATOM     92  C   UNL A   1      40.052  26.138  27.107  1.00  0.00     0.006 A 
ENDBRANCH  64  85
BRANCH  76  93
ATOM     93  C   UNL A   1      42.916  34.237  29.728  1.00  0.00     0.057 A 
ATOM     94  C   UNL A   1      41.678  34.752  29.332  1.00  0.00     0.134 A 
ATOM     95  C   UNL A   1      43.998  34.456  28.860  1.00  0.00     0.134 A 
ATOM     96  F   UNL A   1      40.587  34.543  30.087  1.00  0.00    -0.206 F 
ATOM     97  C   UNL A   1      41.514  35.448  28.132  1.00  0.00     0.040 A 
ATOM     98  C   UNL A   1      43.855  35.188  27.674  1.00  0.00     0.040 A 
ATOM     99  F   UNL A   1      45.205  33.925  29.099  1.00  0.00    -0.206 F 
ATOM    100  C   UNL A   1      42.606  35.677  27.303  1.00  0.00     0.006 A 
ENDBRANCH  76  93
ENDBRANCH  50  51
ENDBRANCH  43  45
ENDBRANCH  42  43
ENDBRANCH  41  42
ENDBRANCH  40  41
ENDBRANCH  39  40
ENDBRANCH  38  39
ENDBRANCH  37  38
ENDBRANCH  36  37
ENDBRANCH  35  36
ENDBRANCH   1  35
TORSDOF 27
ENDMDL
MODEL 2
REMARK VINA RESULT:      -9.1      4.000      8.184
REMARK SMILES CC(C)(O)C#Cc1ccc(C(=O)N[C@@H](CC2=c3ccccc3=NC2)C(=O)OCCOCCOCCOCCOC(=O)c2ccc(-c3c4nc(c(-c5c(F)cccc5F)c5ccc([nH]5)c(-c5c(F)cccc5F)c5nc(c(-c6c(F)cccc6F)c6ccc3[nH]6)C=C5)C=C4)cc2)s1
REMARK SMILES IDX 31 1 30 2 29 3 28 4 27 5 25 6 26 7 14 8 13 9 11 10 12 11
REMARK SMILES IDX 10 13 7 14 8 15 96 16 9 17 6 18 5 19 2 20 1 21 3 22 4 23
REMARK SMILES IDX 15 25 16 26 17 27 24 28 18 29 22 30 23 31 19 32 21 33 20 34
REMARK SMILES IDX 32 35 33 36 34 37 35 38 36 39 37 40 38 41 39 42 40 43 41 44
REMARK SMILES IDX 42 45 43 46 95 47 44 48 94 49 45 50 46 51 47 52 88 53 48 54
REMARK SMILES IDX 93 55 87 56 89 57 49 58 92 59 86 60 85 61 50 63 76 64 59 65
REMARK SMILES IDX 75 66 60 67 63 68 74 69 90 70 61 71 62 72 73 74 91 75 64 76
REMARK SMILES IDX 51 77 52 78 57 79 53 80 54 81 56 82 58 83 55 84 77 85 78 86
REMARK SMILES IDX 83 87 79 88 80 89 82 90 84 91 81 92 65 93 66 94 71 95 67 96
REMARK SMILES IDX 68 97 70 98 72 99 69 100
REMARK H PARENT 13 12 4 24 89 62 63 73
REMARK Flexibility Score: inf
ROOT
ATOM      1  C   UNL A   1      37.167  30.806  32.586  1.00  0.00     0.188 C 
ENDROOT
BRANCH   1   2
ATOM      2  O   UNL A   1      37.876  31.344  31.485  1.00  0.00    -0.376 OA
BRANCH   2   3
ATOM      3  C   UNL A   1      38.124  30.642  30.278  1.00  0.00     0.202 C 
BRANCH   3   4
ATOM      4  C   UNL A   1      37.427  29.357  29.832  1.00  0.00     0.261 C 
BRANCH   4   5
ATOM      5  O   UNL A   1      36.099  29.533  29.347  1.00  0.00    -0.462 OA
BRANCH   5   6
ATOM      6  C   UNL A   1      35.990  30.091  28.130  1.00  0.00     0.329 C 
ATOM      7  O   UNL A   1      36.800  29.917  27.222  1.00  0.00    -0.250 OA
BRANCH   6   8
ATOM      8  C   UNL A   1      34.830  31.094  27.997  1.00  0.00     0.196 C 
BRANCH   8   9
ATOM      9  N   UNL A   1      33.387  30.806  27.827  1.00  0.00    -0.338 N 
ATOM     10  C   UNL A   1      32.646  30.091  26.893  1.00  0.00     0.262 C 
ATOM     11  O   UNL A   1      31.420  30.203  26.999  1.00  0.00    -0.268 OA
ATOM     12  H   UNL A   1      32.828  31.212  28.530  1.00  0.00     0.164 HD
BRANCH  10  13
ATOM     13  C   UNL A   1      33.224  29.142  25.937  1.00  0.00     0.093 A 
ATOM     14  C   UNL A   1      33.847  27.071  24.744  1.00  0.00     0.078 A 
ATOM     15  C   UNL A   1      33.720  28.118  23.867  1.00  0.00     0.030 A 
ATOM     16  S   UNL A   1      33.846  27.617  26.345  1.00  0.00    -0.121 S 
ATOM     17  C   UNL A   1      33.374  29.330  24.564  1.00  0.00     0.027 A 
BRANCH  14  18
ATOM     18  C   UNL A   1      33.975  25.674  24.494  1.00  0.00    -0.053 C 
ATOM     19  C   UNL A   1      34.130  24.594  24.010  1.00  0.00    -0.063 C 
BRANCH  19  20
ATOM     20  C   UNL A   1      34.314  23.339  23.261  1.00  0.00     0.120 C 
ATOM     21  C   UNL A   1      33.311  23.256  22.106  1.00  0.00     0.056 C 
ATOM     22  C   UNL A   1      34.168  22.153  24.205  1.00  0.00     0.056 C 
BRANCH  20  23
ATOM     23  O   UNL A   1      35.630  23.326  22.713  1.00  0.00    -0.378 OA
ATOM     24  H   UNL A   1      35.747  22.530  22.172  1.00  0.00     0.212 HD
ENDBRANCH  20  23
ENDBRANCH  19  20
ENDBRANCH  14  18
ENDBRANCH  10  13
ENDBRANCH   8   9
BRANCH   8  25
ATOM     25  C   UNL A   1      34.998  32.069  29.151  1.00  0.00     0.070 C 
BRANCH  25  26
ATOM     26  C   UNL A   1      34.200  33.334  29.128  1.00  0.00    -0.037 C 
ATOM     27  C   UNL A   1      34.143  34.133  30.185  1.00  0.00     0.001 A 
ATOM     28  C   UNL A   1      33.309  33.860  28.038  1.00  0.00     0.174 C 
ATOM     29  C   UNL A   1      34.724  34.071  31.482  1.00  0.00     0.010 A 
ATOM     30  C   UNL A   1      33.224  35.193  29.768  1.00  0.00     0.065 A 
ATOM     31  N   UNL A   1      32.744  35.132  28.565  1.00  0.00    -0.280 NA
ATOM     32  C   UNL A   1      34.399  35.026  32.363  1.00  0.00     0.001 A 
ATOM     33  C   UNL A   1      32.929  36.219  30.786  1.00  0.00     0.028 A 
ATOM     34  C   UNL A   1      33.490  36.103  32.004  1.00  0.00     0.002 A 
ENDBRANCH  25  26
ENDBRANCH   8  25
ENDBRANCH   6   8
ENDBRANCH   5   6
ENDBRANCH   4   5
ENDBRANCH   3   4
ENDBRANCH   2   3
ENDBRANCH   1   2
BRANCH   1  35
ATOM     35  C   UNL A   1      37.836  30.548  33.937  1.00  0.00     0.188 C 
BRANCH  35  36
ATOM     36  O   UNL A   1      38.468  31.647  34.532  1.00  0.00    -0.377 OA
BRANCH  36  37
ATOM     37  C   UNL A   1      37.843  32.210  35.666  1.00  0.00     0.188 C 
BRANCH  37  38
ATOM     38  C   UNL A   1      38.358  31.910  37.098  1.00  0.00     0.188 C 
BRANCH  38  39
ATOM     39  O   UNL A   1      38.808  33.025  37.830  1.00  0.00    -0.376 OA
BRANCH  39  40
ATOM     40  C   UNL A   1      38.594  34.330  37.321  1.00  0.00     0.202 C 
BRANCH  40  41
ATOM     41  C   UNL A   1      39.690  35.145  36.589  1.00  0.00     0.261 C 
BRANCH  41  42
ATOM     42  O   UNL A   1      39.730  35.052  35.150  1.00  0.00    -0.460 OA
BRANCH  42  43
ATOM     43  C   UNL A   1      40.902  35.068  34.473  1.00  0.00     0.338 C 
ATOM     44  O   UNL A   1      41.698  35.989  34.449  1.00  0.00    -0.246 OA
BRANCH  43  45
ATOM     45  C   UNL A   1      41.230  33.640  34.119  1.00  0.00     0.060 A 
ATOM     46  C   UNL A   1      42.134  32.852  34.841  1.00  0.00     0.016 A 
ATOM     47  C   UNL A   1      40.874  33.245  32.818  1.00  0.00     0.016 A 
ATOM     48  C   UNL A   1      42.796  31.793  34.189  1.00  0.00     0.010 A 
ATOM     49  C   UNL A   1      41.559  32.213  32.164  1.00  0.00     0.010 A 
ATOM     50  C   UNL A   1      42.577  31.520  32.818  1.00  0.00    -0.014 A 
BRANCH  50  51
ATOM     51  C   UNL A   1      43.220  30.334  32.194  1.00  0.00     0.031 A 
ATOM     52  C   UNL A   1      44.208  30.775  31.160  1.00  0.00     0.074 A 
ATOM     53  C   UNL A   1      43.135  29.018  32.542  1.00  0.00     0.049 A 
ATOM     54  N   UNL A   1      44.202  30.533  29.892  1.00  0.00    -0.248 NA
ATOM     55  C   UNL A   1      45.224  31.763  31.572  1.00  0.00     0.031 C 
ATOM     56  C   UNL A   1      42.452  28.414  33.690  1.00  0.00     0.029 A 
ATOM     57  N   UNL A   1      43.701  27.908  31.944  1.00  0.00    -0.354 N 
ATOM     58  C   UNL A   1      45.310  31.199  29.368  1.00  0.00     0.074 A 
ATOM     59  C   UNL A   1      45.807  32.054  30.410  1.00  0.00     0.031 C 
ATOM     60  C   UNL A   1      42.793  27.107  33.809  1.00  0.00     0.029 A 
ATOM     61  C   UNL A   1      43.650  26.725  32.704  1.00  0.00     0.049 A 
ATOM     62  H   UNL A   1      44.112  27.942  31.050  1.00  0.00     0.167 HD
ATOM     63  C   UNL A   1      45.856  30.840  28.175  1.00  0.00     0.037 A 
ATOM     64  C   UNL A   1      44.277  25.530  32.471  1.00  0.00     0.037 A 
ATOM     65  C   UNL A   1      44.919  30.081  27.391  1.00  0.00     0.049 A 
ATOM     66  C   UNL A   1      44.675  25.498  31.044  1.00  0.00     0.074 A 
ATOM     67  C   UNL A   1      43.712  30.359  26.784  1.00  0.00     0.029 A 
ATOM     68  N   UNL A   1      45.001  28.713  27.458  1.00  0.00    -0.354 N 
ATOM     69  N   UNL A   1      43.818  25.435  30.067  1.00  0.00    -0.248 NA
ATOM     70  C   UNL A   1      45.972  26.073  30.723  1.00  0.00     0.031 C 
ATOM     71  C   UNL A   1      42.927  29.185  26.977  1.00  0.00     0.029 A 
ATOM     72  C   UNL A   1      43.727  28.225  27.597  1.00  0.00     0.049 A 
ATOM     73  H   UNL A   1      45.826  28.178  27.413  1.00  0.00     0.167 HD
ATOM     74  C   UNL A   1      44.272  26.377  29.160  1.00  0.00     0.074 A 
ATOM     75  C   UNL A   1      45.618  26.728  29.615  1.00  0.00     0.031 C 
ATOM     76  C   UNL A   1      43.416  27.007  28.304  1.00  0.00     0.037 A 
BRANCH  63  77
ATOM     77  C   UNL A   1      47.337  30.831  27.892  1.00  0.00     0.057 A 
ATOM     78  C   UNL A   1      47.994  31.785  27.088  1.00  0.00     0.134 A 
ATOM     79  C   UNL A   1      48.182  30.051  28.703  1.00  0.00     0.134 A 
ATOM     80  F   UNL A   1      47.334  32.635  26.293  1.00  0.00    -0.206 F 
ATOM     81  C   UNL A   1      49.375  31.991  27.133  1.00  0.00     0.040 A 
ATOM     82  C   UNL A   1      49.561  30.280  28.788  1.00  0.00     0.040 A 
ATOM     83  F   UNL A   1      47.682  29.100  29.506  1.00  0.00    -0.206 F 
ATOM     84  C   UNL A   1      50.159  31.266  28.014  1.00  0.00     0.006 A 
ENDBRANCH  63  77
BRANCH  64  85
ATOM     85  C   UNL A   1      44.863  24.555  33.441  1.00  0.00     0.057 A 
ATOM     86  C   UNL A   1      44.335  23.257  33.548  1.00  0.00     0.134 A 
ATOM     87  C   UNL A   1      45.737  24.932  34.481  1.00  0.00     0.134 A 
ATOM     88  F   UNL A   1      43.418  22.820  32.674  1.00  0.00    -0.206 F 
ATOM     89  C   UNL A   1      44.650  22.390  34.604  1.00  0.00     0.040 A 
ATOM     90  C   UNL A   1      46.063  24.071  35.547  1.00  0.00     0.040 A 
ATOM     91  F   UNL A   1      46.252  26.170  34.525  1.00  0.00    -0.206 F 
ATOM     92  C   UNL A   1      45.512  22.795  35.615  1.00  0.00     0.006 A 
ENDBRANCH  64  85
BRANCH  76  93
ATOM     93  C   UNL A   1      41.995  26.513  28.228  1.00  0.00     0.057 A 
ATOM     94  C   UNL A   1      41.651  25.646  27.185  1.00  0.00     0.134 A 
ATOM     95  C   UNL A   1      40.945  26.971  29.040  1.00  0.00     0.134 A 
ATOM     96  F   UNL A   1      42.593  25.202  26.338  1.00  0.00    -0.206 F 
ATOM     97  C   UNL A   1      40.331  25.252  26.954  1.00  0.00     0.040 A 
ATOM     98  C   UNL A   1      39.624  26.551  28.843  1.00  0.00     0.040 A 
ATOM     99  F   UNL A   1      41.153  27.877  30.006  1.00  0.00    -0.206 F 
ATOM    100  C   UNL A   1      39.313  25.697  27.789  1.00  0.00     0.006 A 
ENDBRANCH  76  93
ENDBRANCH  50  51
ENDBRANCH  43  45
ENDBRANCH  42  43
ENDBRANCH  41  42
ENDBRANCH  40  41
ENDBRANCH  39  40
ENDBRANCH  38  39
ENDBRANCH  37  38
ENDBRANCH  36  37
ENDBRANCH  35  36
ENDBRANCH   1  35
TORSDOF 27
ENDMDL
MODEL 3
REMARK VINA RESULT:      -8.9      3.614      5.716
REMARK SMILES CC(C)(O)C#Cc1ccc(C(=O)N[C@@H](CC2=c3ccccc3=NC2)C(=O)OCCOCCOCCOCCOC(=O)c2ccc(-c3c4nc(c(-c5c(F)cccc5F)c5ccc([nH]5)c(-c5c(F)cccc5F)c5nc(c(-c6c(F)cccc6F)c6ccc3[nH]6)C=C5)C=C4)cc2)s1
REMARK SMILES IDX 31 1 30 2 29 3 28 4 27 5 25 6 26 7 14 8 13 9 11 10 12 11
REMARK SMILES IDX 10 13 7 14 8 15 96 16 9 17 6 18 5 19 2 20 1 21 3 22 4 23
REMARK SMILES IDX 15 25 16 26 17 27 24 28 18 29 22 30 23 31 19 32 21 33 20 34
REMARK SMILES IDX 32 35 33 36 34 37 35 38 36 39 37 40 38 41 39 42 40 43 41 44
REMARK SMILES IDX 42 45 43 46 95 47 44 48 94 49 45 50 46 51 47 52 88 53 48 54
REMARK SMILES IDX 93 55 87 56 89 57 49 58 92 59 86 60 85 61 50 63 76 64 59 65
REMARK SMILES IDX 75 66 60 67 63 68 74 69 90 70 61 71 62 72 73 74 91 75 64 76
REMARK SMILES IDX 51 77 52 78 57 79 53 80 54 81 56 82 58 83 55 84 77 85 78 86
REMARK SMILES IDX 83 87 79 88 80 89 82 90 84 91 81 92 65 93 66 94 71 95 67 96
REMARK SMILES IDX 68 97 70 98 72 99 69 100
REMARK H PARENT 13 12 4 24 89 62 63 73
REMARK Flexibility Score: inf
ROOT
ATOM      1  C   UNL A   1      33.481  28.722  27.022  1.00  0.00     0.188 C 
ENDROOT
BRANCH   1   2
ATOM      2  O   UNL A   1      32.709  27.634  27.495  1.00  0.00    -0.376 OA
BRANCH   2   3
ATOM      3  C   UNL A   1      31.677  27.007  26.751  1.00  0.00     0.202 C 
BRANCH   3   4
ATOM      4  C   UNL A   1      31.743  26.632  25.271  1.00  0.00     0.261 C 
BRANCH   4   5
ATOM      5  O   UNL A   1      30.674  25.807  24.814  1.00  0.00    -0.462 OA
BRANCH   5   6
ATOM      6  C   UNL A   1      30.010  26.255  23.735  1.00  0.00     0.329 C 
ATOM      7  O   UNL A   1      28.826  26.013  23.510  1.00  0.00    -0.250 OA
BRANCH   6   8
ATOM      8  C   UNL A   1      30.894  26.990  22.711  1.00  0.00     0.196 C 
BRANCH   8   9
ATOM      9  N   UNL A   1      31.683  26.411  21.600  1.00  0.00    -0.338 N 
ATOM     10  C   UNL A   1      32.662  25.428  21.518  1.00  0.00     0.262 C 
ATOM     11  O   UNL A   1      33.207  25.320  20.414  1.00  0.00    -0.268 OA
ATOM     12  H   UNL A   1      31.466  26.810  20.726  1.00  0.00     0.164 HD
BRANCH  10  13
ATOM     13  C   UNL A   1      32.953  24.465  22.585  1.00  0.00     0.093 A 
ATOM     14  C   UNL A   1      33.185  22.382  23.891  1.00  0.00     0.078 A 
ATOM     15  C   UNL A   1      34.190  23.264  24.199  1.00  0.00     0.030 A 
ATOM     16  S   UNL A   1      31.977  23.133  22.977  1.00  0.00    -0.121 S 
ATOM     17  C   UNL A   1      34.044  24.486  23.451  1.00  0.00     0.027 A 
BRANCH  14  18
ATOM     18  C   UNL A   1      33.039  21.004  24.224  1.00  0.00    -0.053 C 
ATOM     19  C   UNL A   1      33.181  19.829  24.379  1.00  0.00    -0.063 C 
BRANCH  19  20
ATOM     20  C   UNL A   1      33.491  18.392  24.468  1.00  0.00     0.120 C 
ATOM     21  C   UNL A   1      33.169  17.695  23.142  1.00  0.00     0.056 C 
ATOM     22  C   UNL A   1      32.715  17.770  25.621  1.00  0.00     0.056 C 
BRANCH  20  23
ATOM     23  O   UNL A   1      34.886  18.244  24.725  1.00  0.00    -0.378 OA
ATOM     24  H   UNL A   1      35.266  17.616  24.090  1.00  0.00     0.212 HD
ENDBRANCH  20  23
ENDBRANCH  19  20
ENDBRANCH  14  18
ENDBRANCH  10  13
ENDBRANCH   8   9
BRANCH   8  25
ATOM     25  C   UNL A   1      30.031  28.114  22.160  1.00  0.00     0.070 C 
BRANCH  25  26
ATOM     26  C   UNL A   1      29.922  29.375  22.958  1.00  0.00    -0.037 C 
ATOM     27  C   UNL A   1      29.251  30.424  22.501  1.00  0.00     0.001 A 
ATOM     28  C   UNL A   1      30.566  29.712  24.273  1.00  0.00     0.174 C 
ATOM     29  C   UNL A   1      28.528  30.667  21.300  1.00  0.00     0.010 A 
ATOM     30  C   UNL A   1      29.447  31.438  23.537  1.00  0.00     0.065 A 
ATOM     31  N   UNL A   1      30.141  31.104  24.580  1.00  0.00    -0.280 NA
ATOM     32  C   UNL A   1      28.016  31.890  21.109  1.00  0.00     0.001 A 
ATOM     33  C   UNL A   1      28.840  32.755  23.265  1.00  0.00     0.028 A 
ATOM     34  C   UNL A   1      28.182  32.938  22.105  1.00  0.00     0.002 A 
ENDBRANCH  25  26
ENDBRANCH   8  25
ENDBRANCH   6   8
ENDBRANCH   5   6
ENDBRANCH   4   5
ENDBRANCH   3   4
ENDBRANCH   2   3
ENDBRANCH   1   2
BRANCH   1  35
ATOM     35  C   UNL A   1      33.829  29.918  27.909  1.00  0.00     0.188 C 
BRANCH  35  36
ATOM     36  O   UNL A   1      33.947  31.154  27.260  1.00  0.00    -0.377 OA
BRANCH  36  37
ATOM     37  C   UNL A   1      34.170  32.287  28.074  1.00  0.00     0.188 C 
BRANCH  37  38
ATOM     38  C   UNL A   1      34.746  33.599  27.482  1.00  0.00     0.188 C 
BRANCH  38  39
ATOM     39  O   UNL A   1      34.774  34.702  28.358  1.00  0.00    -0.376 OA
BRANCH  39  40
ATOM     40  C   UNL A   1      34.961  34.488  29.746  1.00  0.00     0.202 C 
BRANCH  40  41
ATOM     41  C   UNL A   1      33.845  34.713  30.796  1.00  0.00     0.261 C 
BRANCH  41  42
ATOM     42  O   UNL A   1      34.245  34.778  32.181  1.00  0.00    -0.460 OA
BRANCH  42  43
ATOM     43  C   UNL A   1      34.294  33.667  32.954  1.00  0.00     0.338 C 
ATOM     44  O   UNL A   1      33.444  32.798  33.009  1.00  0.00    -0.246 OA
BRANCH  43  45
ATOM     45  C   UNL A   1      35.727  33.497  33.394  1.00  0.00     0.060 A 
ATOM     46  C   UNL A   1      36.325  32.250  33.614  1.00  0.00     0.016 A 
ATOM     47  C   UNL A   1      36.332  34.645  33.932  1.00  0.00     0.016 A 
ATOM     48  C   UNL A   1      37.408  32.157  34.511  1.00  0.00     0.010 A 
ATOM     49  C   UNL A   1      37.386  34.542  34.849  1.00  0.00     0.010 A 
ATOM     50  C   UNL A   1      37.891  33.292  35.203  1.00  0.00    -0.014 A 
BRANCH  50  51
ATOM     51  C   UNL A   1      39.097  33.168  36.064  1.00  0.00     0.031 A 
ATOM     52  C   UNL A   1      38.711  33.306  37.504  1.00  0.00     0.074 A 
ATOM     53  C   UNL A   1      40.370  32.814  35.728  1.00  0.00     0.049 A 
ATOM     54  N   UNL A   1      39.089  34.203  38.352  1.00  0.00    -0.248 NA
ATOM     55  C   UNL A   1      37.625  32.438  37.999  1.00  0.00     0.031 C 
ATOM     56  C   UNL A   1      40.886  32.368  34.430  1.00  0.00     0.029 A 
ATOM     57  N   UNL A   1      41.502  32.732  36.517  1.00  0.00    -0.354 N 
ATOM     58  C   UNL A   1      38.417  33.916  39.540  1.00  0.00     0.074 A 
ATOM     59  C   UNL A   1      37.425  32.925  39.223  1.00  0.00     0.031 C 
ATOM     60  C   UNL A   1      42.150  31.893  34.562  1.00  0.00     0.029 A 
ATOM     61  C   UNL A   1      42.596  32.071  35.930  1.00  0.00     0.049 A 
ATOM     62  H   UNL A   1      41.540  33.108  37.425  1.00  0.00     0.167 HD
ATOM     63  C   UNL A   1      38.869  34.370  40.739  1.00  0.00     0.037 A 
ATOM     64  C   UNL A   1      43.769  31.673  36.514  1.00  0.00     0.037 A 
ATOM     65  C   UNL A   1      39.764  35.482  40.561  1.00  0.00     0.049 A 
ATOM     66  C   UNL A   1      43.931  32.437  37.772  1.00  0.00     0.074 A 
ATOM     67  C   UNL A   1      39.628  36.773  40.093  1.00  0.00     0.029 A 
ATOM     68  N   UNL A   1      41.109  35.213  40.536  1.00  0.00    -0.354 N 
ATOM     69  N   UNL A   1      44.152  33.720  37.803  1.00  0.00    -0.248 NA
ATOM     70  C   UNL A   1      43.316  31.864  38.959  1.00  0.00     0.031 C 
ATOM     71  C   UNL A   1      40.819  37.021  39.351  1.00  0.00     0.029 A 
ATOM     72  C   UNL A   1      41.656  35.914  39.492  1.00  0.00     0.049 A 
ATOM     73  H   UNL A   1      41.595  34.624  41.157  1.00  0.00     0.167 HD
ATOM     74  C   UNL A   1      43.287  34.187  38.779  1.00  0.00     0.074 A 
ATOM     75  C   UNL A   1      42.809  32.988  39.470  1.00  0.00     0.031 C 
ATOM     76  C   UNL A   1      42.807  35.463  38.749  1.00  0.00     0.037 A 
BRANCH  63  77
ATOM     77  C   UNL A   1      38.819  33.574  42.019  1.00  0.00     0.057 A 
ATOM     78  C   UNL A   1      37.941  33.850  43.088  1.00  0.00     0.134 A 
ATOM     79  C   UNL A   1      39.425  32.305  42.057  1.00  0.00     0.134 A 
ATOM     80  F   UNL A   1      37.251  34.993  43.177  1.00  0.00    -0.206 F 
ATOM     81  C   UNL A   1      37.641  32.915  44.081  1.00  0.00     0.040 A 
ATOM     82  C   UNL A   1      39.097  31.346  43.024  1.00  0.00     0.040 A 
ATOM     83  F   UNL A   1      40.291  31.925  41.105  1.00  0.00    -0.206 F 
ATOM     84  C   UNL A   1      38.187  31.644  44.030  1.00  0.00     0.006 A 
ENDBRANCH  63  77
BRANCH  64  85
ATOM     85  C   UNL A   1      44.596  30.453  36.258  1.00  0.00     0.057 A 
ATOM     86  C   UNL A   1      44.032  29.174  36.390  1.00  0.00     0.134 A 
ATOM     87  C   UNL A   1      46.003  30.481  36.173  1.00  0.00     0.134 A 
ATOM     88  F   UNL A   1      42.714  29.026  36.579  1.00  0.00    -0.206 F 
ATOM     89  C   UNL A   1      44.801  28.001  36.430  1.00  0.00     0.040 A 
ATOM     90  C   UNL A   1      46.787  29.311  36.210  1.00  0.00     0.040 A 
ATOM     91  F   UNL A   1      46.661  31.648  36.111  1.00  0.00    -0.206 F 
ATOM     92  C   UNL A   1      46.185  28.064  36.347  1.00  0.00     0.006 A 
ENDBRANCH  64  85
BRANCH  76  93
ATOM     93  C   UNL A   1      43.392  36.419  37.742  1.00  0.00     0.057 A 
ATOM     94  C   UNL A   1      42.825  36.461  36.463  1.00  0.00     0.134 A 
ATOM     95  C   UNL A   1      44.561  37.171  37.939  1.00  0.00     0.134 A 
ATOM     96  F   UNL A   1      41.733  35.731  36.184  1.00  0.00    -0.206 F 
ATOM     97  C   UNL A   1      43.389  37.208  35.427  1.00  0.00     0.040 A 
ATOM     98  C   UNL A   1      45.113  37.957  36.919  1.00  0.00     0.040 A 
ATOM     99  F   UNL A   1      45.233  37.126  39.097  1.00  0.00    -0.206 F 
ATOM    100  C   UNL A   1      44.531  37.968  35.655  1.00  0.00     0.006 A 
ENDBRANCH  76  93
ENDBRANCH  50  51
ENDBRANCH  43  45
ENDBRANCH  42  43
ENDBRANCH  41  42
ENDBRANCH  40  41
ENDBRANCH  39  40
ENDBRANCH  38  39
ENDBRANCH  37  38
ENDBRANCH  36  37
ENDBRANCH  35  36
ENDBRANCH   1  35
TORSDOF 27
ENDMDL
