MODEL 1
REMARK VINA RESULT:      -9.8      0.000      0.000
REMARK SMILES CCOc1ccc(NC(=O)N2CC[C@@H](C(=O)OCCOCCOCCOCCOC(=O)c3ccc(-c4c5nc(c(-c6c(F)cccc6F)c6ccc([nH]6)c(-c6c(F)cccc6F)c6nc(c(-c7c(F)cccc7F)c7ccc4[nH]7)C=C6)C=C5)cc3)[C@@H]2C)cc1
REMARK SMILES IDX 22 1 21 2 20 3 19 4 18 5 17 6 15 7 16 8 14 9 11 10 12 11
REMARK SMILES IDX 86 12 13 13 87 14 9 15 8 16 10 18 7 19 4 20 5 21 89 22 6 23
REMARK SMILES IDX 88 24 3 25 2 26 1 27 23 28 24 29 25 30 26 31 27 32 28 33
REMARK SMILES IDX 29 34 30 35 31 36 32 37 33 38 85 39 34 40 84 41 35 42 36 43
REMARK SMILES IDX 37 44 78 45 38 46 83 47 77 48 79 49 39 50 82 51 76 52 75 53
REMARK SMILES IDX 40 55 66 56 49 57 65 58 50 59 53 60 64 61 80 62 51 63 52 64
REMARK SMILES IDX 63 66 81 67 54 68 41 69 42 70 47 71 43 72 44 73 46 74 48 75
REMARK SMILES IDX 45 76 67 77 68 78 73 79 69 80 70 81 72 82 74 83 71 84 55 85
REMARK SMILES IDX 56 86 61 87 57 88 58 89 60 90 62 91 59 92
REMARK H PARENT 8 17 79 54 53 65
REMARK Flexibility Score: inf
ROOT
ATOM      1  C   UNL A   1      36.602  23.677  24.784  1.00  0.00     0.188 C 
ENDROOT
BRANCH   1   2
ATOM      2  C   UNL A   1      36.426  22.683  23.634  1.00  0.00     0.188 C 
BRANCH   2   3
ATOM      3  O   UNL A   1      35.507  23.222  22.690  1.00  0.00    -0.376 OA
BRANCH   3   4
ATOM      4  C   UNL A   1      34.133  23.126  22.990  1.00  0.00     0.202 C 
BRANCH   4   5
ATOM      5  C   UNL A   1      33.119  23.289  21.842  1.00  0.00     0.261 C 
BRANCH   5   6
ATOM      6  O   UNL A   1      32.172  24.375  21.923  1.00  0.00    -0.463 OA
BRANCH   6   7
ATOM      7  C   UNL A   1      32.677  25.622  21.762  1.00  0.00     0.311 C 
ATOM      8  O   UNL A   1      33.280  25.979  20.754  1.00  0.00    -0.252 OA
BRANCH   7   9
ATOM      9  C   UNL A   1      32.484  26.568  22.942  1.00  0.00     0.123 C 
ATOM     10  N   UNL A   1      31.935  26.345  25.257  1.00  0.00    -0.321 N 
ATOM     11  C   UNL A   1      33.252  26.925  25.200  1.00  0.00     0.122 C 
ATOM     12  C   UNL A   1      31.301  26.379  23.926  1.00  0.00     0.098 C 
ATOM     13  C   UNL A   1      33.736  26.483  23.835  1.00  0.00     0.039 C 
ATOM     14  C   UNL A   1      30.347  27.585  23.869  1.00  0.00     0.032 C 
BRANCH  10  15
ATOM     15  C   UNL A   1      31.331  26.123  26.462  1.00  0.00     0.322 C 
ATOM     16  N   UNL A   1      31.065  24.850  26.860  1.00  0.00    -0.308 N 
ATOM     17  H   UNL A   1      30.276  24.755  27.441  1.00  0.00     0.171 HD
ATOM     18  O   UNL A   1      31.036  27.051  27.217  1.00  0.00    -0.248 OA
BRANCH  16  19
ATOM     19  C   UNL A   1      31.738  23.650  26.575  1.00  0.00     0.043 A 
ATOM     20  C   UNL A   1      33.060  21.345  25.773  1.00  0.00     0.119 A 
ATOM     21  C   UNL A   1      33.686  22.209  26.653  1.00  0.00     0.048 A 
ATOM     22  C   UNL A   1      31.725  21.528  25.417  1.00  0.00     0.048 A 
ATOM     23  C   UNL A   1      33.005  23.339  27.080  1.00  0.00     0.030 A 
ATOM     24  C   UNL A   1      31.074  22.703  25.790  1.00  0.00     0.030 A 
BRANCH  20  25
ATOM     25  O   UNL A   1      33.786  20.333  25.218  1.00  0.00    -0.494 OA
BRANCH  25  26
ATOM     26  C   UNL A   1      32.951  19.177  25.031  1.00  0.00     0.226 C 
ATOM     27  C   UNL A   1      33.429  18.318  23.877  1.00  0.00     0.049 C 
ENDBRANCH  25  26
ENDBRANCH  20  25
ENDBRANCH  16  19
ENDBRANCH  10  15
ENDBRANCH   7   9
ENDBRANCH   6   7
ENDBRANCH   5   6
ENDBRANCH   4   5
ENDBRANCH   3   4
ENDBRANCH   2   3
ENDBRANCH   1   2
BRANCH   1  28
ATOM     28  O   UNL A   1      37.031  23.072  25.996  1.00  0.00    -0.377 OA
BRANCH  28  29
ATOM     29  C   UNL A   1      38.158  23.711  26.603  1.00  0.00     0.188 C 
BRANCH  29  30
ATOM     30  C   UNL A   1      39.404  22.822  26.522  1.00  0.00     0.188 C 
BRANCH  30  31
ATOM     31  O   UNL A   1      39.282  21.416  26.705  1.00  0.00    -0.376 OA
BRANCH  31  32
ATOM     32  C   UNL A   1      39.400  20.542  25.595  1.00  0.00     0.202 C 
BRANCH  32  33
ATOM     33  C   UNL A   1      40.118  19.206  25.818  1.00  0.00     0.261 C 
BRANCH  33  34
ATOM     34  O   UNL A   1      41.379  19.281  26.496  1.00  0.00    -0.460 OA
BRANCH  34  35
ATOM     35  C   UNL A   1      42.448  19.726  25.790  1.00  0.00     0.338 C 
ATOM     36  O   UNL A   1      43.130  19.119  25.001  1.00  0.00    -0.246 OA
BRANCH  35  37
ATOM     37  C   UNL A   1      42.616  21.152  26.171  1.00  0.00     0.060 A 
ATOM     38  C   UNL A   1      42.703  21.520  27.519  1.00  0.00     0.016 A 
ATOM     39  C   UNL A   1      42.795  22.112  25.167  1.00  0.00     0.016 A 
ATOM     40  C   UNL A   1      43.026  22.846  27.862  1.00  0.00     0.010 A 
ATOM     41  C   UNL A   1      43.109  23.429  25.512  1.00  0.00     0.010 A 
ATOM     42  C   UNL A   1      43.243  23.809  26.863  1.00  0.00    -0.014 A 
BRANCH  42  43
ATOM     43  C   UNL A   1      43.403  25.257  27.180  1.00  0.00     0.031 A 
ATOM     44  C   UNL A   1      44.776  25.835  27.029  1.00  0.00     0.074 A 
ATOM     45  C   UNL A   1      42.417  26.043  27.663  1.00  0.00     0.049 A 
ATOM     46  N   UNL A   1      45.192  27.051  27.261  1.00  0.00    -0.248 NA
ATOM     47  C   UNL A   1      45.818  24.910  26.554  1.00  0.00     0.031 C 
ATOM     48  C   UNL A   1      41.034  25.641  27.852  1.00  0.00     0.029 A 
ATOM     49  N   UNL A   1      42.434  27.344  28.114  1.00  0.00    -0.354 N 
ATOM     50  C   UNL A   1      46.532  27.048  26.915  1.00  0.00     0.074 A 
ATOM     51  C   UNL A   1      46.882  25.693  26.551  1.00  0.00     0.031 C 
ATOM     52  C   UNL A   1      40.344  26.632  28.441  1.00  0.00     0.029 A 
ATOM     53  C   UNL A   1      41.233  27.770  28.642  1.00  0.00     0.049 A 
ATOM     54  H   UNL A   1      43.232  27.919  28.064  1.00  0.00     0.167 HD
ATOM     55  C   UNL A   1      47.391  28.089  26.859  1.00  0.00     0.037 A 
ATOM     56  C   UNL A   1      40.889  28.943  29.212  1.00  0.00     0.037 A 
ATOM     57  C   UNL A   1      47.076  29.426  27.269  1.00  0.00     0.049 A 
ATOM     58  C   UNL A   1      41.904  30.057  29.268  1.00  0.00     0.074 A 
ATOM     59  C   UNL A   1      47.887  30.545  27.252  1.00  0.00     0.029 A 
ATOM     60  N   UNL A   1      45.857  29.817  27.800  1.00  0.00    -0.354 N 
ATOM     61  N   UNL A   1      43.136  30.075  28.820  1.00  0.00    -0.248 NA
ATOM     62  C   UNL A   1      41.472  31.327  29.875  1.00  0.00     0.031 C 
ATOM     63  C   UNL A   1      47.175  31.605  27.822  1.00  0.00     0.029 A 
ATOM     64  C   UNL A   1      45.904  31.156  28.146  1.00  0.00     0.049 A 
ATOM     65  H   UNL A   1      45.074  29.230  27.913  1.00  0.00     0.167 HD
ATOM     66  C   UNL A   1      43.603  31.364  29.039  1.00  0.00     0.074 A 
ATOM     67  C   UNL A   1      42.526  32.103  29.660  1.00  0.00     0.031 C 
ATOM     68  C   UNL A   1      44.815  31.891  28.739  1.00  0.00     0.037 A 
BRANCH  55  69
ATOM     69  C   UNL A   1      48.754  27.779  26.332  1.00  0.00     0.057 A 
ATOM     70  C   UNL A   1      48.983  27.640  24.954  1.00  0.00     0.134 A 
ATOM     71  C   UNL A   1      49.823  27.539  27.200  1.00  0.00     0.134 A 
ATOM     72  F   UNL A   1      47.984  27.824  24.077  1.00  0.00    -0.206 F 
ATOM     73  C   UNL A   1      50.221  27.234  24.462  1.00  0.00     0.040 A 
ATOM     74  C   UNL A   1      51.074  27.158  26.716  1.00  0.00     0.040 A 
ATOM     75  F   UNL A   1      49.660  27.644  28.527  1.00  0.00    -0.206 F 
ATOM     76  C   UNL A   1      51.272  26.992  25.345  1.00  0.00     0.006 A 
ENDBRANCH  55  69
BRANCH  56  77
ATOM     77  C   UNL A   1      39.522  29.173  29.757  1.00  0.00     0.057 A 
ATOM     78  C   UNL A   1      39.214  28.878  31.092  1.00  0.00     0.134 A 
ATOM     79  C   UNL A   1      38.466  29.586  28.935  1.00  0.00     0.134 A 
ATOM     80  F   UNL A   1      40.174  28.447  31.924  1.00  0.00    -0.206 F 
ATOM     81  C   UNL A   1      37.906  28.944  31.580  1.00  0.00     0.040 A 
ATOM     82  C   UNL A   1      37.155  29.680  29.415  1.00  0.00     0.040 A 
ATOM     83  F   UNL A   1      38.684  29.874  27.644  1.00  0.00    -0.206 F 
ATOM     84  C   UNL A   1      36.871  29.344  30.738  1.00  0.00     0.006 A 
ENDBRANCH  56  77
BRANCH  68  85
ATOM     85  C   UNL A   1      45.034  33.347  29.023  1.00  0.00     0.057 A 
ATOM     86  C   UNL A   1      45.628  33.793  30.210  1.00  0.00     0.134 A 
ATOM     87  C   UNL A   1      44.713  34.312  28.058  1.00  0.00     0.134 A 
ATOM     88  F   UNL A   1      45.946  32.922  31.180  1.00  0.00    -0.206 F 
ATOM     89  C   UNL A   1      45.885  35.147  30.432  1.00  0.00     0.040 A 
ATOM     90  C   UNL A   1      44.990  35.664  28.257  1.00  0.00     0.040 A 
ATOM     91  F   UNL A   1      44.147  33.951  26.896  1.00  0.00    -0.206 F 
ATOM     92  C   UNL A   1      45.577  36.085  29.449  1.00  0.00     0.006 A 
ENDBRANCH  68  85
ENDBRANCH  42  43
ENDBRANCH  35  37
ENDBRANCH  34  35
ENDBRANCH  33  34
ENDBRANCH  32  33
ENDBRANCH  31  32
ENDBRANCH  30  31
ENDBRANCH  29  30
ENDBRANCH  28  29
ENDBRANCH   1  28
TORSDOF 24
ENDMDL
MODEL 2
REMARK VINA RESULT:      -9.8      1.703      3.704
REMARK SMILES CCOc1ccc(NC(=O)N2CC[C@@H](C(=O)OCCOCCOCCOCCOC(=O)c3ccc(-c4c5nc(c(-c6c(F)cccc6F)c6ccc([nH]6)c(-c6c(F)cccc6F)c6nc(c(-c7c(F)cccc7F)c7ccc4[nH]7)C=C6)C=C5)cc3)[C@@H]2C)cc1
REMARK SMILES IDX 22 1 21 2 20 3 19 4 18 5 17 6 15 7 16 8 14 9 11 10 12 11
REMARK SMILES IDX 86 12 13 13 87 14 9 15 8 16 10 18 7 19 4 20 5 21 89 22 6 23
REMARK SMILES IDX 88 24 3 25 2 26 1 27 23 28 24 29 25 30 26 31 27 32 28 33
REMARK SMILES IDX 29 34 30 35 31 36 32 37 33 38 85 39 34 40 84 41 35 42 36 43
REMARK SMILES IDX 37 44 78 45 38 46 83 47 77 48 79 49 39 50 82 51 76 52 75 53
REMARK SMILES IDX 40 55 66 56 49 57 65 58 50 59 53 60 64 61 80 62 51 63 52 64
REMARK SMILES IDX 63 66 81 67 54 68 41 69 42 70 47 71 43 72 44 73 46 74 48 75
REMARK SMILES IDX 45 76 67 77 68 78 73 79 69 80 70 81 72 82 74 83 71 84 55 85
REMARK SMILES IDX 56 86 61 87 57 88 58 89 60 90 62 91 59 92
REMARK H PARENT 8 17 79 54 53 65
REMARK Flexibility Score: inf
ROOT
ATOM      1  C   UNL A   1      37.320  22.701  25.711  1.00  0.00     0.188 C 
ENDROOT
BRANCH   1   2
ATOM      2  C   UNL A   1      37.002  22.202  24.300  1.00  0.00     0.188 C 
BRANCH   2   3
ATOM      3  O   UNL A   1      35.635  21.811  24.242  1.00  0.00    -0.376 OA
BRANCH   3   4
ATOM      4  C   UNL A   1      34.663  22.830  24.290  1.00  0.00     0.202 C 
BRANCH   4   5
ATOM      5  C   UNL A   1      34.854  24.070  23.395  1.00  0.00     0.261 C 
BRANCH   5   6
ATOM      6  O   UNL A   1      34.000  24.209  22.240  1.00  0.00    -0.463 OA
BRANCH   6   7
ATOM      7  C   UNL A   1      33.362  25.397  22.107  1.00  0.00     0.311 C 
ATOM      8  O   UNL A   1      33.879  26.385  21.594  1.00  0.00    -0.252 OA
BRANCH   7   9
ATOM      9  C   UNL A   1      31.949  25.452  22.676  1.00  0.00     0.123 C 
ATOM     10  N   UNL A   1      30.961  25.965  24.791  1.00  0.00    -0.321 N 
ATOM     11  C   UNL A   1      30.463  26.940  23.855  1.00  0.00     0.122 C 
ATOM     12  C   UNL A   1      31.632  24.864  24.075  1.00  0.00     0.098 C 
ATOM     13  C   UNL A   1      31.532  26.930  22.784  1.00  0.00     0.039 C 
ATOM     14  C   UNL A   1      30.651  23.684  23.961  1.00  0.00     0.032 C 
BRANCH  10  15
ATOM     15  C   UNL A   1      30.546  25.983  26.091  1.00  0.00     0.322 C 
ATOM     16  N   UNL A   1      31.307  26.599  27.035  1.00  0.00    -0.308 N 
ATOM     17  H   UNL A   1      31.238  26.214  27.939  1.00  0.00     0.171 HD
ATOM     18  O   UNL A   1      29.480  25.468  26.436  1.00  0.00    -0.248 OA
BRANCH  16  19
ATOM     19  C   UNL A   1      32.174  27.699  26.927  1.00  0.00     0.043 A 
ATOM     20  C   UNL A   1      33.857  29.905  26.956  1.00  0.00     0.119 A 
ATOM     21  C   UNL A   1      34.355  28.685  26.540  1.00  0.00     0.048 A 
ATOM     22  C   UNL A   1      32.495  30.079  27.198  1.00  0.00     0.048 A 
ATOM     23  C   UNL A   1      33.499  27.594  26.491  1.00  0.00     0.030 A 
ATOM     24  C   UNL A   1      31.659  28.965  27.219  1.00  0.00     0.030 A 
BRANCH  20  25
ATOM     25  O   UNL A   1      34.729  30.932  27.172  1.00  0.00    -0.494 OA
BRANCH  25  26
ATOM     26  C   UNL A   1      34.328  31.679  28.333  1.00  0.00     0.226 C 
ATOM     27  C   UNL A   1      35.510  32.026  29.216  1.00  0.00     0.049 C 
ENDBRANCH  25  26
ENDBRANCH  20  25
ENDBRANCH  16  19
ENDBRANCH  10  15
ENDBRANCH   7   9
ENDBRANCH   6   7
ENDBRANCH   5   6
ENDBRANCH   4   5
ENDBRANCH   3   4
ENDBRANCH   2   3
ENDBRANCH   1   2
BRANCH   1  28
ATOM     28  O   UNL A   1      38.645  22.404  26.132  1.00  0.00    -0.377 OA
BRANCH  28  29
ATOM     29  C   UNL A   1      39.115  21.117  25.722  1.00  0.00     0.188 C 
BRANCH  29  30
ATOM     30  C   UNL A   1      40.349  20.699  26.530  1.00  0.00     0.188 C 
BRANCH  30  31
ATOM     31  O   UNL A   1      41.052  19.511  26.181  1.00  0.00    -0.376 OA
BRANCH  31  32
ATOM     32  C   UNL A   1      42.446  19.413  26.420  1.00  0.00     0.202 C 
BRANCH  32  33
ATOM     33  C   UNL A   1      43.272  18.552  25.459  1.00  0.00     0.261 C 
BRANCH  33  34
ATOM     34  O   UNL A   1      43.740  19.212  24.275  1.00  0.00    -0.460 OA
BRANCH  34  35
ATOM     35  C   UNL A   1      45.043  19.589  24.239  1.00  0.00     0.338 C 
ATOM     36  O   UNL A   1      46.004  18.931  23.925  1.00  0.00    -0.246 OA
BRANCH  35  37
ATOM     37  C   UNL A   1      45.060  21.014  24.657  1.00  0.00     0.060 A 
ATOM     38  C   UNL A   1      44.541  22.006  23.817  1.00  0.00     0.016 A 
ATOM     39  C   UNL A   1      45.503  21.344  25.944  1.00  0.00     0.016 A 
ATOM     40  C   UNL A   1      44.412  23.326  24.289  1.00  0.00     0.010 A 
ATOM     41  C   UNL A   1      45.380  22.657  26.407  1.00  0.00     0.010 A 
ATOM     42  C   UNL A   1      44.820  23.660  25.591  1.00  0.00    -0.014 A 
BRANCH  42  43
ATOM     43  C   UNL A   1      44.875  25.073  26.066  1.00  0.00     0.031 A 
ATOM     44  C   UNL A   1      46.229  25.705  26.150  1.00  0.00     0.074 A 
ATOM     45  C   UNL A   1      43.802  25.773  26.493  1.00  0.00     0.049 A 
ATOM     46  N   UNL A   1      46.559  26.904  26.552  1.00  0.00    -0.248 NA
ATOM     47  C   UNL A   1      47.362  24.868  25.726  1.00  0.00     0.031 C 
ATOM     48  C   UNL A   1      42.426  25.310  26.462  1.00  0.00     0.029 A 
ATOM     49  N   UNL A   1      43.706  27.021  27.067  1.00  0.00    -0.354 N 
ATOM     50  C   UNL A   1      47.930  26.979  26.383  1.00  0.00     0.074 A 
ATOM     51  C   UNL A   1      48.383  25.679  25.936  1.00  0.00     0.031 C 
ATOM     52  C   UNL A   1      41.624  26.215  27.052  1.00  0.00     0.029 A 
ATOM     53  C   UNL A   1      42.430  27.353  27.476  1.00  0.00     0.049 A 
ATOM     54  H   UNL A   1      44.477  27.623  27.176  1.00  0.00     0.167 HD
ATOM     55  C   UNL A   1      48.742  28.046  26.540  1.00  0.00     0.037 A 
ATOM     56  C   UNL A   1      41.967  28.450  28.109  1.00  0.00     0.037 A 
ATOM     57  C   UNL A   1      48.320  29.324  27.034  1.00  0.00     0.049 A 
ATOM     58  C   UNL A   1      42.917  29.584  28.403  1.00  0.00     0.074 A 
ATOM     59  C   UNL A   1      49.076  30.463  27.232  1.00  0.00     0.029 A 
ATOM     60  N   UNL A   1      47.028  29.619  27.440  1.00  0.00    -0.354 N 
ATOM     61  N   UNL A   1      44.192  29.686  28.122  1.00  0.00    -0.248 NA
ATOM     62  C   UNL A   1      42.356  30.770  29.071  1.00  0.00     0.031 C 
ATOM     63  C   UNL A   1      48.253  31.437  27.806  1.00  0.00     0.029 A 
ATOM     64  C   UNL A   1      46.972  30.917  27.918  1.00  0.00     0.049 A 
ATOM     65  H   UNL A   1      46.264  29.000  27.393  1.00  0.00     0.167 HD
ATOM     66  C   UNL A   1      44.572  30.960  28.524  1.00  0.00     0.074 A 
ATOM     67  C   UNL A   1      43.393  31.597  29.070  1.00  0.00     0.031 C 
ATOM     68  C   UNL A   1      45.787  31.552  28.435  1.00  0.00     0.037 A 
BRANCH  55  69
ATOM     69  C   UNL A   1      50.173  27.835  26.165  1.00  0.00     0.057 A 
ATOM     70  C   UNL A   1      51.156  27.625  27.144  1.00  0.00     0.134 A 
ATOM     71  C   UNL A   1      50.586  27.918  24.832  1.00  0.00     0.134 A 
ATOM     72  F   UNL A   1      50.820  27.571  28.443  1.00  0.00    -0.206 F 
ATOM     73  C   UNL A   1      52.506  27.546  26.813  1.00  0.00     0.040 A 
ATOM     74  C   UNL A   1      51.933  27.814  24.486  1.00  0.00     0.040 A 
ATOM     75  F   UNL A   1      49.694  28.130  23.854  1.00  0.00    -0.206 F 
ATOM     76  C   UNL A   1      52.897  27.641  25.478  1.00  0.00     0.006 A 
ENDBRANCH  55  69
BRANCH  56  77
ATOM     77  C   UNL A   1      40.533  28.579  28.493  1.00  0.00     0.057 A 
ATOM     78  C   UNL A   1      39.584  29.079  27.591  1.00  0.00     0.134 A 
ATOM     79  C   UNL A   1      40.097  28.313  29.796  1.00  0.00     0.134 A 
ATOM     80  F   UNL A   1      39.943  29.385  26.335  1.00  0.00    -0.206 F 
ATOM     81  C   UNL A   1      38.268  29.349  27.979  1.00  0.00     0.040 A 
ATOM     82  C   UNL A   1      38.777  28.556  30.193  1.00  0.00     0.040 A 
ATOM     83  F   UNL A   1      40.953  27.844  30.715  1.00  0.00    -0.206 F 
ATOM     84  C   UNL A   1      37.862  29.089  29.286  1.00  0.00     0.006 A 
ENDBRANCH  56  77
BRANCH  68  85
ATOM     85  C   UNL A   1      45.904  32.978  28.886  1.00  0.00     0.057 A 
ATOM     86  C   UNL A   1      46.239  33.317  30.202  1.00  0.00     0.134 A 
ATOM     87  C   UNL A   1      45.752  34.025  27.967  1.00  0.00     0.134 A 
ATOM     88  F   UNL A   1      46.385  32.363  31.134  1.00  0.00    -0.206 F 
ATOM     89  C   UNL A   1      46.409  34.647  30.591  1.00  0.00     0.040 A 
ATOM     90  C   UNL A   1      45.946  35.356  28.337  1.00  0.00     0.040 A 
ATOM     91  F   UNL A   1      45.437  33.768  26.688  1.00  0.00    -0.206 F 
ATOM     92  C   UNL A   1      46.274  35.670  29.654  1.00  0.00     0.006 A 
ENDBRANCH  68  85
ENDBRANCH  42  43
ENDBRANCH  35  37
ENDBRANCH  34  35
ENDBRANCH  33  34
ENDBRANCH  32  33
ENDBRANCH  31  32
ENDBRANCH  30  31
ENDBRANCH  29  30
ENDBRANCH  28  29
ENDBRANCH   1  28
TORSDOF 24
ENDMDL
MODEL 3
REMARK VINA RESULT:      -9.7      4.620      8.032
REMARK SMILES CCOc1ccc(NC(=O)N2CC[C@@H](C(=O)OCCOCCOCCOCCOC(=O)c3ccc(-c4c5nc(c(-c6c(F)cccc6F)c6ccc([nH]6)c(-c6c(F)cccc6F)c6nc(c(-c7c(F)cccc7F)c7ccc4[nH]7)C=C6)C=C5)cc3)[C@@H]2C)cc1
REMARK SMILES IDX 22 1 21 2 20 3 19 4 18 5 17 6 15 7 16 8 14 9 11 10 12 11
REMARK SMILES IDX 86 12 13 13 87 14 9 15 8 16 10 18 7 19 4 20 5 21 89 22 6 23
REMARK SMILES IDX 88 24 3 25 2 26 1 27 23 28 24 29 25 30 26 31 27 32 28 33
REMARK SMILES IDX 29 34 30 35 31 36 32 37 33 38 85 39 34 40 84 41 35 42 36 43
REMARK SMILES IDX 37 44 78 45 38 46 83 47 77 48 79 49 39 50 82 51 76 52 75 53
REMARK SMILES IDX 40 55 66 56 49 57 65 58 50 59 53 60 64 61 80 62 51 63 52 64
REMARK SMILES IDX 63 66 81 67 54 68 41 69 42 70 47 71 43 72 44 73 46 74 48 75
REMARK SMILES IDX 45 76 67 77 68 78 73 79 69 80 70 81 72 82 74 83 71 84 55 85
REMARK SMILES IDX 56 86 61 87 57 88 58 89 60 90 62 91 59 92
REMARK H PARENT 8 17 79 54 53 65
REMARK Flexibility Score: inf
ROOT
ATOM      1  C   UNL A   1      36.348  21.786  24.446  1.00  0.00     0.188 C 
ENDROOT
BRANCH   1   2
ATOM      2  C   UNL A   1      36.634  22.640  23.209  1.00  0.00     0.188 C 
BRANCH   2   3
ATOM      3  O   UNL A   1      35.647  23.661  23.110  1.00  0.00    -0.376 OA
BRANCH   3   4
ATOM      4  C   UNL A   1      34.298  23.278  23.251  1.00  0.00     0.202 C 
BRANCH   4   5
ATOM      5  C   UNL A   1      33.385  23.334  22.011  1.00  0.00     0.261 C 
BRANCH   5   6
ATOM      6  O   UNL A   1      32.322  24.311  21.996  1.00  0.00    -0.463 OA
BRANCH   6   7
ATOM      7  C   UNL A   1      32.692  25.594  21.769  1.00  0.00     0.311 C 
ATOM      8  O   UNL A   1      33.275  25.956  20.752  1.00  0.00    -0.252 OA
BRANCH   7   9
ATOM      9  C   UNL A   1      32.370  26.580  22.887  1.00  0.00     0.123 C 
ATOM     10  N   UNL A   1      31.999  26.451  25.244  1.00  0.00    -0.321 N 
ATOM     11  C   UNL A   1      33.164  27.276  25.055  1.00  0.00     0.122 C 
ATOM     12  C   UNL A   1      31.303  26.242  23.960  1.00  0.00     0.098 C 
ATOM     13  C   UNL A   1      33.656  26.824  23.697  1.00  0.00     0.039 C 
ATOM     14  C   UNL A   1      30.120  27.223  23.880  1.00  0.00     0.032 C 
BRANCH  10  15
ATOM     15  C   UNL A   1      31.517  26.216  26.500  1.00  0.00     0.322 C 
ATOM     16  N   UNL A   1      31.196  24.949  26.875  1.00  0.00    -0.308 N 
ATOM     17  H   UNL A   1      30.471  24.885  27.538  1.00  0.00     0.171 HD
ATOM     18  O   UNL A   1      31.382  27.126  27.321  1.00  0.00    -0.248 OA
BRANCH  16  19
ATOM     19  C   UNL A   1      31.736  23.717  26.468  1.00  0.00     0.043 A 
ATOM     20  C   UNL A   1      32.767  21.205  25.896  1.00  0.00     0.119 A 
ATOM     21  C   UNL A   1      31.658  21.652  25.201  1.00  0.00     0.048 A 
ATOM     22  C   UNL A   1      33.467  22.054  26.751  1.00  0.00     0.048 A 
ATOM     23  C   UNL A   1      31.171  22.924  25.465  1.00  0.00     0.030 A 
ATOM     24  C   UNL A   1      32.929  23.301  27.066  1.00  0.00     0.030 A 
BRANCH  20  25
ATOM     25  O   UNL A   1      33.141  19.900  25.768  1.00  0.00    -0.494 OA
BRANCH  25  26
ATOM     26  C   UNL A   1      32.788  19.415  24.461  1.00  0.00     0.226 C 
ATOM     27  C   UNL A   1      32.734  17.901  24.418  1.00  0.00     0.049 C 
ENDBRANCH  25  26
ENDBRANCH  20  25
ENDBRANCH  16  19
ENDBRANCH  10  15
ENDBRANCH   7   9
ENDBRANCH   6   7
ENDBRANCH   5   6
ENDBRANCH   4   5
ENDBRANCH   3   4
ENDBRANCH   2   3
ENDBRANCH   1   2
BRANCH   1  28
ATOM     28  O   UNL A   1      37.502  21.142  24.969  1.00  0.00    -0.377 OA
BRANCH  28  29
ATOM     29  C   UNL A   1      38.359  22.000  25.726  1.00  0.00     0.188 C 
BRANCH  29  30
ATOM     30  C   UNL A   1      39.627  21.261  26.169  1.00  0.00     0.188 C 
BRANCH  30  31
ATOM     31  O   UNL A   1      40.389  21.760  27.262  1.00  0.00    -0.376 OA
BRANCH  31  32
ATOM     32  C   UNL A   1      41.773  22.026  27.102  1.00  0.00     0.202 C 
BRANCH  32  33
ATOM     33  C   UNL A   1      42.168  23.345  26.429  1.00  0.00     0.261 C 
BRANCH  33  34
ATOM     34  O   UNL A   1      41.138  24.338  26.350  1.00  0.00    -0.460 OA
BRANCH  34  35
ATOM     35  C   UNL A   1      41.505  25.600  26.009  1.00  0.00     0.338 C 
ATOM     36  O   UNL A   1      41.909  26.000  24.945  1.00  0.00    -0.246 OA
BRANCH  35  37
ATOM     37  C   UNL A   1      41.293  26.423  27.227  1.00  0.00     0.060 A 
ATOM     38  C   UNL A   1      40.284  26.092  28.140  1.00  0.00     0.016 A 
ATOM     39  C   UNL A   1      42.180  27.469  27.509  1.00  0.00     0.016 A 
ATOM     40  C   UNL A   1      40.198  26.777  29.367  1.00  0.00     0.010 A 
ATOM     41  C   UNL A   1      42.088  28.151  28.725  1.00  0.00     0.010 A 
ATOM     42  C   UNL A   1      41.106  27.804  29.675  1.00  0.00    -0.014 A 
BRANCH  42  43
ATOM     43  C   UNL A   1      40.939  28.675  30.873  1.00  0.00     0.031 A 
ATOM     44  C   UNL A   1      39.930  29.776  30.773  1.00  0.00     0.074 A 
ATOM     45  C   UNL A   1      41.689  28.580  31.992  1.00  0.00     0.049 A 
ATOM     46  N   UNL A   1      39.608  30.686  31.654  1.00  0.00    -0.248 NA
ATOM     47  C   UNL A   1      39.188  29.861  29.505  1.00  0.00     0.031 C 
ATOM     48  C   UNL A   1      42.694  27.564  32.250  1.00  0.00     0.029 A 
ATOM     49  N   UNL A   1      41.743  29.373  33.117  1.00  0.00    -0.354 N 
ATOM     50  C   UNL A   1      38.594  31.419  31.063  1.00  0.00     0.074 A 
ATOM     51  C   UNL A   1      38.420  30.914  29.719  1.00  0.00     0.031 C 
ATOM     52  C   UNL A   1      43.319  27.821  33.412  1.00  0.00     0.029 A 
ATOM     53  C   UNL A   1      42.730  29.012  34.010  1.00  0.00     0.049 A 
ATOM     54  H   UNL A   1      41.131  30.129  33.269  1.00  0.00     0.167 HD
ATOM     55  C   UNL A   1      37.837  32.399  31.604  1.00  0.00     0.037 A 
ATOM     56  C   UNL A   1      43.107  29.572  35.178  1.00  0.00     0.037 A 
ATOM     57  C   UNL A   1      38.031  32.948  32.913  1.00  0.00     0.049 A 
ATOM     58  C   UNL A   1      42.336  30.757  35.706  1.00  0.00     0.074 A 
ATOM     59  C   UNL A   1      37.315  33.948  33.542  1.00  0.00     0.029 A 
ATOM     60  N   UNL A   1      39.038  32.563  33.783  1.00  0.00    -0.354 N 
ATOM     61  N   UNL A   1      41.296  31.362  35.189  1.00  0.00    -0.248 NA
ATOM     62  C   UNL A   1      42.770  31.315  36.998  1.00  0.00     0.031 C 
ATOM     63  C   UNL A   1      37.920  34.205  34.776  1.00  0.00     0.029 A 
ATOM     64  C   UNL A   1      38.983  33.329  34.935  1.00  0.00     0.049 A 
ATOM     65  H   UNL A   1      39.695  31.850  33.610  1.00  0.00     0.167 HD
ATOM     66  C   UNL A   1      40.917  32.328  36.112  1.00  0.00     0.074 A 
ATOM     67  C   UNL A   1      41.839  32.232  37.223  1.00  0.00     0.031 C 
ATOM     68  C   UNL A   1      39.889  33.207  36.048  1.00  0.00     0.037 A 
BRANCH  55  69
ATOM     69  C   UNL A   1      36.734  32.919  30.739  1.00  0.00     0.057 A 
ATOM     70  C   UNL A   1      35.419  32.452  30.883  1.00  0.00     0.134 A 
ATOM     71  C   UNL A   1      36.996  33.828  29.711  1.00  0.00     0.134 A 
ATOM     72  F   UNL A   1      35.118  31.551  31.832  1.00  0.00    -0.206 F 
ATOM     73  C   UNL A   1      34.410  32.841  30.005  1.00  0.00     0.040 A 
ATOM     74  C   UNL A   1      35.988  34.245  28.842  1.00  0.00     0.040 A 
ATOM     75  F   UNL A   1      38.237  34.300  29.517  1.00  0.00    -0.206 F 
ATOM     76  C   UNL A   1      34.695  33.742  28.981  1.00  0.00     0.006 A 
ENDBRANCH  55  69
BRANCH  56  77
ATOM     77  C   UNL A   1      44.244  29.027  35.972  1.00  0.00     0.057 A 
ATOM     78  C   UNL A   1      44.047  28.011  36.916  1.00  0.00     0.134 A 
ATOM     79  C   UNL A   1      45.527  29.580  35.888  1.00  0.00     0.134 A 
ATOM     80  F   UNL A   1      42.833  27.460  37.069  1.00  0.00    -0.206 F 
ATOM     81  C   UNL A   1      45.068  27.592  37.773  1.00  0.00     0.040 A 
ATOM     82  C   UNL A   1      46.566  29.155  36.724  1.00  0.00     0.040 A 
ATOM     83  F   UNL A   1      45.786  30.564  35.015  1.00  0.00    -0.206 F 
ATOM     84  C   UNL A   1      46.333  28.168  37.680  1.00  0.00     0.006 A 
ENDBRANCH  56  77
BRANCH  68  85
ATOM     85  C   UNL A   1      39.661  34.104  37.229  1.00  0.00     0.057 A 
ATOM     86  C   UNL A   1      40.212  35.389  37.304  1.00  0.00     0.134 A 
ATOM     87  C   UNL A   1      38.816  33.700  38.271  1.00  0.00     0.134 A 
ATOM     88  F   UNL A   1      41.041  35.831  36.347  1.00  0.00    -0.206 F 
ATOM     89  C   UNL A   1      39.939  36.237  38.380  1.00  0.00     0.040 A 
ATOM     90  C   UNL A   1      38.512  34.548  39.336  1.00  0.00     0.040 A 
ATOM     91  F   UNL A   1      38.251  32.483  38.257  1.00  0.00    -0.206 F 
ATOM     92  C   UNL A   1      39.077  35.821  39.393  1.00  0.00     0.006 A 
ENDBRANCH  68  85
ENDBRANCH  42  43
ENDBRANCH  35  37
ENDBRANCH  34  35
ENDBRANCH  33  34
ENDBRANCH  32  33
ENDBRANCH  31  32
ENDBRANCH  30  31
ENDBRANCH  29  30
ENDBRANCH  28  29
ENDBRANCH   1  28
TORSDOF 24
ENDMDL
