MODEL 1
REMARK VINA RESULT:     -10.1      0.000      0.000
REMARK SMILES O=C(CS(=O)(=O)NCc1ccc(N2CCOCC2)nc1)OCCOCCOCCOCCOC(=O)c1ccc(-c2c3nc(c(-c4c(F)cccc4F)c4ccc([nH]4)c(-c4c(F)cccc4F)c4nc(c(-c5c(F)cccc5F)c5ccc2[nH]5)C=C4)C=C3)cc1
REMARK SMILES IDX 25 1 24 2 23 3 22 4 21 5 2 6 1 7 3 8 4 9 5 10 6 11 7 12 8 14
REMARK SMILES IDX 9 15 10 16 20 17 11 18 19 19 12 20 13 21 14 22 18 23 15 24
REMARK SMILES IDX 17 25 16 26 26 27 27 28 28 29 29 30 30 31 31 32 32 33 33 34
REMARK SMILES IDX 34 35 35 36 36 37 37 38 89 39 38 40 88 41 39 42 40 43 41 44
REMARK SMILES IDX 82 45 42 46 87 47 81 48 83 49 43 50 86 51 80 52 79 53 44 55
REMARK SMILES IDX 70 56 53 57 69 58 54 59 57 60 68 61 84 62 55 63 56 64 67 66
REMARK SMILES IDX 85 67 58 68 45 69 46 70 51 71 47 72 48 73 50 74 52 75 49 76
REMARK SMILES IDX 71 77 72 78 77 79 73 80 74 81 76 82 78 83 75 84 59 85 60 86
REMARK SMILES IDX 65 87 61 88 62 89 64 90 66 91 63 92
REMARK H PARENT 7 13 83 54 57 65
REMARK Flexibility Score: inf
ROOT
ATOM      1  C   UNL A   1      35.651  21.897  26.466  1.00  0.00     0.188 C 
ENDROOT
BRANCH   1   2
ATOM      2  O   UNL A   1      35.079  23.164  26.187  1.00  0.00    -0.376 OA
BRANCH   2   3
ATOM      3  C   UNL A   1      35.270  23.902  24.996  1.00  0.00     0.202 C 
BRANCH   3   4
ATOM      4  C   UNL A   1      34.724  25.314  24.886  1.00  0.00     0.261 C 
BRANCH   4   5
ATOM      5  O   UNL A   1      33.514  25.600  25.618  1.00  0.00    -0.462 OA
BRANCH   5   6
ATOM      6  C   UNL A   1      32.687  26.654  25.598  1.00  0.00     0.322 C 
ATOM      7  O   UNL A   1      32.838  27.517  26.466  1.00  0.00    -0.251 OA
BRANCH   6   8
ATOM      8  C   UNL A   1      31.550  26.749  24.660  1.00  0.00     0.276 C 
BRANCH   8   9
ATOM      9  S   UNL A   1      30.199  25.706  25.064  1.00  0.00     0.222 S 
ATOM     10  O   UNL A   1      30.230  25.390  26.470  1.00  0.00    -0.212 OA
ATOM     11  O   UNL A   1      29.017  26.338  24.514  1.00  0.00    -0.212 OA
BRANCH   9  12
ATOM     12  N   UNL A   1      30.373  24.314  24.190  1.00  0.00    -0.210 NA
ATOM     13  H   UNL A   1      29.777  24.438  23.371  1.00  0.00     0.141 HD
BRANCH  12  14
ATOM     14  C   UNL A   1      31.628  23.767  23.669  1.00  0.00     0.135 C 
BRANCH  14  15
ATOM     15  C   UNL A   1      31.875  22.295  23.805  1.00  0.00    -0.015 A 
ATOM     16  C   UNL A   1      32.172  21.719  25.041  1.00  0.00     0.010 A 
ATOM     17  C   UNL A   1      31.880  21.443  22.710  1.00  0.00     0.118 A 
ATOM     18  C   UNL A   1      32.375  20.345  25.135  1.00  0.00     0.047 A 
ATOM     19  N   UNL A   1      32.143  20.116  22.772  1.00  0.00    -0.239 NA
ATOM     20  C   UNL A   1      32.361  19.570  23.981  1.00  0.00     0.128 A 
BRANCH  20  21
ATOM     21  N   UNL A   1      32.691  18.247  24.061  1.00  0.00    -0.352 N 
ATOM     22  C   UNL A   1      32.545  17.453  25.270  1.00  0.00     0.146 C 
ATOM     23  C   UNL A   1      32.979  17.512  22.841  1.00  0.00     0.146 C 
ATOM     24  C   UNL A   1      33.802  16.578  25.431  1.00  0.00     0.181 C 
ATOM     25  C   UNL A   1      34.259  16.702  23.101  1.00  0.00     0.181 C 
ATOM     26  O   UNL A   1      34.107  15.828  24.239  1.00  0.00    -0.378 OA
ENDBRANCH  20  21
ENDBRANCH  14  15
ENDBRANCH  12  14
ENDBRANCH   9  12
ENDBRANCH   8   9
ENDBRANCH   6   8
ENDBRANCH   5   6
ENDBRANCH   4   5
ENDBRANCH   3   4
ENDBRANCH   2   3
ENDBRANCH   1   2
BRANCH   1  27
ATOM     27  C   UNL A   1      36.004  21.044  25.238  1.00  0.00     0.188 C 
BRANCH  27  28
ATOM     28  O   UNL A   1      37.333  21.208  24.756  1.00  0.00    -0.377 OA
BRANCH  28  29
ATOM     29  C   UNL A   1      38.186  20.103  25.002  1.00  0.00     0.188 C 
BRANCH  29  30
ATOM     30  C   UNL A   1      39.307  20.331  26.042  1.00  0.00     0.188 C 
BRANCH  30  31
ATOM     31  O   UNL A   1      40.599  19.756  25.910  1.00  0.00    -0.376 OA
BRANCH  31  32
ATOM     32  C   UNL A   1      41.725  20.321  26.556  1.00  0.00     0.202 C 
BRANCH  32  33
ATOM     33  C   UNL A   1      42.751  21.153  25.779  1.00  0.00     0.261 C 
BRANCH  33  34
ATOM     34  O   UNL A   1      42.283  22.403  25.272  1.00  0.00    -0.460 OA
BRANCH  34  35
ATOM     35  C   UNL A   1      43.188  23.414  25.288  1.00  0.00     0.338 C 
ATOM     36  O   UNL A   1      44.219  23.503  24.666  1.00  0.00    -0.246 OA
BRANCH  35  37
ATOM     37  C   UNL A   1      42.603  24.517  26.079  1.00  0.00     0.060 A 
ATOM     38  C   UNL A   1      43.091  25.821  25.893  1.00  0.00     0.016 A 
ATOM     39  C   UNL A   1      41.566  24.264  26.978  1.00  0.00     0.016 A 
ATOM     40  C   UNL A   1      42.554  26.880  26.618  1.00  0.00     0.010 A 
ATOM     41  C   UNL A   1      41.063  25.313  27.740  1.00  0.00     0.010 A 
ATOM     42  C   UNL A   1      41.582  26.612  27.585  1.00  0.00    -0.014 A 
BRANCH  42  43
ATOM     43  C   UNL A   1      41.310  27.601  28.645  1.00  0.00     0.031 A 
ATOM     44  C   UNL A   1      42.118  27.491  29.904  1.00  0.00     0.074 A 
ATOM     45  C   UNL A   1      40.337  28.516  28.524  1.00  0.00     0.049 A 
ATOM     46  N   UNL A   1      41.950  28.081  31.056  1.00  0.00    -0.248 NA
ATOM     47  C   UNL A   1      43.261  26.565  29.856  1.00  0.00     0.031 C 
ATOM     48  C   UNL A   1      39.527  28.738  27.330  1.00  0.00     0.029 A 
ATOM     49  N   UNL A   1      39.844  29.402  29.445  1.00  0.00    -0.354 N 
ATOM     50  C   UNL A   1      42.946  27.572  31.879  1.00  0.00     0.074 A 
ATOM     51  C   UNL A   1      43.700  26.615  31.102  1.00  0.00     0.031 C 
ATOM     52  C   UNL A   1      38.600  29.673  27.607  1.00  0.00     0.029 A 
ATOM     53  C   UNL A   1      38.729  30.071  29.009  1.00  0.00     0.049 A 
ATOM     54  H   UNL A   1      40.248  29.543  30.333  1.00  0.00     0.167 HD
ATOM     55  C   UNL A   1      43.200  27.872  33.174  1.00  0.00     0.037 A 
ATOM     56  C   UNL A   1      37.883  30.871  29.686  1.00  0.00     0.037 A 
ATOM     57  C   UNL A   1      42.427  28.812  33.936  1.00  0.00     0.049 A 
ATOM     58  C   UNL A   1      38.137  31.145  31.145  1.00  0.00     0.074 A 
ATOM     59  C   UNL A   1      42.606  29.215  35.246  1.00  0.00     0.029 A 
ATOM     60  N   UNL A   1      41.311  29.483  33.456  1.00  0.00    -0.354 N 
ATOM     61  N   UNL A   1      39.088  30.681  31.921  1.00  0.00    -0.248 NA
ATOM     62  C   UNL A   1      37.201  32.052  31.824  1.00  0.00     0.031 C 
ATOM     63  C   UNL A   1      41.559  30.080  35.579  1.00  0.00     0.029 A 
ATOM     64  C   UNL A   1      40.770  30.273  34.454  1.00  0.00     0.049 A 
ATOM     65  H   UNL A   1      40.955  29.406  32.541  1.00  0.00     0.167 HD
ATOM     66  C   UNL A   1      38.888  31.264  33.167  1.00  0.00     0.074 A 
ATOM     67  C   UNL A   1      37.719  32.113  33.043  1.00  0.00     0.031 C 
ATOM     68  C   UNL A   1      39.610  31.119  34.306  1.00  0.00     0.037 A 
BRANCH  55  69
ATOM     69  C   UNL A   1      44.317  27.122  33.841  1.00  0.00     0.057 A 
ATOM     70  C   UNL A   1      44.122  25.874  34.450  1.00  0.00     0.134 A 
ATOM     71  C   UNL A   1      45.601  27.675  33.903  1.00  0.00     0.134 A 
ATOM     72  F   UNL A   1      42.912  25.296  34.448  1.00  0.00    -0.206 F 
ATOM     73  C   UNL A   1      45.153  25.228  35.134  1.00  0.00     0.040 A 
ATOM     74  C   UNL A   1      46.648  27.022  34.553  1.00  0.00     0.040 A 
ATOM     75  F   UNL A   1      45.859  28.867  33.343  1.00  0.00    -0.206 F 
ATOM     76  C   UNL A   1      46.423  25.800  35.182  1.00  0.00     0.006 A 
ENDBRANCH  55  69
BRANCH  56  77
ATOM     77  C   UNL A   1      36.706  31.442  28.986  1.00  0.00     0.057 A 
ATOM     78  C   UNL A   1      35.583  30.660  28.700  1.00  0.00     0.134 A 
ATOM     79  C   UNL A   1      36.662  32.794  28.618  1.00  0.00     0.134 A 
ATOM     80  F   UNL A   1      35.576  29.354  29.006  1.00  0.00    -0.206 F 
ATOM     81  C   UNL A   1      34.458  31.199  28.074  1.00  0.00     0.040 A 
ATOM     82  C   UNL A   1      35.535  33.351  28.012  1.00  0.00     0.040 A 
ATOM     83  F   UNL A   1      37.705  33.599  28.871  1.00  0.00    -0.206 F 
ATOM     84  C   UNL A   1      34.428  32.551  27.736  1.00  0.00     0.006 A 
ENDBRANCH  56  77
BRANCH  68  85
ATOM     85  C   UNL A   1      39.200  31.932  35.501  1.00  0.00     0.057 A 
ATOM     86  C   UNL A   1      39.625  33.252  35.688  1.00  0.00     0.134 A 
ATOM     87  C   UNL A   1      38.294  31.406  36.433  1.00  0.00     0.134 A 
ATOM     88  F   UNL A   1      40.499  33.813  34.839  1.00  0.00    -0.206 F 
ATOM     89  C   UNL A   1      39.175  34.016  36.767  1.00  0.00     0.040 A 
ATOM     90  C   UNL A   1      37.814  32.169  37.498  1.00  0.00     0.040 A 
ATOM     91  F   UNL A   1      37.837  30.151  36.305  1.00  0.00    -0.206 F 
ATOM     92  C   UNL A   1      38.258  33.477  37.669  1.00  0.00     0.006 A 
ENDBRANCH  68  85
ENDBRANCH  42  43
ENDBRANCH  35  37
ENDBRANCH  34  35
ENDBRANCH  33  34
ENDBRANCH  32  33
ENDBRANCH  31  32
ENDBRANCH  30  31
ENDBRANCH  29  30
ENDBRANCH  28  29
ENDBRANCH  27  28
ENDBRANCH   1  27
TORSDOF 25
ENDMDL
MODEL 2
REMARK VINA RESULT:      -9.1      4.029      8.624
REMARK SMILES O=C(CS(=O)(=O)NCc1ccc(N2CCOCC2)nc1)OCCOCCOCCOCCOC(=O)c1ccc(-c2c3nc(c(-c4c(F)cccc4F)c4ccc([nH]4)c(-c4c(F)cccc4F)c4nc(c(-c5c(F)cccc5F)c5ccc2[nH]5)C=C4)C=C3)cc1
REMARK SMILES IDX 25 1 24 2 23 3 22 4 21 5 2 6 1 7 3 8 4 9 5 10 6 11 7 12 8 14
REMARK SMILES IDX 9 15 10 16 20 17 11 18 19 19 12 20 13 21 14 22 18 23 15 24
REMARK SMILES IDX 17 25 16 26 26 27 27 28 28 29 29 30 30 31 31 32 32 33 33 34
REMARK SMILES IDX 34 35 35 36 36 37 37 38 89 39 38 40 88 41 39 42 40 43 41 44
REMARK SMILES IDX 82 45 42 46 87 47 81 48 83 49 43 50 86 51 80 52 79 53 44 55
REMARK SMILES IDX 70 56 53 57 69 58 54 59 57 60 68 61 84 62 55 63 56 64 67 66
REMARK SMILES IDX 85 67 58 68 45 69 46 70 51 71 47 72 48 73 50 74 52 75 49 76
REMARK SMILES IDX 71 77 72 78 77 79 73 80 74 81 76 82 78 83 75 84 59 85 60 86
REMARK SMILES IDX 65 87 61 88 62 89 64 90 66 91 63 92
REMARK H PARENT 7 13 83 54 57 65
REMARK Flexibility Score: inf
ROOT
ATOM      1  C   UNL A   1      32.765  20.481  25.308  1.00  0.00     0.188 C 
ENDROOT
BRANCH   1   2
ATOM      2  O   UNL A   1      31.528  21.151  25.490  1.00  0.00    -0.376 OA
BRANCH   2   3
ATOM      3  C   UNL A   1      31.221  22.023  26.560  1.00  0.00     0.202 C 
BRANCH   3   4
ATOM      4  C   UNL A   1      29.986  22.901  26.489  1.00  0.00     0.261 C 
BRANCH   4   5
ATOM      5  O   UNL A   1      30.176  24.309  26.738  1.00  0.00    -0.462 OA
BRANCH   5   6
ATOM      6  C   UNL A   1      30.905  25.238  26.104  1.00  0.00     0.322 C 
ATOM      7  O   UNL A   1      31.769  25.829  26.753  1.00  0.00    -0.251 OA
BRANCH   6   8
ATOM      8  C   UNL A   1      30.626  25.647  24.712  1.00  0.00     0.276 C 
BRANCH   8   9
ATOM      9  S   UNL A   1      31.820  25.095  23.551  1.00  0.00     0.222 S 
ATOM     10  O   UNL A   1      32.019  23.674  23.693  1.00  0.00    -0.212 OA
ATOM     11  O   UNL A   1      31.412  25.620  22.265  1.00  0.00    -0.212 OA
BRANCH   9  12
ATOM     12  N   UNL A   1      33.236  25.878  23.892  1.00  0.00    -0.210 NA
ATOM     13  H   UNL A   1      33.817  25.750  23.063  1.00  0.00     0.141 HD
BRANCH  12  14
ATOM     14  C   UNL A   1      33.383  27.291  24.247  1.00  0.00     0.135 C 
BRANCH  14  15
ATOM     15  C   UNL A   1      32.295  28.243  23.851  1.00  0.00    -0.015 A 
ATOM     16  C   UNL A   1      31.372  28.720  24.782  1.00  0.00     0.010 A 
ATOM     17  C   UNL A   1      32.115  28.651  22.537  1.00  0.00     0.118 A 
ATOM     18  C   UNL A   1      30.387  29.620  24.384  1.00  0.00     0.047 A 
ATOM     19  N   UNL A   1      31.121  29.471  22.119  1.00  0.00    -0.239 NA
ATOM     20  C   UNL A   1      30.283  29.972  23.043  1.00  0.00     0.128 A 
BRANCH  20  21
ATOM     21  N   UNL A   1      29.236  30.749  22.636  1.00  0.00    -0.352 N 
ATOM     22  C   UNL A   1      28.389  30.426  21.500  1.00  0.00     0.146 C 
ATOM     23  C   UNL A   1      28.776  31.827  23.494  1.00  0.00     0.146 C 
ATOM     24  C   UNL A   1      28.146  31.715  20.693  1.00  0.00     0.181 C 
ATOM     25  C   UNL A   1      28.595  33.063  22.599  1.00  0.00     0.181 C 
ATOM     26  O   UNL A   1      27.677  32.800  21.517  1.00  0.00    -0.378 OA
ENDBRANCH  20  21
ENDBRANCH  14  15
ENDBRANCH  12  14
ENDBRANCH   9  12
ENDBRANCH   8   9
ENDBRANCH   6   8
ENDBRANCH   5   6
ENDBRANCH   4   5
ENDBRANCH   3   4
ENDBRANCH   2   3
ENDBRANCH   1   2
BRANCH   1  27
ATOM     27  C   UNL A   1      33.906  20.935  26.232  1.00  0.00     0.188 C 
BRANCH  27  28
ATOM     28  O   UNL A   1      34.699  22.003  25.725  1.00  0.00    -0.377 OA
BRANCH  28  29
ATOM     29  C   UNL A   1      36.075  21.695  25.584  1.00  0.00     0.188 C 
BRANCH  29  30
ATOM     30  C   UNL A   1      36.401  20.327  24.942  1.00  0.00     0.188 C 
BRANCH  30  31
ATOM     31  O   UNL A   1      37.704  19.986  24.493  1.00  0.00    -0.376 OA
BRANCH  31  32
ATOM     32  C   UNL A   1      38.619  19.311  25.336  1.00  0.00     0.202 C 
BRANCH  32  33
ATOM     33  C   UNL A   1      39.920  19.981  25.793  1.00  0.00     0.261 C 
BRANCH  33  34
ATOM     34  O   UNL A   1      41.036  19.110  25.981  1.00  0.00    -0.460 OA
BRANCH  34  35
ATOM     35  C   UNL A   1      42.249  19.649  25.702  1.00  0.00     0.338 C 
ATOM     36  O   UNL A   1      43.098  19.231  24.951  1.00  0.00    -0.246 OA
BRANCH  35  37
ATOM     37  C   UNL A   1      42.299  20.980  26.344  1.00  0.00     0.060 A 
ATOM     38  C   UNL A   1      42.373  22.124  25.534  1.00  0.00     0.016 A 
ATOM     39  C   UNL A   1      42.250  21.090  27.734  1.00  0.00     0.016 A 
ATOM     40  C   UNL A   1      42.414  23.389  26.111  1.00  0.00     0.010 A 
ATOM     41  C   UNL A   1      42.341  22.351  28.314  1.00  0.00     0.010 A 
ATOM     42  C   UNL A   1      42.460  23.495  27.504  1.00  0.00    -0.014 A 
BRANCH  42  43
ATOM     43  C   UNL A   1      42.930  24.746  28.129  1.00  0.00     0.031 A 
ATOM     44  C   UNL A   1      41.895  25.786  28.436  1.00  0.00     0.074 A 
ATOM     45  C   UNL A   1      44.233  24.978  28.350  1.00  0.00     0.049 A 
ATOM     46  N   UNL A   1      42.045  27.035  28.784  1.00  0.00    -0.248 NA
ATOM     47  C   UNL A   1      40.492  25.356  28.307  1.00  0.00     0.031 C 
ATOM     48  C   UNL A   1      45.313  24.020  28.133  1.00  0.00     0.029 A 
ATOM     49  N   UNL A   1      44.862  26.119  28.772  1.00  0.00    -0.354 N 
ATOM     50  C   UNL A   1      40.759  27.548  28.883  1.00  0.00     0.074 A 
ATOM     51  C   UNL A   1      39.842  26.483  28.541  1.00  0.00     0.031 C 
ATOM     52  C   UNL A   1      46.485  24.632  28.380  1.00  0.00     0.029 A 
ATOM     53  C   UNL A   1      46.230  26.030  28.724  1.00  0.00     0.049 A 
ATOM     54  H   UNL A   1      44.382  26.922  29.078  1.00  0.00     0.167 HD
ATOM     55  C   UNL A   1      40.378  28.802  29.220  1.00  0.00     0.037 A 
ATOM     56  C   UNL A   1      47.163  26.988  28.888  1.00  0.00     0.037 A 
ATOM     57  C   UNL A   1      41.305  29.853  29.537  1.00  0.00     0.049 A 
ATOM     58  C   UNL A   1      46.727  28.396  29.197  1.00  0.00     0.074 A 
ATOM     59  C   UNL A   1      41.035  31.154  29.917  1.00  0.00     0.029 A 
ATOM     60  N   UNL A   1      42.686  29.722  29.491  1.00  0.00    -0.354 N 
ATOM     61  N   UNL A   1      45.512  28.880  29.310  1.00  0.00    -0.248 NA
ATOM     62  C   UNL A   1      47.788  29.392  29.399  1.00  0.00     0.031 C 
ATOM     63  C   UNL A   1      42.254  31.830  30.037  1.00  0.00     0.029 A 
ATOM     64  C   UNL A   1      43.284  30.930  29.804  1.00  0.00     0.049 A 
ATOM     65  H   UNL A   1      43.169  28.894  29.267  1.00  0.00     0.167 HD
ATOM     66  C   UNL A   1      45.662  30.224  29.630  1.00  0.00     0.074 A 
ATOM     67  C   UNL A   1      47.087  30.480  29.688  1.00  0.00     0.031 C 
ATOM     68  C   UNL A   1      44.707  31.160  29.865  1.00  0.00     0.037 A 
BRANCH  55  69
ATOM     69  C   UNL A   1      38.907  29.099  29.192  1.00  0.00     0.057 A 
ATOM     70  C   UNL A   1      38.248  29.518  28.028  1.00  0.00     0.134 A 
ATOM     71  C   UNL A   1      38.143  28.995  30.361  1.00  0.00     0.134 A 
ATOM     72  F   UNL A   1      38.924  29.661  26.877  1.00  0.00    -0.206 F 
ATOM     73  C   UNL A   1      36.896  29.865  28.039  1.00  0.00     0.040 A 
ATOM     74  C   UNL A   1      36.783  29.304  30.377  1.00  0.00     0.040 A 
ATOM     75  F   UNL A   1      38.708  28.600  31.512  1.00  0.00    -0.206 F 
ATOM     76  C   UNL A   1      36.158  29.754  29.215  1.00  0.00     0.006 A 
ENDBRANCH  55  69
BRANCH  56  77
ATOM     77  C   UNL A   1      48.597  26.639  28.735  1.00  0.00     0.057 A 
ATOM     78  C   UNL A   1      49.353  26.191  29.822  1.00  0.00     0.134 A 
ATOM     79  C   UNL A   1      49.236  26.711  27.490  1.00  0.00     0.134 A 
ATOM     80  F   UNL A   1      48.804  26.124  31.044  1.00  0.00    -0.206 F 
ATOM     81  C   UNL A   1      50.693  25.826  29.679  1.00  0.00     0.040 A 
ATOM     82  C   UNL A   1      50.569  26.329  27.327  1.00  0.00     0.040 A 
ATOM     83  F   UNL A   1      48.563  27.128  26.407  1.00  0.00    -0.206 F 
ATOM     84  C   UNL A   1      51.302  25.886  28.426  1.00  0.00     0.006 A 
ENDBRANCH  56  77
BRANCH  68  85
ATOM     85  C   UNL A   1      45.161  32.536  30.262  1.00  0.00     0.057 A 
ATOM     86  C   UNL A   1      45.413  33.540  29.321  1.00  0.00     0.134 A 
ATOM     87  C   UNL A   1      45.261  32.879  31.618  1.00  0.00     0.134 A 
ATOM     88  F   UNL A   1      45.344  33.276  28.008  1.00  0.00    -0.206 F 
ATOM     89  C   UNL A   1      45.763  34.834  29.714  1.00  0.00     0.040 A 
ATOM     90  C   UNL A   1      45.580  34.176  32.022  1.00  0.00     0.040 A 
ATOM     91  F   UNL A   1      45.019  31.967  32.571  1.00  0.00    -0.206 F 
ATOM     92  C   UNL A   1      45.836  35.157  31.068  1.00  0.00     0.006 A 
ENDBRANCH  68  85
ENDBRANCH  42  43
ENDBRANCH  35  37
ENDBRANCH  34  35
ENDBRANCH  33  34
ENDBRANCH  32  33
ENDBRANCH  31  32
ENDBRANCH  30  31
ENDBRANCH  29  30
ENDBRANCH  28  29
ENDBRANCH  27  28
ENDBRANCH   1  27
TORSDOF 25
ENDMDL
MODEL 3
REMARK VINA RESULT:      -8.8      3.901      7.625
REMARK SMILES O=C(CS(=O)(=O)NCc1ccc(N2CCOCC2)nc1)OCCOCCOCCOCCOC(=O)c1ccc(-c2c3nc(c(-c4c(F)cccc4F)c4ccc([nH]4)c(-c4c(F)cccc4F)c4nc(c(-c5c(F)cccc5F)c5ccc2[nH]5)C=C4)C=C3)cc1
REMARK SMILES IDX 25 1 24 2 23 3 22 4 21 5 2 6 1 7 3 8 4 9 5 10 6 11 7 12 8 14
REMARK SMILES IDX 9 15 10 16 20 17 11 18 19 19 12 20 13 21 14 22 18 23 15 24
REMARK SMILES IDX 17 25 16 26 26 27 27 28 28 29 29 30 30 31 31 32 32 33 33 34
REMARK SMILES IDX 34 35 35 36 36 37 37 38 89 39 38 40 88 41 39 42 40 43 41 44
REMARK SMILES IDX 82 45 42 46 87 47 81 48 83 49 43 50 86 51 80 52 79 53 44 55
REMARK SMILES IDX 70 56 53 57 69 58 54 59 57 60 68 61 84 62 55 63 56 64 67 66
REMARK SMILES IDX 85 67 58 68 45 69 46 70 51 71 47 72 48 73 50 74 52 75 49 76
REMARK SMILES IDX 71 77 72 78 77 79 73 80 74 81 76 82 78 83 75 84 59 85 60 86
REMARK SMILES IDX 65 87 61 88 62 89 64 90 66 91 63 92
REMARK H PARENT 7 13 83 54 57 65
REMARK Flexibility Score: inf
ROOT
ATOM      1  C   UNL A   1      32.960  20.284  25.838  1.00  0.00     0.188 C 
ENDROOT
BRANCH   1   2
ATOM      2  O   UNL A   1      31.863  20.713  25.049  1.00  0.00    -0.376 OA
BRANCH   2   3
ATOM      3  C   UNL A   1      31.368  22.036  24.988  1.00  0.00     0.202 C 
BRANCH   3   4
ATOM      4  C   UNL A   1      31.470  22.824  23.695  1.00  0.00     0.261 C 
BRANCH   4   5
ATOM      5  O   UNL A   1      30.526  23.899  23.515  1.00  0.00    -0.462 OA
BRANCH   5   6
ATOM      6  C   UNL A   1      30.599  25.208  23.792  1.00  0.00     0.322 C 
ATOM      7  O   UNL A   1      29.559  25.866  23.728  1.00  0.00    -0.251 OA
BRANCH   6   8
ATOM      8  C   UNL A   1      31.884  25.891  24.049  1.00  0.00     0.276 C 
BRANCH   8   9
ATOM      9  S   UNL A   1      32.162  26.283  25.736  1.00  0.00     0.222 S 
ATOM     10  O   UNL A   1      31.626  25.239  26.573  1.00  0.00    -0.212 OA
ATOM     11  O   UNL A   1      33.565  26.622  25.850  1.00  0.00    -0.212 OA
BRANCH   9  12
ATOM     12  N   UNL A   1      31.363  27.696  26.050  1.00  0.00    -0.210 NA
ATOM     13  H   UNL A   1      31.499  27.862  27.048  1.00  0.00     0.141 HD
BRANCH  12  14
ATOM     14  C   UNL A   1      31.606  28.991  25.412  1.00  0.00     0.135 C 
BRANCH  14  15
ATOM     15  C   UNL A   1      32.248  30.077  26.221  1.00  0.00    -0.015 A 
ATOM     16  C   UNL A   1      33.454  29.867  26.891  1.00  0.00     0.010 A 
ATOM     17  C   UNL A   1      31.653  31.318  26.395  1.00  0.00     0.118 A 
ATOM     18  C   UNL A   1      34.034  30.904  27.617  1.00  0.00     0.047 A 
ATOM     19  N   UNL A   1      32.167  32.315  27.154  1.00  0.00    -0.239 NA
ATOM     20  C   UNL A   1      33.363  32.116  27.736  1.00  0.00     0.128 A 
BRANCH  20  21
ATOM     21  N   UNL A   1      33.869  33.082  28.556  1.00  0.00    -0.352 N 
ATOM     22  C   UNL A   1      34.930  32.844  29.521  1.00  0.00     0.146 C 
ATOM     23  C   UNL A   1      33.522  34.473  28.315  1.00  0.00     0.146 C 
ATOM     24  C   UNL A   1      34.563  33.562  30.833  1.00  0.00     0.181 C 
ATOM     25  C   UNL A   1      33.147  35.081  29.676  1.00  0.00     0.181 C 
ATOM     26  O   UNL A   1      34.224  34.947  30.626  1.00  0.00    -0.378 OA
ENDBRANCH  20  21
ENDBRANCH  14  15
ENDBRANCH  12  14
ENDBRANCH   9  12
ENDBRANCH   8   9
ENDBRANCH   6   8
ENDBRANCH   5   6
ENDBRANCH   4   5
ENDBRANCH   3   4
ENDBRANCH   2   3
ENDBRANCH   1   2
BRANCH   1  27
ATOM     27  C   UNL A   1      33.857  21.403  26.390  1.00  0.00     0.188 C 
BRANCH  27  28
ATOM     28  O   UNL A   1      34.817  21.910  25.470  1.00  0.00    -0.377 OA
BRANCH  28  29
ATOM     29  C   UNL A   1      36.148  21.493  25.723  1.00  0.00     0.188 C 
BRANCH  29  30
ATOM     30  C   UNL A   1      36.615  20.224  24.972  1.00  0.00     0.188 C 
BRANCH  30  31
ATOM     31  O   UNL A   1      37.969  20.011  24.603  1.00  0.00    -0.376 OA
BRANCH  31  32
ATOM     32  C   UNL A   1      38.856  19.296  25.442  1.00  0.00     0.202 C 
BRANCH  32  33
ATOM     33  C   UNL A   1      40.236  19.858  25.803  1.00  0.00     0.261 C 
BRANCH  33  34
ATOM     34  O   UNL A   1      41.251  18.891  26.077  1.00  0.00    -0.460 OA
BRANCH  34  35
ATOM     35  C   UNL A   1      42.522  19.364  26.070  1.00  0.00     0.338 C 
ATOM     36  O   UNL A   1      43.531  18.791  25.733  1.00  0.00    -0.246 OA
BRANCH  35  37
ATOM     37  C   UNL A   1      42.458  20.809  26.378  1.00  0.00     0.060 A 
ATOM     38  C   UNL A   1      42.660  21.734  25.341  1.00  0.00     0.016 A 
ATOM     39  C   UNL A   1      42.178  21.238  27.675  1.00  0.00     0.016 A 
ATOM     40  C   UNL A   1      42.597  23.100  25.601  1.00  0.00     0.010 A 
ATOM     41  C   UNL A   1      42.165  22.602  27.946  1.00  0.00     0.010 A 
ATOM     42  C   UNL A   1      42.410  23.530  26.917  1.00  0.00    -0.014 A 
BRANCH  42  43
ATOM     43  C   UNL A   1      42.764  24.911  27.295  1.00  0.00     0.031 A 
ATOM     44  C   UNL A   1      44.219  25.273  27.273  1.00  0.00     0.074 A 
ATOM     45  C   UNL A   1      41.837  25.789  27.708  1.00  0.00     0.049 A 
ATOM     46  N   UNL A   1      44.823  26.327  27.749  1.00  0.00    -0.248 NA
ATOM     47  C   UNL A   1      45.117  24.288  26.646  1.00  0.00     0.031 C 
ATOM     48  C   UNL A   1      40.396  25.556  27.722  1.00  0.00     0.029 A 
ATOM     49  N   UNL A   1      41.990  27.044  28.235  1.00  0.00    -0.354 N 
ATOM     50  C   UNL A   1      46.174  26.118  27.508  1.00  0.00     0.074 A 
ATOM     51  C   UNL A   1      46.304  24.831  26.863  1.00  0.00     0.031 C 
ATOM     52  C   UNL A   1      39.795  26.623  28.279  1.00  0.00     0.029 A 
ATOM     53  C   UNL A   1      40.816  27.582  28.699  1.00  0.00     0.049 A 
ATOM     54  H   UNL A   1      42.855  27.513  28.278  1.00  0.00     0.167 HD
ATOM     55  C   UNL A   1      47.216  26.927  27.810  1.00  0.00     0.037 A 
ATOM     56  C   UNL A   1      40.606  28.696  29.426  1.00  0.00     0.037 A 
ATOM     57  C   UNL A   1      47.070  28.195  28.470  1.00  0.00     0.049 A 
ATOM     58  C   UNL A   1      41.780  29.555  29.814  1.00  0.00     0.074 A 
ATOM     59  C   UNL A   1      48.049  29.111  28.804  1.00  0.00     0.029 A 
ATOM     60  N   UNL A   1      45.862  28.714  28.914  1.00  0.00    -0.354 N 
ATOM     61  N   UNL A   1      43.057  29.370  29.572  1.00  0.00    -0.248 NA
ATOM     62  C   UNL A   1      41.487  30.775  30.579  1.00  0.00     0.031 C 
ATOM     63  C   UNL A   1      47.442  30.155  29.509  1.00  0.00     0.029 A 
ATOM     64  C   UNL A   1      46.074  29.924  29.549  1.00  0.00     0.049 A 
ATOM     65  H   UNL A   1      44.984  28.284  28.796  1.00  0.00     0.167 HD
ATOM     66  C   UNL A   1      43.715  30.464  30.121  1.00  0.00     0.074 A 
ATOM     67  C   UNL A   1      42.696  31.306  30.714  1.00  0.00     0.031 C 
ATOM     68  C   UNL A   1      45.041  30.752  30.125  1.00  0.00     0.037 A 
BRANCH  55  69
ATOM     69  C   UNL A   1      48.591  26.421  27.482  1.00  0.00     0.057 A 
ATOM     70  C   UNL A   1      49.202  26.660  26.243  1.00  0.00     0.134 A 
ATOM     71  C   UNL A   1      49.301  25.652  28.412  1.00  0.00     0.134 A 
ATOM     72  F   UNL A   1      48.569  27.370  25.297  1.00  0.00    -0.206 F 
ATOM     73  C   UNL A   1      50.448  26.116  25.927  1.00  0.00     0.040 A 
ATOM     74  C   UNL A   1      50.563  25.133  28.121  1.00  0.00     0.040 A 
ATOM     75  F   UNL A   1      48.777  25.383  29.617  1.00  0.00    -0.206 F 
ATOM     76  C   UNL A   1      51.135  25.354  26.870  1.00  0.00     0.006 A 
ENDBRANCH  55  69
BRANCH  56  77
ATOM     77  C   UNL A   1      39.225  29.037  29.850  1.00  0.00     0.057 A 
ATOM     78  C   UNL A   1      38.339  29.678  28.980  1.00  0.00     0.134 A 
ATOM     79  C   UNL A   1      38.748  28.696  31.122  1.00  0.00     0.134 A 
ATOM     80  F   UNL A   1      38.745  30.052  27.757  1.00  0.00    -0.206 F 
ATOM     81  C   UNL A   1      37.027  29.970  29.358  1.00  0.00     0.040 A 
ATOM     82  C   UNL A   1      37.433  28.961  31.506  1.00  0.00     0.040 A 
ATOM     83  F   UNL A   1      39.548  28.072  32.001  1.00  0.00    -0.206 F 
ATOM     84  C   UNL A   1      36.568  29.603  30.622  1.00  0.00     0.006 A 
ENDBRANCH  56  77
BRANCH  68  85
ATOM     85  C   UNL A   1      45.472  32.054  30.739  1.00  0.00     0.057 A 
ATOM     86  C   UNL A   1      45.995  32.133  32.034  1.00  0.00     0.134 A 
ATOM     87  C   UNL A   1      45.439  33.233  29.981  1.00  0.00     0.134 A 
ATOM     88  F   UNL A   1      46.047  31.043  32.815  1.00  0.00    -0.206 F 
ATOM     89  C   UNL A   1      46.458  33.341  32.560  1.00  0.00     0.040 A 
ATOM     90  C   UNL A   1      45.925  34.440  30.485  1.00  0.00     0.040 A 
ATOM     91  F   UNL A   1      44.961  33.225  28.728  1.00  0.00    -0.206 F 
ATOM     92  C   UNL A   1      46.433  34.497  31.780  1.00  0.00     0.006 A 
ENDBRANCH  68  85
ENDBRANCH  42  43
ENDBRANCH  35  37
ENDBRANCH  34  35
ENDBRANCH  33  34
ENDBRANCH  32  33
ENDBRANCH  31  32
ENDBRANCH  30  31
ENDBRANCH  29  30
ENDBRANCH  28  29
ENDBRANCH  27  28
ENDBRANCH   1  27
TORSDOF 25
ENDMDL
