MODEL 1
REMARK VINA RESULT:      -9.5      0.000      0.000
REMARK SMILES CC(C)[C@H](NC(=O)OCc1ccccc1)C(=O)NCC(=O)OCCOCCOCCOCCOC(=O)c1ccc(-c2c3nc(c(-c4c(F)cccc4F)c4ccc([nH]4)c(-c4c(F)cccc4F)c4nc(c(-c5c(F)cccc5F)c5ccc2[nH]5)C=C4)C=C3)cc1
REMARK SMILES IDX 26 1 25 2 24 3 23 4 22 5 20 6 21 7 19 8 18 9 16 10 17 11
REMARK SMILES IDX 4 13 2 14 1 15 3 16 5 17 6 18 7 20 8 21 9 22 10 23 11 24
REMARK SMILES IDX 15 25 12 26 14 27 13 28 27 29 28 30 29 31 30 32 31 33 32 34
REMARK SMILES IDX 33 35 34 36 35 37 36 38 37 39 38 40 90 41 39 42 89 43 40 44
REMARK SMILES IDX 41 45 42 46 83 47 43 48 88 49 82 50 84 51 44 52 87 53 81 54
REMARK SMILES IDX 80 55 45 57 71 58 54 59 70 60 55 61 58 62 69 63 85 64 56 65
REMARK SMILES IDX 57 66 68 68 86 69 59 70 46 71 47 72 52 73 48 74 49 75 51 76
REMARK SMILES IDX 53 77 50 78 72 79 73 80 78 81 74 82 75 83 77 84 79 85 76 86
REMARK SMILES IDX 60 87 61 88 66 89 62 90 63 91 65 92 67 93 64 94
REMARK H PARENT 18 12 5 19 84 56 58 67
REMARK Flexibility Score: inf
ROOT
ATOM      1  C   UNL A   1      34.515  35.075  28.791  1.00  0.00     0.188 C 
ENDROOT
BRANCH   1   2
ATOM      2  O   UNL A   1      34.224  33.729  29.104  1.00  0.00    -0.376 OA
BRANCH   2   3
ATOM      3  C   UNL A   1      33.972  32.723  28.131  1.00  0.00     0.202 C 
BRANCH   3   4
ATOM      4  C   UNL A   1      34.477  31.273  28.183  1.00  0.00     0.261 C 
BRANCH   4   5
ATOM      5  O   UNL A   1      34.489  30.585  26.935  1.00  0.00    -0.462 OA
BRANCH   5   6
ATOM      6  C   UNL A   1      33.370  29.865  26.675  1.00  0.00     0.325 C 
ATOM      7  O   UNL A   1      32.359  29.854  27.370  1.00  0.00    -0.250 OA
BRANCH   6   8
ATOM      8  C   UNL A   1      33.404  29.213  25.302  1.00  0.00     0.238 C 
BRANCH   8   9
ATOM      9  N   UNL A   1      32.255  29.326  24.387  1.00  0.00    -0.343 N 
ATOM     10  C   UNL A   1      31.282  28.384  24.140  1.00  0.00     0.243 C 
ATOM     11  O   UNL A   1      30.167  28.734  23.757  1.00  0.00    -0.273 OA
ATOM     12  H   UNL A   1      32.174  30.176  23.895  1.00  0.00     0.164 HD
BRANCH  10  13
ATOM     13  C   UNL A   1      31.647  26.908  24.385  1.00  0.00     0.177 C 
BRANCH  13  14
ATOM     14  C   UNL A   1      31.838  26.068  23.087  1.00  0.00     0.015 C 
ATOM     15  C   UNL A   1      31.149  26.605  21.820  1.00  0.00     0.010 C 
ATOM     16  C   UNL A   1      33.333  25.940  22.772  1.00  0.00     0.010 C 
ENDBRANCH  13  14
BRANCH  13  17
ATOM     17  N   UNL A   1      30.517  26.516  25.246  1.00  0.00    -0.309 N 
ATOM     18  C   UNL A   1      30.410  25.591  26.209  1.00  0.00     0.408 C 
ATOM     19  H   UNL A   1      29.691  27.026  25.083  1.00  0.00     0.167 HD
ATOM     20  O   UNL A   1      29.297  25.147  26.495  1.00  0.00    -0.225 OA
BRANCH  18  21
ATOM     21  O   UNL A   1      31.576  25.268  26.787  1.00  0.00    -0.445 OA
BRANCH  21  22
ATOM     22  C   UNL A   1      31.940  23.894  26.633  1.00  0.00     0.270 C 
BRANCH  22  23
ATOM     23  C   UNL A   1      33.164  23.704  25.763  1.00  0.00    -0.011 A 
ATOM     24  C   UNL A   1      33.135  22.751  24.738  1.00  0.00     0.007 A 
ATOM     25  C   UNL A   1      34.370  24.388  25.997  1.00  0.00     0.007 A 
ATOM     26  C   UNL A   1      34.272  22.498  23.969  1.00  0.00     0.000 A 
ATOM     27  C   UNL A   1      35.506  24.135  25.228  1.00  0.00     0.000 A 
ATOM     28  C   UNL A   1      35.457  23.188  24.215  1.00  0.00     0.000 A 
ENDBRANCH  22  23
ENDBRANCH  21  22
ENDBRANCH  18  21
ENDBRANCH  13  17
ENDBRANCH  10  13
ENDBRANCH   8   9
ENDBRANCH   6   8
ENDBRANCH   5   6
ENDBRANCH   4   5
ENDBRANCH   3   4
ENDBRANCH   2   3
ENDBRANCH   1   2
BRANCH   1  29
ATOM     29  C   UNL A   1      33.407  36.138  28.797  1.00  0.00     0.188 C 
BRANCH  29  30
ATOM     30  O   UNL A   1      32.519  36.110  29.896  1.00  0.00    -0.377 OA
BRANCH  30  31
ATOM     31  C   UNL A   1      32.903  36.789  31.094  1.00  0.00     0.188 C 
BRANCH  31  32
ATOM     32  C   UNL A   1      33.659  36.050  32.224  1.00  0.00     0.188 C 
BRANCH  32  33
ATOM     33  O   UNL A   1      32.970  34.959  32.806  1.00  0.00    -0.376 OA
BRANCH  33  34
ATOM     34  C   UNL A   1      33.557  33.668  32.786  1.00  0.00     0.202 C 
BRANCH  34  35
ATOM     35  C   UNL A   1      34.696  33.358  33.772  1.00  0.00     0.261 C 
BRANCH  35  36
ATOM     36  O   UNL A   1      35.860  32.719  33.225  1.00  0.00    -0.460 OA
BRANCH  36  37
ATOM     37  C   UNL A   1      36.769  33.489  32.590  1.00  0.00     0.338 C 
ATOM     38  O   UNL A   1      36.917  34.692  32.689  1.00  0.00    -0.246 OA
BRANCH  37  39
ATOM     39  C   UNL A   1      37.704  32.585  31.889  1.00  0.00     0.060 A 
ATOM     40  C   UNL A   1      38.652  31.876  32.638  1.00  0.00     0.016 A 
ATOM     41  C   UNL A   1      37.652  32.448  30.501  1.00  0.00     0.016 A 
ATOM     42  C   UNL A   1      39.581  31.057  31.994  1.00  0.00     0.010 A 
ATOM     43  C   UNL A   1      38.597  31.647  29.855  1.00  0.00     0.010 A 
ATOM     44  C   UNL A   1      39.588  30.978  30.596  1.00  0.00    -0.014 A 
BRANCH  44  45
ATOM     45  C   UNL A   1      40.754  30.378  29.901  1.00  0.00     0.031 A 
ATOM     46  C   UNL A   1      41.946  31.253  29.627  1.00  0.00     0.074 A 
ATOM     47  C   UNL A   1      40.771  29.081  29.548  1.00  0.00     0.049 A 
ATOM     48  N   UNL A   1      43.049  30.981  28.980  1.00  0.00    -0.248 NA
ATOM     49  C   UNL A   1      41.882  32.627  30.158  1.00  0.00     0.031 C 
ATOM     50  C   UNL A   1      39.705  28.116  29.808  1.00  0.00     0.029 A 
ATOM     51  N   UNL A   1      41.727  28.357  28.880  1.00  0.00    -0.354 N 
ATOM     52  C   UNL A   1      43.807  32.145  29.023  1.00  0.00     0.074 A 
ATOM     53  C   UNL A   1      43.024  33.138  29.724  1.00  0.00     0.031 C 
ATOM     54  C   UNL A   1      40.061  26.926  29.291  1.00  0.00     0.029 A 
ATOM     55  C   UNL A   1      41.359  27.057  28.632  1.00  0.00     0.049 A 
ATOM     56  H   UNL A   1      42.594  28.734  28.604  1.00  0.00     0.167 HD
ATOM     57  C   UNL A   1      45.051  32.364  28.534  1.00  0.00     0.037 A 
ATOM     58  C   UNL A   1      41.990  26.096  27.929  1.00  0.00     0.037 A 
ATOM     59  C   UNL A   1      45.824  31.379  27.825  1.00  0.00     0.049 A 
ATOM     60  C   UNL A   1      43.326  26.399  27.297  1.00  0.00     0.074 A 
ATOM     61  C   UNL A   1      47.089  31.504  27.280  1.00  0.00     0.029 A 
ATOM     62  N   UNL A   1      45.399  30.086  27.557  1.00  0.00    -0.354 N 
ATOM     63  N   UNL A   1      44.041  27.496  27.352  1.00  0.00    -0.248 NA
ATOM     64  C   UNL A   1      43.943  25.325  26.504  1.00  0.00     0.031 C 
ATOM     65  C   UNL A   1      47.407  30.306  26.634  1.00  0.00     0.029 A 
ATOM     66  C   UNL A   1      46.368  29.412  26.835  1.00  0.00     0.049 A 
ATOM     67  H   UNL A   1      44.536  29.705  27.840  1.00  0.00     0.167 HD
ATOM     68  C   UNL A   1      45.206  27.231  26.639  1.00  0.00     0.074 A 
ATOM     69  C   UNL A   1      45.107  25.866  26.172  1.00  0.00     0.031 C 
ATOM     70  C   UNL A   1      46.263  28.044  26.394  1.00  0.00     0.037 A 
BRANCH  57  71
ATOM     71  C   UNL A   1      45.640  33.731  28.730  1.00  0.00     0.057 A 
ATOM     72  C   UNL A   1      45.430  34.766  27.807  1.00  0.00     0.134 A 
ATOM     73  C   UNL A   1      46.402  34.026  29.867  1.00  0.00     0.134 A 
ATOM     74  F   UNL A   1      44.723  34.545  26.688  1.00  0.00    -0.206 F 
ATOM     75  C   UNL A   1      45.974  36.036  27.999  1.00  0.00     0.040 A 
ATOM     76  C   UNL A   1      46.926  35.301  30.084  1.00  0.00     0.040 A 
ATOM     77  F   UNL A   1      46.639  33.084  30.792  1.00  0.00    -0.206 F 
ATOM     78  C   UNL A   1      46.719  36.309  29.145  1.00  0.00     0.006 A 
ENDBRANCH  57  71
BRANCH  58  79
ATOM     79  C   UNL A   1      41.367  24.757  27.753  1.00  0.00     0.057 A 
ATOM     80  C   UNL A   1      41.810  23.647  28.483  1.00  0.00     0.134 A 
ATOM     81  C   UNL A   1      40.355  24.540  26.809  1.00  0.00     0.134 A 
ATOM     82  F   UNL A   1      42.795  23.783  29.385  1.00  0.00    -0.206 F 
ATOM     83  C   UNL A   1      41.295  22.369  28.262  1.00  0.00     0.040 A 
ATOM     84  C   UNL A   1      39.808  23.273  26.599  1.00  0.00     0.040 A 
ATOM     85  F   UNL A   1      39.884  25.558  26.075  1.00  0.00    -0.206 F 
ATOM     86  C   UNL A   1      40.287  22.181  27.318  1.00  0.00     0.006 A 
ENDBRANCH  58  79
BRANCH  70  87
ATOM     87  C   UNL A   1      47.425  27.463  25.636  1.00  0.00     0.057 A 
ATOM     88  C   UNL A   1      47.510  27.521  24.239  1.00  0.00     0.134 A 
ATOM     89  C   UNL A   1      48.496  26.874  26.322  1.00  0.00     0.134 A 
ATOM     90  F   UNL A   1      46.515  28.062  23.519  1.00  0.00    -0.206 F 
ATOM     91  C   UNL A   1      48.602  26.990  23.551  1.00  0.00     0.040 A 
ATOM     92  C   UNL A   1      49.608  26.368  25.648  1.00  0.00     0.040 A 
ATOM     93  F   UNL A   1      48.487  26.795  27.662  1.00  0.00    -0.206 F 
ATOM     94  C   UNL A   1      49.659  26.419  24.257  1.00  0.00     0.006 A 
ENDBRANCH  70  87
ENDBRANCH  44  45
ENDBRANCH  37  39
ENDBRANCH  36  37
ENDBRANCH  35  36
ENDBRANCH  34  35
ENDBRANCH  33  34
ENDBRANCH  32  33
ENDBRANCH  31  32
ENDBRANCH  30  31
ENDBRANCH  29  30
ENDBRANCH   1  29
TORSDOF 27
ENDMDL
MODEL 2
REMARK VINA RESULT:      -8.9      1.163      6.098
REMARK SMILES CC(C)[C@H](NC(=O)OCc1ccccc1)C(=O)NCC(=O)OCCOCCOCCOCCOC(=O)c1ccc(-c2c3nc(c(-c4c(F)cccc4F)c4ccc([nH]4)c(-c4c(F)cccc4F)c4nc(c(-c5c(F)cccc5F)c5ccc2[nH]5)C=C4)C=C3)cc1
REMARK SMILES IDX 26 1 25 2 24 3 23 4 22 5 20 6 21 7 19 8 18 9 16 10 17 11
REMARK SMILES IDX 4 13 2 14 1 15 3 16 5 17 6 18 7 20 8 21 9 22 10 23 11 24
REMARK SMILES IDX 15 25 12 26 14 27 13 28 27 29 28 30 29 31 30 32 31 33 32 34
REMARK SMILES IDX 33 35 34 36 35 37 36 38 37 39 38 40 90 41 39 42 89 43 40 44
REMARK SMILES IDX 41 45 42 46 83 47 43 48 88 49 82 50 84 51 44 52 87 53 81 54
REMARK SMILES IDX 80 55 45 57 71 58 54 59 70 60 55 61 58 62 69 63 85 64 56 65
REMARK SMILES IDX 57 66 68 68 86 69 59 70 46 71 47 72 52 73 48 74 49 75 51 76
REMARK SMILES IDX 53 77 50 78 72 79 73 80 78 81 74 82 75 83 77 84 79 85 76 86
REMARK SMILES IDX 60 87 61 88 66 89 62 90 63 91 65 92 67 93 64 94
REMARK H PARENT 18 12 5 19 84 56 58 67
REMARK Flexibility Score: inf
ROOT
ATOM      1  C   UNL A   1      35.362  33.781  29.470  1.00  0.00     0.188 C 
ENDROOT
BRANCH   1   2
ATOM      2  O   UNL A   1      35.564  32.725  28.554  1.00  0.00    -0.376 OA
BRANCH   2   3
ATOM      3  C   UNL A   1      34.784  31.536  28.528  1.00  0.00     0.202 C 
BRANCH   3   4
ATOM      4  C   UNL A   1      34.107  30.930  27.288  1.00  0.00     0.261 C 
BRANCH   4   5
ATOM      5  O   UNL A   1      33.865  29.526  27.350  1.00  0.00    -0.462 OA
BRANCH   5   6
ATOM      6  C   UNL A   1      32.963  29.068  26.447  1.00  0.00     0.325 C 
ATOM      7  O   UNL A   1      32.647  29.641  25.409  1.00  0.00    -0.250 OA
BRANCH   6   8
ATOM      8  C   UNL A   1      32.516  27.645  26.743  1.00  0.00     0.238 C 
BRANCH   8   9
ATOM      9  N   UNL A   1      31.168  27.186  26.365  1.00  0.00    -0.343 N 
ATOM     10  C   UNL A   1      30.771  25.902  26.067  1.00  0.00     0.243 C 
ATOM     11  O   UNL A   1      29.600  25.564  26.231  1.00  0.00    -0.273 OA
ATOM     12  H   UNL A   1      30.470  27.880  26.321  1.00  0.00     0.164 HD
BRANCH  10  13
ATOM     13  C   UNL A   1      31.848  24.929  25.552  1.00  0.00     0.177 C 
BRANCH  13  14
ATOM     14  C   UNL A   1      32.802  24.382  26.655  1.00  0.00     0.015 C 
ATOM     15  C   UNL A   1      32.566  22.928  27.101  1.00  0.00     0.010 C 
ATOM     16  C   UNL A   1      34.254  24.482  26.176  1.00  0.00     0.010 C 
ENDBRANCH  13  14
BRANCH  13  17
ATOM     17  N   UNL A   1      32.474  25.779  24.523  1.00  0.00    -0.309 N 
ATOM     18  C   UNL A   1      32.819  25.532  23.253  1.00  0.00     0.408 C 
ATOM     19  H   UNL A   1      32.674  26.695  24.824  1.00  0.00     0.167 HD
ATOM     20  O   UNL A   1      33.690  26.223  22.721  1.00  0.00    -0.225 OA
BRANCH  18  21
ATOM     21  O   UNL A   1      32.124  24.537  22.682  1.00  0.00    -0.445 OA
BRANCH  21  22
ATOM     22  C   UNL A   1      32.941  23.516  22.104  1.00  0.00     0.270 C 
BRANCH  22  23
ATOM     23  C   UNL A   1      33.369  22.467  23.108  1.00  0.00    -0.011 A 
ATOM     24  C   UNL A   1      34.681  22.479  23.594  1.00  0.00     0.007 A 
ATOM     25  C   UNL A   1      32.523  21.418  23.511  1.00  0.00     0.007 A 
ATOM     26  C   UNL A   1      35.129  21.481  24.461  1.00  0.00     0.000 A 
ATOM     27  C   UNL A   1      32.970  20.421  24.377  1.00  0.00     0.000 A 
ATOM     28  C   UNL A   1      34.274  20.451  24.850  1.00  0.00     0.000 A 
ENDBRANCH  22  23
ENDBRANCH  21  22
ENDBRANCH  18  21
ENDBRANCH  13  17
ENDBRANCH  10  13
ENDBRANCH   8   9
ENDBRANCH   6   8
ENDBRANCH   5   6
ENDBRANCH   4   5
ENDBRANCH   3   4
ENDBRANCH   2   3
ENDBRANCH   1   2
BRANCH   1  29
ATOM     29  C   UNL A   1      34.210  34.778  29.276  1.00  0.00     0.188 C 
BRANCH  29  30
ATOM     30  O   UNL A   1      33.122  34.659  30.170  1.00  0.00    -0.377 OA
BRANCH  30  31
ATOM     31  C   UNL A   1      32.874  35.733  31.081  1.00  0.00     0.188 C 
BRANCH  31  32
ATOM     32  C   UNL A   1      33.997  36.284  31.992  1.00  0.00     0.188 C 
BRANCH  32  33
ATOM     33  O   UNL A   1      34.655  35.323  32.796  1.00  0.00    -0.376 OA
BRANCH  33  34
ATOM     34  C   UNL A   1      33.974  34.135  33.168  1.00  0.00     0.202 C 
BRANCH  34  35
ATOM     35  C   UNL A   1      34.765  32.818  33.235  1.00  0.00     0.261 C 
BRANCH  35  36
ATOM     36  O   UNL A   1      36.134  32.871  32.803  1.00  0.00    -0.460 OA
BRANCH  36  37
ATOM     37  C   UNL A   1      37.056  32.204  33.528  1.00  0.00     0.338 C 
ATOM     38  O   UNL A   1      37.057  32.016  34.729  1.00  0.00    -0.246 OA
BRANCH  37  39
ATOM     39  C   UNL A   1      37.983  31.554  32.578  1.00  0.00     0.060 A 
ATOM     40  C   UNL A   1      38.958  30.678  33.072  1.00  0.00     0.016 A 
ATOM     41  C   UNL A   1      37.897  31.819  31.210  1.00  0.00     0.016 A 
ATOM     42  C   UNL A   1      39.879  30.093  32.202  1.00  0.00     0.010 A 
ATOM     43  C   UNL A   1      38.835  31.253  30.343  1.00  0.00     0.010 A 
ATOM     44  C   UNL A   1      39.852  30.418  30.840  1.00  0.00    -0.014 A 
BRANCH  44  45
ATOM     45  C   UNL A   1      41.006  30.062  29.978  1.00  0.00     0.031 A 
ATOM     46  C   UNL A   1      41.064  28.672  29.407  1.00  0.00     0.074 A 
ATOM     47  C   UNL A   1      41.965  30.955  29.682  1.00  0.00     0.049 A 
ATOM     48  N   UNL A   1      41.996  28.104  28.687  1.00  0.00    -0.248 NA
ATOM     49  C   UNL A   1      39.908  27.802  29.689  1.00  0.00     0.031 C 
ATOM     50  C   UNL A   1      41.993  32.348  30.125  1.00  0.00     0.029 A 
ATOM     51  N   UNL A   1      43.110  30.813  28.940  1.00  0.00    -0.354 N 
ATOM     52  C   UNL A   1      41.543  26.816  28.432  1.00  0.00     0.074 A 
ATOM     53  C   UNL A   1      40.273  26.670  29.106  1.00  0.00     0.031 C 
ATOM     54  C   UNL A   1      43.112  32.930  29.656  1.00  0.00     0.029 A 
ATOM     55  C   UNL A   1      43.894  31.942  28.915  1.00  0.00     0.049 A 
ATOM     56  H   UNL A   1      43.349  29.981  28.470  1.00  0.00     0.167 HD
ATOM     57  C   UNL A   1      42.126  25.844  27.690  1.00  0.00     0.037 A 
ATOM     58  C   UNL A   1      45.114  32.139  28.378  1.00  0.00     0.037 A 
ATOM     59  C   UNL A   1      43.397  25.986  27.030  1.00  0.00     0.049 A 
ATOM     60  C   UNL A   1      45.795  31.004  27.653  1.00  0.00     0.074 A 
ATOM     61  C   UNL A   1      44.080  25.058  26.265  1.00  0.00     0.029 A 
ATOM     62  N   UNL A   1      44.180  27.131  27.065  1.00  0.00    -0.354 N 
ATOM     63  N   UNL A   1      45.355  29.794  27.406  1.00  0.00    -0.248 NA
ATOM     64  C   UNL A   1      47.144  31.268  27.129  1.00  0.00     0.031 C 
ATOM     65  C   UNL A   1      45.301  25.621  25.881  1.00  0.00     0.029 A 
ATOM     66  C   UNL A   1      45.349  26.923  26.353  1.00  0.00     0.049 A 
ATOM     67  H   UNL A   1      43.939  27.966  27.527  1.00  0.00     0.167 HD
ATOM     68  C   UNL A   1      46.353  29.167  26.666  1.00  0.00     0.074 A 
ATOM     69  C   UNL A   1      47.414  30.136  26.494  1.00  0.00     0.031 C 
ATOM     70  C   UNL A   1      46.388  27.905  26.172  1.00  0.00     0.037 A 
BRANCH  57  71
ATOM     71  C   UNL A   1      41.404  24.533  27.577  1.00  0.00     0.057 A 
ATOM     72  C   UNL A   1      40.296  24.370  26.733  1.00  0.00     0.134 A 
ATOM     73  C   UNL A   1      41.837  23.412  28.296  1.00  0.00     0.134 A 
ATOM     74  F   UNL A   1      39.819  25.408  26.029  1.00  0.00    -0.206 F 
ATOM     75  C   UNL A   1      39.634  23.146  26.627  1.00  0.00     0.040 A 
ATOM     76  C   UNL A   1      41.201  22.176  28.175  1.00  0.00     0.040 A 
ATOM     77  F   UNL A   1      42.893  23.497  29.119  1.00  0.00    -0.206 F 
ATOM     78  C   UNL A   1      40.091  22.042  27.343  1.00  0.00     0.006 A 
ENDBRANCH  57  71
BRANCH  58  79
ATOM     79  C   UNL A   1      45.798  33.452  28.521  1.00  0.00     0.057 A 
ATOM     80  C   UNL A   1      46.590  33.741  29.638  1.00  0.00     0.134 A 
ATOM     81  C   UNL A   1      45.628  34.471  27.574  1.00  0.00     0.134 A 
ATOM     82  F   UNL A   1      46.771  32.817  30.594  1.00  0.00    -0.206 F 
ATOM     83  C   UNL A   1      47.162  35.001  29.826  1.00  0.00     0.040 A 
ATOM     84  C   UNL A   1      46.220  35.725  27.733  1.00  0.00     0.040 A 
ATOM     85  F   UNL A   1      44.881  34.262  26.480  1.00  0.00    -0.206 F 
ATOM     86  C   UNL A   1      46.980  35.996  28.868  1.00  0.00     0.006 A 
ENDBRANCH  58  79
BRANCH  70  87
ATOM     87  C   UNL A   1      47.584  27.514  25.348  1.00  0.00     0.057 A 
ATOM     88  C   UNL A   1      47.603  27.643  23.953  1.00  0.00     0.134 A 
ATOM     89  C   UNL A   1      48.749  27.043  25.967  1.00  0.00     0.134 A 
ATOM     90  F   UNL A   1      46.517  28.078  23.295  1.00  0.00    -0.206 F 
ATOM     91  C   UNL A   1      48.725  27.289  23.203  1.00  0.00     0.040 A 
ATOM     92  C   UNL A   1      49.889  26.717  25.231  1.00  0.00     0.040 A 
ATOM     93  F   UNL A   1      48.805  26.907  27.301  1.00  0.00    -0.206 F 
ATOM     94  C   UNL A   1      49.876  26.833  23.843  1.00  0.00     0.006 A 
ENDBRANCH  70  87
ENDBRANCH  44  45
ENDBRANCH  37  39
ENDBRANCH  36  37
ENDBRANCH  35  36
ENDBRANCH  34  35
ENDBRANCH  33  34
ENDBRANCH  32  33
ENDBRANCH  31  32
ENDBRANCH  30  31
ENDBRANCH  29  30
ENDBRANCH   1  29
TORSDOF 27
ENDMDL
MODEL 3
REMARK VINA RESULT:      -8.6      1.161      6.111
REMARK SMILES CC(C)[C@H](NC(=O)OCc1ccccc1)C(=O)NCC(=O)OCCOCCOCCOCCOC(=O)c1ccc(-c2c3nc(c(-c4c(F)cccc4F)c4ccc([nH]4)c(-c4c(F)cccc4F)c4nc(c(-c5c(F)cccc5F)c5ccc2[nH]5)C=C4)C=C3)cc1
REMARK SMILES IDX 26 1 25 2 24 3 23 4 22 5 20 6 21 7 19 8 18 9 16 10 17 11
REMARK SMILES IDX 4 13 2 14 1 15 3 16 5 17 6 18 7 20 8 21 9 22 10 23 11 24
REMARK SMILES IDX 15 25 12 26 14 27 13 28 27 29 28 30 29 31 30 32 31 33 32 34
REMARK SMILES IDX 33 35 34 36 35 37 36 38 37 39 38 40 90 41 39 42 89 43 40 44
REMARK SMILES IDX 41 45 42 46 83 47 43 48 88 49 82 50 84 51 44 52 87 53 81 54
REMARK SMILES IDX 80 55 45 57 71 58 54 59 70 60 55 61 58 62 69 63 85 64 56 65
REMARK SMILES IDX 57 66 68 68 86 69 59 70 46 71 47 72 52 73 48 74 49 75 51 76
REMARK SMILES IDX 53 77 50 78 72 79 73 80 78 81 74 82 75 83 77 84 79 85 76 86
REMARK SMILES IDX 60 87 61 88 66 89 62 90 63 91 65 92 67 93 64 94
REMARK H PARENT 18 12 5 19 84 56 58 67
REMARK Flexibility Score: inf
ROOT
ATOM      1  C   UNL A   1      35.295  33.837  29.530  1.00  0.00     0.188 C 
ENDROOT
BRANCH   1   2
ATOM      2  O   UNL A   1      35.511  32.772  28.627  1.00  0.00    -0.376 OA
BRANCH   2   3
ATOM      3  C   UNL A   1      34.711  31.597  28.578  1.00  0.00     0.202 C 
BRANCH   3   4
ATOM      4  C   UNL A   1      33.893  31.114  27.370  1.00  0.00     0.261 C 
BRANCH   4   5
ATOM      5  O   UNL A   1      33.650  29.710  27.319  1.00  0.00    -0.462 OA
BRANCH   5   6
ATOM      6  C   UNL A   1      32.618  29.344  26.520  1.00  0.00     0.325 C 
ATOM      7  O   UNL A   1      32.031  30.085  25.738  1.00  0.00    -0.250 OA
BRANCH   6   8
ATOM      8  C   UNL A   1      32.380  27.842  26.530  1.00  0.00     0.238 C 
BRANCH   8   9
ATOM      9  N   UNL A   1      31.011  27.297  26.567  1.00  0.00    -0.343 N 
ATOM     10  C   UNL A   1      30.486  26.293  25.785  1.00  0.00     0.243 C 
ATOM     11  O   UNL A   1      29.544  25.619  26.197  1.00  0.00    -0.273 OA
ATOM     12  H   UNL A   1      30.402  27.700  27.228  1.00  0.00     0.164 HD
BRANCH  10  13
ATOM     13  C   UNL A   1      31.139  26.049  24.412  1.00  0.00     0.177 C 
BRANCH  13  14
ATOM     14  C   UNL A   1      30.678  27.034  23.296  1.00  0.00     0.015 C 
ATOM     15  C   UNL A   1      29.533  27.994  23.665  1.00  0.00     0.010 C 
ATOM     16  C   UNL A   1      31.865  27.892  22.845  1.00  0.00     0.010 C 
ENDBRANCH  13  14
BRANCH  13  17
ATOM     17  N   UNL A   1      30.775  24.634  24.215  1.00  0.00    -0.309 N 
ATOM     18  C   UNL A   1      31.327  23.668  23.471  1.00  0.00     0.408 C 
ATOM     19  H   UNL A   1      29.980  24.349  24.722  1.00  0.00     0.167 HD
ATOM     20  O   UNL A   1      30.638  22.707  23.126  1.00  0.00    -0.225 OA
BRANCH  18  21
ATOM     21  O   UNL A   1      32.628  23.860  23.206  1.00  0.00    -0.445 OA
BRANCH  21  22
ATOM     22  C   UNL A   1      33.371  24.397  24.303  1.00  0.00     0.270 C 
BRANCH  22  23
ATOM     23  C   UNL A   1      34.758  23.803  24.422  1.00  0.00    -0.011 A 
ATOM     24  C   UNL A   1      35.528  24.082  25.556  1.00  0.00     0.007 A 
ATOM     25  C   UNL A   1      35.346  23.047  23.393  1.00  0.00     0.007 A 
ATOM     26  C   UNL A   1      36.839  23.614  25.661  1.00  0.00     0.000 A 
ATOM     27  C   UNL A   1      36.655  22.578  23.496  1.00  0.00     0.000 A 
ATOM     28  C   UNL A   1      37.403  22.864  24.630  1.00  0.00     0.000 A 
ENDBRANCH  22  23
ENDBRANCH  21  22
ENDBRANCH  18  21
ENDBRANCH  13  17
ENDBRANCH  10  13
ENDBRANCH   8   9
ENDBRANCH   6   8
ENDBRANCH   5   6
ENDBRANCH   4   5
ENDBRANCH   3   4
ENDBRANCH   2   3
ENDBRANCH   1   2
BRANCH   1  29
ATOM     29  C   UNL A   1      34.133  34.818  29.319  1.00  0.00     0.188 C 
BRANCH  29  30
ATOM     30  O   UNL A   1      33.050  34.710  30.221  1.00  0.00    -0.377 OA
BRANCH  30  31
ATOM     31  C   UNL A   1      32.847  35.764  31.165  1.00  0.00     0.188 C 
BRANCH  31  32
ATOM     32  C   UNL A   1      34.012  36.296  32.033  1.00  0.00     0.188 C 
BRANCH  32  33
ATOM     33  O   UNL A   1      34.718  35.315  32.771  1.00  0.00    -0.376 OA
BRANCH  33  34
ATOM     34  C   UNL A   1      34.051  34.132  33.183  1.00  0.00     0.202 C 
BRANCH  34  35
ATOM     35  C   UNL A   1      34.813  32.798  33.130  1.00  0.00     0.261 C 
BRANCH  35  36
ATOM     36  O   UNL A   1      36.202  32.866  32.775  1.00  0.00    -0.460 OA
BRANCH  36  37
ATOM     37  C   UNL A   1      37.084  32.161  33.514  1.00  0.00     0.338 C 
ATOM     38  O   UNL A   1      37.039  31.944  34.710  1.00  0.00    -0.246 OA
BRANCH  37  39
ATOM     39  C   UNL A   1      38.028  31.512  32.580  1.00  0.00     0.060 A 
ATOM     40  C   UNL A   1      39.121  30.807  33.101  1.00  0.00     0.016 A 
ATOM     41  C   UNL A   1      37.842  31.612  31.200  1.00  0.00     0.016 A 
ATOM     42  C   UNL A   1      40.055  30.231  32.239  1.00  0.00     0.010 A 
ATOM     43  C   UNL A   1      38.791  31.057  30.339  1.00  0.00     0.010 A 
ATOM     44  C   UNL A   1      39.921  30.396  30.855  1.00  0.00    -0.014 A 
BRANCH  44  45
ATOM     45  C   UNL A   1      41.061  30.073  29.964  1.00  0.00     0.031 A 
ATOM     46  C   UNL A   1      41.166  28.673  29.423  1.00  0.00     0.074 A 
ATOM     47  C   UNL A   1      41.968  31.002  29.614  1.00  0.00     0.049 A 
ATOM     48  N   UNL A   1      42.100  28.131  28.686  1.00  0.00    -0.248 NA
ATOM     49  C   UNL A   1      40.063  27.758  29.765  1.00  0.00     0.031 C 
ATOM     50  C   UNL A   1      41.945  32.405  30.023  1.00  0.00     0.029 A 
ATOM     51  N   UNL A   1      43.094  30.894  28.837  1.00  0.00    -0.354 N 
ATOM     52  C   UNL A   1      41.700  26.817  28.477  1.00  0.00     0.074 A 
ATOM     53  C   UNL A   1      40.461  26.630  29.198  1.00  0.00     0.031 C 
ATOM     54  C   UNL A   1      43.020  33.026  29.503  1.00  0.00     0.029 A 
ATOM     55  C   UNL A   1      43.822  32.056  28.759  1.00  0.00     0.049 A 
ATOM     56  H   UNL A   1      43.356  30.062  28.379  1.00  0.00     0.167 HD
ATOM     57  C   UNL A   1      42.304  25.855  27.739  1.00  0.00     0.037 A 
ATOM     58  C   UNL A   1      45.014  32.296  28.177  1.00  0.00     0.037 A 
ATOM     59  C   UNL A   1      43.544  26.039  27.033  1.00  0.00     0.049 A 
ATOM     60  C   UNL A   1      45.723  31.176  27.456  1.00  0.00     0.074 A 
ATOM     61  C   UNL A   1      44.245  25.125  26.268  1.00  0.00     0.029 A 
ATOM     62  N   UNL A   1      44.273  27.219  27.015  1.00  0.00    -0.354 N 
ATOM     63  N   UNL A   1      45.333  29.941  27.253  1.00  0.00    -0.248 NA
ATOM     64  C   UNL A   1      47.040  31.488  26.881  1.00  0.00     0.031 C 
ATOM     65  C   UNL A   1      45.424  25.733  25.830  1.00  0.00     0.029 A 
ATOM     66  C   UNL A   1      45.426  27.048  26.268  1.00  0.00     0.049 A 
ATOM     67  H   UNL A   1      44.008  28.054  27.464  1.00  0.00     0.167 HD
ATOM     68  C   UNL A   1      46.334  29.343  26.494  1.00  0.00     0.074 A 
ATOM     69  C   UNL A   1      47.342  30.354  26.263  1.00  0.00     0.031 C 
ATOM     70  C   UNL A   1      46.412  28.072  26.030  1.00  0.00     0.037 A 
BRANCH  57  71
ATOM     71  C   UNL A   1      41.640  24.509  27.681  1.00  0.00     0.057 A 
ATOM     72  C   UNL A   1      40.548  24.259  26.839  1.00  0.00     0.134 A 
ATOM     73  C   UNL A   1      42.116  23.443  28.454  1.00  0.00     0.134 A 
ATOM     74  F   UNL A   1      40.032  25.242  26.084  1.00  0.00    -0.206 F 
ATOM     75  C   UNL A   1      39.941  23.004  26.784  1.00  0.00     0.040 A 
ATOM     76  C   UNL A   1      41.535  22.176  28.386  1.00  0.00     0.040 A 
ATOM     77  F   UNL A   1      43.160  23.612  29.279  1.00  0.00    -0.206 F 
ATOM     78  C   UNL A   1      40.440  21.955  27.554  1.00  0.00     0.006 A 
ENDBRANCH  57  71
BRANCH  58  79
ATOM     79  C   UNL A   1      45.640  33.643  28.265  1.00  0.00     0.057 A 
ATOM     80  C   UNL A   1      45.420  34.612  27.278  1.00  0.00     0.134 A 
ATOM     81  C   UNL A   1      46.519  33.973  29.304  1.00  0.00     0.134 A 
ATOM     82  F   UNL A   1      44.609  34.348  26.243  1.00  0.00    -0.206 F 
ATOM     83  C   UNL A   1      46.073  35.845  27.303  1.00  0.00     0.040 A 
ATOM     84  C   UNL A   1      47.155  35.215  29.359  1.00  0.00     0.040 A 
ATOM     85  F   UNL A   1      46.776  33.091  30.281  1.00  0.00    -0.206 F 
ATOM     86  C   UNL A   1      46.942  36.150  28.350  1.00  0.00     0.006 A 
ENDBRANCH  58  79
BRANCH  70  87
ATOM     87  C   UNL A   1      47.597  27.716  25.175  1.00  0.00     0.057 A 
ATOM     88  C   UNL A   1      48.793  27.232  25.720  1.00  0.00     0.134 A 
ATOM     89  C   UNL A   1      47.521  27.820  23.780  1.00  0.00     0.134 A 
ATOM     90  F   UNL A   1      48.937  27.117  27.049  1.00  0.00    -0.206 F 
ATOM     91  C   UNL A   1      49.879  26.892  24.912  1.00  0.00     0.040 A 
ATOM     92  C   UNL A   1      48.588  27.453  22.959  1.00  0.00     0.040 A 
ATOM     93  F   UNL A   1      46.401  28.264  23.189  1.00  0.00    -0.206 F 
ATOM     94  C   UNL A   1      49.775  26.994  23.526  1.00  0.00     0.006 A 
ENDBRANCH  70  87
ENDBRANCH  44  45
ENDBRANCH  37  39
ENDBRANCH  36  37
ENDBRANCH  35  36
ENDBRANCH  34  35
ENDBRANCH  33  34
ENDBRANCH  32  33
ENDBRANCH  31  32
ENDBRANCH  30  31
ENDBRANCH  29  30
ENDBRANCH   1  29
TORSDOF 27
ENDMDL
