MODEL 1
REMARK VINA RESULT:     -10.1      0.000      0.000
REMARK SMILES Cc1ccc(NC(=O)[C@@H]2[C@@H](C(=O)OCCOCCOCCOCCOC(=O)c3ccc(-c4c5nc(c(-c6c(F)cccc6F)c6ccc([nH]6)c(-c6c(F)cccc6F)c6nc(c(-c7c(F)cccc7F)c7ccc4[nH]7)C=C6)C=C5)cc3)[C@@H]3C=C[C@H]2C3)cc1NC(=O)c1ccc(Cl)cc1
REMARK SMILES IDX 18 1 17 2 16 3 15 4 14 5 13 6 11 7 12 8 10 9 9 10 85 11
REMARK SMILES IDX 82 12 84 13 86 14 83 15 7 16 6 17 8 19 5 20 1 21 2 22 3 23
REMARK SMILES IDX 88 24 4 25 87 26 89 27 90 28 91 30 92 31 93 32 98 33 94 34
REMARK SMILES IDX 97 35 95 36 96 37 19 38 20 39 21 40 22 41 23 42 24 43 25 44
REMARK SMILES IDX 26 45 27 46 28 47 29 48 81 49 30 50 80 51 31 52 32 53 33 54
REMARK SMILES IDX 74 55 34 56 79 57 73 58 75 59 35 60 78 61 72 62 71 63 36 65
REMARK SMILES IDX 62 66 45 67 61 68 46 69 49 70 60 71 76 72 47 73 48 74 59 76
REMARK SMILES IDX 77 77 50 78 37 79 38 80 43 81 39 82 40 83 42 84 44 85 41 86
REMARK SMILES IDX 63 87 64 88 69 89 65 90 66 91 68 92 70 93 67 94 51 95 52 96
REMARK SMILES IDX 57 97 53 98 54 99 56 100 58 101 55 102
REMARK H PARENT 6 18 89 29 75 64 49 75
REMARK Flexibility Score: inf
ROOT
ATOM      1  C   UNL A   1      37.930  29.819  27.696  1.00  0.00     0.188 C 
ENDROOT
BRANCH   1   2
ATOM      2  C   UNL A   1      36.707  30.680  27.985  1.00  0.00     0.188 C 
BRANCH   2   3
ATOM      3  O   UNL A   1      35.573  30.046  28.567  1.00  0.00    -0.376 OA
BRANCH   3   4
ATOM      4  C   UNL A   1      34.769  29.347  27.605  1.00  0.00     0.202 C 
BRANCH   4   5
ATOM      5  C   UNL A   1      33.531  30.067  27.050  1.00  0.00     0.261 C 
BRANCH   5   6
ATOM      6  O   UNL A   1      32.556  29.155  26.503  1.00  0.00    -0.463 OA
BRANCH   6   7
ATOM      7  C   UNL A   1      31.715  29.735  25.618  1.00  0.00     0.310 C 
ATOM      8  O   UNL A   1      31.412  30.913  25.630  1.00  0.00    -0.252 OA
BRANCH   7   9
ATOM      9  C   UNL A   1      31.197  28.790  24.557  1.00  0.00     0.119 C 
ATOM     10  C   UNL A   1      32.099  28.853  23.337  1.00  0.00     0.100 C 
ATOM     11  C   UNL A   1      31.208  28.215  22.242  1.00  0.00     0.025 C 
ATOM     12  C   UNL A   1      29.796  28.888  23.837  1.00  0.00     0.027 C 
ATOM     13  C   UNL A   1      30.374  27.015  22.672  1.00  0.00    -0.027 C 
ATOM     14  C   UNL A   1      30.085  29.252  22.362  1.00  0.00     0.017 C 
ATOM     15  C   UNL A   1      29.456  27.445  23.556  1.00  0.00    -0.027 C 
BRANCH  10  16
ATOM     16  C   UNL A   1      33.530  28.431  23.473  1.00  0.00     0.228 C 
ATOM     17  N   UNL A   1      33.768  27.143  23.914  1.00  0.00    -0.326 N 
ATOM     18  H   UNL A   1      34.691  26.834  23.771  1.00  0.00     0.169 HD
ATOM     19  O   UNL A   1      34.463  29.139  23.101  1.00  0.00    -0.274 OA
BRANCH  17  20
ATOM     20  C   UNL A   1      32.927  26.182  24.535  1.00  0.00     0.043 A 
ATOM     21  C   UNL A   1      30.519  23.051  26.360  1.00  0.00     0.046 C 
ATOM     22  C   UNL A   1      31.305  24.125  25.674  1.00  0.00    -0.027 A 
ATOM     23  C   UNL A   1      31.742  25.197  26.440  1.00  0.00     0.008 A 
ATOM     24  C   UNL A   1      31.704  24.082  24.329  1.00  0.00     0.046 A 
ATOM     25  C   UNL A   1      32.599  26.152  25.890  1.00  0.00     0.026 A 
ATOM     26  C   UNL A   1      32.436  25.144  23.751  1.00  0.00     0.052 A 
BRANCH  24  27
ATOM     27  N   UNL A   1      31.502  22.900  23.604  1.00  0.00    -0.322 N 
ATOM     28  C   UNL A   1      32.456  21.985  23.204  1.00  0.00     0.255 C 
ATOM     29  H   UNL A   1      30.572  22.698  23.349  1.00  0.00     0.170 HD
ATOM     30  O   UNL A   1      32.159  21.080  22.427  1.00  0.00    -0.269 OA
BRANCH  28  31
ATOM     31  C   UNL A   1      33.838  22.044  23.772  1.00  0.00     0.040 A 
ATOM     32  C   UNL A   1      34.114  21.297  24.920  1.00  0.00     0.015 A 
ATOM     33  C   UNL A   1      34.868  22.790  23.173  1.00  0.00     0.015 A 
ATOM     34  C   UNL A   1      35.424  21.221  25.403  1.00  0.00     0.021 A 
ATOM     35  C   UNL A   1      36.184  22.669  23.621  1.00  0.00     0.021 A 
ATOM     36  C   UNL A   1      36.457  21.880  24.732  1.00  0.00     0.041 A 
ATOM     37  Cl  UNL A   1      38.078  21.715  25.279  1.00  0.00    -0.084 Cl
ENDBRANCH  28  31
ENDBRANCH  24  27
ENDBRANCH  17  20
ENDBRANCH  10  16
ENDBRANCH   7   9
ENDBRANCH   6   7
ENDBRANCH   5   6
ENDBRANCH   4   5
ENDBRANCH   3   4
ENDBRANCH   2   3
ENDBRANCH   1   2
BRANCH   1  38
ATOM     38  O   UNL A   1      38.036  28.596  28.440  1.00  0.00    -0.377 OA
BRANCH  38  39
ATOM     39  C   UNL A   1      39.300  28.300  29.016  1.00  0.00     0.188 C 
BRANCH  39  40
ATOM     40  C   UNL A   1      39.838  26.926  28.663  1.00  0.00     0.188 C 
BRANCH  40  41
ATOM     41  O   UNL A   1      39.774  26.605  27.283  1.00  0.00    -0.376 OA
BRANCH  41  42
ATOM     42  C   UNL A   1      40.609  25.535  26.832  1.00  0.00     0.202 C 
BRANCH  42  43
ATOM     43  C   UNL A   1      41.307  24.719  27.931  1.00  0.00     0.261 C 
BRANCH  43  44
ATOM     44  O   UNL A   1      42.729  24.727  27.717  1.00  0.00    -0.460 OA
BRANCH  44  45
ATOM     45  C   UNL A   1      43.355  25.906  27.958  1.00  0.00     0.338 C 
ATOM     46  O   UNL A   1      43.825  26.657  27.103  1.00  0.00    -0.246 OA
BRANCH  45  47
ATOM     47  C   UNL A   1      43.710  26.003  29.403  1.00  0.00     0.060 A 
ATOM     48  C   UNL A   1      44.346  27.168  29.872  1.00  0.00     0.016 A 
ATOM     49  C   UNL A   1      43.826  24.816  30.121  1.00  0.00     0.016 A 
ATOM     50  C   UNL A   1      45.280  27.086  30.915  1.00  0.00     0.010 A 
ATOM     51  C   UNL A   1      44.832  24.722  31.059  1.00  0.00     0.010 A 
ATOM     52  C   UNL A   1      45.617  25.831  31.419  1.00  0.00    -0.014 A 
BRANCH  52  53
ATOM     53  C   UNL A   1      46.877  25.499  32.113  1.00  0.00     0.031 A 
ATOM     54  C   UNL A   1      48.159  25.519  31.325  1.00  0.00     0.074 A 
ATOM     55  C   UNL A   1      46.884  25.547  33.473  1.00  0.00     0.049 A 
ATOM     56  N   UNL A   1      49.341  25.397  31.817  1.00  0.00    -0.248 NA
ATOM     57  C   UNL A   1      48.213  25.717  29.876  1.00  0.00     0.031 C 
ATOM     58  C   UNL A   1      48.023  25.830  34.348  1.00  0.00     0.029 A 
ATOM     59  N   UNL A   1      45.867  25.414  34.403  1.00  0.00    -0.354 N 
ATOM     60  C   UNL A   1      50.284  25.748  30.862  1.00  0.00     0.074 A 
ATOM     61  C   UNL A   1      49.519  25.913  29.658  1.00  0.00     0.031 C 
ATOM     62  C   UNL A   1      47.683  25.713  35.640  1.00  0.00     0.029 A 
ATOM     63  C   UNL A   1      46.386  25.097  35.665  1.00  0.00     0.049 A 
ATOM     64  H   UNL A   1      44.909  25.528  34.204  1.00  0.00     0.167 HD
ATOM     65  C   UNL A   1      51.581  25.939  31.262  1.00  0.00     0.037 A 
ATOM     66  C   UNL A   1      46.213  23.854  36.217  1.00  0.00     0.037 A 
ATOM     67  C   UNL A   1      51.735  25.421  32.624  1.00  0.00     0.049 A 
ATOM     68  C   UNL A   1      47.476  22.996  36.071  1.00  0.00     0.074 A 
ATOM     69  C   UNL A   1      51.916  26.032  33.850  1.00  0.00     0.029 A 
ATOM     70  N   UNL A   1      51.358  24.102  32.894  1.00  0.00    -0.354 N 
ATOM     71  N   UNL A   1      48.422  23.248  35.192  1.00  0.00    -0.248 NA
ATOM     72  C   UNL A   1      47.862  21.905  36.964  1.00  0.00     0.031 C 
ATOM     73  C   UNL A   1      51.329  25.173  34.815  1.00  0.00     0.029 A 
ATOM     74  C   UNL A   1      51.034  23.954  34.228  1.00  0.00     0.049 A 
ATOM     75  H   UNL A   1      51.328  23.379  32.225  1.00  0.00     0.167 HD
ATOM     76  C   UNL A   1      49.532  22.485  35.439  1.00  0.00     0.074 A 
ATOM     77  C   UNL A   1      49.109  21.622  36.532  1.00  0.00     0.031 C 
ATOM     78  C   UNL A   1      50.737  22.647  34.798  1.00  0.00     0.037 A 
BRANCH  65  79
ATOM     79  C   UNL A   1      52.676  26.746  30.560  1.00  0.00     0.057 A 
ATOM     80  C   UNL A   1      54.008  26.266  30.511  1.00  0.00     0.134 A 
ATOM     81  C   UNL A   1      52.534  28.037  30.011  1.00  0.00     0.134 A 
ATOM     82  F   UNL A   1      54.335  25.051  30.974  1.00  0.00    -0.206 F 
ATOM     83  C   UNL A   1      55.089  27.007  29.997  1.00  0.00     0.040 A 
ATOM     84  C   UNL A   1      53.601  28.777  29.468  1.00  0.00     0.040 A 
ATOM     85  F   UNL A   1      51.364  28.678  29.986  1.00  0.00    -0.206 F 
ATOM     86  C   UNL A   1      54.889  28.270  29.468  1.00  0.00     0.006 A 
ENDBRANCH  65  79
BRANCH  66  87
ATOM     87  C   UNL A   1      44.755  23.515  36.250  1.00  0.00     0.057 A 
ATOM     88  C   UNL A   1      43.984  24.458  36.973  1.00  0.00     0.134 A 
ATOM     89  C   UNL A   1      44.153  22.957  35.117  1.00  0.00     0.134 A 
ATOM     90  F   UNL A   1      44.468  24.982  38.110  1.00  0.00    -0.206 F 
ATOM     91  C   UNL A   1      42.858  25.066  36.409  1.00  0.00     0.040 A 
ATOM     92  C   UNL A   1      42.997  23.535  34.566  1.00  0.00     0.040 A 
ATOM     93  F   UNL A   1      44.789  22.017  34.405  1.00  0.00    -0.206 F 
ATOM     94  C   UNL A   1      42.401  24.647  35.165  1.00  0.00     0.006 A 
ENDBRANCH  66  87
BRANCH  78  95
ATOM     95  C   UNL A   1      51.884  21.657  34.815  1.00  0.00     0.057 A 
ATOM     96  C   UNL A   1      53.026  21.814  35.605  1.00  0.00     0.134 A 
ATOM     97  C   UNL A   1      51.824  20.439  34.088  1.00  0.00     0.134 A 
ATOM     98  F   UNL A   1      53.161  22.857  36.436  1.00  0.00    -0.206 F 
ATOM     99  C   UNL A   1      54.078  20.891  35.585  1.00  0.00     0.040 A 
ATOM    100  C   UNL A   1      52.839  19.483  34.110  1.00  0.00     0.040 A 
ATOM    101  F   UNL A   1      50.787  20.118  33.303  1.00  0.00    -0.206 F 
ATOM    102  C   UNL A   1      53.987  19.723  34.838  1.00  0.00     0.006 A 
ENDBRANCH  78  95
ENDBRANCH  52  53
ENDBRANCH  45  47
ENDBRANCH  44  45
ENDBRANCH  43  44
ENDBRANCH  42  43
ENDBRANCH  41  42
ENDBRANCH  40  41
ENDBRANCH  39  40
ENDBRANCH  38  39
ENDBRANCH   1  38
TORSDOF 24
ENDMDL
MODEL 2
REMARK VINA RESULT:     -10.1      1.573      2.077
REMARK SMILES Cc1ccc(NC(=O)[C@@H]2[C@@H](C(=O)OCCOCCOCCOCCOC(=O)c3ccc(-c4c5nc(c(-c6c(F)cccc6F)c6ccc([nH]6)c(-c6c(F)cccc6F)c6nc(c(-c7c(F)cccc7F)c7ccc4[nH]7)C=C6)C=C5)cc3)[C@@H]3C=C[C@H]2C3)cc1NC(=O)c1ccc(Cl)cc1
REMARK SMILES IDX 18 1 17 2 16 3 15 4 14 5 13 6 11 7 12 8 10 9 9 10 85 11
REMARK SMILES IDX 82 12 84 13 86 14 83 15 7 16 6 17 8 19 5 20 1 21 2 22 3 23
REMARK SMILES IDX 88 24 4 25 87 26 89 27 90 28 91 30 92 31 93 32 98 33 94 34
REMARK SMILES IDX 97 35 95 36 96 37 19 38 20 39 21 40 22 41 23 42 24 43 25 44
REMARK SMILES IDX 26 45 27 46 28 47 29 48 81 49 30 50 80 51 31 52 32 53 33 54
REMARK SMILES IDX 74 55 34 56 79 57 73 58 75 59 35 60 78 61 72 62 71 63 36 65
REMARK SMILES IDX 62 66 45 67 61 68 46 69 49 70 60 71 76 72 47 73 48 74 59 76
REMARK SMILES IDX 77 77 50 78 37 79 38 80 43 81 39 82 40 83 42 84 44 85 41 86
REMARK SMILES IDX 63 87 64 88 69 89 65 90 66 91 68 92 70 93 67 94 51 95 52 96
REMARK SMILES IDX 57 97 53 98 54 99 56 100 58 101 55 102
REMARK H PARENT 6 18 89 29 75 64 49 75
REMARK Flexibility Score: inf
ROOT
ATOM      1  C   UNL A   1      38.074  29.717  27.815  1.00  0.00     0.188 C 
ENDROOT
BRANCH   1   2
ATOM      2  C   UNL A   1      36.711  30.386  27.934  1.00  0.00     0.188 C 
BRANCH   2   3
ATOM      3  O   UNL A   1      35.636  29.611  28.451  1.00  0.00    -0.376 OA
BRANCH   3   4
ATOM      4  C   UNL A   1      34.792  29.070  27.423  1.00  0.00     0.202 C 
BRANCH   4   5
ATOM      5  C   UNL A   1      33.572  29.896  26.991  1.00  0.00     0.261 C 
BRANCH   5   6
ATOM      6  O   UNL A   1      33.246  29.719  25.597  1.00  0.00    -0.463 OA
BRANCH   6   7
ATOM      7  C   UNL A   1      31.941  29.937  25.318  1.00  0.00     0.310 C 
ATOM      8  O   UNL A   1      31.307  30.898  25.711  1.00  0.00    -0.252 OA
BRANCH   7   9
ATOM      9  C   UNL A   1      31.324  28.887  24.423  1.00  0.00     0.119 C 
ATOM     10  C   UNL A   1      32.127  28.778  23.139  1.00  0.00     0.100 C 
ATOM     11  C   UNL A   1      31.142  28.039  22.201  1.00  0.00     0.025 C 
ATOM     12  C   UNL A   1      29.872  28.936  23.805  1.00  0.00     0.027 C 
ATOM     13  C   UNL A   1      30.322  26.923  22.836  1.00  0.00    -0.027 C 
ATOM     14  C   UNL A   1      30.051  29.113  22.279  1.00  0.00     0.017 C 
ATOM     15  C   UNL A   1      29.485  27.480  23.729  1.00  0.00    -0.027 C 
BRANCH  10  16
ATOM     16  C   UNL A   1      33.557  28.335  23.216  1.00  0.00     0.228 C 
ATOM     17  N   UNL A   1      33.801  27.080  23.740  1.00  0.00    -0.326 N 
ATOM     18  H   UNL A   1      34.707  26.741  23.562  1.00  0.00     0.169 HD
ATOM     19  O   UNL A   1      34.475  28.992  22.731  1.00  0.00    -0.274 OA
BRANCH  17  20
ATOM     20  C   UNL A   1      32.986  26.188  24.486  1.00  0.00     0.043 A 
ATOM     21  C   UNL A   1      30.659  23.264  26.714  1.00  0.00     0.046 C 
ATOM     22  C   UNL A   1      31.417  24.260  25.890  1.00  0.00    -0.027 A 
ATOM     23  C   UNL A   1      31.848  25.421  26.515  1.00  0.00     0.008 A 
ATOM     24  C   UNL A   1      31.795  24.062  24.554  1.00  0.00     0.046 A 
ATOM     25  C   UNL A   1      32.679  26.316  25.840  1.00  0.00     0.026 A 
ATOM     26  C   UNL A   1      32.500  25.057  23.840  1.00  0.00     0.052 A 
BRANCH  24  27
ATOM     27  N   UNL A   1      31.601  22.798  23.978  1.00  0.00    -0.322 N 
ATOM     28  C   UNL A   1      32.564  21.855  23.678  1.00  0.00     0.255 C 
ATOM     29  H   UNL A   1      30.671  22.554  23.763  1.00  0.00     0.170 HD
ATOM     30  O   UNL A   1      32.270  20.859  23.020  1.00  0.00    -0.269 OA
BRANCH  28  31
ATOM     31  C   UNL A   1      33.952  21.999  24.215  1.00  0.00     0.040 A 
ATOM     32  C   UNL A   1      34.207  21.563  25.517  1.00  0.00     0.015 A 
ATOM     33  C   UNL A   1      35.006  22.522  23.446  1.00  0.00     0.015 A 
ATOM     34  C   UNL A   1      35.517  21.559  26.006  1.00  0.00     0.021 A 
ATOM     35  C   UNL A   1      36.320  22.464  23.912  1.00  0.00     0.021 A 
ATOM     36  C   UNL A   1      36.570  21.978  25.191  1.00  0.00     0.041 A 
ATOM     37  Cl  UNL A   1      38.187  21.891  25.765  1.00  0.00    -0.084 Cl
ENDBRANCH  28  31
ENDBRANCH  24  27
ENDBRANCH  17  20
ENDBRANCH  10  16
ENDBRANCH   7   9
ENDBRANCH   6   7
ENDBRANCH   5   6
ENDBRANCH   4   5
ENDBRANCH   3   4
ENDBRANCH   2   3
ENDBRANCH   1   2
BRANCH   1  38
ATOM     38  O   UNL A   1      38.515  28.965  28.956  1.00  0.00    -0.377 OA
BRANCH  38  39
ATOM     39  C   UNL A   1      39.171  27.732  28.701  1.00  0.00     0.188 C 
BRANCH  39  40
ATOM     40  C   UNL A   1      40.432  27.858  27.868  1.00  0.00     0.188 C 
BRANCH  40  41
ATOM     41  O   UNL A   1      40.496  26.978  26.757  1.00  0.00    -0.376 OA
BRANCH  41  42
ATOM     42  C   UNL A   1      39.880  25.697  26.915  1.00  0.00     0.202 C 
BRANCH  42  43
ATOM     43  C   UNL A   1      40.662  24.502  26.346  1.00  0.00     0.261 C 
BRANCH  43  44
ATOM     44  O   UNL A   1      40.954  23.565  27.398  1.00  0.00    -0.460 OA
BRANCH  44  45
ATOM     45  C   UNL A   1      42.269  23.321  27.622  1.00  0.00     0.338 C 
ATOM     46  O   UNL A   1      42.954  22.485  27.032  1.00  0.00    -0.246 OA
BRANCH  45  47
ATOM     47  C   UNL A   1      42.687  23.947  28.909  1.00  0.00     0.060 A 
ATOM     48  C   UNL A   1      42.926  25.333  28.946  1.00  0.00     0.016 A 
ATOM     49  C   UNL A   1      43.257  23.122  29.874  1.00  0.00     0.016 A 
ATOM     50  C   UNL A   1      43.914  25.853  29.795  1.00  0.00     0.010 A 
ATOM     51  C   UNL A   1      44.308  23.620  30.614  1.00  0.00     0.010 A 
ATOM     52  C   UNL A   1      44.697  24.969  30.535  1.00  0.00    -0.014 A 
BRANCH  52  53
ATOM     53  C   UNL A   1      46.047  25.255  31.060  1.00  0.00     0.031 A 
ATOM     54  C   UNL A   1      47.169  25.472  30.079  1.00  0.00     0.074 A 
ATOM     55  C   UNL A   1      46.152  25.665  32.353  1.00  0.00     0.049 A 
ATOM     56  N   UNL A   1      48.354  25.870  30.376  1.00  0.00    -0.248 NA
ATOM     57  C   UNL A   1      47.026  25.281  28.635  1.00  0.00     0.031 C 
ATOM     58  C   UNL A   1      47.188  26.520  32.935  1.00  0.00     0.029 A 
ATOM     59  N   UNL A   1      45.330  25.468  33.450  1.00  0.00    -0.354 N 
ATOM     60  C   UNL A   1      49.029  26.235  29.220  1.00  0.00     0.074 A 
ATOM     61  C   UNL A   1      48.156  25.818  28.159  1.00  0.00     0.031 C 
ATOM     62  C   UNL A   1      47.022  26.651  34.259  1.00  0.00     0.029 A 
ATOM     63  C   UNL A   1      46.032  25.683  34.643  1.00  0.00     0.049 A 
ATOM     64  H   UNL A   1      44.380  25.213  33.398  1.00  0.00     0.167 HD
ATOM     65  C   UNL A   1      50.204  26.930  29.339  1.00  0.00     0.037 A 
ATOM     66  C   UNL A   1      46.356  24.646  35.478  1.00  0.00     0.037 A 
ATOM     67  C   UNL A   1      50.646  26.873  30.735  1.00  0.00     0.049 A 
ATOM     68  C   UNL A   1      47.824  24.230  35.313  1.00  0.00     0.074 A 
ATOM     69  C   UNL A   1      50.703  27.814  31.745  1.00  0.00     0.029 A 
ATOM     70  N   UNL A   1      50.782  25.626  31.352  1.00  0.00    -0.354 N 
ATOM     71  N   UNL A   1      48.542  24.526  34.251  1.00  0.00    -0.248 NA
ATOM     72  C   UNL A   1      48.644  23.601  36.346  1.00  0.00     0.031 C 
ATOM     73  C   UNL A   1      50.540  27.104  32.963  1.00  0.00     0.029 A 
ATOM     74  C   UNL A   1      50.645  25.745  32.721  1.00  0.00     0.049 A 
ATOM     75  H   UNL A   1      50.952  24.780  30.876  1.00  0.00     0.167 HD
ATOM     76  C   UNL A   1      49.866  24.253  34.467  1.00  0.00     0.074 A 
ATOM     77  C   UNL A   1      49.868  23.626  35.781  1.00  0.00     0.031 C 
ATOM     78  C   UNL A   1      50.877  24.614  33.610  1.00  0.00     0.037 A 
BRANCH  65  79
ATOM     79  C   UNL A   1      50.880  27.825  28.298  1.00  0.00     0.057 A 
ATOM     80  C   UNL A   1      51.664  27.262  27.261  1.00  0.00     0.134 A 
ATOM     81  C   UNL A   1      50.904  29.235  28.305  1.00  0.00     0.134 A 
ATOM     82  F   UNL A   1      51.753  25.936  27.088  1.00  0.00    -0.206 F 
ATOM     83  C   UNL A   1      52.417  28.023  26.347  1.00  0.00     0.040 A 
ATOM     84  C   UNL A   1      51.629  30.009  27.378  1.00  0.00     0.040 A 
ATOM     85  F   UNL A   1      50.252  29.956  29.218  1.00  0.00    -0.206 F 
ATOM     86  C   UNL A   1      52.400  29.406  26.400  1.00  0.00     0.006 A 
ENDBRANCH  65  79
BRANCH  66  87
ATOM     87  C   UNL A   1      45.120  23.881  35.835  1.00  0.00     0.057 A 
ATOM     88  C   UNL A   1      44.236  24.613  36.665  1.00  0.00     0.134 A 
ATOM     89  C   UNL A   1      44.528  23.046  34.881  1.00  0.00     0.134 A 
ATOM     90  F   UNL A   1      44.730  25.380  37.650  1.00  0.00    -0.206 F 
ATOM     91  C   UNL A   1      42.889  24.782  36.329  1.00  0.00     0.040 A 
ATOM     92  C   UNL A   1      43.165  23.178  34.565  1.00  0.00     0.040 A 
ATOM     93  F   UNL A   1      45.287  22.275  34.090  1.00  0.00    -0.206 F 
ATOM     94  C   UNL A   1      42.367  24.110  35.229  1.00  0.00     0.006 A 
ENDBRANCH  66  87
BRANCH  78  95
ATOM     95  C   UNL A   1      52.297  24.084  33.650  1.00  0.00     0.057 A 
ATOM     96  C   UNL A   1      52.697  22.907  33.012  1.00  0.00     0.134 A 
ATOM     97  C   UNL A   1      53.344  24.814  34.269  1.00  0.00     0.134 A 
ATOM     98  F   UNL A   1      51.838  22.180  32.285  1.00  0.00    -0.206 F 
ATOM     99  C   UNL A   1      54.013  22.433  33.082  1.00  0.00     0.040 A 
ATOM    100  C   UNL A   1      54.670  24.383  34.291  1.00  0.00     0.040 A 
ATOM    101  F   UNL A   1      53.138  25.977  34.902  1.00  0.00    -0.206 F 
ATOM    102  C   UNL A   1      55.002  23.170  33.721  1.00  0.00     0.006 A 
ENDBRANCH  78  95
ENDBRANCH  52  53
ENDBRANCH  45  47
ENDBRANCH  44  45
ENDBRANCH  43  44
ENDBRANCH  42  43
ENDBRANCH  41  42
ENDBRANCH  40  41
ENDBRANCH  39  40
ENDBRANCH  38  39
ENDBRANCH   1  38
TORSDOF 24
ENDMDL
MODEL 3
REMARK VINA RESULT:      -9.9      7.055     11.398
REMARK SMILES Cc1ccc(NC(=O)[C@@H]2[C@@H](C(=O)OCCOCCOCCOCCOC(=O)c3ccc(-c4c5nc(c(-c6c(F)cccc6F)c6ccc([nH]6)c(-c6c(F)cccc6F)c6nc(c(-c7c(F)cccc7F)c7ccc4[nH]7)C=C6)C=C5)cc3)[C@@H]3C=C[C@H]2C3)cc1NC(=O)c1ccc(Cl)cc1
REMARK SMILES IDX 18 1 17 2 16 3 15 4 14 5 13 6 11 7 12 8 10 9 9 10 85 11
REMARK SMILES IDX 82 12 84 13 86 14 83 15 7 16 6 17 8 19 5 20 1 21 2 22 3 23
REMARK SMILES IDX 88 24 4 25 87 26 89 27 90 28 91 30 92 31 93 32 98 33 94 34
REMARK SMILES IDX 97 35 95 36 96 37 19 38 20 39 21 40 22 41 23 42 24 43 25 44
REMARK SMILES IDX 26 45 27 46 28 47 29 48 81 49 30 50 80 51 31 52 32 53 33 54
REMARK SMILES IDX 74 55 34 56 79 57 73 58 75 59 35 60 78 61 72 62 71 63 36 65
REMARK SMILES IDX 62 66 45 67 61 68 46 69 49 70 60 71 76 72 47 73 48 74 59 76
REMARK SMILES IDX 77 77 50 78 37 79 38 80 43 81 39 82 40 83 42 84 44 85 41 86
REMARK SMILES IDX 63 87 64 88 69 89 65 90 66 91 68 92 70 93 67 94 51 95 52 96
REMARK SMILES IDX 57 97 53 98 54 99 56 100 58 101 55 102
REMARK H PARENT 6 18 89 29 75 64 49 75
REMARK Flexibility Score: inf
ROOT
ATOM      1  C   UNL A   1      33.099  35.399  29.656  1.00  0.00     0.188 C 
ENDROOT
BRANCH   1   2
ATOM      2  C   UNL A   1      33.710  35.190  31.035  1.00  0.00     0.188 C 
BRANCH   2   3
ATOM      3  O   UNL A   1      33.718  36.296  31.931  1.00  0.00    -0.376 OA
BRANCH   3   4
ATOM      4  C   UNL A   1      34.477  36.046  33.123  1.00  0.00     0.202 C 
BRANCH   4   5
ATOM      5  C   UNL A   1      35.653  35.062  33.028  1.00  0.00     0.261 C 
BRANCH   5   6
ATOM      6  O   UNL A   1      36.310  34.857  34.295  1.00  0.00    -0.463 OA
BRANCH   6   7
ATOM      7  C   UNL A   1      37.592  34.445  34.175  1.00  0.00     0.310 C 
ATOM      8  O   UNL A   1      38.399  34.444  35.085  1.00  0.00    -0.252 OA
BRANCH   7   9
ATOM      9  C   UNL A   1      37.943  33.933  32.797  1.00  0.00     0.119 C 
ATOM     10  C   UNL A   1      38.527  32.535  32.907  1.00  0.00     0.100 C 
ATOM     11  C   UNL A   1      39.222  32.364  31.534  1.00  0.00     0.025 C 
ATOM     12  C   UNL A   1      39.005  34.570  31.817  1.00  0.00     0.027 C 
ATOM     13  C   UNL A   1      38.474  32.925  30.331  1.00  0.00    -0.027 C 
ATOM     14  C   UNL A   1      40.169  33.556  31.714  1.00  0.00     0.017 C 
ATOM     15  C   UNL A   1      38.436  34.264  30.454  1.00  0.00    -0.027 C 
BRANCH  10  16
ATOM     16  C   UNL A   1      37.667  31.434  33.450  1.00  0.00     0.228 C 
ATOM     17  N   UNL A   1      38.189  30.677  34.481  1.00  0.00    -0.326 N 
ATOM     18  H   UNL A   1      37.522  30.130  34.954  1.00  0.00     0.169 HD
ATOM     19  O   UNL A   1      36.503  31.273  33.092  1.00  0.00    -0.274 OA
BRANCH  17  20
ATOM     20  C   UNL A   1      39.510  30.540  34.984  1.00  0.00     0.043 A 
ATOM     21  C   UNL A   1      43.456  30.105  36.766  1.00  0.00     0.046 C 
ATOM     22  C   UNL A   1      42.107  30.326  36.153  1.00  0.00    -0.027 A 
ATOM     23  C   UNL A   1      41.699  29.453  35.154  1.00  0.00     0.008 A 
ATOM     24  C   UNL A   1      41.192  31.302  36.577  1.00  0.00     0.046 A 
ATOM     25  C   UNL A   1      40.400  29.520  34.648  1.00  0.00     0.026 A 
ATOM     26  C   UNL A   1      39.941  31.455  35.937  1.00  0.00     0.052 A 
BRANCH  24  27
ATOM     27  N   UNL A   1      41.469  32.024  37.747  1.00  0.00    -0.322 N 
ATOM     28  C   UNL A   1      42.178  33.204  37.857  1.00  0.00     0.255 C 
ATOM     29  H   UNL A   1      41.119  31.645  38.586  1.00  0.00     0.170 HD
ATOM     30  O   UNL A   1      42.490  33.637  38.964  1.00  0.00    -0.269 OA
BRANCH  28  31
ATOM     31  C   UNL A   1      42.504  34.003  36.636  1.00  0.00     0.040 A 
ATOM     32  C   UNL A   1      43.786  33.891  36.094  1.00  0.00     0.015 A 
ATOM     33  C   UNL A   1      41.558  34.827  36.001  1.00  0.00     0.015 A 
ATOM     34  C   UNL A   1      44.086  34.517  34.880  1.00  0.00     0.021 A 
ATOM     35  C   UNL A   1      41.840  35.404  34.762  1.00  0.00     0.021 A 
ATOM     36  C   UNL A   1      43.103  35.243  34.204  1.00  0.00     0.041 A 
ATOM     37  Cl  UNL A   1      43.451  35.939  32.673  1.00  0.00    -0.084 Cl
ENDBRANCH  28  31
ENDBRANCH  24  27
ENDBRANCH  17  20
ENDBRANCH  10  16
ENDBRANCH   7   9
ENDBRANCH   6   7
ENDBRANCH   5   6
ENDBRANCH   4   5
ENDBRANCH   3   4
ENDBRANCH   2   3
ENDBRANCH   1   2
BRANCH   1  38
ATOM     38  O   UNL A   1      33.546  34.511  28.621  1.00  0.00    -0.377 OA
BRANCH  38  39
ATOM     39  C   UNL A   1      34.268  33.358  29.030  1.00  0.00     0.188 C 
BRANCH  39  40
ATOM     40  C   UNL A   1      35.266  32.854  28.005  1.00  0.00     0.188 C 
BRANCH  40  41
ATOM     41  O   UNL A   1      36.161  31.865  28.490  1.00  0.00    -0.376 OA
BRANCH  41  42
ATOM     42  C   UNL A   1      36.225  30.639  27.756  1.00  0.00     0.202 C 
BRANCH  42  43
ATOM     43  C   UNL A   1      36.352  29.359  28.597  1.00  0.00     0.261 C 
BRANCH  43  44
ATOM     44  O   UNL A   1      37.451  29.485  29.515  1.00  0.00    -0.460 OA
BRANCH  44  45
ATOM     45  C   UNL A   1      38.486  28.630  29.319  1.00  0.00     0.338 C 
ATOM     46  O   UNL A   1      38.660  27.566  29.913  1.00  0.00    -0.246 OA
BRANCH  45  47
ATOM     47  C   UNL A   1      39.564  29.311  28.545  1.00  0.00     0.060 A 
ATOM     48  C   UNL A   1      39.804  28.914  27.217  1.00  0.00     0.016 A 
ATOM     49  C   UNL A   1      40.564  29.959  29.264  1.00  0.00     0.016 A 
ATOM     50  C   UNL A   1      41.106  28.952  26.698  1.00  0.00     0.010 A 
ATOM     51  C   UNL A   1      41.857  29.878  28.792  1.00  0.00     0.010 A 
ATOM     52  C   UNL A   1      42.155  29.314  27.540  1.00  0.00    -0.014 A 
BRANCH  52  53
ATOM     53  C   UNL A   1      43.572  28.941  27.351  1.00  0.00     0.031 A 
ATOM     54  C   UNL A   1      44.583  30.036  27.142  1.00  0.00     0.074 A 
ATOM     55  C   UNL A   1      43.955  27.690  27.727  1.00  0.00     0.049 A 
ATOM     56  N   UNL A   1      45.858  29.879  27.109  1.00  0.00    -0.248 NA
ATOM     57  C   UNL A   1      44.223  31.446  26.980  1.00  0.00     0.031 C 
ATOM     58  C   UNL A   1      45.279  27.264  28.181  1.00  0.00     0.029 A 
ATOM     59  N   UNL A   1      43.242  26.509  27.853  1.00  0.00    -0.354 N 
ATOM     60  C   UNL A   1      46.484  31.115  27.190  1.00  0.00     0.074 A 
ATOM     61  C   UNL A   1      45.408  32.060  27.079  1.00  0.00     0.031 C 
ATOM     62  C   UNL A   1      45.317  25.940  28.391  1.00  0.00     0.029 A 
ATOM     63  C   UNL A   1      44.104  25.405  27.837  1.00  0.00     0.049 A 
ATOM     64  H   UNL A   1      42.263  26.454  27.943  1.00  0.00     0.167 HD
ATOM     65  C   UNL A   1      47.832  31.152  27.435  1.00  0.00     0.037 A 
ATOM     66  C   UNL A   1      44.142  24.545  26.771  1.00  0.00     0.037 A 
ATOM     67  C   UNL A   1      48.379  29.804  27.259  1.00  0.00     0.049 A 
ATOM     68  C   UNL A   1      45.349  24.826  25.867  1.00  0.00     0.074 A 
ATOM     69  C   UNL A   1      48.869  28.863  28.144  1.00  0.00     0.029 A 
ATOM     70  N   UNL A   1      48.146  29.131  26.056  1.00  0.00    -0.354 N 
ATOM     71  N   UNL A   1      46.002  25.968  25.870  1.00  0.00    -0.248 NA
ATOM     72  C   UNL A   1      46.013  23.841  25.015  1.00  0.00     0.031 C 
ATOM     73  C   UNL A   1      48.608  27.595  27.562  1.00  0.00     0.029 A 
ATOM     74  C   UNL A   1      48.212  27.764  26.246  1.00  0.00     0.049 A 
ATOM     75  H   UNL A   1      47.961  29.569  25.194  1.00  0.00     0.167 HD
ATOM     76  C   UNL A   1      47.167  25.865  25.159  1.00  0.00     0.074 A 
ATOM     77  C   UNL A   1      47.100  24.523  24.600  1.00  0.00     0.031 C 
ATOM     78  C   UNL A   1      48.139  26.836  25.126  1.00  0.00     0.037 A 
BRANCH  65  79
ATOM     79  C   UNL A   1      48.654  32.305  28.015  1.00  0.00     0.057 A 
ATOM     80  C   UNL A   1      48.831  32.432  29.415  1.00  0.00     0.134 A 
ATOM     81  C   UNL A   1      49.206  33.380  27.290  1.00  0.00     0.134 A 
ATOM     82  F   UNL A   1      48.384  31.499  30.268  1.00  0.00    -0.206 F 
ATOM     83  C   UNL A   1      49.464  33.530  30.029  1.00  0.00     0.040 A 
ATOM     84  C   UNL A   1      49.867  34.470  27.888  1.00  0.00     0.040 A 
ATOM     85  F   UNL A   1      49.122  33.462  25.961  1.00  0.00    -0.206 F 
ATOM     86  C   UNL A   1      49.989  34.557  29.264  1.00  0.00     0.006 A 
ENDBRANCH  65  79
BRANCH  66  87
ATOM     87  C   UNL A   1      42.766  24.025  26.493  1.00  0.00     0.057 A 
ATOM     88  C   UNL A   1      42.295  23.141  27.493  1.00  0.00     0.134 A 
ATOM     89  C   UNL A   1      41.815  24.872  25.914  1.00  0.00     0.134 A 
ATOM     90  F   UNL A   1      43.135  22.249  28.043  1.00  0.00    -0.206 F 
ATOM     91  C   UNL A   1      41.063  23.341  28.124  1.00  0.00     0.040 A 
ATOM     92  C   UNL A   1      40.557  25.049  26.515  1.00  0.00     0.040 A 
ATOM     93  F   UNL A   1      42.161  25.702  24.921  1.00  0.00    -0.206 F 
ATOM     94  C   UNL A   1      40.216  24.347  27.673  1.00  0.00     0.006 A 
ENDBRANCH  66  87
BRANCH  78  95
ATOM     95  C   UNL A   1      49.285  26.902  24.136  1.00  0.00     0.057 A 
ATOM     96  C   UNL A   1      49.143  27.358  22.823  1.00  0.00     0.134 A 
ATOM     97  C   UNL A   1      50.615  26.588  24.518  1.00  0.00     0.134 A 
ATOM     98  F   UNL A   1      47.967  27.805  22.363  1.00  0.00    -0.206 F 
ATOM     99  C   UNL A   1      50.217  27.391  21.925  1.00  0.00     0.040 A 
ATOM    100  C   UNL A   1      51.703  26.676  23.651  1.00  0.00     0.040 A 
ATOM    101  F   UNL A   1      50.931  26.161  25.749  1.00  0.00    -0.206 F 
ATOM    102  C   UNL A   1      51.500  27.050  22.337  1.00  0.00     0.006 A 
ENDBRANCH  78  95
ENDBRANCH  52  53
ENDBRANCH  45  47
ENDBRANCH  44  45
ENDBRANCH  43  44
ENDBRANCH  42  43
ENDBRANCH  41  42
ENDBRANCH  40  41
ENDBRANCH  39  40
ENDBRANCH  38  39
ENDBRANCH   1  38
TORSDOF 24
ENDMDL
