MODEL 1
REMARK VINA RESULT:      -9.5      0.000      0.000
REMARK SMILES Cn1ncc(C(=O)OCCOCCOCCOCCOC(=O)c2ccc(-c3c4nc(c(-c5c(F)cccc5F)c5ccc([nH]5)c(-c5c(F)cccc5F)c5nc(c(-c6c(F)cccc6F)c6ccc3[nH]6)C=C5)C=C4)cc2)c1C(=O)N1CCN(S(C)(=O)=O)CC1
REMARK SMILES IDX 14 1 13 2 12 3 11 4 10 5 9 6 8 7 6 8 7 9 5 10 1 11 2 12 3 13
REMARK SMILES IDX 77 14 4 15 78 16 79 17 80 18 81 19 89 20 82 21 88 22 83 23
REMARK SMILES IDX 84 24 85 25 86 26 87 27 15 28 16 29 17 30 18 31 19 32 20 33
REMARK SMILES IDX 21 34 22 35 23 36 24 37 76 38 25 39 75 40 26 41 27 42 28 43
REMARK SMILES IDX 69 44 29 45 74 46 68 47 70 48 30 49 73 50 67 51 66 52 31 54
REMARK SMILES IDX 57 55 40 56 56 57 41 58 44 59 55 60 71 61 42 62 43 63 54 65
REMARK SMILES IDX 72 66 45 67 32 68 33 69 38 70 34 71 35 72 37 73 39 74 36 75
REMARK SMILES IDX 58 76 59 77 64 78 60 79 61 80 63 81 65 82 62 83 46 84 47 85
REMARK SMILES IDX 52 86 48 87 49 88 51 89 53 90 50 91
REMARK H PARENT 70 53 44 64
REMARK Flexibility Score: inf
ROOT
ATOM      1  O   UNL A   1      35.769  32.482  28.671  1.00  0.00    -0.377 OA
ENDROOT
BRANCH   1   2
ATOM      2  C   UNL A   1      36.083  31.345  27.883  1.00  0.00     0.188 C 
BRANCH   2   3
ATOM      3  C   UNL A   1      35.535  29.956  28.269  1.00  0.00     0.188 C 
BRANCH   3   4
ATOM      4  O   UNL A   1      34.897  29.239  27.216  1.00  0.00    -0.376 OA
BRANCH   4   5
ATOM      5  C   UNL A   1      33.865  29.937  26.529  1.00  0.00     0.202 C 
BRANCH   5   6
ATOM      6  C   UNL A   1      32.533  29.892  27.281  1.00  0.00     0.261 C 
BRANCH   6   7
ATOM      7  O   UNL A   1      31.463  29.405  26.462  1.00  0.00    -0.460 OA
BRANCH   7   8
ATOM      8  C   UNL A   1      31.488  28.081  26.171  1.00  0.00     0.342 C 
ATOM      9  O   UNL A   1      31.260  27.187  26.980  1.00  0.00    -0.246 OA
BRANCH   8  10
ATOM     10  C   UNL A   1      31.601  27.834  24.749  1.00  0.00     0.111 A 
ATOM     11  C   UNL A   1      31.532  26.187  21.548  1.00  0.00     0.174 C 
ATOM     12  N   UNL A   1      31.703  26.988  22.735  1.00  0.00    -0.262 N 
ATOM     13  N   UNL A   1      31.756  28.323  22.540  1.00  0.00    -0.180 NA
ATOM     14  C   UNL A   1      31.706  26.616  24.064  1.00  0.00     0.140 A 
ATOM     15  C   UNL A   1      31.617  28.830  23.759  1.00  0.00     0.151 A 
BRANCH  14  16
ATOM     16  C   UNL A   1      31.618  25.302  24.680  1.00  0.00     0.273 C 
ATOM     17  O   UNL A   1      30.539  24.847  25.065  1.00  0.00    -0.267 OA
ATOM     18  N   UNL A   1      32.719  24.452  24.679  1.00  0.00    -0.335 N 
ATOM     19  C   UNL A   1      32.408  23.031  24.537  1.00  0.00     0.136 C 
ATOM     20  C   UNL A   1      33.958  24.717  25.418  1.00  0.00     0.136 C 
ATOM     21  C   UNL A   1      33.548  22.291  23.848  1.00  0.00     0.123 C 
ATOM     22  C   UNL A   1      35.160  23.939  24.837  1.00  0.00     0.123 C 
ATOM     23  N   UNL A   1      34.832  22.517  24.552  1.00  0.00    -0.199 NA
BRANCH  23  24
ATOM     24  S   UNL A   1      35.515  21.283  25.458  1.00  0.00     0.211 S 
ATOM     25  C   UNL A   1      37.260  21.600  25.300  1.00  0.00     0.176 C 
ATOM     26  O   UNL A   1      35.153  21.488  26.843  1.00  0.00    -0.213 OA
ATOM     27  O   UNL A   1      35.233  20.036  24.782  1.00  0.00    -0.213 OA
ENDBRANCH  23  24
ENDBRANCH  14  16
ENDBRANCH   8  10
ENDBRANCH   7   8
ENDBRANCH   6   7
ENDBRANCH   5   6
ENDBRANCH   4   5
ENDBRANCH   3   4
ENDBRANCH   2   3
ENDBRANCH   1   2
BRANCH   1  28
ATOM     28  C   UNL A   1      34.414  32.762  28.991  1.00  0.00     0.188 C 
BRANCH  28  29
ATOM     29  C   UNL A   1      33.558  33.645  28.062  1.00  0.00     0.188 C 
BRANCH  29  30
ATOM     30  O   UNL A   1      32.702  34.561  28.734  1.00  0.00    -0.376 OA
BRANCH  30  31
ATOM     31  C   UNL A   1      33.251  35.847  28.990  1.00  0.00     0.202 C 
BRANCH  31  32
ATOM     32  C   UNL A   1      32.545  36.593  30.128  1.00  0.00     0.261 C 
BRANCH  32  33
ATOM     33  O   UNL A   1      33.209  36.505  31.399  1.00  0.00    -0.460 OA
BRANCH  33  34
ATOM     34  C   UNL A   1      32.904  35.441  32.174  1.00  0.00     0.338 C 
ATOM     35  O   UNL A   1      31.804  35.088  32.556  1.00  0.00    -0.246 OA
BRANCH  34  36
ATOM     36  C   UNL A   1      34.137  34.658  32.358  1.00  0.00     0.060 A 
ATOM     37  C   UNL A   1      34.083  33.476  33.106  1.00  0.00     0.016 A 
ATOM     38  C   UNL A   1      35.338  35.097  31.795  1.00  0.00     0.016 A 
ATOM     39  C   UNL A   1      35.249  32.742  33.321  1.00  0.00     0.010 A 
ATOM     40  C   UNL A   1      36.506  34.372  32.028  1.00  0.00     0.010 A 
ATOM     41  C   UNL A   1      36.470  33.210  32.817  1.00  0.00    -0.014 A 
BRANCH  41  42
ATOM     42  C   UNL A   1      37.739  32.606  33.280  1.00  0.00     0.031 A 
ATOM     43  C   UNL A   1      38.344  31.509  32.449  1.00  0.00     0.074 A 
ATOM     44  C   UNL A   1      38.335  33.011  34.413  1.00  0.00     0.049 A 
ATOM     45  N   UNL A   1      39.417  30.797  32.670  1.00  0.00    -0.248 NA
ATOM     46  C   UNL A   1      37.636  31.167  31.203  1.00  0.00     0.031 C 
ATOM     47  C   UNL A   1      37.860  34.080  35.288  1.00  0.00     0.029 A 
ATOM     48  N   UNL A   1      39.474  32.553  35.025  1.00  0.00    -0.354 N 
ATOM     49  C   UNL A   1      39.519  29.929  31.591  1.00  0.00     0.074 A 
ATOM     50  C   UNL A   1      38.382  30.180  30.732  1.00  0.00     0.031 C 
ATOM     51  C   UNL A   1      38.695  34.186  36.337  1.00  0.00     0.029 A 
ATOM     52  C   UNL A   1      39.748  33.179  36.217  1.00  0.00     0.049 A 
ATOM     53  H   UNL A   1      40.041  31.842  34.647  1.00  0.00     0.167 HD
ATOM     54  C   UNL A   1      40.477  29.009  31.333  1.00  0.00     0.037 A 
ATOM     55  C   UNL A   1      40.729  32.948  37.110  1.00  0.00     0.037 A 
ATOM     56  C   UNL A   1      41.598  28.747  32.191  1.00  0.00     0.049 A 
ATOM     57  C   UNL A   1      41.742  31.867  36.837  1.00  0.00     0.074 A 
ATOM     58  C   UNL A   1      42.632  27.845  32.011  1.00  0.00     0.029 A 
ATOM     59  N   UNL A   1      41.827  29.384  33.400  1.00  0.00    -0.354 N 
ATOM     60  N   UNL A   1      41.849  31.077  35.796  1.00  0.00    -0.248 NA
ATOM     61  C   UNL A   1      42.771  31.647  37.865  1.00  0.00     0.031 C 
ATOM     62  C   UNL A   1      43.464  27.907  33.132  1.00  0.00     0.029 A 
ATOM     63  C   UNL A   1      42.971  28.877  33.991  1.00  0.00     0.049 A 
ATOM     64  H   UNL A   1      41.260  30.092  33.784  1.00  0.00     0.167 HD
ATOM     65  C   UNL A   1      42.968  30.285  36.032  1.00  0.00     0.074 A 
ATOM     66  C   UNL A   1      43.510  30.697  37.309  1.00  0.00     0.031 C 
ATOM     67  C   UNL A   1      43.500  29.305  35.260  1.00  0.00     0.037 A 
BRANCH  54  68
ATOM     68  C   UNL A   1      40.334  28.208  30.075  1.00  0.00     0.057 A 
ATOM     69  C   UNL A   1      41.082  28.504  28.928  1.00  0.00     0.134 A 
ATOM     70  C   UNL A   1      39.453  27.124  30.016  1.00  0.00     0.134 A 
ATOM     71  F   UNL A   1      41.930  29.544  28.917  1.00  0.00    -0.206 F 
ATOM     72  C   UNL A   1      40.944  27.756  27.758  1.00  0.00     0.040 A 
ATOM     73  C   UNL A   1      39.321  26.356  28.857  1.00  0.00     0.040 A 
ATOM     74  F   UNL A   1      38.706  26.793  31.079  1.00  0.00    -0.206 F 
ATOM     75  C   UNL A   1      40.066  26.675  27.723  1.00  0.00     0.006 A 
ENDBRANCH  54  68
BRANCH  55  76
ATOM     76  C   UNL A   1      40.802  33.743  38.361  1.00  0.00     0.057 A 
ATOM     77  C   UNL A   1      40.002  33.430  39.465  1.00  0.00     0.134 A 
ATOM     78  C   UNL A   1      41.644  34.857  38.467  1.00  0.00     0.134 A 
ATOM     79  F   UNL A   1      39.157  32.390  39.413  1.00  0.00    -0.206 F 
ATOM     80  C   UNL A   1      40.023  34.206  40.625  1.00  0.00     0.040 A 
ATOM     81  C   UNL A   1      41.690  35.629  39.629  1.00  0.00     0.040 A 
ATOM     82  F   UNL A   1      42.433  35.209  37.442  1.00  0.00    -0.206 F 
ATOM     83  C   UNL A   1      40.872  35.308  40.710  1.00  0.00     0.006 A 
ENDBRANCH  55  76
BRANCH  67  84
ATOM     84  C   UNL A   1      44.743  28.633  35.760  1.00  0.00     0.057 A 
ATOM     85  C   UNL A   1      44.690  27.457  36.517  1.00  0.00     0.134 A 
ATOM     86  C   UNL A   1      46.008  29.138  35.433  1.00  0.00     0.134 A 
ATOM     87  F   UNL A   1      43.509  26.929  36.871  1.00  0.00    -0.206 F 
ATOM     88  C   UNL A   1      45.853  26.816  36.948  1.00  0.00     0.040 A 
ATOM     89  C   UNL A   1      47.177  28.495  35.839  1.00  0.00     0.040 A 
ATOM     90  F   UNL A   1      46.126  30.257  34.701  1.00  0.00    -0.206 F 
ATOM     91  C   UNL A   1      47.102  27.332  36.602  1.00  0.00     0.006 A 
ENDBRANCH  67  84
ENDBRANCH  41  42
ENDBRANCH  34  36
ENDBRANCH  33  34
ENDBRANCH  32  33
ENDBRANCH  31  32
ENDBRANCH  30  31
ENDBRANCH  29  30
ENDBRANCH  28  29
ENDBRANCH   1  28
TORSDOF 22
ENDMDL
MODEL 2
REMARK VINA RESULT:      -8.6      7.344     13.610
REMARK SMILES Cn1ncc(C(=O)OCCOCCOCCOCCOC(=O)c2ccc(-c3c4nc(c(-c5c(F)cccc5F)c5ccc([nH]5)c(-c5c(F)cccc5F)c5nc(c(-c6c(F)cccc6F)c6ccc3[nH]6)C=C5)C=C4)cc2)c1C(=O)N1CCN(S(C)(=O)=O)CC1
REMARK SMILES IDX 14 1 13 2 12 3 11 4 10 5 9 6 8 7 6 8 7 9 5 10 1 11 2 12 3 13
REMARK SMILES IDX 77 14 4 15 78 16 79 17 80 18 81 19 89 20 82 21 88 22 83 23
REMARK SMILES IDX 84 24 85 25 86 26 87 27 15 28 16 29 17 30 18 31 19 32 20 33
REMARK SMILES IDX 21 34 22 35 23 36 24 37 76 38 25 39 75 40 26 41 27 42 28 43
REMARK SMILES IDX 69 44 29 45 74 46 68 47 70 48 30 49 73 50 67 51 66 52 31 54
REMARK SMILES IDX 57 55 40 56 56 57 41 58 44 59 55 60 71 61 42 62 43 63 54 65
REMARK SMILES IDX 72 66 45 67 32 68 33 69 38 70 34 71 35 72 37 73 39 74 36 75
REMARK SMILES IDX 58 76 59 77 64 78 60 79 61 80 63 81 65 82 62 83 46 84 47 85
REMARK SMILES IDX 52 86 48 87 49 88 51 89 53 90 50 91
REMARK H PARENT 70 53 44 64
REMARK Flexibility Score: inf
ROOT
ATOM      1  O   UNL A   1      46.583  23.090  25.368  1.00  0.00    -0.377 OA
ENDROOT
BRANCH   1   2
ATOM      2  C   UNL A   1      46.148  24.438  25.446  1.00  0.00     0.188 C 
BRANCH   2   3
ATOM      3  C   UNL A   1      47.168  25.590  25.348  1.00  0.00     0.188 C 
BRANCH   3   4
ATOM      4  O   UNL A   1      47.143  26.324  24.128  1.00  0.00    -0.376 OA
BRANCH   4   5
ATOM      5  C   UNL A   1      46.808  27.703  24.243  1.00  0.00     0.202 C 
BRANCH   5   6
ATOM      6  C   UNL A   1      46.523  28.113  25.689  1.00  0.00     0.261 C 
BRANCH   6   7
ATOM      7  O   UNL A   1      47.444  29.102  26.166  1.00  0.00    -0.460 OA
BRANCH   7   8
ATOM      8  C   UNL A   1      46.966  30.368  26.260  1.00  0.00     0.342 C 
ATOM      9  O   UNL A   1      46.099  30.840  25.531  1.00  0.00    -0.246 OA
BRANCH   8  10
ATOM     10  C   UNL A   1      47.434  31.042  27.453  1.00  0.00     0.111 A 
ATOM     11  C   UNL A   1      49.431  33.020  29.701  1.00  0.00     0.174 C 
ATOM     12  N   UNL A   1      48.550  32.131  28.985  1.00  0.00    -0.262 N 
ATOM     13  N   UNL A   1      47.325  31.958  29.524  1.00  0.00    -0.180 NA
ATOM     14  C   UNL A   1      48.717  31.513  27.762  1.00  0.00     0.140 A 
ATOM     15  C   UNL A   1      46.632  31.364  28.560  1.00  0.00     0.151 A 
BRANCH  14  16
ATOM     16  C   UNL A   1      49.853  31.497  26.855  1.00  0.00     0.273 C 
ATOM     17  O   UNL A   1      50.028  32.399  26.034  1.00  0.00    -0.267 OA
ATOM     18  N   UNL A   1      50.868  30.561  27.020  1.00  0.00    -0.335 N 
ATOM     19  C   UNL A   1      52.213  31.038  26.704  1.00  0.00     0.136 C 
ATOM     20  C   UNL A   1      50.690  29.117  26.825  1.00  0.00     0.136 C 
ATOM     21  C   UNL A   1      53.259  30.307  27.535  1.00  0.00     0.123 C 
ATOM     22  C   UNL A   1      51.764  28.293  27.570  1.00  0.00     0.123 C 
ATOM     23  N   UNL A   1      53.134  28.839  27.377  1.00  0.00    -0.199 NA
BRANCH  23  24
ATOM     24  S   UNL A   1      54.273  27.995  26.484  1.00  0.00     0.211 S 
ATOM     25  C   UNL A   1      53.311  26.686  25.756  1.00  0.00     0.176 C 
ATOM     26  O   UNL A   1      54.732  28.854  25.413  1.00  0.00    -0.213 OA
ATOM     27  O   UNL A   1      55.202  27.392  27.415  1.00  0.00    -0.213 OA
ENDBRANCH  23  24
ENDBRANCH  14  16
ENDBRANCH   8  10
ENDBRANCH   7   8
ENDBRANCH   6   7
ENDBRANCH   5   6
ENDBRANCH   4   5
ENDBRANCH   3   4
ENDBRANCH   2   3
ENDBRANCH   1   2
BRANCH   1  28
ATOM     28  C   UNL A   1      45.968  22.205  24.442  1.00  0.00     0.188 C 
BRANCH  28  29
ATOM     29  C   UNL A   1      46.075  20.680  24.631  1.00  0.00     0.188 C 
BRANCH  29  30
ATOM     30  O   UNL A   1      45.181  20.136  25.595  1.00  0.00    -0.376 OA
BRANCH  30  31
ATOM     31  C   UNL A   1      44.743  18.805  25.352  1.00  0.00     0.202 C 
BRANCH  31  32
ATOM     32  C   UNL A   1      43.286  18.562  25.760  1.00  0.00     0.261 C 
BRANCH  32  33
ATOM     33  O   UNL A   1      42.330  19.382  25.068  1.00  0.00    -0.460 OA
BRANCH  33  34
ATOM     34  C   UNL A   1      41.298  19.861  25.797  1.00  0.00     0.338 C 
ATOM     35  O   UNL A   1      40.218  19.337  25.994  1.00  0.00    -0.246 OA
BRANCH  34  36
ATOM     36  C   UNL A   1      41.760  21.087  26.468  1.00  0.00     0.060 A 
ATOM     37  C   UNL A   1      41.578  21.212  27.850  1.00  0.00     0.016 A 
ATOM     38  C   UNL A   1      42.367  22.106  25.730  1.00  0.00     0.016 A 
ATOM     39  C   UNL A   1      41.976  22.382  28.496  1.00  0.00     0.010 A 
ATOM     40  C   UNL A   1      42.747  23.283  26.374  1.00  0.00     0.010 A 
ATOM     41  C   UNL A   1      42.524  23.437  27.752  1.00  0.00    -0.014 A 
BRANCH  41  42
ATOM     42  C   UNL A   1      42.677  24.773  28.370  1.00  0.00     0.031 A 
ATOM     43  C   UNL A   1      44.002  25.118  28.989  1.00  0.00     0.074 A 
ATOM     44  C   UNL A   1      41.664  25.654  28.391  1.00  0.00     0.049 A 
ATOM     45  N   UNL A   1      44.363  26.200  29.627  1.00  0.00    -0.248 NA
ATOM     46  C   UNL A   1      45.062  24.100  28.874  1.00  0.00     0.031 C 
ATOM     47  C   UNL A   1      40.343  25.444  27.804  1.00  0.00     0.029 A 
ATOM     48  N   UNL A   1      41.594  26.906  28.946  1.00  0.00    -0.354 N 
ATOM     49  C   UNL A   1      45.690  25.998  29.984  1.00  0.00     0.074 A 
ATOM     50  C   UNL A   1      46.062  24.678  29.521  1.00  0.00     0.031 C 
ATOM     51  C   UNL A   1      39.584  26.529  28.043  1.00  0.00     0.029 A 
ATOM     52  C   UNL A   1      40.360  27.496  28.818  1.00  0.00     0.049 A 
ATOM     53  H   UNL A   1      42.355  27.341  29.393  1.00  0.00     0.167 HD
ATOM     54  C   UNL A   1      46.528  26.838  30.634  1.00  0.00     0.037 A 
ATOM     55  C   UNL A   1      39.911  28.674  29.291  1.00  0.00     0.037 A 
ATOM     56  C   UNL A   1      46.157  28.142  31.108  1.00  0.00     0.049 A 
ATOM     57  C   UNL A   1      40.841  29.562  30.077  1.00  0.00     0.074 A 
ATOM     58  C   UNL A   1      46.938  29.077  31.765  1.00  0.00     0.029 A 
ATOM     59  N   UNL A   1      44.892  28.694  30.982  1.00  0.00    -0.354 N 
ATOM     60  N   UNL A   1      42.104  29.377  30.379  1.00  0.00    -0.248 NA
ATOM     61  C   UNL A   1      40.281  30.822  30.589  1.00  0.00     0.031 C 
ATOM     62  C   UNL A   1      46.133  30.177  32.074  1.00  0.00     0.029 A 
ATOM     63  C   UNL A   1      44.862  29.945  31.572  1.00  0.00     0.049 A 
ATOM     64  H   UNL A   1      44.127  28.260  30.539  1.00  0.00     0.167 HD
ATOM     65  C   UNL A   1      42.495  30.505  31.091  1.00  0.00     0.074 A 
ATOM     66  C   UNL A   1      41.339  31.372  31.169  1.00  0.00     0.031 C 
ATOM     67  C   UNL A   1      43.703  30.797  31.633  1.00  0.00     0.037 A 
BRANCH  54  68
ATOM     68  C   UNL A   1      47.923  26.355  30.883  1.00  0.00     0.057 A 
ATOM     69  C   UNL A   1      48.948  26.559  29.950  1.00  0.00     0.134 A 
ATOM     70  C   UNL A   1      48.248  25.693  32.072  1.00  0.00     0.134 A 
ATOM     71  F   UNL A   1      48.693  27.170  28.782  1.00  0.00    -0.206 F 
ATOM     72  C   UNL A   1      50.246  26.105  30.185  1.00  0.00     0.040 A 
ATOM     73  C   UNL A   1      49.548  25.253  32.327  1.00  0.00     0.040 A 
ATOM     74  F   UNL A   1      47.311  25.464  33.003  1.00  0.00    -0.206 F 
ATOM     75  C   UNL A   1      50.550  25.455  31.380  1.00  0.00     0.006 A 
ENDBRANCH  54  68
BRANCH  55  76
ATOM     76  C   UNL A   1      38.506  29.089  29.051  1.00  0.00     0.057 A 
ATOM     77  C   UNL A   1      38.102  29.589  27.809  1.00  0.00     0.134 A 
ATOM     78  C   UNL A   1      37.546  29.030  30.068  1.00  0.00     0.134 A 
ATOM     79  F   UNL A   1      38.984  29.692  26.803  1.00  0.00    -0.206 F 
ATOM     80  C   UNL A   1      36.797  30.034  27.590  1.00  0.00     0.040 A 
ATOM     81  C   UNL A   1      36.233  29.453  29.858  1.00  0.00     0.040 A 
ATOM     82  F   UNL A   1      37.873  28.563  31.282  1.00  0.00    -0.206 F 
ATOM     83  C   UNL A   1      35.857  29.963  28.617  1.00  0.00     0.006 A 
ENDBRANCH  55  76
BRANCH  67  84
ATOM     84  C   UNL A   1      43.845  32.117  32.329  1.00  0.00     0.057 A 
ATOM     85  C   UNL A   1      44.155  33.290  31.631  1.00  0.00     0.134 A 
ATOM     86  C   UNL A   1      43.615  32.224  33.707  1.00  0.00     0.134 A 
ATOM     87  F   UNL A   1      44.396  33.251  30.312  1.00  0.00    -0.206 F 
ATOM     88  C   UNL A   1      44.249  34.522  32.281  1.00  0.00     0.040 A 
ATOM     89  C   UNL A   1      43.684  33.453  34.365  1.00  0.00     0.040 A 
ATOM     90  F   UNL A   1      43.304  31.139  34.432  1.00  0.00    -0.206 F 
ATOM     91  C   UNL A   1      44.005  34.606  33.651  1.00  0.00     0.006 A 
ENDBRANCH  67  84
ENDBRANCH  41  42
ENDBRANCH  34  36
ENDBRANCH  33  34
ENDBRANCH  32  33
ENDBRANCH  31  32
ENDBRANCH  30  31
ENDBRANCH  29  30
ENDBRANCH  28  29
ENDBRANCH   1  28
TORSDOF 22
ENDMDL
MODEL 3
REMARK VINA RESULT:      -8.3      4.161      7.454
REMARK SMILES Cn1ncc(C(=O)OCCOCCOCCOCCOC(=O)c2ccc(-c3c4nc(c(-c5c(F)cccc5F)c5ccc([nH]5)c(-c5c(F)cccc5F)c5nc(c(-c6c(F)cccc6F)c6ccc3[nH]6)C=C5)C=C4)cc2)c1C(=O)N1CCN(S(C)(=O)=O)CC1
REMARK SMILES IDX 14 1 13 2 12 3 11 4 10 5 9 6 8 7 6 8 7 9 5 10 1 11 2 12 3 13
REMARK SMILES IDX 77 14 4 15 78 16 79 17 80 18 81 19 89 20 82 21 88 22 83 23
REMARK SMILES IDX 84 24 85 25 86 26 87 27 15 28 16 29 17 30 18 31 19 32 20 33
REMARK SMILES IDX 21 34 22 35 23 36 24 37 76 38 25 39 75 40 26 41 27 42 28 43
REMARK SMILES IDX 69 44 29 45 74 46 68 47 70 48 30 49 73 50 67 51 66 52 31 54
REMARK SMILES IDX 57 55 40 56 56 57 41 58 44 59 55 60 71 61 42 62 43 63 54 65
REMARK SMILES IDX 72 66 45 67 32 68 33 69 38 70 34 71 35 72 37 73 39 74 36 75
REMARK SMILES IDX 58 76 59 77 64 78 60 79 61 80 63 81 65 82 62 83 46 84 47 85
REMARK SMILES IDX 52 86 48 87 49 88 51 89 53 90 50 91
REMARK H PARENT 70 53 44 64
REMARK Flexibility Score: inf
ROOT
ATOM      1  O   UNL A   1      36.791  32.058  29.364  1.00  0.00    -0.377 OA
ENDROOT
BRANCH   1   2
ATOM      2  C   UNL A   1      36.836  31.152  28.274  1.00  0.00     0.188 C 
BRANCH   2   3
ATOM      3  C   UNL A   1      36.466  29.670  28.480  1.00  0.00     0.188 C 
BRANCH   3   4
ATOM      4  O   UNL A   1      35.561  29.128  27.521  1.00  0.00    -0.376 OA
BRANCH   4   5
ATOM      5  C   UNL A   1      34.643  30.052  26.948  1.00  0.00     0.202 C 
BRANCH   5   6
ATOM      6  C   UNL A   1      33.426  30.294  27.844  1.00  0.00     0.261 C 
BRANCH   6   7
ATOM      7  O   UNL A   1      32.190  30.095  27.147  1.00  0.00    -0.460 OA
BRANCH   7   8
ATOM      8  C   UNL A   1      31.774  28.810  27.023  1.00  0.00     0.342 C 
ATOM      9  O   UNL A   1      31.516  28.069  27.966  1.00  0.00    -0.246 OA
BRANCH   8  10
ATOM     10  C   UNL A   1      31.458  28.466  25.653  1.00  0.00     0.111 A 
ATOM     11  C   UNL A   1      30.265  26.679  22.765  1.00  0.00     0.174 C 
ATOM     12  N   UNL A   1      30.876  27.502  23.779  1.00  0.00    -0.262 N 
ATOM     13  N   UNL A   1      31.087  28.791  23.440  1.00  0.00    -0.180 NA
ATOM     14  C   UNL A   1      31.178  27.212  25.094  1.00  0.00     0.140 A 
ATOM     15  C   UNL A   1      31.366  29.385  24.595  1.00  0.00     0.151 A 
BRANCH  14  16
ATOM     16  C   UNL A   1      31.051  25.973  25.844  1.00  0.00     0.273 C 
ATOM     17  O   UNL A   1      30.042  25.730  26.510  1.00  0.00    -0.267 OA
ATOM     18  N   UNL A   1      31.983  24.954  25.678  1.00  0.00    -0.335 N 
ATOM     19  C   UNL A   1      31.443  23.598  25.756  1.00  0.00     0.136 C 
ATOM     20  C   UNL A   1      33.389  25.057  26.084  1.00  0.00     0.136 C 
ATOM     21  C   UNL A   1      32.262  22.637  24.904  1.00  0.00     0.123 C 
ATOM     22  C   UNL A   1      34.288  24.055  25.325  1.00  0.00     0.123 C 
ATOM     23  N   UNL A   1      33.697  22.691  25.269  1.00  0.00    -0.199 NA
BRANCH  23  24
ATOM     24  S   UNL A   1      34.391  21.423  26.116  1.00  0.00     0.211 S 
ATOM     25  C   UNL A   1      33.720  19.991  25.298  1.00  0.00     0.176 C 
ATOM     26  O   UNL A   1      35.817  21.443  25.870  1.00  0.00    -0.213 OA
ATOM     27  O   UNL A   1      33.859  21.449  27.460  1.00  0.00    -0.213 OA
ENDBRANCH  23  24
ENDBRANCH  14  16
ENDBRANCH   8  10
ENDBRANCH   7   8
ENDBRANCH   6   7
ENDBRANCH   5   6
ENDBRANCH   4   5
ENDBRANCH   3   4
ENDBRANCH   2   3
ENDBRANCH   1   2
BRANCH   1  28
ATOM     28  C   UNL A   1      35.650  32.084  30.211  1.00  0.00     0.188 C 
BRANCH  28  29
ATOM     29  C   UNL A   1      34.562  33.158  30.021  1.00  0.00     0.188 C 
BRANCH  29  30
ATOM     30  O   UNL A   1      33.982  33.636  31.230  1.00  0.00    -0.376 OA
BRANCH  30  31
ATOM     31  C   UNL A   1      33.968  35.049  31.393  1.00  0.00     0.202 C 
BRANCH  31  32
ATOM     32  C   UNL A   1      34.085  35.492  32.855  1.00  0.00     0.261 C 
BRANCH  32  33
ATOM     33  O   UNL A   1      35.431  35.541  33.356  1.00  0.00    -0.460 OA
BRANCH  33  34
ATOM     34  C   UNL A   1      35.863  34.466  34.050  1.00  0.00     0.338 C 
ATOM     35  O   UNL A   1      35.338  33.942  35.015  1.00  0.00    -0.246 OA
BRANCH  34  36
ATOM     36  C   UNL A   1      37.023  33.912  33.333  1.00  0.00     0.060 A 
ATOM     37  C   UNL A   1      37.616  32.737  33.810  1.00  0.00     0.016 A 
ATOM     38  C   UNL A   1      37.520  34.556  32.198  1.00  0.00     0.016 A 
ATOM     39  C   UNL A   1      38.738  32.219  33.165  1.00  0.00     0.010 A 
ATOM     40  C   UNL A   1      38.654  34.048  31.565  1.00  0.00     0.010 A 
ATOM     41  C   UNL A   1      39.285  32.897  32.066  1.00  0.00    -0.014 A 
BRANCH  41  42
ATOM     42  C   UNL A   1      40.625  32.524  31.562  1.00  0.00     0.031 A 
ATOM     43  C   UNL A   1      41.781  33.423  31.896  1.00  0.00     0.074 A 
ATOM     44  C   UNL A   1      40.810  31.422  30.816  1.00  0.00     0.049 A 
ATOM     45  N   UNL A   1      43.034  33.335  31.532  1.00  0.00    -0.248 NA
ATOM     46  C   UNL A   1      41.481  34.582  32.755  1.00  0.00     0.031 C 
ATOM     47  C   UNL A   1      39.774  30.462  30.447  1.00  0.00     0.029 A 
ATOM     48  N   UNL A   1      41.950  30.936  30.226  1.00  0.00    -0.354 N 
ATOM     49  C   UNL A   1      43.672  34.419  32.121  1.00  0.00     0.074 A 
ATOM     50  C   UNL A   1      42.664  35.170  32.839  1.00  0.00     0.031 C 
ATOM     51  C   UNL A   1      40.323  29.505  29.677  1.00  0.00     0.029 A 
ATOM     52  C   UNL A   1      41.742  29.800  29.483  1.00  0.00     0.049 A 
ATOM     53  H   UNL A   1      42.832  31.362  30.325  1.00  0.00     0.167 HD
ATOM     54  C   UNL A   1      44.981  34.756  32.074  1.00  0.00     0.037 A 
ATOM     55  C   UNL A   1      42.601  29.096  28.722  1.00  0.00     0.037 A 
ATOM     56  C   UNL A   1      45.980  34.022  31.350  1.00  0.00     0.049 A 
ATOM     57  C   UNL A   1      44.039  29.533  28.625  1.00  0.00     0.074 A 
ATOM     58  C   UNL A   1      47.337  34.275  31.252  1.00  0.00     0.029 A 
ATOM     59  N   UNL A   1      45.726  32.892  30.589  1.00  0.00    -0.354 N 
ATOM     60  N   UNL A   1      44.639  30.539  29.214  1.00  0.00    -0.248 NA
ATOM     61  C   UNL A   1      44.918  28.737  27.756  1.00  0.00     0.031 C 
ATOM     62  C   UNL A   1      47.897  33.320  30.398  1.00  0.00     0.029 A 
ATOM     63  C   UNL A   1      46.896  32.450  29.998  1.00  0.00     0.049 A 
ATOM     64  H   UNL A   1      44.844  32.466  30.485  1.00  0.00     0.167 HD
ATOM     65  C   UNL A   1      45.968  30.482  28.808  1.00  0.00     0.074 A 
ATOM     66  C   UNL A   1      46.088  29.337  27.931  1.00  0.00     0.031 C 
ATOM     67  C   UNL A   1      46.997  31.302  29.133  1.00  0.00     0.037 A 
BRANCH  54  68
ATOM     68  C   UNL A   1      45.396  35.989  32.817  1.00  0.00     0.057 A 
ATOM     69  C   UNL A   1      45.827  35.934  34.148  1.00  0.00     0.134 A 
ATOM     70  C   UNL A   1      45.376  37.240  32.191  1.00  0.00     0.134 A 
ATOM     71  F   UNL A   1      45.849  34.765  34.809  1.00  0.00    -0.206 F 
ATOM     72  C   UNL A   1      46.211  37.085  34.837  1.00  0.00     0.040 A 
ATOM     73  C   UNL A   1      45.777  38.396  32.863  1.00  0.00     0.040 A 
ATOM     74  F   UNL A   1      44.969  37.360  30.919  1.00  0.00    -0.206 F 
ATOM     75  C   UNL A   1      46.191  38.320  34.191  1.00  0.00     0.006 A 
ENDBRANCH  54  68
BRANCH  55  76
ATOM     76  C   UNL A   1      42.130  27.904  27.973  1.00  0.00     0.057 A 
ATOM     77  C   UNL A   1      41.546  28.028  26.708  1.00  0.00     0.134 A 
ATOM     78  C   UNL A   1      42.217  26.618  28.522  1.00  0.00     0.134 A 
ATOM     79  F   UNL A   1      41.412  29.237  26.142  1.00  0.00    -0.206 F 
ATOM     80  C   UNL A   1      41.050  26.919  26.020  1.00  0.00     0.040 A 
ATOM     81  C   UNL A   1      41.743  25.499  27.836  1.00  0.00     0.040 A 
ATOM     82  F   UNL A   1      42.764  26.434  29.732  1.00  0.00    -0.206 F 
ATOM     83  C   UNL A   1      41.150  25.649  26.584  1.00  0.00     0.006 A 
ENDBRANCH  55  76
BRANCH  67  84
ATOM     84  C   UNL A   1      48.344  30.977  28.562  1.00  0.00     0.057 A 
ATOM     85  C   UNL A   1      48.824  31.600  27.404  1.00  0.00     0.134 A 
ATOM     86  C   UNL A   1      49.192  30.068  29.209  1.00  0.00     0.134 A 
ATOM     87  F   UNL A   1      48.056  32.471  26.734  1.00  0.00    -0.206 F 
ATOM     88  C   UNL A   1      50.095  31.319  26.899  1.00  0.00     0.040 A 
ATOM     89  C   UNL A   1      50.473  29.795  28.726  1.00  0.00     0.040 A 
ATOM     90  F   UNL A   1      48.795  29.444  30.328  1.00  0.00    -0.206 F 
ATOM     91  C   UNL A   1      50.926  30.419  27.566  1.00  0.00     0.006 A 
ENDBRANCH  67  84
ENDBRANCH  41  42
ENDBRANCH  34  36
ENDBRANCH  33  34
ENDBRANCH  32  33
ENDBRANCH  31  32
ENDBRANCH  30  31
ENDBRANCH  29  30
ENDBRANCH  28  29
ENDBRANCH   1  28
TORSDOF 22
ENDMDL
