MODEL 1
REMARK VINA RESULT:     -10.5      0.000      0.000
REMARK SMILES Cc1cc(CC(=O)C(=O)OCCOCCOCCOCCOC(=O)c2ccc(-c3c4nc(c(-c5c(F)cccc5F)c5ccc([nH]5)c(-c5c(F)cccc5F)c5nc(c(-c6c(F)cccc6F)c6ccc3[nH]6)C=C5)C=C4)cc2)cc2cn[nH]c12
REMARK SMILES IDX 16 1 15 2 14 3 13 4 12 5 11 6 10 7 8 8 9 9 6 10 7 11 5 12
REMARK SMILES IDX 4 13 1 14 2 15 3 16 84 17 80 18 83 19 79 20 81 21 82 22
REMARK SMILES IDX 17 24 18 25 19 26 20 27 21 28 22 29 23 30 24 31 25 32 26 33
REMARK SMILES IDX 78 34 27 35 77 36 28 37 29 38 30 39 71 40 31 41 76 42 70 43
REMARK SMILES IDX 72 44 32 45 75 46 69 47 68 48 33 50 59 51 42 52 58 53 43 54
REMARK SMILES IDX 46 55 57 56 73 57 44 58 45 59 56 61 74 62 47 63 34 64 35 65
REMARK SMILES IDX 40 66 36 67 37 68 39 69 41 70 38 71 60 72 61 73 66 74 62 75
REMARK SMILES IDX 63 76 65 77 67 78 64 79 48 80 49 81 54 82 50 83 51 84 53 85
REMARK SMILES IDX 55 86 52 87
REMARK H PARENT 83 23 72 49 46 60
REMARK Flexibility Score: inf
ROOT
ATOM      1  O   UNL A   1      38.288  20.987  25.749  1.00  0.00    -0.377 OA
ENDROOT
BRANCH   1   2
ATOM      2  C   UNL A   1      37.403  21.423  24.733  1.00  0.00     0.188 C 
BRANCH   2   3
ATOM      3  C   UNL A   1      37.002  22.917  24.654  1.00  0.00     0.188 C 
BRANCH   3   4
ATOM      4  O   UNL A   1      36.521  23.458  25.866  1.00  0.00    -0.376 OA
BRANCH   4   5
ATOM      5  C   UNL A   1      35.144  23.687  26.066  1.00  0.00     0.202 C 
BRANCH   5   6
ATOM      6  C   UNL A   1      34.106  22.570  25.887  1.00  0.00     0.261 C 
BRANCH   6   7
ATOM      7  O   UNL A   1      32.753  22.999  25.706  1.00  0.00    -0.457 OA
BRANCH   7   8
ATOM      8  C   UNL A   1      32.016  23.181  26.813  1.00  0.00     0.375 C 
ATOM      9  O   UNL A   1      32.348  22.911  27.957  1.00  0.00    -0.243 OA
BRANCH   8  10
ATOM     10  C   UNL A   1      30.710  23.900  26.429  1.00  0.00     0.244 C 
ATOM     11  O   UNL A   1      29.748  23.848  27.192  1.00  0.00    -0.286 OA
BRANCH  10  12
ATOM     12  C   UNL A   1      30.622  24.531  25.046  1.00  0.00     0.124 C 
BRANCH  12  13
ATOM     13  C   UNL A   1      30.715  26.034  25.063  1.00  0.00    -0.039 A 
ATOM     14  C   UNL A   1      30.079  28.996  22.722  1.00  0.00     0.047 C 
ATOM     15  C   UNL A   1      30.553  28.196  23.900  1.00  0.00    -0.025 A 
ATOM     16  C   UNL A   1      30.294  26.811  23.972  1.00  0.00     0.009 A 
ATOM     17  C   UNL A   1      31.273  28.737  24.979  1.00  0.00     0.068 A 
ATOM     18  C   UNL A   1      31.650  28.000  26.094  1.00  0.00     0.020 A 
ATOM     19  N   UNL A   1      31.772  29.993  25.215  1.00  0.00    -0.278 N 
ATOM     20  C   UNL A   1      31.318  26.645  26.173  1.00  0.00     0.016 A 
ATOM     21  C   UNL A   1      32.373  28.900  26.904  1.00  0.00     0.143 A 
ATOM     22  N   UNL A   1      32.443  30.122  26.374  1.00  0.00    -0.183 NA
ATOM     23  H   UNL A   1      31.650  30.741  24.586  1.00  0.00     0.190 HD
ENDBRANCH  12  13
ENDBRANCH  10  12
ENDBRANCH   8  10
ENDBRANCH   7   8
ENDBRANCH   6   7
ENDBRANCH   5   6
ENDBRANCH   4   5
ENDBRANCH   3   4
ENDBRANCH   2   3
ENDBRANCH   1   2
BRANCH   1  24
ATOM     24  C   UNL A   1      39.514  21.669  25.980  1.00  0.00     0.188 C 
BRANCH  24  25
ATOM     25  C   UNL A   1      40.397  21.417  27.234  1.00  0.00     0.188 C 
BRANCH  25  26
ATOM     26  O   UNL A   1      40.731  20.061  27.494  1.00  0.00    -0.376 OA
BRANCH  26  27
ATOM     27  C   UNL A   1      42.058  19.581  27.408  1.00  0.00     0.202 C 
BRANCH  27  28
ATOM     28  C   UNL A   1      42.597  19.265  26.016  1.00  0.00     0.261 C 
BRANCH  28  29
ATOM     29  O   UNL A   1      43.079  20.410  25.340  1.00  0.00    -0.460 OA
BRANCH  29  30
ATOM     30  C   UNL A   1      44.192  20.183  24.630  1.00  0.00     0.338 C 
ATOM     31  O   UNL A   1      44.602  19.105  24.206  1.00  0.00    -0.246 OA
BRANCH  30  32
ATOM     32  C   UNL A   1      44.921  21.440  24.496  1.00  0.00     0.060 A 
ATOM     33  C   UNL A   1      45.875  21.659  25.490  1.00  0.00     0.016 A 
ATOM     34  C   UNL A   1      44.197  22.467  23.879  1.00  0.00     0.016 A 
ATOM     35  C   UNL A   1      45.809  22.857  26.147  1.00  0.00     0.010 A 
ATOM     36  C   UNL A   1      44.088  23.636  24.572  1.00  0.00     0.010 A 
ATOM     37  C   UNL A   1      44.819  23.761  25.751  1.00  0.00    -0.014 A 
BRANCH  37  38
ATOM     38  C   UNL A   1      44.599  24.912  26.580  1.00  0.00     0.031 A 
ATOM     39  C   UNL A   1      45.732  25.846  26.508  1.00  0.00     0.074 A 
ATOM     40  C   UNL A   1      43.451  25.101  27.251  1.00  0.00     0.049 A 
ATOM     41  N   UNL A   1      46.647  26.028  27.397  1.00  0.00    -0.248 NA
ATOM     42  C   UNL A   1      46.020  26.459  25.202  1.00  0.00     0.031 C 
ATOM     43  C   UNL A   1      42.191  24.361  27.148  1.00  0.00     0.029 A 
ATOM     44  N   UNL A   1      43.158  26.089  28.130  1.00  0.00    -0.354 N 
ATOM     45  C   UNL A   1      47.501  26.968  26.839  1.00  0.00     0.074 A 
ATOM     46  C   UNL A   1      47.221  26.988  25.430  1.00  0.00     0.031 C 
ATOM     47  C   UNL A   1      41.214  25.064  27.768  1.00  0.00     0.029 A 
ATOM     48  C   UNL A   1      41.807  26.226  28.409  1.00  0.00     0.049 A 
ATOM     49  H   UNL A   1      43.847  26.664  28.536  1.00  0.00     0.167 HD
ATOM     50  C   UNL A   1      48.129  27.880  27.624  1.00  0.00     0.037 A 
ATOM     51  C   UNL A   1      41.249  27.284  29.048  1.00  0.00     0.037 A 
ATOM     52  C   UNL A   1      48.132  27.457  29.004  1.00  0.00     0.049 A 
ATOM     53  C   UNL A   1      42.342  27.994  29.770  1.00  0.00     0.074 A 
ATOM     54  C   UNL A   1      48.637  26.371  29.690  1.00  0.00     0.029 A 
ATOM     55  N   UNL A   1      47.203  28.033  29.839  1.00  0.00    -0.354 N 
ATOM     56  N   UNL A   1      42.968  27.496  30.801  1.00  0.00    -0.248 NA
ATOM     57  C   UNL A   1      43.063  29.037  29.053  1.00  0.00     0.031 C 
ATOM     58  C   UNL A   1      47.677  26.090  30.707  1.00  0.00     0.029 A 
ATOM     59  C   UNL A   1      46.664  27.046  30.622  1.00  0.00     0.049 A 
ATOM     60  H   UNL A   1      46.966  28.988  29.869  1.00  0.00     0.167 HD
ATOM     61  C   UNL A   1      44.299  27.844  30.614  1.00  0.00     0.074 A 
ATOM     62  C   UNL A   1      44.283  28.864  29.568  1.00  0.00     0.031 C 
ATOM     63  C   UNL A   1      45.305  27.063  31.111  1.00  0.00     0.037 A 
BRANCH  50  64
ATOM     64  C   UNL A   1      48.322  29.322  27.222  1.00  0.00     0.057 A 
ATOM     65  C   UNL A   1      47.282  30.255  27.013  1.00  0.00     0.134 A 
ATOM     66  C   UNL A   1      49.603  29.881  27.353  1.00  0.00     0.134 A 
ATOM     67  F   UNL A   1      45.993  29.910  26.920  1.00  0.00    -0.206 F 
ATOM     68  C   UNL A   1      47.493  31.633  26.990  1.00  0.00     0.040 A 
ATOM     69  C   UNL A   1      49.817  31.264  27.385  1.00  0.00     0.040 A 
ATOM     70  F   UNL A   1      50.677  29.101  27.548  1.00  0.00    -0.206 F 
ATOM     71  C   UNL A   1      48.757  32.145  27.218  1.00  0.00     0.006 A 
ENDBRANCH  50  64
BRANCH  51  72
ATOM     72  C   UNL A   1      39.923  27.897  28.812  1.00  0.00     0.057 A 
ATOM     73  C   UNL A   1      39.686  28.724  27.699  1.00  0.00     0.134 A 
ATOM     74  C   UNL A   1      38.936  27.904  29.805  1.00  0.00     0.134 A 
ATOM     75  F   UNL A   1      40.601  28.862  26.729  1.00  0.00    -0.206 F 
ATOM     76  C   UNL A   1      38.537  29.513  27.581  1.00  0.00     0.040 A 
ATOM     77  C   UNL A   1      37.783  28.695  29.704  1.00  0.00     0.040 A 
ATOM     78  F   UNL A   1      39.094  27.188  30.927  1.00  0.00    -0.206 F 
ATOM     79  C   UNL A   1      37.585  29.509  28.592  1.00  0.00     0.006 A 
ENDBRANCH  51  72
BRANCH  63  80
ATOM     80  C   UNL A   1      44.921  25.973  32.074  1.00  0.00     0.057 A 
ATOM     81  C   UNL A   1      45.059  26.206  33.445  1.00  0.00     0.134 A 
ATOM     82  C   UNL A   1      44.560  24.674  31.683  1.00  0.00     0.134 A 
ATOM     83  F   UNL A   1      45.458  27.408  33.889  1.00  0.00    -0.206 F 
ATOM     84  C   UNL A   1      44.837  25.201  34.389  1.00  0.00     0.040 A 
ATOM     85  C   UNL A   1      44.302  23.667  32.619  1.00  0.00     0.040 A 
ATOM     86  F   UNL A   1      44.501  24.331  30.390  1.00  0.00    -0.206 F 
ATOM     87  C   UNL A   1      44.447  23.929  33.978  1.00  0.00     0.006 A 
ENDBRANCH  63  80
ENDBRANCH  37  38
ENDBRANCH  30  32
ENDBRANCH  29  30
ENDBRANCH  28  29
ENDBRANCH  27  28
ENDBRANCH  26  27
ENDBRANCH  25  26
ENDBRANCH  24  25
ENDBRANCH   1  24
TORSDOF 22
ENDMDL
MODEL 2
REMARK VINA RESULT:     -10.4      5.605     10.610
REMARK SMILES Cc1cc(CC(=O)C(=O)OCCOCCOCCOCCOC(=O)c2ccc(-c3c4nc(c(-c5c(F)cccc5F)c5ccc([nH]5)c(-c5c(F)cccc5F)c5nc(c(-c6c(F)cccc6F)c6ccc3[nH]6)C=C5)C=C4)cc2)cc2cn[nH]c12
REMARK SMILES IDX 16 1 15 2 14 3 13 4 12 5 11 6 10 7 8 8 9 9 6 10 7 11 5 12
REMARK SMILES IDX 4 13 1 14 2 15 3 16 84 17 80 18 83 19 79 20 81 21 82 22
REMARK SMILES IDX 17 24 18 25 19 26 20 27 21 28 22 29 23 30 24 31 25 32 26 33
REMARK SMILES IDX 78 34 27 35 77 36 28 37 29 38 30 39 71 40 31 41 76 42 70 43
REMARK SMILES IDX 72 44 32 45 75 46 69 47 68 48 33 50 59 51 42 52 58 53 43 54
REMARK SMILES IDX 46 55 57 56 73 57 44 58 45 59 56 61 74 62 47 63 34 64 35 65
REMARK SMILES IDX 40 66 36 67 37 68 39 69 41 70 38 71 60 72 61 73 66 74 62 75
REMARK SMILES IDX 63 76 65 77 67 78 64 79 48 80 49 81 54 82 50 83 51 84 53 85
REMARK SMILES IDX 55 86 52 87
REMARK H PARENT 83 23 72 49 46 60
REMARK Flexibility Score: inf
ROOT
ATOM      1  O   UNL A   1      34.044  29.580  26.402  1.00  0.00    -0.377 OA
ENDROOT
BRANCH   1   2
ATOM      2  C   UNL A   1      33.261  29.567  25.222  1.00  0.00     0.188 C 
BRANCH   2   3
ATOM      3  C   UNL A   1      31.724  29.732  25.319  1.00  0.00     0.188 C 
BRANCH   3   4
ATOM      4  O   UNL A   1      31.020  29.350  24.156  1.00  0.00    -0.376 OA
BRANCH   4   5
ATOM      5  C   UNL A   1      31.260  28.106  23.536  1.00  0.00     0.202 C 
BRANCH   5   6
ATOM      6  C   UNL A   1      30.834  26.783  24.191  1.00  0.00     0.261 C 
BRANCH   6   7
ATOM      7  O   UNL A   1      31.800  25.729  24.152  1.00  0.00    -0.457 OA
BRANCH   7   8
ATOM      8  C   UNL A   1      31.585  24.734  23.276  1.00  0.00     0.375 C 
ATOM      9  O   UNL A   1      30.532  24.139  23.099  1.00  0.00    -0.243 OA
BRANCH   8  10
ATOM     10  C   UNL A   1      32.857  24.528  22.433  1.00  0.00     0.244 C 
ATOM     11  O   UNL A   1      32.861  24.877  21.255  1.00  0.00    -0.286 OA
BRANCH  10  12
ATOM     12  C   UNL A   1      34.016  23.767  23.064  1.00  0.00     0.124 C 
BRANCH  12  13
ATOM     13  C   UNL A   1      33.579  22.691  24.022  1.00  0.00    -0.039 A 
ATOM     14  C   UNL A   1      33.841  21.857  27.749  1.00  0.00     0.047 C 
ATOM     15  C   UNL A   1      33.585  21.710  26.278  1.00  0.00    -0.025 A 
ATOM     16  C   UNL A   1      33.816  22.791  25.402  1.00  0.00     0.009 A 
ATOM     17  C   UNL A   1      33.122  20.527  25.675  1.00  0.00     0.068 A 
ATOM     18  C   UNL A   1      32.826  20.422  24.323  1.00  0.00     0.020 A 
ATOM     19  N   UNL A   1      32.872  19.275  26.179  1.00  0.00    -0.278 N 
ATOM     20  C   UNL A   1      32.996  21.531  23.489  1.00  0.00     0.016 A 
ATOM     21  C   UNL A   1      32.436  19.080  24.134  1.00  0.00     0.143 A 
ATOM     22  N   UNL A   1      32.455  18.378  25.267  1.00  0.00    -0.183 NA
ATOM     23  H   UNL A   1      32.990  19.050  27.130  1.00  0.00     0.190 HD
ENDBRANCH  12  13
ENDBRANCH  10  12
ENDBRANCH   8  10
ENDBRANCH   7   8
ENDBRANCH   6   7
ENDBRANCH   5   6
ENDBRANCH   4   5
ENDBRANCH   3   4
ENDBRANCH   2   3
ENDBRANCH   1   2
BRANCH   1  24
ATOM     24  C   UNL A   1      33.734  30.475  27.464  1.00  0.00     0.188 C 
BRANCH  24  25
ATOM     25  C   UNL A   1      34.487  31.817  27.683  1.00  0.00     0.188 C 
BRANCH  25  26
ATOM     26  O   UNL A   1      33.669  32.951  27.940  1.00  0.00    -0.376 OA
BRANCH  26  27
ATOM     27  C   UNL A   1      34.209  34.194  28.342  1.00  0.00     0.202 C 
BRANCH  27  28
ATOM     28  C   UNL A   1      33.384  35.029  29.318  1.00  0.00     0.261 C 
BRANCH  28  29
ATOM     29  O   UNL A   1      33.258  34.422  30.589  1.00  0.00    -0.460 OA
BRANCH  29  30
ATOM     30  C   UNL A   1      33.355  35.288  31.607  1.00  0.00     0.338 C 
ATOM     31  O   UNL A   1      32.893  36.425  31.669  1.00  0.00    -0.246 OA
BRANCH  30  32
ATOM     32  C   UNL A   1      34.193  34.693  32.643  1.00  0.00     0.060 A 
ATOM     33  C   UNL A   1      35.334  35.434  32.955  1.00  0.00     0.016 A 
ATOM     34  C   UNL A   1      34.138  33.296  32.702  1.00  0.00     0.016 A 
ATOM     35  C   UNL A   1      36.524  34.762  32.927  1.00  0.00     0.010 A 
ATOM     36  C   UNL A   1      35.327  32.636  32.614  1.00  0.00     0.010 A 
ATOM     37  C   UNL A   1      36.493  33.398  32.621  1.00  0.00    -0.014 A 
BRANCH  37  38
ATOM     38  C   UNL A   1      37.746  32.744  32.367  1.00  0.00     0.031 A 
ATOM     39  C   UNL A   1      38.588  32.719  33.572  1.00  0.00     0.074 A 
ATOM     40  C   UNL A   1      38.028  32.174  31.185  1.00  0.00     0.049 A 
ATOM     41  N   UNL A   1      39.617  33.456  33.817  1.00  0.00    -0.248 NA
ATOM     42  C   UNL A   1      38.082  31.972  34.735  1.00  0.00     0.031 C 
ATOM     43  C   UNL A   1      37.139  31.920  30.049  1.00  0.00     0.029 A 
ATOM     44  N   UNL A   1      39.197  31.612  30.794  1.00  0.00    -0.354 N 
ATOM     45  C   UNL A   1      40.024  33.083  35.090  1.00  0.00     0.074 A 
ATOM     46  C   UNL A   1      38.918  32.387  35.685  1.00  0.00     0.031 C 
ATOM     47  C   UNL A   1      37.747  31.063  29.195  1.00  0.00     0.029 A 
ATOM     48  C   UNL A   1      39.100  30.815  29.663  1.00  0.00     0.049 A 
ATOM     49  H   UNL A   1      40.045  31.756  31.273  1.00  0.00     0.167 HD
ATOM     50  C   UNL A   1      41.341  33.087  35.420  1.00  0.00     0.037 A 
ATOM     51  C   UNL A   1      40.059  29.958  29.232  1.00  0.00     0.037 A 
ATOM     52  C   UNL A   1      42.101  33.897  34.497  1.00  0.00     0.049 A 
ATOM     53  C   UNL A   1      41.338  30.360  29.881  1.00  0.00     0.074 A 
ATOM     54  C   UNL A   1      42.088  35.226  34.127  1.00  0.00     0.029 A 
ATOM     55  N   UNL A   1      42.803  33.238  33.516  1.00  0.00    -0.354 N 
ATOM     56  N   UNL A   1      41.973  31.465  29.602  1.00  0.00    -0.248 NA
ATOM     57  C   UNL A   1      41.654  29.776  31.179  1.00  0.00     0.031 C 
ATOM     58  C   UNL A   1      42.392  35.231  32.734  1.00  0.00     0.029 A 
ATOM     59  C   UNL A   1      42.623  33.913  32.337  1.00  0.00     0.049 A 
ATOM     60  H   UNL A   1      43.342  32.423  33.638  1.00  0.00     0.167 HD
ATOM     61  C   UNL A   1      42.429  31.936  30.826  1.00  0.00     0.074 A 
ATOM     62  C   UNL A   1      42.277  30.812  31.747  1.00  0.00     0.031 C 
ATOM     63  C   UNL A   1      42.605  33.275  31.042  1.00  0.00     0.037 A 
BRANCH  50  64
ATOM     64  C   UNL A   1      41.981  32.019  36.273  1.00  0.00     0.057 A 
ATOM     65  C   UNL A   1      42.123  30.662  35.908  1.00  0.00     0.134 A 
ATOM     66  C   UNL A   1      42.766  32.425  37.365  1.00  0.00     0.134 A 
ATOM     67  F   UNL A   1      41.497  30.114  34.861  1.00  0.00    -0.206 F 
ATOM     68  C   UNL A   1      43.010  29.794  36.544  1.00  0.00     0.040 A 
ATOM     69  C   UNL A   1      43.697  31.577  37.973  1.00  0.00     0.040 A 
ATOM     70  F   UNL A   1      42.717  33.688  37.814  1.00  0.00    -0.206 F 
ATOM     71  C   UNL A   1      43.832  30.260  37.554  1.00  0.00     0.006 A 
ENDBRANCH  50  64
BRANCH  51  72
ATOM     72  C   UNL A   1      39.881  28.646  28.572  1.00  0.00     0.057 A 
ATOM     73  C   UNL A   1      39.365  27.538  29.269  1.00  0.00     0.134 A 
ATOM     74  C   UNL A   1      40.454  28.374  27.323  1.00  0.00     0.134 A 
ATOM     75  F   UNL A   1      38.872  27.668  30.509  1.00  0.00    -0.206 F 
ATOM     76  C   UNL A   1      39.419  26.238  28.758  1.00  0.00     0.040 A 
ATOM     77  C   UNL A   1      40.521  27.075  26.801  1.00  0.00     0.040 A 
ATOM     78  F   UNL A   1      41.016  29.356  26.605  1.00  0.00    -0.206 F 
ATOM     79  C   UNL A   1      40.009  26.001  27.524  1.00  0.00     0.006 A 
ENDBRANCH  51  72
BRANCH  63  80
ATOM     80  C   UNL A   1      42.539  34.181  29.843  1.00  0.00     0.057 A 
ATOM     81  C   UNL A   1      41.314  34.764  29.506  1.00  0.00     0.134 A 
ATOM     82  C   UNL A   1      43.603  34.374  28.947  1.00  0.00     0.134 A 
ATOM     83  F   UNL A   1      40.238  34.572  30.285  1.00  0.00    -0.206 F 
ATOM     84  C   UNL A   1      41.152  35.516  28.341  1.00  0.00     0.040 A 
ATOM     85  C   UNL A   1      43.464  35.153  27.795  1.00  0.00     0.040 A 
ATOM     86  F   UNL A   1      44.784  33.773  29.136  1.00  0.00    -0.206 F 
ATOM     87  C   UNL A   1      42.232  35.722  27.486  1.00  0.00     0.006 A 
ENDBRANCH  63  80
ENDBRANCH  37  38
ENDBRANCH  30  32
ENDBRANCH  29  30
ENDBRANCH  28  29
ENDBRANCH  27  28
ENDBRANCH  26  27
ENDBRANCH  25  26
ENDBRANCH  24  25
ENDBRANCH   1  24
TORSDOF 22
ENDMDL
MODEL 3
REMARK VINA RESULT:      -9.9      2.766      3.833
REMARK SMILES Cc1cc(CC(=O)C(=O)OCCOCCOCCOCCOC(=O)c2ccc(-c3c4nc(c(-c5c(F)cccc5F)c5ccc([nH]5)c(-c5c(F)cccc5F)c5nc(c(-c6c(F)cccc6F)c6ccc3[nH]6)C=C5)C=C4)cc2)cc2cn[nH]c12
REMARK SMILES IDX 16 1 15 2 14 3 13 4 12 5 11 6 10 7 8 8 9 9 6 10 7 11 5 12
REMARK SMILES IDX 4 13 1 14 2 15 3 16 84 17 80 18 83 19 79 20 81 21 82 22
REMARK SMILES IDX 17 24 18 25 19 26 20 27 21 28 22 29 23 30 24 31 25 32 26 33
REMARK SMILES IDX 78 34 27 35 77 36 28 37 29 38 30 39 71 40 31 41 76 42 70 43
REMARK SMILES IDX 72 44 32 45 75 46 69 47 68 48 33 50 59 51 42 52 58 53 43 54
REMARK SMILES IDX 46 55 57 56 73 57 44 58 45 59 56 61 74 62 47 63 34 64 35 65
REMARK SMILES IDX 40 66 36 67 37 68 39 69 41 70 38 71 60 72 61 73 66 74 62 75
REMARK SMILES IDX 63 76 65 77 67 78 64 79 48 80 49 81 54 82 50 83 51 84 53 85
REMARK SMILES IDX 55 86 52 87
REMARK H PARENT 83 23 72 49 46 60
REMARK Flexibility Score: inf
ROOT
ATOM      1  O   UNL A   1      37.976  21.898  26.126  1.00  0.00    -0.377 OA
ENDROOT
BRANCH   1   2
ATOM      2  C   UNL A   1      36.730  22.281  25.572  1.00  0.00     0.188 C 
BRANCH   2   3
ATOM      3  C   UNL A   1      36.335  23.778  25.535  1.00  0.00     0.188 C 
BRANCH   3   4
ATOM      4  O   UNL A   1      35.019  24.046  25.974  1.00  0.00    -0.376 OA
BRANCH   4   5
ATOM      5  C   UNL A   1      34.141  24.834  25.202  1.00  0.00     0.202 C 
BRANCH   5   6
ATOM      6  C   UNL A   1      33.674  24.391  23.808  1.00  0.00     0.261 C 
BRANCH   6   7
ATOM      7  O   UNL A   1      32.674  23.368  23.780  1.00  0.00    -0.457 OA
BRANCH   7   8
ATOM      8  C   UNL A   1      31.610  23.531  24.582  1.00  0.00     0.375 C 
ATOM      9  O   UNL A   1      30.850  24.488  24.593  1.00  0.00    -0.243 OA
BRANCH   8  10
ATOM     10  C   UNL A   1      31.421  22.256  25.425  1.00  0.00     0.244 C 
ATOM     11  O   UNL A   1      30.297  21.959  25.823  1.00  0.00    -0.286 OA
BRANCH  10  12
ATOM     12  C   UNL A   1      32.667  21.490  25.849  1.00  0.00     0.124 C 
BRANCH  12  13
ATOM     13  C   UNL A   1      32.837  20.175  25.136  1.00  0.00    -0.039 A 
ATOM     14  C   UNL A   1      32.178  18.651  21.686  1.00  0.00     0.047 C 
ATOM     15  C   UNL A   1      32.502  18.766  23.147  1.00  0.00    -0.025 A 
ATOM     16  C   UNL A   1      32.529  20.029  23.774  1.00  0.00     0.009 A 
ATOM     17  C   UNL A   1      32.783  17.668  23.978  1.00  0.00     0.068 A 
ATOM     18  C   UNL A   1      33.145  17.792  25.313  1.00  0.00     0.020 A 
ATOM     19  N   UNL A   1      32.767  16.315  23.751  1.00  0.00    -0.278 N 
ATOM     20  C   UNL A   1      33.235  19.061  25.891  1.00  0.00     0.016 A 
ATOM     21  C   UNL A   1      33.298  16.469  25.778  1.00  0.00     0.143 A 
ATOM     22  N   UNL A   1      33.076  15.564  24.824  1.00  0.00    -0.183 NA
ATOM     23  H   UNL A   1      32.547  15.925  22.875  1.00  0.00     0.190 HD
ENDBRANCH  12  13
ENDBRANCH  10  12
ENDBRANCH   8  10
ENDBRANCH   7   8
ENDBRANCH   6   7
ENDBRANCH   5   6
ENDBRANCH   4   5
ENDBRANCH   3   4
ENDBRANCH   2   3
ENDBRANCH   1   2
BRANCH   1  24
ATOM     24  C   UNL A   1      38.898  21.127  25.366  1.00  0.00     0.188 C 
BRANCH  24  25
ATOM     25  C   UNL A   1      39.190  19.629  25.660  1.00  0.00     0.188 C 
BRANCH  25  26
ATOM     26  O   UNL A   1      40.562  19.267  25.731  1.00  0.00    -0.376 OA
BRANCH  26  27
ATOM     27  C   UNL A   1      41.396  19.675  26.796  1.00  0.00     0.202 C 
BRANCH  27  28
ATOM     28  C   UNL A   1      42.755  20.267  26.432  1.00  0.00     0.261 C 
BRANCH  28  29
ATOM     29  O   UNL A   1      42.984  20.297  25.037  1.00  0.00    -0.460 OA
BRANCH  29  30
ATOM     30  C   UNL A   1      44.256  20.049  24.699  1.00  0.00     0.338 C 
ATOM     31  O   UNL A   1      44.808  18.953  24.614  1.00  0.00    -0.246 OA
BRANCH  30  32
ATOM     32  C   UNL A   1      44.946  21.322  24.517  1.00  0.00     0.060 A 
ATOM     33  C   UNL A   1      45.941  21.576  25.462  1.00  0.00     0.016 A 
ATOM     34  C   UNL A   1      44.168  22.323  23.926  1.00  0.00     0.016 A 
ATOM     35  C   UNL A   1      45.875  22.779  26.110  1.00  0.00     0.010 A 
ATOM     36  C   UNL A   1      44.062  23.497  24.610  1.00  0.00     0.010 A 
ATOM     37  C   UNL A   1      44.844  23.653  25.752  1.00  0.00    -0.014 A 
BRANCH  37  38
ATOM     38  C   UNL A   1      44.635  24.808  26.580  1.00  0.00     0.031 A 
ATOM     39  C   UNL A   1      45.777  25.730  26.508  1.00  0.00     0.074 A 
ATOM     40  C   UNL A   1      43.488  25.009  27.248  1.00  0.00     0.049 A 
ATOM     41  N   UNL A   1      46.693  25.905  27.398  1.00  0.00    -0.248 NA
ATOM     42  C   UNL A   1      46.074  26.338  25.201  1.00  0.00     0.031 C 
ATOM     43  C   UNL A   1      42.220  24.282  27.143  1.00  0.00     0.029 A 
ATOM     44  N   UNL A   1      43.203  26.002  28.125  1.00  0.00    -0.354 N 
ATOM     45  C   UNL A   1      47.557  26.835  26.840  1.00  0.00     0.074 A 
ATOM     46  C   UNL A   1      47.279  26.856  25.431  1.00  0.00     0.031 C 
ATOM     47  C   UNL A   1      41.249  24.996  27.761  1.00  0.00     0.029 A 
ATOM     48  C   UNL A   1      41.853  26.153  28.402  1.00  0.00     0.049 A 
ATOM     49  H   UNL A   1      43.897  26.570  28.531  1.00  0.00     0.167 HD
ATOM     50  C   UNL A   1      48.193  27.742  27.625  1.00  0.00     0.037 A 
ATOM     51  C   UNL A   1      41.304  27.217  29.038  1.00  0.00     0.037 A 
ATOM     52  C   UNL A   1      48.189  27.321  29.006  1.00  0.00     0.049 A 
ATOM     53  C   UNL A   1      42.403  27.917  29.760  1.00  0.00     0.074 A 
ATOM     54  C   UNL A   1      48.682  26.231  29.694  1.00  0.00     0.029 A 
ATOM     55  N   UNL A   1      47.264  27.907  29.838  1.00  0.00    -0.354 N 
ATOM     56  N   UNL A   1      43.022  27.415  30.793  1.00  0.00    -0.248 NA
ATOM     57  C   UNL A   1      43.136  28.952  29.043  1.00  0.00     0.031 C 
ATOM     58  C   UNL A   1      47.717  25.962  30.710  1.00  0.00     0.029 A 
ATOM     59  C   UNL A   1      46.714  26.928  30.621  1.00  0.00     0.049 A 
ATOM     60  H   UNL A   1      47.037  28.865  29.866  1.00  0.00     0.167 HD
ATOM     61  C   UNL A   1      44.357  27.749  30.608  1.00  0.00     0.074 A 
ATOM     62  C   UNL A   1      44.353  28.768  29.561  1.00  0.00     0.031 C 
ATOM     63  C   UNL A   1      45.354  26.959  31.108  1.00  0.00     0.037 A 
BRANCH  50  64
ATOM     64  C   UNL A   1      48.401  29.181  27.220  1.00  0.00     0.057 A 
ATOM     65  C   UNL A   1      47.371  30.127  27.016  1.00  0.00     0.134 A 
ATOM     66  C   UNL A   1      49.689  29.725  27.345  1.00  0.00     0.134 A 
ATOM     67  F   UNL A   1      46.078  29.796  26.930  1.00  0.00    -0.206 F 
ATOM     68  C   UNL A   1      47.598  31.502  26.992  1.00  0.00     0.040 A 
ATOM     69  C   UNL A   1      49.919  31.105  27.375  1.00  0.00     0.040 A 
ATOM     70  F   UNL A   1      50.754  28.932  27.535  1.00  0.00    -0.206 F 
ATOM     71  C   UNL A   1      48.869  31.998  27.212  1.00  0.00     0.006 A 
ENDBRANCH  50  64
BRANCH  51  72
ATOM     72  C   UNL A   1      39.985  27.843  28.798  1.00  0.00     0.057 A 
ATOM     73  C   UNL A   1      39.726  28.583  27.630  1.00  0.00     0.134 A 
ATOM     74  C   UNL A   1      39.035  27.957  29.821  1.00  0.00     0.134 A 
ATOM     75  F   UNL A   1      40.608  28.619  26.621  1.00  0.00    -0.206 F 
ATOM     76  C   UNL A   1      38.592  29.389  27.488  1.00  0.00     0.040 A 
ATOM     77  C   UNL A   1      37.898  28.766  29.696  1.00  0.00     0.040 A 
ATOM     78  F   UNL A   1      39.218  27.329  30.991  1.00  0.00    -0.206 F 
ATOM     79  C   UNL A   1      37.678  29.492  28.528  1.00  0.00     0.006 A 
ENDBRANCH  51  72
BRANCH  63  80
ATOM     80  C   UNL A   1      44.957  25.874  32.072  1.00  0.00     0.057 A 
ATOM     81  C   UNL A   1      45.043  26.128  33.444  1.00  0.00     0.134 A 
ATOM     82  C   UNL A   1      44.635  24.563  31.687  1.00  0.00     0.134 A 
ATOM     83  F   UNL A   1      45.404  27.343  33.885  1.00  0.00    -0.206 F 
ATOM     84  C   UNL A   1      44.808  25.131  34.393  1.00  0.00     0.040 A 
ATOM     85  C   UNL A   1      44.364  23.565  32.627  1.00  0.00     0.040 A 
ATOM     86  F   UNL A   1      44.628  24.203  30.397  1.00  0.00    -0.206 F 
ATOM     87  C   UNL A   1      44.456  23.847  33.986  1.00  0.00     0.006 A 
ENDBRANCH  63  80
ENDBRANCH  37  38
ENDBRANCH  30  32
ENDBRANCH  29  30
ENDBRANCH  28  29
ENDBRANCH  27  28
ENDBRANCH  26  27
ENDBRANCH  25  26
ENDBRANCH  24  25
ENDBRANCH   1  24
TORSDOF 22
ENDMDL
