MODEL 1
REMARK VINA RESULT:      -9.5      0.000      0.000
REMARK SMILES CN(CC(=O)OCCOCCOCCOCCOC(=O)c1ccc(-c2c3nc(c(-c4c(F)cccc4F)c4ccc([nH]4)c(-c4c(F)cccc4F)c4nc(c(-c5c(F)cccc5F)c5ccc2[nH]5)C=C4)C=C3)cc1)c1nc2cc(N)ccc2[nH]1
REMARK SMILES IDX 11 1 10 2 9 3 8 4 7 5 6 6 4 7 5 8 3 9 2 10 1 11 75 12 76 13
REMARK SMILES IDX 84 14 77 15 83 16 78 18 82 19 79 20 81 21 80 22 12 25 13 26
REMARK SMILES IDX 14 27 15 28 16 29 17 30 18 31 19 32 20 33 21 34 22 35 74 36
REMARK SMILES IDX 23 37 73 38 24 39 25 40 26 41 67 42 27 43 72 44 66 45 68 46
REMARK SMILES IDX 28 47 71 48 65 49 64 50 29 52 55 53 38 54 54 55 39 56 42 57
REMARK SMILES IDX 53 58 69 59 40 60 41 61 52 63 70 64 43 65 30 66 31 67 36 68
REMARK SMILES IDX 32 69 33 70 35 71 37 72 34 73 56 74 57 75 62 76 58 77 59 78
REMARK SMILES IDX 61 79 63 80 60 81 44 82 45 83 50 84 46 85 47 86 49 87 51 88
REMARK SMILES IDX 48 89
REMARK H PARENT 84 17 80 23 80 24 68 51 42 62
REMARK Flexibility Score: inf
ROOT
ATOM      1  C   UNL A   1      33.729  32.620  27.975  1.00  0.00     0.188 C 
ENDROOT
BRANCH   1   2
ATOM      2  C   UNL A   1      34.227  31.165  27.973  1.00  0.00     0.188 C 
BRANCH   2   3
ATOM      3  O   UNL A   1      33.805  30.251  26.969  1.00  0.00    -0.376 OA
BRANCH   3   4
ATOM      4  C   UNL A   1      34.483  29.017  26.839  1.00  0.00     0.202 C 
BRANCH   4   5
ATOM      5  C   UNL A   1      33.679  27.778  26.395  1.00  0.00     0.261 C 
BRANCH   5   6
ATOM      6  O   UNL A   1      32.689  27.963  25.352  1.00  0.00    -0.462 OA
BRANCH   6   7
ATOM      7  C   UNL A   1      33.159  28.207  24.095  1.00  0.00     0.325 C 
ATOM      8  O   UNL A   1      33.224  29.342  23.621  1.00  0.00    -0.250 OA
BRANCH   7   9
ATOM      9  C   UNL A   1      33.442  26.969  23.223  1.00  0.00     0.241 C 
BRANCH   9  10
ATOM     10  N   UNL A   1      32.751  25.678  23.476  1.00  0.00    -0.334 N 
ATOM     11  C   UNL A   1      31.390  25.517  22.999  1.00  0.00     0.147 C 
BRANCH  10  12
ATOM     12  C   UNL A   1      33.411  24.675  24.119  1.00  0.00     0.204 A 
ATOM     13  N   UNL A   1      32.899  23.559  24.586  1.00  0.00    -0.213 NA
ATOM     14  N   UNL A   1      34.783  24.658  24.273  1.00  0.00    -0.324 N 
ATOM     15  C   UNL A   1      33.967  22.715  24.798  1.00  0.00     0.093 A 
ATOM     16  C   UNL A   1      35.169  23.392  24.647  1.00  0.00     0.067 A 
ATOM     17  H   UNL A   1      35.385  25.425  24.137  1.00  0.00     0.170 HD
ATOM     18  C   UNL A   1      33.982  21.326  25.007  1.00  0.00     0.056 A 
ATOM     19  C   UNL A   1      36.414  22.777  24.799  1.00  0.00     0.030 A 
ATOM     20  C   UNL A   1      35.209  20.647  24.959  1.00  0.00     0.034 A 
ATOM     21  C   UNL A   1      36.403  21.380  24.959  1.00  0.00     0.028 A 
BRANCH  20  22
ATOM     22  N   UNL A   1      35.236  19.256  24.962  1.00  0.00    -0.399 N 
ATOM     23  H   UNL A   1      35.243  18.766  25.815  1.00  0.00     0.156 HD
ATOM     24  H   UNL A   1      35.248  18.763  24.110  1.00  0.00     0.156 HD
ENDBRANCH  20  22
ENDBRANCH  10  12
ENDBRANCH   9  10
ENDBRANCH   7   9
ENDBRANCH   6   7
ENDBRANCH   5   6
ENDBRANCH   4   5
ENDBRANCH   3   4
ENDBRANCH   2   3
ENDBRANCH   1   2
BRANCH   1  25
ATOM     25  O   UNL A   1      34.665  33.635  27.686  1.00  0.00    -0.377 OA
BRANCH  25  26
ATOM     26  C   UNL A   1      34.580  34.869  28.373  1.00  0.00     0.188 C 
BRANCH  26  27
ATOM     27  C   UNL A   1      33.410  35.032  29.341  1.00  0.00     0.188 C 
BRANCH  27  28
ATOM     28  O   UNL A   1      33.597  35.688  30.595  1.00  0.00    -0.376 OA
BRANCH  28  29
ATOM     29  C   UNL A   1      33.730  34.954  31.802  1.00  0.00     0.202 C 
BRANCH  29  30
ATOM     30  C   UNL A   1      35.181  34.592  32.091  1.00  0.00     0.261 C 
BRANCH  30  31
ATOM     31  O   UNL A   1      35.332  33.195  31.809  1.00  0.00    -0.460 OA
BRANCH  31  32
ATOM     32  C   UNL A   1      36.126  32.554  32.702  1.00  0.00     0.338 C 
ATOM     33  O   UNL A   1      36.025  32.555  33.906  1.00  0.00    -0.246 OA
BRANCH  32  34
ATOM     34  C   UNL A   1      37.032  31.659  31.948  1.00  0.00     0.060 A 
ATOM     35  C   UNL A   1      38.046  31.023  32.675  1.00  0.00     0.016 A 
ATOM     36  C   UNL A   1      36.887  31.427  30.575  1.00  0.00     0.016 A 
ATOM     37  C   UNL A   1      38.965  30.215  32.024  1.00  0.00     0.010 A 
ATOM     38  C   UNL A   1      37.819  30.631  29.914  1.00  0.00     0.010 A 
ATOM     39  C   UNL A   1      38.889  30.076  30.634  1.00  0.00    -0.014 A 
BRANCH  39  40
ATOM     40  C   UNL A   1      40.086  29.604  29.918  1.00  0.00     0.031 A 
ATOM     41  C   UNL A   1      41.205  30.591  29.727  1.00  0.00     0.074 A 
ATOM     42  C   UNL A   1      40.188  28.328  29.517  1.00  0.00     0.049 A 
ATOM     43  N   UNL A   1      42.358  30.433  29.136  1.00  0.00    -0.248 NA
ATOM     44  C   UNL A   1      40.993  31.942  30.280  1.00  0.00     0.031 C 
ATOM     45  C   UNL A   1      39.170  27.297  29.709  1.00  0.00     0.029 A 
ATOM     46  N   UNL A   1      41.203  27.687  28.861  1.00  0.00    -0.354 N 
ATOM     47  C   UNL A   1      43.003  31.659  29.246  1.00  0.00     0.074 A 
ATOM     48  C   UNL A   1      42.109  32.561  29.931  1.00  0.00     0.031 C 
ATOM     49  C   UNL A   1      39.610  26.147  29.166  1.00  0.00     0.029 A 
ATOM     50  C   UNL A   1      40.923  26.375  28.568  1.00  0.00     0.049 A 
ATOM     51  H   UNL A   1      42.052  28.124  28.622  1.00  0.00     0.167 HD
ATOM     52  C   UNL A   1      44.240  31.994  28.816  1.00  0.00     0.037 A 
ATOM     53  C   UNL A   1      41.648  25.480  27.871  1.00  0.00     0.037 A 
ATOM     54  C   UNL A   1      45.113  31.078  28.135  1.00  0.00     0.049 A 
ATOM     55  C   UNL A   1      42.994  25.904  27.343  1.00  0.00     0.074 A 
ATOM     56  C   UNL A   1      46.391  31.298  27.659  1.00  0.00     0.029 A 
ATOM     57  N   UNL A   1      44.785  29.766  27.828  1.00  0.00    -0.354 N 
ATOM     58  N   UNL A   1      43.611  27.056  27.472  1.00  0.00    -0.248 NA
ATOM     59  C   UNL A   1      43.748  24.904  26.577  1.00  0.00     0.031 C 
ATOM     60  C   UNL A   1      46.816  30.133  27.013  1.00  0.00     0.029 A 
ATOM     61  C   UNL A   1      45.826  29.170  27.141  1.00  0.00     0.049 A 
ATOM     62  H   UNL A   1      43.937  29.324  28.063  1.00  0.00     0.167 HD
ATOM     63  C   UNL A   1      44.835  26.909  26.833  1.00  0.00     0.074 A 
ATOM     64  C   UNL A   1      44.879  25.549  26.332  1.00  0.00     0.031 C 
ATOM     65  C   UNL A   1      45.836  27.809  26.669  1.00  0.00     0.037 A 
BRANCH  52  66
ATOM     66  C   UNL A   1      44.701  33.403  29.038  1.00  0.00     0.057 A 
ATOM     67  C   UNL A   1      44.451  34.424  28.114  1.00  0.00     0.134 A 
ATOM     68  C   UNL A   1      45.375  33.750  30.217  1.00  0.00     0.134 A 
ATOM     69  F   UNL A   1      43.833  34.155  26.953  1.00  0.00    -0.206 F 
ATOM     70  C   UNL A   1      44.860  35.738  28.348  1.00  0.00     0.040 A 
ATOM     71  C   UNL A   1      45.765  35.065  30.474  1.00  0.00     0.040 A 
ATOM     72  F   UNL A   1      45.653  32.819  31.141  1.00  0.00    -0.206 F 
ATOM     73  C   UNL A   1      45.510  36.064  29.537  1.00  0.00     0.006 A 
ENDBRANCH  52  66
BRANCH  53  74
ATOM     74  C   UNL A   1      41.115  24.119  27.610  1.00  0.00     0.057 A 
ATOM     75  C   UNL A   1      41.615  22.995  28.278  1.00  0.00     0.134 A 
ATOM     76  C   UNL A   1      40.118  23.902  26.649  1.00  0.00     0.134 A 
ATOM     77  F   UNL A   1      42.583  23.132  29.196  1.00  0.00    -0.206 F 
ATOM     78  C   UNL A   1      41.169  21.706  27.980  1.00  0.00     0.040 A 
ATOM     79  C   UNL A   1      39.641  22.622  26.362  1.00  0.00     0.040 A 
ATOM     80  F   UNL A   1      39.590  24.934  25.974  1.00  0.00    -0.206 F 
ATOM     81  C   UNL A   1      40.176  21.518  27.021  1.00  0.00     0.006 A 
ENDBRANCH  53  74
BRANCH  65  82
ATOM     82  C   UNL A   1      47.070  27.337  25.960  1.00  0.00     0.057 A 
ATOM     83  C   UNL A   1      47.241  27.507  24.580  1.00  0.00     0.134 A 
ATOM     84  C   UNL A   1      48.117  26.745  26.676  1.00  0.00     0.134 A 
ATOM     85  F   UNL A   1      46.271  28.058  23.836  1.00  0.00    -0.206 F 
ATOM     86  C   UNL A   1      48.401  27.077  23.934  1.00  0.00     0.040 A 
ATOM     87  C   UNL A   1      49.295  26.342  26.047  1.00  0.00     0.040 A 
ATOM     88  F   UNL A   1      48.022  26.568  28.003  1.00  0.00    -0.206 F 
ATOM     89  C   UNL A   1      49.435  26.501  24.670  1.00  0.00     0.006 A 
ENDBRANCH  65  82
ENDBRANCH  39  40
ENDBRANCH  32  34
ENDBRANCH  31  32
ENDBRANCH  30  31
ENDBRANCH  29  30
ENDBRANCH  28  29
ENDBRANCH  27  28
ENDBRANCH  26  27
ENDBRANCH  25  26
ENDBRANCH   1  25
TORSDOF 23
ENDMDL
MODEL 2
REMARK VINA RESULT:      -9.3      4.804      9.819
REMARK SMILES CN(CC(=O)OCCOCCOCCOCCOC(=O)c1ccc(-c2c3nc(c(-c4c(F)cccc4F)c4ccc([nH]4)c(-c4c(F)cccc4F)c4nc(c(-c5c(F)cccc5F)c5ccc2[nH]5)C=C4)C=C3)cc1)c1nc2cc(N)ccc2[nH]1
REMARK SMILES IDX 11 1 10 2 9 3 8 4 7 5 6 6 4 7 5 8 3 9 2 10 1 11 75 12 76 13
REMARK SMILES IDX 84 14 77 15 83 16 78 18 82 19 79 20 81 21 80 22 12 25 13 26
REMARK SMILES IDX 14 27 15 28 16 29 17 30 18 31 19 32 20 33 21 34 22 35 74 36
REMARK SMILES IDX 23 37 73 38 24 39 25 40 26 41 67 42 27 43 72 44 66 45 68 46
REMARK SMILES IDX 28 47 71 48 65 49 64 50 29 52 55 53 38 54 54 55 39 56 42 57
REMARK SMILES IDX 53 58 69 59 40 60 41 61 52 63 70 64 43 65 30 66 31 67 36 68
REMARK SMILES IDX 32 69 33 70 35 71 37 72 34 73 56 74 57 75 62 76 58 77 59 78
REMARK SMILES IDX 61 79 63 80 60 81 44 82 45 83 50 84 46 85 47 86 49 87 51 88
REMARK SMILES IDX 48 89
REMARK H PARENT 84 17 80 23 80 24 68 51 42 62
REMARK Flexibility Score: inf
ROOT
ATOM      1  C   UNL A   1      35.731  22.956  26.164  1.00  0.00     0.188 C 
ENDROOT
BRANCH   1   2
ATOM      2  C   UNL A   1      35.286  23.911  25.044  1.00  0.00     0.188 C 
BRANCH   2   3
ATOM      3  O   UNL A   1      34.134  24.730  25.198  1.00  0.00    -0.376 OA
BRANCH   3   4
ATOM      4  C   UNL A   1      34.005  25.887  24.395  1.00  0.00     0.202 C 
BRANCH   4   5
ATOM      5  C   UNL A   1      32.991  25.867  23.233  1.00  0.00     0.261 C 
BRANCH   5   6
ATOM      6  O   UNL A   1      32.229  24.649  23.032  1.00  0.00    -0.462 OA
BRANCH   6   7
ATOM      7  C   UNL A   1      32.872  23.617  22.413  1.00  0.00     0.325 C 
ATOM      8  O   UNL A   1      33.670  23.792  21.493  1.00  0.00    -0.250 OA
BRANCH   7   9
ATOM      9  C   UNL A   1      32.415  22.199  22.805  1.00  0.00     0.241 C 
BRANCH   9  10
ATOM     10  N   UNL A   1      32.255  21.811  24.231  1.00  0.00    -0.334 N 
ATOM     11  C   UNL A   1      31.545  22.715  25.118  1.00  0.00     0.147 C 
BRANCH  10  12
ATOM     12  C   UNL A   1      32.749  20.618  24.665  1.00  0.00     0.204 A 
ATOM     13  N   UNL A   1      32.156  19.753  25.455  1.00  0.00    -0.213 NA
ATOM     14  N   UNL A   1      33.948  20.097  24.221  1.00  0.00    -0.324 N 
ATOM     15  C   UNL A   1      32.849  18.572  25.308  1.00  0.00     0.093 A 
ATOM     16  C   UNL A   1      34.006  18.768  24.567  1.00  0.00     0.067 A 
ATOM     17  H   UNL A   1      34.646  20.595  23.736  1.00  0.00     0.170 HD
ATOM     18  C   UNL A   1      32.485  17.267  25.681  1.00  0.00     0.056 A 
ATOM     19  C   UNL A   1      34.897  17.736  24.258  1.00  0.00     0.030 A 
ATOM     20  C   UNL A   1      33.249  16.189  25.211  1.00  0.00     0.034 A 
ATOM     21  C   UNL A   1      34.486  16.435  24.600  1.00  0.00     0.028 A 
BRANCH  20  22
ATOM     22  N   UNL A   1      32.802  14.885  25.395  1.00  0.00    -0.399 N 
ATOM     23  H   UNL A   1      31.837  14.696  25.425  1.00  0.00     0.156 HD
ATOM     24  H   UNL A   1      33.451  14.153  25.496  1.00  0.00     0.156 HD
ENDBRANCH  20  22
ENDBRANCH  10  12
ENDBRANCH   9  10
ENDBRANCH   7   9
ENDBRANCH   6   7
ENDBRANCH   5   6
ENDBRANCH   4   5
ENDBRANCH   3   4
ENDBRANCH   2   3
ENDBRANCH   1   2
BRANCH   1  25
ATOM     25  O   UNL A   1      36.393  21.767  25.790  1.00  0.00    -0.377 OA
BRANCH  25  26
ATOM     26  C   UNL A   1      37.653  21.851  25.152  1.00  0.00     0.188 C 
BRANCH  26  27
ATOM     27  C   UNL A   1      38.737  22.640  25.882  1.00  0.00     0.188 C 
BRANCH  27  28
ATOM     28  O   UNL A   1      39.578  21.995  26.839  1.00  0.00    -0.376 OA
BRANCH  28  29
ATOM     29  C   UNL A   1      40.779  21.346  26.451  1.00  0.00     0.202 C 
BRANCH  29  30
ATOM     30  C   UNL A   1      41.781  22.319  25.845  1.00  0.00     0.261 C 
BRANCH  30  31
ATOM     31  O   UNL A   1      42.006  23.352  26.812  1.00  0.00    -0.460 OA
BRANCH  31  32
ATOM     32  C   UNL A   1      42.290  24.554  26.252  1.00  0.00     0.338 C 
ATOM     33  O   UNL A   1      42.802  24.759  25.178  1.00  0.00    -0.246 OA
BRANCH  32  34
ATOM     34  C   UNL A   1      41.668  25.606  27.088  1.00  0.00     0.060 A 
ATOM     35  C   UNL A   1      42.209  26.893  26.994  1.00  0.00     0.016 A 
ATOM     36  C   UNL A   1      40.572  25.352  27.923  1.00  0.00     0.016 A 
ATOM     37  C   UNL A   1      41.712  27.915  27.789  1.00  0.00     0.010 A 
ATOM     38  C   UNL A   1      40.083  26.371  28.736  1.00  0.00     0.010 A 
ATOM     39  C   UNL A   1      40.695  27.633  28.707  1.00  0.00    -0.014 A 
BRANCH  39  40
ATOM     40  C   UNL A   1      40.490  28.572  29.823  1.00  0.00     0.031 A 
ATOM     41  C   UNL A   1      41.389  28.424  31.019  1.00  0.00     0.074 A 
ATOM     42  C   UNL A   1      39.579  29.554  29.736  1.00  0.00     0.049 A 
ATOM     43  N   UNL A   1      41.417  29.114  32.126  1.00  0.00    -0.248 NA
ATOM     44  C   UNL A   1      42.396  27.347  30.957  1.00  0.00     0.031 C 
ATOM     45  C   UNL A   1      38.704  29.797  28.591  1.00  0.00     0.029 A 
ATOM     46  N   UNL A   1      39.243  30.529  30.635  1.00  0.00    -0.354 N 
ATOM     47  C   UNL A   1      42.438  28.557  32.886  1.00  0.00     0.074 A 
ATOM     48  C   UNL A   1      42.988  27.455  32.135  1.00  0.00     0.031 C 
ATOM     49  C   UNL A   1      37.915  30.852  28.864  1.00  0.00     0.029 A 
ATOM     50  C   UNL A   1      38.215  31.333  30.210  1.00  0.00     0.049 A 
ATOM     51  H   UNL A   1      39.695  30.643  31.502  1.00  0.00     0.167 HD
ATOM     52  C   UNL A   1      42.880  28.943  34.105  1.00  0.00     0.037 A 
ATOM     53  C   UNL A   1      37.582  32.328  30.860  1.00  0.00     0.037 A 
ATOM     54  C   UNL A   1      42.315  30.044  34.835  1.00  0.00     0.049 A 
ATOM     55  C   UNL A   1      38.050  32.690  32.246  1.00  0.00     0.074 A 
ATOM     56  C   UNL A   1      42.682  30.536  36.073  1.00  0.00     0.029 A 
ATOM     57  N   UNL A   1      41.254  30.818  34.388  1.00  0.00    -0.354 N 
ATOM     58  N   UNL A   1      39.033  32.177  32.950  1.00  0.00    -0.248 NA
ATOM     59  C   UNL A   1      37.326  33.770  32.928  1.00  0.00     0.031 C 
ATOM     60  C   UNL A   1      41.805  31.574  36.401  1.00  0.00     0.029 A 
ATOM     61  C   UNL A   1      40.932  31.768  35.340  1.00  0.00     0.049 A 
ATOM     62  H   UNL A   1      40.798  30.708  33.522  1.00  0.00     0.167 HD
ATOM     63  C   UNL A   1      39.065  32.892  34.140  1.00  0.00     0.074 A 
ATOM     64  C   UNL A   1      38.013  33.886  34.054  1.00  0.00     0.031 C 
ATOM     65  C   UNL A   1      39.885  32.747  35.212  1.00  0.00     0.037 A 
BRANCH  52  66
ATOM     66  C   UNL A   1      43.992  28.156  34.728  1.00  0.00     0.057 A 
ATOM     67  C   UNL A   1      45.337  28.509  34.569  1.00  0.00     0.134 A 
ATOM     68  C   UNL A   1      43.708  27.045  35.534  1.00  0.00     0.134 A 
ATOM     69  F   UNL A   1      45.680  29.547  33.789  1.00  0.00    -0.206 F 
ATOM     70  C   UNL A   1      46.361  27.784  35.181  1.00  0.00     0.040 A 
ATOM     71  C   UNL A   1      44.721  26.328  36.173  1.00  0.00     0.040 A 
ATOM     72  F   UNL A   1      42.441  26.647  35.723  1.00  0.00    -0.206 F 
ATOM     73  C   UNL A   1      46.053  26.695  35.995  1.00  0.00     0.006 A 
ENDBRANCH  52  66
BRANCH  53  74
ATOM     74  C   UNL A   1      36.434  33.028  30.231  1.00  0.00     0.057 A 
ATOM     75  C   UNL A   1      35.117  32.792  30.642  1.00  0.00     0.134 A 
ATOM     76  C   UNL A   1      36.624  33.923  29.169  1.00  0.00     0.134 A 
ATOM     77  F   UNL A   1      34.866  31.934  31.641  1.00  0.00    -0.206 F 
ATOM     78  C   UNL A   1      34.030  33.393  30.002  1.00  0.00     0.040 A 
ATOM     79  C   UNL A   1      35.549  34.553  28.539  1.00  0.00     0.040 A 
ATOM     80  F   UNL A   1      37.860  34.199  28.727  1.00  0.00    -0.206 F 
ATOM     81  C   UNL A   1      34.246  34.279  28.948  1.00  0.00     0.006 A 
ENDBRANCH  53  74
BRANCH  65  82
ATOM     82  C   UNL A   1      39.700  33.710  36.347  1.00  0.00     0.057 A 
ATOM     83  C   UNL A   1      40.266  34.991  36.331  1.00  0.00     0.134 A 
ATOM     84  C   UNL A   1      38.908  33.363  37.449  1.00  0.00     0.134 A 
ATOM     85  F   UNL A   1      41.042  35.379  35.308  1.00  0.00    -0.206 F 
ATOM     86  C   UNL A   1      40.074  35.883  37.386  1.00  0.00     0.040 A 
ATOM     87  C   UNL A   1      38.682  34.259  38.494  1.00  0.00     0.040 A 
ATOM     88  F   UNL A   1      38.325  32.157  37.518  1.00  0.00    -0.206 F 
ATOM     89  C   UNL A   1      39.272  35.520  38.467  1.00  0.00     0.006 A 
ENDBRANCH  65  82
ENDBRANCH  39  40
ENDBRANCH  32  34
ENDBRANCH  31  32
ENDBRANCH  30  31
ENDBRANCH  29  30
ENDBRANCH  28  29
ENDBRANCH  27  28
ENDBRANCH  26  27
ENDBRANCH  25  26
ENDBRANCH   1  25
TORSDOF 23
ENDMDL
MODEL 3
REMARK VINA RESULT:      -9.1      4.838      9.835
REMARK SMILES CN(CC(=O)OCCOCCOCCOCCOC(=O)c1ccc(-c2c3nc(c(-c4c(F)cccc4F)c4ccc([nH]4)c(-c4c(F)cccc4F)c4nc(c(-c5c(F)cccc5F)c5ccc2[nH]5)C=C4)C=C3)cc1)c1nc2cc(N)ccc2[nH]1
REMARK SMILES IDX 11 1 10 2 9 3 8 4 7 5 6 6 4 7 5 8 3 9 2 10 1 11 75 12 76 13
REMARK SMILES IDX 84 14 77 15 83 16 78 18 82 19 79 20 81 21 80 22 12 25 13 26
REMARK SMILES IDX 14 27 15 28 16 29 17 30 18 31 19 32 20 33 21 34 22 35 74 36
REMARK SMILES IDX 23 37 73 38 24 39 25 40 26 41 67 42 27 43 72 44 66 45 68 46
REMARK SMILES IDX 28 47 71 48 65 49 64 50 29 52 55 53 38 54 54 55 39 56 42 57
REMARK SMILES IDX 53 58 69 59 40 60 41 61 52 63 70 64 43 65 30 66 31 67 36 68
REMARK SMILES IDX 32 69 33 70 35 71 37 72 34 73 56 74 57 75 62 76 58 77 59 78
REMARK SMILES IDX 61 79 63 80 60 81 44 82 45 83 50 84 46 85 47 86 49 87 51 88
REMARK SMILES IDX 48 89
REMARK H PARENT 84 17 80 23 80 24 68 51 42 62
REMARK Flexibility Score: inf
ROOT
ATOM      1  C   UNL A   1      35.615  23.118  26.121  1.00  0.00     0.188 C 
ENDROOT
BRANCH   1   2
ATOM      2  C   UNL A   1      35.139  23.860  24.862  1.00  0.00     0.188 C 
BRANCH   2   3
ATOM      3  O   UNL A   1      34.112  24.841  24.937  1.00  0.00    -0.376 OA
BRANCH   3   4
ATOM      4  C   UNL A   1      34.027  25.820  23.921  1.00  0.00     0.202 C 
BRANCH   4   5
ATOM      5  C   UNL A   1      32.853  25.745  22.924  1.00  0.00     0.261 C 
BRANCH   5   6
ATOM      6  O   UNL A   1      32.009  24.566  22.972  1.00  0.00    -0.462 OA
BRANCH   6   7
ATOM      7  C   UNL A   1      32.568  23.393  22.558  1.00  0.00     0.325 C 
ATOM      8  O   UNL A   1      33.474  23.349  21.726  1.00  0.00    -0.250 OA
BRANCH   7   9
ATOM      9  C   UNL A   1      31.886  22.103  23.054  1.00  0.00     0.241 C 
BRANCH   9  10
ATOM     10  N   UNL A   1      32.062  21.631  24.451  1.00  0.00    -0.334 N 
ATOM     11  C   UNL A   1      31.617  22.491  25.533  1.00  0.00     0.147 C 
BRANCH  10  12
ATOM     12  C   UNL A   1      32.606  20.404  24.685  1.00  0.00     0.204 A 
ATOM     13  N   UNL A   1      32.285  19.562  25.641  1.00  0.00    -0.213 NA
ATOM     14  N   UNL A   1      33.533  19.822  23.844  1.00  0.00    -0.324 N 
ATOM     15  C   UNL A   1      32.806  18.345  25.261  1.00  0.00     0.093 A 
ATOM     16  C   UNL A   1      33.631  18.486  24.153  1.00  0.00     0.067 A 
ATOM     17  H   UNL A   1      34.039  20.287  23.139  1.00  0.00     0.170 HD
ATOM     18  C   UNL A   1      32.523  17.058  25.747  1.00  0.00     0.056 A 
ATOM     19  C   UNL A   1      34.288  17.410  23.551  1.00  0.00     0.030 A 
ATOM     20  C   UNL A   1      33.002  15.946  25.039  1.00  0.00     0.034 A 
ATOM     21  C   UNL A   1      33.951  16.129  24.024  1.00  0.00     0.028 A 
BRANCH  20  22
ATOM     22  N   UNL A   1      32.573  14.667  25.379  1.00  0.00    -0.399 N 
ATOM     23  H   UNL A   1      33.140  13.888  25.178  1.00  0.00     0.156 HD
ATOM     24  H   UNL A   1      31.702  14.542  25.820  1.00  0.00     0.156 HD
ENDBRANCH  20  22
ENDBRANCH  10  12
ENDBRANCH   9  10
ENDBRANCH   7   9
ENDBRANCH   6   7
ENDBRANCH   5   6
ENDBRANCH   4   5
ENDBRANCH   3   4
ENDBRANCH   2   3
ENDBRANCH   1   2
BRANCH   1  25
ATOM     25  O   UNL A   1      36.435  21.982  25.944  1.00  0.00    -0.377 OA
BRANCH  25  26
ATOM     26  C   UNL A   1      37.728  22.143  25.394  1.00  0.00     0.188 C 
BRANCH  26  27
ATOM     27  C   UNL A   1      38.740  22.912  26.241  1.00  0.00     0.188 C 
BRANCH  27  28
ATOM     28  O   UNL A   1      39.592  22.219  27.152  1.00  0.00    -0.376 OA
BRANCH  28  29
ATOM     29  C   UNL A   1      40.789  21.592  26.716  1.00  0.00     0.202 C 
BRANCH  29  30
ATOM     30  C   UNL A   1      41.728  22.574  26.028  1.00  0.00     0.261 C 
BRANCH  30  31
ATOM     31  O   UNL A   1      42.071  23.577  26.992  1.00  0.00    -0.460 OA
BRANCH  31  32
ATOM     32  C   UNL A   1      42.311  24.790  26.437  1.00  0.00     0.338 C 
ATOM     33  O   UNL A   1      42.753  25.018  25.335  1.00  0.00    -0.246 OA
BRANCH  32  34
ATOM     34  C   UNL A   1      41.739  25.824  27.329  1.00  0.00     0.060 A 
ATOM     35  C   UNL A   1      42.286  27.110  27.243  1.00  0.00     0.016 A 
ATOM     36  C   UNL A   1      40.683  25.555  28.209  1.00  0.00     0.016 A 
ATOM     37  C   UNL A   1      41.836  28.113  28.088  1.00  0.00     0.010 A 
ATOM     38  C   UNL A   1      40.242  26.555  29.072  1.00  0.00     0.010 A 
ATOM     39  C   UNL A   1      40.862  27.814  29.047  1.00  0.00    -0.014 A 
BRANCH  39  40
ATOM     40  C   UNL A   1      40.719  28.724  30.195  1.00  0.00     0.031 A 
ATOM     41  C   UNL A   1      39.625  29.754  30.123  1.00  0.00     0.074 A 
ATOM     42  C   UNL A   1      41.494  28.587  31.281  1.00  0.00     0.049 A 
ATOM     43  N   UNL A   1      39.288  30.668  30.990  1.00  0.00    -0.248 NA
ATOM     44  C   UNL A   1      38.797  29.750  28.901  1.00  0.00     0.031 C 
ATOM     45  C   UNL A   1      42.543  27.582  31.451  1.00  0.00     0.029 A 
ATOM     46  N   UNL A   1      41.516  29.303  32.447  1.00  0.00    -0.354 N 
ATOM     47  C   UNL A   1      38.215  31.344  30.421  1.00  0.00     0.074 A 
ATOM     48  C   UNL A   1      37.972  30.760  29.124  1.00  0.00     0.031 C 
ATOM     49  C   UNL A   1      43.119  27.757  32.654  1.00  0.00     0.029 A 
ATOM     50  C   UNL A   1      42.497  28.900  33.318  1.00  0.00     0.049 A 
ATOM     51  H   UNL A   1      40.889  30.037  32.642  1.00  0.00     0.167 HD
ATOM     52  C   UNL A   1      37.493  32.360  30.946  1.00  0.00     0.037 A 
ATOM     53  C   UNL A   1      42.854  29.422  34.506  1.00  0.00     0.037 A 
ATOM     54  C   UNL A   1      37.755  32.925  32.240  1.00  0.00     0.049 A 
ATOM     55  C   UNL A   1      42.076  30.600  35.034  1.00  0.00     0.074 A 
ATOM     56  C   UNL A   1      37.088  33.951  32.883  1.00  0.00     0.029 A 
ATOM     57  N   UNL A   1      38.775  32.513  33.084  1.00  0.00    -0.354 N 
ATOM     58  N   UNL A   1      41.046  31.219  34.504  1.00  0.00    -0.248 NA
ATOM     59  C   UNL A   1      42.505  31.151  36.326  1.00  0.00     0.031 C 
ATOM     60  C   UNL A   1      37.742  34.196  34.094  1.00  0.00     0.029 A 
ATOM     61  C   UNL A   1      38.776  33.282  34.232  1.00  0.00     0.049 A 
ATOM     62  H   UNL A   1      39.406  31.780  32.894  1.00  0.00     0.167 HD
ATOM     63  C   UNL A   1      40.686  32.207  35.410  1.00  0.00     0.074 A 
ATOM     64  C   UNL A   1      41.598  32.093  36.531  1.00  0.00     0.031 C 
ATOM     65  C   UNL A   1      39.694  33.130  35.331  1.00  0.00     0.037 A 
BRANCH  52  66
ATOM     66  C   UNL A   1      36.389  32.937  30.113  1.00  0.00     0.057 A 
ATOM     67  C   UNL A   1      35.047  32.590  30.309  1.00  0.00     0.134 A 
ATOM     68  C   UNL A   1      36.672  33.886  29.122  1.00  0.00     0.134 A 
ATOM     69  F   UNL A   1      34.709  31.669  31.225  1.00  0.00    -0.206 F 
ATOM     70  C   UNL A   1      34.026  33.160  29.546  1.00  0.00     0.040 A 
ATOM     71  C   UNL A   1      35.658  34.482  28.370  1.00  0.00     0.040 A 
ATOM     72  F   UNL A   1      37.937  34.258  28.876  1.00  0.00    -0.206 F 
ATOM     73  C   UNL A   1      34.330  34.117  28.580  1.00  0.00     0.006 A 
ENDBRANCH  52  66
BRANCH  53  74
ATOM     74  C   UNL A   1      44.006  28.864  35.260  1.00  0.00     0.057 A 
ATOM     75  C   UNL A   1      43.833  27.880  36.241  1.00  0.00     0.134 A 
ATOM     76  C   UNL A   1      45.309  29.335  35.047  1.00  0.00     0.134 A 
ATOM     77  F   UNL A   1      42.609  27.401  36.505  1.00  0.00    -0.206 F 
ATOM     78  C   UNL A   1      44.904  27.408  37.002  1.00  0.00     0.040 A 
ATOM     79  C   UNL A   1      46.393  28.850  35.780  1.00  0.00     0.040 A 
ATOM     80  F   UNL A   1      45.548  30.273  34.119  1.00  0.00    -0.206 F 
ATOM     81  C   UNL A   1      46.190  27.892  36.770  1.00  0.00     0.006 A 
ENDBRANCH  53  74
BRANCH  65  82
ATOM     82  C   UNL A   1      39.523  34.051  36.502  1.00  0.00     0.057 A 
ATOM     83  C   UNL A   1      38.753  33.695  37.617  1.00  0.00     0.134 A 
ATOM     84  C   UNL A   1      40.175  35.289  36.532  1.00  0.00     0.134 A 
ATOM     85  F   UNL A   1      38.096  32.526  37.646  1.00  0.00    -0.206 F 
ATOM     86  C   UNL A   1      38.614  34.554  38.708  1.00  0.00     0.040 A 
ATOM     87  C   UNL A   1      40.071  36.142  37.632  1.00  0.00     0.040 A 
ATOM     88  F   UNL A   1      40.941  35.682  35.503  1.00  0.00    -0.206 F 
ATOM     89  C   UNL A   1      39.282  35.777  38.720  1.00  0.00     0.006 A 
ENDBRANCH  65  82
ENDBRANCH  39  40
ENDBRANCH  32  34
ENDBRANCH  31  32
ENDBRANCH  30  31
ENDBRANCH  29  30
ENDBRANCH  28  29
ENDBRANCH  27  28
ENDBRANCH  26  27
ENDBRANCH  25  26
ENDBRANCH   1  25
TORSDOF 23
ENDMDL
