MODEL 1
REMARK VINA RESULT:      -9.4      0.000      0.000
REMARK SMILES O=C(CC[NH2+]C[C@H](O)Cn1c2ccccc2c2ccccc21)OCCOCCOCCOCCOC(=O)c1ccc(-c2c3nc(c(-c4c(F)cccc4F)c4ccc([nH]4)c(-c4c(F)cccc4F)c4nc(c(-c5c(F)cccc5F)c5ccc2[nH]5)C=C4)C=C3)cc1
REMARK SMILES IDX 27 1 26 2 25 3 24 4 23 5 2 6 1 7 3 8 4 9 5 10 6 13 7 14 9 15
REMARK SMILES IDX 10 16 11 17 22 18 12 19 16 20 17 21 21 22 13 23 15 24 18 25
REMARK SMILES IDX 20 26 14 27 19 28 8 29 28 31 29 32 30 33 31 34 32 35 33 36
REMARK SMILES IDX 34 37 35 38 36 39 37 40 38 41 39 42 91 43 40 44 90 45 41 46
REMARK SMILES IDX 42 47 43 48 84 49 44 50 89 51 83 52 85 53 45 54 88 55 82 56
REMARK SMILES IDX 81 57 46 59 72 60 55 61 71 62 56 63 59 64 70 65 86 66 57 67
REMARK SMILES IDX 58 68 69 70 87 71 60 72 47 73 48 74 53 75 49 76 50 77 52 78
REMARK SMILES IDX 54 79 51 80 73 81 74 82 79 83 75 84 76 85 78 86 80 87 77 88
REMARK SMILES IDX 61 89 62 90 67 91 63 92 64 93 66 94 68 95 65 96
REMARK H PARENT 5 11 5 12 8 30 85 58 59 69
REMARK Flexibility Score: inf
ROOT
ATOM      1  C   UNL A   1      33.446  31.692  27.578  1.00  0.00     0.188 C 
ENDROOT
BRANCH   1   2
ATOM      2  O   UNL A   1      33.462  30.401  26.977  1.00  0.00    -0.376 OA
BRANCH   2   3
ATOM      3  C   UNL A   1      32.394  29.836  26.227  1.00  0.00     0.202 C 
BRANCH   3   4
ATOM      4  C   UNL A   1      32.698  29.276  24.844  1.00  0.00     0.261 C 
BRANCH   4   5
ATOM      5  O   UNL A   1      31.449  29.024  24.190  1.00  0.00    -0.463 OA
BRANCH   5   6
ATOM      6  C   UNL A   1      31.495  28.892  22.838  1.00  0.00     0.311 C 
ATOM      7  O   UNL A   1      30.501  28.697  22.150  1.00  0.00    -0.252 OA
BRANCH   6   8
ATOM      8  C   UNL A   1      32.925  28.737  22.337  1.00  0.00     0.184 C 
BRANCH   8   9
ATOM      9  C   UNL A   1      33.410  27.319  21.990  1.00  0.00     0.272 C 
BRANCH   9  10
ATOM     10  N   UNL A   1      32.343  26.485  21.428  1.00  0.00    -0.344 N 
ATOM     11  H   UNL A   1      32.631  26.212  20.489  1.00  0.00     0.346 HD
ATOM     12  H   UNL A   1      31.506  27.066  21.476  1.00  0.00     0.346 HD
BRANCH  10  13
ATOM     13  C   UNL A   1      31.988  25.261  22.152  1.00  0.00     0.294 C 
BRANCH  13  14
ATOM     14  C   UNL A   1      33.064  24.164  22.387  1.00  0.00     0.189 C 
BRANCH  14  15
ATOM     15  C   UNL A   1      32.701  23.390  23.657  1.00  0.00     0.160 C 
BRANCH  15  16
ATOM     16  N   UNL A   1      33.597  22.324  24.061  1.00  0.00    -0.338 N 
ATOM     17  C   UNL A   1      34.867  22.550  24.570  1.00  0.00     0.049 A 
ATOM     18  C   UNL A   1      33.359  20.970  23.933  1.00  0.00     0.049 A 
ATOM     19  C   UNL A   1      35.596  23.740  24.760  1.00  0.00     0.027 A 
ATOM     20  C   UNL A   1      35.395  21.304  24.903  1.00  0.00     0.007 A 
ATOM     21  C   UNL A   1      34.425  20.315  24.556  1.00  0.00     0.007 A 
ATOM     22  C   UNL A   1      32.305  20.256  23.341  1.00  0.00     0.027 A 
ATOM     23  C   UNL A   1      36.893  23.649  25.266  1.00  0.00     0.002 A 
ATOM     24  C   UNL A   1      36.701  21.242  25.438  1.00  0.00     0.011 A 
ATOM     25  C   UNL A   1      34.390  18.909  24.671  1.00  0.00     0.011 A 
ATOM     26  C   UNL A   1      32.321  18.862  23.425  1.00  0.00     0.002 A 
ATOM     27  C   UNL A   1      37.443  22.418  25.599  1.00  0.00     0.001 A 
ATOM     28  C   UNL A   1      33.330  18.195  24.109  1.00  0.00     0.001 A 
ENDBRANCH  15  16
ENDBRANCH  14  15
BRANCH  14  29
ATOM     29  O   UNL A   1      33.191  23.289  21.268  1.00  0.00    -0.385 OA
ATOM     30  H   UNL A   1      32.325  23.175  20.847  1.00  0.00     0.211 HD
ENDBRANCH  14  29
ENDBRANCH  13  14
ENDBRANCH  10  13
ENDBRANCH   9  10
ENDBRANCH   8   9
ENDBRANCH   6   8
ENDBRANCH   5   6
ENDBRANCH   4   5
ENDBRANCH   3   4
ENDBRANCH   2   3
ENDBRANCH   1   2
BRANCH   1  31
ATOM     31  C   UNL A   1      34.721  32.333  28.106  1.00  0.00     0.188 C 
BRANCH  31  32
ATOM     32  O   UNL A   1      34.634  33.740  28.164  1.00  0.00    -0.377 OA
BRANCH  32  33
ATOM     33  C   UNL A   1      33.323  34.228  28.359  1.00  0.00     0.188 C 
BRANCH  33  34
ATOM     34  C   UNL A   1      33.151  35.066  29.645  1.00  0.00     0.188 C 
BRANCH  34  35
ATOM     35  O   UNL A   1      34.200  35.131  30.607  1.00  0.00    -0.376 OA
BRANCH  35  36
ATOM     36  C   UNL A   1      33.866  34.979  31.976  1.00  0.00     0.202 C 
BRANCH  36  37
ATOM     37  C   UNL A   1      34.770  34.046  32.804  1.00  0.00     0.261 C 
BRANCH  37  38
ATOM     38  O   UNL A   1      36.117  33.973  32.305  1.00  0.00    -0.460 OA
BRANCH  38  39
ATOM     39  C   UNL A   1      37.136  34.095  33.203  1.00  0.00     0.338 C 
ATOM     40  O   UNL A   1      37.177  34.805  34.168  1.00  0.00    -0.246 OA
BRANCH  39  41
ATOM     41  C   UNL A   1      38.054  32.942  32.955  1.00  0.00     0.060 A 
ATOM     42  C   UNL A   1      39.172  32.691  33.755  1.00  0.00     0.016 A 
ATOM     43  C   UNL A   1      37.909  32.282  31.725  1.00  0.00     0.016 A 
ATOM     44  C   UNL A   1      40.195  31.879  33.260  1.00  0.00     0.010 A 
ATOM     45  C   UNL A   1      38.936  31.472  31.232  1.00  0.00     0.010 A 
ATOM     46  C   UNL A   1      40.104  31.299  31.978  1.00  0.00    -0.014 A 
BRANCH  46  47
ATOM     47  C   UNL A   1      41.172  30.358  31.586  1.00  0.00     0.031 A 
ATOM     48  C   UNL A   1      42.019  30.872  30.467  1.00  0.00     0.074 A 
ATOM     49  C   UNL A   1      41.572  29.230  32.215  1.00  0.00     0.049 A 
ATOM     50  N   UNL A   1      42.280  30.339  29.316  1.00  0.00    -0.248 NA
ATOM     51  C   UNL A   1      42.586  32.218  30.657  1.00  0.00     0.031 C 
ATOM     52  C   UNL A   1      41.181  28.755  33.543  1.00  0.00     0.029 A 
ATOM     53  N   UNL A   1      42.512  28.307  31.821  1.00  0.00    -0.354 N 
ATOM     54  C   UNL A   1      43.179  31.213  28.703  1.00  0.00     0.074 A 
ATOM     55  C   UNL A   1      43.228  32.402  29.508  1.00  0.00     0.031 C 
ATOM     56  C   UNL A   1      42.006  27.751  33.918  1.00  0.00     0.029 A 
ATOM     57  C   UNL A   1      42.913  27.433  32.825  1.00  0.00     0.049 A 
ATOM     58  H   UNL A   1      42.872  28.269  30.905  1.00  0.00     0.167 HD
ATOM     59  C   UNL A   1      44.002  30.831  27.692  1.00  0.00     0.037 A 
ATOM     60  C   UNL A   1      43.946  26.550  32.794  1.00  0.00     0.037 A 
ATOM     61  C   UNL A   1      43.518  29.676  26.996  1.00  0.00     0.049 A 
ATOM     62  C   UNL A   1      44.374  26.371  31.383  1.00  0.00     0.074 A 
ATOM     63  C   UNL A   1      42.385  29.367  26.274  1.00  0.00     0.029 A 
ATOM     64  N   UNL A   1      44.181  28.494  27.189  1.00  0.00    -0.354 N 
ATOM     65  N   UNL A   1      43.707  25.746  30.451  1.00  0.00    -0.248 NA
ATOM     66  C   UNL A   1      45.498  27.171  30.921  1.00  0.00     0.031 C 
ATOM     67  C   UNL A   1      42.205  27.967  26.439  1.00  0.00     0.029 A 
ATOM     68  C   UNL A   1      43.239  27.508  27.259  1.00  0.00     0.049 A 
ATOM     69  H   UNL A   1      45.155  28.376  27.264  1.00  0.00     0.167 HD
ATOM     70  C   UNL A   1      44.103  26.349  29.265  1.00  0.00     0.074 A 
ATOM     71  C   UNL A   1      45.278  27.138  29.608  1.00  0.00     0.031 C 
ATOM     72  C   UNL A   1      43.307  26.377  28.159  1.00  0.00     0.037 A 
BRANCH  59  73
ATOM     73  C   UNL A   1      45.436  31.291  27.581  1.00  0.00     0.057 A 
ATOM     74  C   UNL A   1      45.896  32.179  26.587  1.00  0.00     0.134 A 
ATOM     75  C   UNL A   1      46.310  31.102  28.667  1.00  0.00     0.134 A 
ATOM     76  F   UNL A   1      45.142  32.535  25.539  1.00  0.00    -0.206 F 
ATOM     77  C   UNL A   1      47.123  32.841  26.672  1.00  0.00     0.040 A 
ATOM     78  C   UNL A   1      47.514  31.805  28.789  1.00  0.00     0.040 A 
ATOM     79  F   UNL A   1      45.974  30.303  29.691  1.00  0.00    -0.206 F 
ATOM     80  C   UNL A   1      47.922  32.682  27.792  1.00  0.00     0.006 A 
ENDBRANCH  59  73
BRANCH  60  81
ATOM     81  C   UNL A   1      44.746  25.992  33.921  1.00  0.00     0.057 A 
ATOM     82  C   UNL A   1      45.717  26.753  34.598  1.00  0.00     0.134 A 
ATOM     83  C   UNL A   1      44.739  24.620  34.223  1.00  0.00     0.134 A 
ATOM     84  F   UNL A   1      45.894  28.051  34.317  1.00  0.00    -0.206 F 
ATOM     85  C   UNL A   1      46.600  26.197  35.532  1.00  0.00     0.040 A 
ATOM     86  C   UNL A   1      45.631  24.045  35.143  1.00  0.00     0.040 A 
ATOM     87  F   UNL A   1      43.894  23.790  33.595  1.00  0.00    -0.206 F 
ATOM     88  C   UNL A   1      46.565  24.836  35.803  1.00  0.00     0.006 A 
ENDBRANCH  60  81
BRANCH  72  89
ATOM     89  C   UNL A   1      42.227  25.361  27.975  1.00  0.00     0.057 A 
ATOM     90  C   UNL A   1      42.514  24.281  27.122  1.00  0.00     0.134 A 
ATOM     91  C   UNL A   1      40.900  25.527  28.379  1.00  0.00     0.134 A 
ATOM     92  F   UNL A   1      43.766  24.088  26.676  1.00  0.00    -0.206 F 
ATOM     93  C   UNL A   1      41.524  23.410  26.673  1.00  0.00     0.040 A 
ATOM     94  C   UNL A   1      39.902  24.648  27.944  1.00  0.00     0.040 A 
ATOM     95  F   UNL A   1      40.525  26.569  29.137  1.00  0.00    -0.206 F 
ATOM     96  C   UNL A   1      40.211  23.591  27.089  1.00  0.00     0.006 A 
ENDBRANCH  72  89
ENDBRANCH  46  47
ENDBRANCH  39  41
ENDBRANCH  38  39
ENDBRANCH  37  38
ENDBRANCH  36  37
ENDBRANCH  35  36
ENDBRANCH  34  35
ENDBRANCH  33  34
ENDBRANCH  32  33
ENDBRANCH  31  32
ENDBRANCH   1  31
TORSDOF 27
ENDMDL
MODEL 2
REMARK VINA RESULT:      -8.9      1.898      5.763
REMARK SMILES O=C(CC[NH2+]C[C@H](O)Cn1c2ccccc2c2ccccc21)OCCOCCOCCOCCOC(=O)c1ccc(-c2c3nc(c(-c4c(F)cccc4F)c4ccc([nH]4)c(-c4c(F)cccc4F)c4nc(c(-c5c(F)cccc5F)c5ccc2[nH]5)C=C4)C=C3)cc1
REMARK SMILES IDX 27 1 26 2 25 3 24 4 23 5 2 6 1 7 3 8 4 9 5 10 6 13 7 14 9 15
REMARK SMILES IDX 10 16 11 17 22 18 12 19 16 20 17 21 21 22 13 23 15 24 18 25
REMARK SMILES IDX 20 26 14 27 19 28 8 29 28 31 29 32 30 33 31 34 32 35 33 36
REMARK SMILES IDX 34 37 35 38 36 39 37 40 38 41 39 42 91 43 40 44 90 45 41 46
REMARK SMILES IDX 42 47 43 48 84 49 44 50 89 51 83 52 85 53 45 54 88 55 82 56
REMARK SMILES IDX 81 57 46 59 72 60 55 61 71 62 56 63 59 64 70 65 86 66 57 67
REMARK SMILES IDX 58 68 69 70 87 71 60 72 47 73 48 74 53 75 49 76 50 77 52 78
REMARK SMILES IDX 54 79 51 80 73 81 74 82 79 83 75 84 76 85 78 86 80 87 77 88
REMARK SMILES IDX 61 89 62 90 67 91 63 92 64 93 66 94 68 95 65 96
REMARK H PARENT 5 11 5 12 8 30 85 58 59 69
REMARK Flexibility Score: inf
ROOT
ATOM      1  C   UNL A   1      33.835  32.118  27.752  1.00  0.00     0.188 C 
ENDROOT
BRANCH   1   2
ATOM      2  O   UNL A   1      33.793  30.772  27.288  1.00  0.00    -0.376 OA
BRANCH   2   3
ATOM      3  C   UNL A   1      32.621  30.092  26.860  1.00  0.00     0.202 C 
BRANCH   3   4
ATOM      4  C   UNL A   1      32.692  29.257  25.588  1.00  0.00     0.261 C 
BRANCH   4   5
ATOM      5  O   UNL A   1      31.403  28.671  25.377  1.00  0.00    -0.463 OA
BRANCH   5   6
ATOM      6  C   UNL A   1      31.132  28.258  24.110  1.00  0.00     0.311 C 
ATOM      7  O   UNL A   1      30.076  27.725  23.791  1.00  0.00    -0.252 OA
BRANCH   6   8
ATOM      8  C   UNL A   1      32.377  28.281  23.233  1.00  0.00     0.184 C 
BRANCH   8   9
ATOM      9  C   UNL A   1      32.871  26.942  22.659  1.00  0.00     0.272 C 
BRANCH   9  10
ATOM     10  N   UNL A   1      31.771  26.101  22.175  1.00  0.00    -0.344 N 
ATOM     11  H   UNL A   1      31.918  25.950  21.177  1.00  0.00     0.346 HD
ATOM     12  H   UNL A   1      30.925  26.615  22.419  1.00  0.00     0.346 HD
BRANCH  10  13
ATOM     13  C   UNL A   1      31.600  24.785  22.798  1.00  0.00     0.294 C 
BRANCH  13  14
ATOM     14  C   UNL A   1      32.801  23.800  22.861  1.00  0.00     0.189 C 
BRANCH  14  15
ATOM     15  C   UNL A   1      32.656  22.936  24.116  1.00  0.00     0.160 C 
BRANCH  15  16
ATOM     16  N   UNL A   1      33.674  21.930  24.349  1.00  0.00    -0.338 N 
ATOM     17  C   UNL A   1      34.980  22.237  24.701  1.00  0.00     0.049 A 
ATOM     18  C   UNL A   1      33.522  20.567  24.187  1.00  0.00     0.049 A 
ATOM     19  C   UNL A   1      35.636  23.473  24.854  1.00  0.00     0.027 A 
ATOM     20  C   UNL A   1      35.638  21.025  24.902  1.00  0.00     0.007 A 
ATOM     21  C   UNL A   1      34.707  19.976  24.635  1.00  0.00     0.007 A 
ATOM     22  C   UNL A   1      32.455  19.795  23.700  1.00  0.00     0.027 A 
ATOM     23  C   UNL A   1      36.992  23.467  25.184  1.00  0.00     0.002 A 
ATOM     24  C   UNL A   1      37.004  21.047  25.261  1.00  0.00     0.011 A 
ATOM     25  C   UNL A   1      34.792  18.568  24.684  1.00  0.00     0.011 A 
ATOM     26  C   UNL A   1      32.586  18.404  23.713  1.00  0.00     0.002 A 
ATOM     27  C   UNL A   1      37.671  22.272  25.383  1.00  0.00     0.001 A 
ATOM     28  C   UNL A   1      33.723  17.794  24.228  1.00  0.00     0.001 A 
ENDBRANCH  15  16
ENDBRANCH  14  15
BRANCH  14  29
ATOM     29  O   UNL A   1      32.898  22.995  21.688  1.00  0.00    -0.385 OA
ATOM     30  H   UNL A   1      32.096  23.105  21.154  1.00  0.00     0.211 HD
ENDBRANCH  14  29
ENDBRANCH  13  14
ENDBRANCH  10  13
ENDBRANCH   9  10
ENDBRANCH   8   9
ENDBRANCH   6   8
ENDBRANCH   5   6
ENDBRANCH   4   5
ENDBRANCH   3   4
ENDBRANCH   2   3
ENDBRANCH   1   2
BRANCH   1  31
ATOM     31  C   UNL A   1      35.158  32.817  28.028  1.00  0.00     0.188 C 
BRANCH  31  32
ATOM     32  O   UNL A   1      35.027  34.222  28.075  1.00  0.00    -0.377 OA
BRANCH  32  33
ATOM     33  C   UNL A   1      33.752  34.667  28.489  1.00  0.00     0.188 C 
BRANCH  33  34
ATOM     34  C   UNL A   1      33.638  34.916  30.009  1.00  0.00     0.188 C 
BRANCH  34  35
ATOM     35  O   UNL A   1      34.651  34.443  30.893  1.00  0.00    -0.376 OA
BRANCH  35  36
ATOM     36  C   UNL A   1      34.273  33.563  31.938  1.00  0.00     0.202 C 
BRANCH  36  37
ATOM     37  C   UNL A   1      35.144  32.306  32.127  1.00  0.00     0.261 C 
BRANCH  37  38
ATOM     38  O   UNL A   1      36.555  32.584  32.093  1.00  0.00    -0.460 OA
BRANCH  38  39
ATOM     39  C   UNL A   1      37.318  32.130  33.128  1.00  0.00     0.338 C 
ATOM     40  O   UNL A   1      37.067  32.184  34.299  1.00  0.00    -0.246 OA
BRANCH  39  41
ATOM     41  C   UNL A   1      38.368  31.256  32.523  1.00  0.00     0.060 A 
ATOM     42  C   UNL A   1      38.096  29.960  32.078  1.00  0.00     0.016 A 
ATOM     43  C   UNL A   1      39.697  31.682  32.672  1.00  0.00     0.016 A 
ATOM     44  C   UNL A   1      39.153  29.063  31.905  1.00  0.00     0.010 A 
ATOM     45  C   UNL A   1      40.752  30.781  32.502  1.00  0.00     0.010 A 
ATOM     46  C   UNL A   1      40.485  29.454  32.158  1.00  0.00    -0.014 A 
BRANCH  46  47
ATOM     47  C   UNL A   1      41.547  28.482  31.833  1.00  0.00     0.031 A 
ATOM     48  C   UNL A   1      42.261  27.974  33.043  1.00  0.00     0.074 A 
ATOM     49  C   UNL A   1      41.806  27.883  30.648  1.00  0.00     0.049 A 
ATOM     50  N   UNL A   1      43.525  27.994  33.326  1.00  0.00    -0.248 NA
ATOM     51  C   UNL A   1      41.406  27.438  34.116  1.00  0.00     0.031 C 
ATOM     52  C   UNL A   1      40.987  27.899  29.436  1.00  0.00     0.029 A 
ATOM     53  N   UNL A   1      42.835  27.035  30.315  1.00  0.00    -0.354 N 
ATOM     54  C   UNL A   1      43.639  27.322  34.544  1.00  0.00     0.074 A 
ATOM     55  C   UNL A   1      42.306  27.122  35.042  1.00  0.00     0.031 C 
ATOM     56  C   UNL A   1      41.445  26.960  28.576  1.00  0.00     0.029 A 
ATOM     57  C   UNL A   1      42.651  26.352  29.119  1.00  0.00     0.049 A 
ATOM     58  H   UNL A   1      43.637  26.922  30.876  1.00  0.00     0.167 HD
ATOM     59  C   UNL A   1      44.803  26.771  34.973  1.00  0.00     0.037 A 
ATOM     60  C   UNL A   1      43.390  25.322  28.628  1.00  0.00     0.037 A 
ATOM     61  C   UNL A   1      45.953  27.364  34.358  1.00  0.00     0.049 A 
ATOM     62  C   UNL A   1      44.674  25.264  29.372  1.00  0.00     0.074 A 
ATOM     63  C   UNL A   1      46.498  28.630  34.310  1.00  0.00     0.029 A 
ATOM     64  N   UNL A   1      46.631  26.623  33.429  1.00  0.00    -0.354 N 
ATOM     65  N   UNL A   1      45.656  26.119  29.280  1.00  0.00    -0.248 NA
ATOM     66  C   UNL A   1      44.755  24.333  30.488  1.00  0.00     0.031 C 
ATOM     67  C   UNL A   1      47.178  28.699  33.064  1.00  0.00     0.029 A 
ATOM     68  C   UNL A   1      47.000  27.470  32.424  1.00  0.00     0.049 A 
ATOM     69  H   UNL A   1      46.818  25.658  33.476  1.00  0.00     0.167 HD
ATOM     70  C   UNL A   1      46.289  26.068  30.515  1.00  0.00     0.074 A 
ATOM     71  C   UNL A   1      45.758  24.881  31.171  1.00  0.00     0.031 C 
ATOM     72  C   UNL A   1      46.991  27.122  31.020  1.00  0.00     0.037 A 
BRANCH  59  73
ATOM     73  C   UNL A   1      44.871  25.435  35.675  1.00  0.00     0.057 A 
ATOM     74  C   UNL A   1      44.482  24.219  35.076  1.00  0.00     0.134 A 
ATOM     75  C   UNL A   1      45.634  25.308  36.850  1.00  0.00     0.134 A 
ATOM     76  F   UNL A   1      43.834  24.170  33.906  1.00  0.00    -0.206 F 
ATOM     77  C   UNL A   1      44.836  22.972  35.597  1.00  0.00     0.040 A 
ATOM     78  C   UNL A   1      46.042  24.065  37.346  1.00  0.00     0.040 A 
ATOM     79  F   UNL A   1      46.088  26.392  37.497  1.00  0.00    -0.206 F 
ATOM     80  C   UNL A   1      45.647  22.891  36.716  1.00  0.00     0.006 A 
ENDBRANCH  59  73
BRANCH  60  81
ATOM     81  C   UNL A   1      42.992  24.236  27.689  1.00  0.00     0.057 A 
ATOM     82  C   UNL A   1      43.150  24.356  26.296  1.00  0.00     0.134 A 
ATOM     83  C   UNL A   1      42.234  23.132  28.115  1.00  0.00     0.134 A 
ATOM     84  F   UNL A   1      43.760  25.422  25.761  1.00  0.00    -0.206 F 
ATOM     85  C   UNL A   1      42.620  23.429  25.390  1.00  0.00     0.040 A 
ATOM     86  C   UNL A   1      41.680  22.205  27.217  1.00  0.00     0.040 A 
ATOM     87  F   UNL A   1      41.972  22.950  29.417  1.00  0.00    -0.206 F 
ATOM     88  C   UNL A   1      41.874  22.351  25.848  1.00  0.00     0.006 A 
ENDBRANCH  60  81
BRANCH  72  89
ATOM     89  C   UNL A   1      47.551  28.167  30.109  1.00  0.00     0.057 A 
ATOM     90  C   UNL A   1      48.938  28.131  29.885  1.00  0.00     0.134 A 
ATOM     91  C   UNL A   1      46.857  29.298  29.672  1.00  0.00     0.134 A 
ATOM     92  F   UNL A   1      49.664  27.083  30.309  1.00  0.00    -0.206 F 
ATOM     93  C   UNL A   1      49.614  29.181  29.267  1.00  0.00     0.040 A 
ATOM     94  C   UNL A   1      47.527  30.350  29.039  1.00  0.00     0.040 A 
ATOM     95  F   UNL A   1      45.543  29.445  29.906  1.00  0.00    -0.206 F 
ATOM     96  C   UNL A   1      48.905  30.296  28.838  1.00  0.00     0.006 A 
ENDBRANCH  72  89
ENDBRANCH  46  47
ENDBRANCH  39  41
ENDBRANCH  38  39
ENDBRANCH  37  38
ENDBRANCH  36  37
ENDBRANCH  35  36
ENDBRANCH  34  35
ENDBRANCH  33  34
ENDBRANCH  32  33
ENDBRANCH  31  32
ENDBRANCH   1  31
TORSDOF 27
ENDMDL
MODEL 3
REMARK VINA RESULT:      -8.9      2.048      6.102
REMARK SMILES O=C(CC[NH2+]C[C@H](O)Cn1c2ccccc2c2ccccc21)OCCOCCOCCOCCOC(=O)c1ccc(-c2c3nc(c(-c4c(F)cccc4F)c4ccc([nH]4)c(-c4c(F)cccc4F)c4nc(c(-c5c(F)cccc5F)c5ccc2[nH]5)C=C4)C=C3)cc1
REMARK SMILES IDX 27 1 26 2 25 3 24 4 23 5 2 6 1 7 3 8 4 9 5 10 6 13 7 14 9 15
REMARK SMILES IDX 10 16 11 17 22 18 12 19 16 20 17 21 21 22 13 23 15 24 18 25
REMARK SMILES IDX 20 26 14 27 19 28 8 29 28 31 29 32 30 33 31 34 32 35 33 36
REMARK SMILES IDX 34 37 35 38 36 39 37 40 38 41 39 42 91 43 40 44 90 45 41 46
REMARK SMILES IDX 42 47 43 48 84 49 44 50 89 51 83 52 85 53 45 54 88 55 82 56
REMARK SMILES IDX 81 57 46 59 72 60 55 61 71 62 56 63 59 64 70 65 86 66 57 67
REMARK SMILES IDX 58 68 69 70 87 71 60 72 47 73 48 74 53 75 49 76 50 77 52 78
REMARK SMILES IDX 54 79 51 80 73 81 74 82 79 83 75 84 76 85 78 86 80 87 77 88
REMARK SMILES IDX 61 89 62 90 67 91 63 92 64 93 66 94 68 95 65 96
REMARK H PARENT 5 11 5 12 8 30 85 58 59 69
REMARK Flexibility Score: inf
ROOT
ATOM      1  C   UNL A   1      33.697  32.059  27.739  1.00  0.00     0.188 C 
ENDROOT
BRANCH   1   2
ATOM      2  O   UNL A   1      33.403  30.690  27.478  1.00  0.00    -0.376 OA
BRANCH   2   3
ATOM      3  C   UNL A   1      32.335  30.224  26.663  1.00  0.00     0.202 C 
BRANCH   3   4
ATOM      4  C   UNL A   1      32.668  29.336  25.472  1.00  0.00     0.261 C 
BRANCH   4   5
ATOM      5  O   UNL A   1      31.715  29.612  24.440  1.00  0.00    -0.463 OA
BRANCH   5   6
ATOM      6  C   UNL A   1      31.880  28.935  23.273  1.00  0.00     0.311 C 
ATOM      7  O   UNL A   1      30.944  28.565  22.575  1.00  0.00    -0.252 OA
BRANCH   6   8
ATOM      8  C   UNL A   1      33.317  28.461  23.098  1.00  0.00     0.184 C 
BRANCH   8   9
ATOM      9  C   UNL A   1      33.538  27.039  22.552  1.00  0.00     0.272 C 
BRANCH   9  10
ATOM     10  N   UNL A   1      32.874  26.826  21.262  1.00  0.00    -0.344 N 
ATOM     11  H   UNL A   1      33.575  26.954  20.532  1.00  0.00     0.346 HD
ATOM     12  H   UNL A   1      32.105  27.495  21.252  1.00  0.00     0.346 HD
BRANCH  10  13
ATOM     13  C   UNL A   1      32.237  25.524  21.036  1.00  0.00     0.294 C 
BRANCH  13  14
ATOM     14  C   UNL A   1      33.015  24.218  21.362  1.00  0.00     0.189 C 
BRANCH  14  15
ATOM     15  C   UNL A   1      32.224  23.431  22.410  1.00  0.00     0.160 C 
BRANCH  15  16
ATOM     16  N   UNL A   1      32.461  23.760  23.803  1.00  0.00    -0.338 N 
ATOM     17  C   UNL A   1      33.424  23.135  24.579  1.00  0.00     0.049 A 
ATOM     18  C   UNL A   1      31.736  24.660  24.559  1.00  0.00     0.049 A 
ATOM     19  C   UNL A   1      34.307  22.077  24.292  1.00  0.00     0.027 A 
ATOM     20  C   UNL A   1      33.401  23.755  25.827  1.00  0.00     0.007 A 
ATOM     21  C   UNL A   1      32.379  24.752  25.796  1.00  0.00     0.007 A 
ATOM     22  C   UNL A   1      30.583  25.410  24.273  1.00  0.00     0.027 A 
ATOM     23  C   UNL A   1      35.155  21.627  25.306  1.00  0.00     0.002 A 
ATOM     24  C   UNL A   1      34.286  23.298  26.828  1.00  0.00     0.011 A 
ATOM     25  C   UNL A   1      31.911  25.690  26.742  1.00  0.00     0.011 A 
ATOM     26  C   UNL A   1      30.112  26.294  25.247  1.00  0.00     0.002 A 
ATOM     27  C   UNL A   1      35.144  22.225  26.560  1.00  0.00     0.001 A 
ATOM     28  C   UNL A   1      30.783  26.460  26.453  1.00  0.00     0.001 A 
ENDBRANCH  15  16
ENDBRANCH  14  15
BRANCH  14  29
ATOM     29  O   UNL A   1      33.255  23.431  20.197  1.00  0.00    -0.385 OA
ATOM     30  H   UNL A   1      33.212  22.491  20.429  1.00  0.00     0.211 HD
ENDBRANCH  14  29
ENDBRANCH  13  14
ENDBRANCH  10  13
ENDBRANCH   9  10
ENDBRANCH   8   9
ENDBRANCH   6   8
ENDBRANCH   5   6
ENDBRANCH   4   5
ENDBRANCH   3   4
ENDBRANCH   2   3
ENDBRANCH   1   2
BRANCH   1  31
ATOM     31  C   UNL A   1      35.120  32.524  28.007  1.00  0.00     0.188 C 
BRANCH  31  32
ATOM     32  O   UNL A   1      35.294  33.903  27.760  1.00  0.00    -0.377 OA
BRANCH  32  33
ATOM     33  C   UNL A   1      34.173  34.693  28.101  1.00  0.00     0.188 C 
BRANCH  33  34
ATOM     34  C   UNL A   1      34.094  35.055  29.600  1.00  0.00     0.188 C 
BRANCH  34  35
ATOM     35  O   UNL A   1      34.935  34.397  30.544  1.00  0.00    -0.376 OA
BRANCH  35  36
ATOM     36  C   UNL A   1      34.324  33.709  31.623  1.00  0.00     0.202 C 
BRANCH  36  37
ATOM     37  C   UNL A   1      35.145  32.577  32.269  1.00  0.00     0.261 C 
BRANCH  37  38
ATOM     38  O   UNL A   1      36.524  32.925  32.476  1.00  0.00    -0.460 OA
BRANCH  38  39
ATOM     39  C   UNL A   1      37.199  32.284  33.473  1.00  0.00     0.338 C 
ATOM     40  O   UNL A   1      36.903  32.221  34.632  1.00  0.00    -0.246 OA
BRANCH  39  41
ATOM     41  C   UNL A   1      38.196  31.396  32.801  1.00  0.00     0.060 A 
ATOM     42  C   UNL A   1      37.933  30.052  32.522  1.00  0.00     0.016 A 
ATOM     43  C   UNL A   1      39.508  31.887  32.710  1.00  0.00     0.016 A 
ATOM     44  C   UNL A   1      39.000  29.186  32.277  1.00  0.00     0.010 A 
ATOM     45  C   UNL A   1      40.574  31.016  32.468  1.00  0.00     0.010 A 
ATOM     46  C   UNL A   1      40.331  29.652  32.291  1.00  0.00    -0.014 A 
BRANCH  46  47
ATOM     47  C   UNL A   1      41.386  28.695  31.903  1.00  0.00     0.031 A 
ATOM     48  C   UNL A   1      42.066  28.069  33.076  1.00  0.00     0.074 A 
ATOM     49  C   UNL A   1      41.663  28.201  30.674  1.00  0.00     0.049 A 
ATOM     50  N   UNL A   1      43.323  28.043  33.386  1.00  0.00    -0.248 NA
ATOM     51  C   UNL A   1      41.180  27.453  34.079  1.00  0.00     0.031 C 
ATOM     52  C   UNL A   1      40.870  28.339  29.452  1.00  0.00     0.029 A 
ATOM     53  N   UNL A   1      42.686  27.370  30.288  1.00  0.00    -0.354 N 
ATOM     54  C   UNL A   1      43.401  27.263  34.541  1.00  0.00     0.074 A 
ATOM     55  C   UNL A   1      42.054  27.041  34.991  1.00  0.00     0.031 C 
ATOM     56  C   UNL A   1      41.334  27.474  28.521  1.00  0.00     0.029 A 
ATOM     57  C   UNL A   1      42.519  26.800  29.031  1.00  0.00     0.049 A 
ATOM     58  H   UNL A   1      43.474  27.193  30.853  1.00  0.00     0.167 HD
ATOM     59  C   UNL A   1      44.547  26.655  34.943  1.00  0.00     0.037 A 
ATOM     60  C   UNL A   1      43.253  25.806  28.464  1.00  0.00     0.037 A 
ATOM     61  C   UNL A   1      45.718  27.283  34.407  1.00  0.00     0.049 A 
ATOM     62  C   UNL A   1      44.520  25.660  29.227  1.00  0.00     0.074 A 
ATOM     63  C   UNL A   1      46.283  28.539  34.485  1.00  0.00     0.029 A 
ATOM     64  N   UNL A   1      46.406  26.616  33.430  1.00  0.00    -0.354 N 
ATOM     65  N   UNL A   1      45.516  26.503  29.233  1.00  0.00    -0.248 NA
ATOM     66  C   UNL A   1      44.561  24.631  30.256  1.00  0.00     0.031 C 
ATOM     67  C   UNL A   1      46.991  28.707  33.264  1.00  0.00     0.029 A 
ATOM     68  C   UNL A   1      46.810  27.544  32.513  1.00  0.00     0.049 A 
ATOM     69  H   UNL A   1      46.578  25.648  33.393  1.00  0.00     0.167 HD
ATOM     70  C   UNL A   1      46.120  26.331  30.471  1.00  0.00     0.074 A 
ATOM     71  C   UNL A   1      45.558  25.099  31.006  1.00  0.00     0.031 C 
ATOM     72  C   UNL A   1      46.826  27.323  31.083  1.00  0.00     0.037 A 
BRANCH  59  73
ATOM     73  C   UNL A   1      44.579  25.261  35.523  1.00  0.00     0.057 A 
ATOM     74  C   UNL A   1      44.231  24.105  34.794  1.00  0.00     0.134 A 
ATOM     75  C   UNL A   1      45.273  25.027  36.723  1.00  0.00     0.134 A 
ATOM     76  F   UNL A   1      43.652  24.164  33.589  1.00  0.00    -0.206 F 
ATOM     77  C   UNL A   1      44.559  22.815  35.218  1.00  0.00     0.040 A 
ATOM     78  C   UNL A   1      45.657  23.743  37.127  1.00  0.00     0.040 A 
ATOM     79  F   UNL A   1      45.685  26.047  37.492  1.00  0.00    -0.206 F 
ATOM     80  C   UNL A   1      45.305  22.632  36.371  1.00  0.00     0.006 A 
ENDBRANCH  59  73
BRANCH  60  81
ATOM     81  C   UNL A   1      42.859  24.815  27.424  1.00  0.00     0.057 A 
ATOM     82  C   UNL A   1      42.178  23.626  27.744  1.00  0.00     0.134 A 
ATOM     83  C   UNL A   1      43.338  24.898  26.105  1.00  0.00     0.134 A 
ATOM     84  F   UNL A   1      41.767  23.381  28.995  1.00  0.00    -0.206 F 
ATOM     85  C   UNL A   1      41.960  22.603  26.811  1.00  0.00     0.040 A 
ATOM     86  C   UNL A   1      43.144  23.872  25.166  1.00  0.00     0.040 A 
ATOM     87  F   UNL A   1      44.051  25.961  25.707  1.00  0.00    -0.206 F 
ATOM     88  C   UNL A   1      42.450  22.720  25.518  1.00  0.00     0.006 A 
ENDBRANCH  60  81
BRANCH  72  89
ATOM     89  C   UNL A   1      47.422  28.436  30.282  1.00  0.00     0.057 A 
ATOM     90  C   UNL A   1      48.808  28.380  30.056  1.00  0.00     0.134 A 
ATOM     91  C   UNL A   1      46.764  29.626  29.960  1.00  0.00     0.134 A 
ATOM     92  F   UNL A   1      49.500  27.273  30.374  1.00  0.00    -0.206 F 
ATOM     93  C   UNL A   1      49.518  29.466  29.548  1.00  0.00     0.040 A 
ATOM     94  C   UNL A   1      47.469  30.715  29.436  1.00  0.00     0.040 A 
ATOM     95  F   UNL A   1      45.455  29.790  30.206  1.00  0.00    -0.206 F 
ATOM     96  C   UNL A   1      48.846  30.639  29.232  1.00  0.00     0.006 A 
ENDBRANCH  72  89
ENDBRANCH  46  47
ENDBRANCH  39  41
ENDBRANCH  38  39
ENDBRANCH  37  38
ENDBRANCH  36  37
ENDBRANCH  35  36
ENDBRANCH  34  35
ENDBRANCH  33  34
ENDBRANCH  32  33
ENDBRANCH  31  32
ENDBRANCH   1  31
TORSDOF 27
ENDMDL
