MODEL 1
REMARK VINA RESULT:     -10.3      0.000      0.000
REMARK SMILES C[C@@H](C(=O)OCCOCCOCCOCCOC(=O)c1ccc(-c2c3nc(c(-c4c(F)cccc4F)c4ccc([nH]4)c(-c4c(F)cccc4F)c4nc(c(-c5c(F)cccc5F)c5ccc2[nH]5)C=C4)C=C3)cc1)c1ccc(-c2ccn(C(F)F)c(=O)c2)cc1
REMARK SMILES IDX 10 1 9 2 8 3 7 4 6 5 5 6 3 7 4 8 2 9 1 10 74 11 75 12 89 13
REMARK SMILES IDX 76 14 88 15 77 16 78 17 79 18 87 19 80 20 85 21 81 22 86 23
REMARK SMILES IDX 82 24 83 25 84 26 11 27 12 28 13 29 14 30 15 31 16 32 17 33
REMARK SMILES IDX 18 34 19 35 20 36 21 37 73 38 22 39 72 40 23 41 24 42 25 43
REMARK SMILES IDX 66 44 26 45 71 46 65 47 67 48 27 49 70 50 64 51 63 52 28 54
REMARK SMILES IDX 54 55 37 56 53 57 38 58 41 59 52 60 68 61 39 62 40 63 51 65
REMARK SMILES IDX 69 66 42 67 29 68 30 69 35 70 31 71 32 72 34 73 36 74 33 75
REMARK SMILES IDX 55 76 56 77 61 78 57 79 58 80 60 81 62 82 59 83 43 84 44 85
REMARK SMILES IDX 49 86 45 87 46 88 48 89 50 90 47 91
REMARK H PARENT 67 53 41 64
REMARK Flexibility Score: inf
ROOT
ATOM      1  C   UNL A   1      33.676  23.219  25.765  1.00  0.00     0.188 C 
ENDROOT
BRANCH   1   2
ATOM      2  C   UNL A   1      33.694  23.695  24.302  1.00  0.00     0.188 C 
BRANCH   2   3
ATOM      3  O   UNL A   1      32.467  23.642  23.613  1.00  0.00    -0.376 OA
BRANCH   3   4
ATOM      4  C   UNL A   1      31.973  24.794  22.952  1.00  0.00     0.202 C 
BRANCH   4   5
ATOM      5  C   UNL A   1      32.729  26.126  22.715  1.00  0.00     0.261 C 
BRANCH   5   6
ATOM      6  O   UNL A   1      32.411  27.284  23.501  1.00  0.00    -0.463 OA
BRANCH   6   7
ATOM      7  C   UNL A   1      33.448  27.948  24.076  1.00  0.00     0.313 C 
ATOM      8  O   UNL A   1      34.261  28.611  23.439  1.00  0.00    -0.252 OA
BRANCH   7   9
ATOM      9  C   UNL A   1      33.522  27.788  25.610  1.00  0.00     0.126 C 
ATOM     10  C   UNL A   1      32.487  26.894  26.305  1.00  0.00     0.025 C 
BRANCH   9  11
ATOM     11  C   UNL A   1      33.665  29.138  26.314  1.00  0.00    -0.034 A 
ATOM     12  C   UNL A   1      34.831  29.512  26.998  1.00  0.00     0.005 A 
ATOM     13  C   UNL A   1      32.595  30.035  26.326  1.00  0.00     0.005 A 
ATOM     14  C   UNL A   1      34.903  30.677  27.760  1.00  0.00     0.009 A 
ATOM     15  C   UNL A   1      32.670  31.223  27.062  1.00  0.00     0.009 A 
ATOM     16  C   UNL A   1      33.813  31.541  27.808  1.00  0.00    -0.018 A 
BRANCH  16  17
ATOM     17  C   UNL A   1      33.851  32.758  28.637  1.00  0.00    -0.011 A 
ATOM     18  C   UNL A   1      34.573  32.816  29.893  1.00  0.00     0.027 A 
ATOM     19  C   UNL A   1      33.170  33.842  28.225  1.00  0.00     0.080 A 
ATOM     20  C   UNL A   1      34.481  33.893  30.680  1.00  0.00     0.095 A 
ATOM     21  C   UNL A   1      33.087  35.062  29.073  1.00  0.00     0.255 A 
ATOM     22  N   UNL A   1      33.730  34.989  30.297  1.00  0.00    -0.258 N 
ATOM     23  O   UNL A   1      32.449  36.021  28.655  1.00  0.00    -0.269 OA
BRANCH  22  24
ATOM     24  C   UNL A   1      33.552  36.100  31.193  1.00  0.00     0.451 C 
ATOM     25  F   UNL A   1      32.267  36.527  31.209  1.00  0.00    -0.185 F 
ATOM     26  F   UNL A   1      33.896  35.752  32.459  1.00  0.00    -0.185 F 
ENDBRANCH  22  24
ENDBRANCH  16  17
ENDBRANCH   9  11
ENDBRANCH   7   9
ENDBRANCH   6   7
ENDBRANCH   5   6
ENDBRANCH   4   5
ENDBRANCH   3   4
ENDBRANCH   2   3
ENDBRANCH   1   2
BRANCH   1  27
ATOM     27  O   UNL A   1      34.935  22.848  26.282  1.00  0.00    -0.377 OA
BRANCH  27  28
ATOM     28  C   UNL A   1      35.981  22.610  25.353  1.00  0.00     0.188 C 
BRANCH  28  29
ATOM     29  C   UNL A   1      36.462  21.173  25.055  1.00  0.00     0.188 C 
BRANCH  29  30
ATOM     30  O   UNL A   1      37.866  20.973  25.159  1.00  0.00    -0.376 OA
BRANCH  30  31
ATOM     31  C   UNL A   1      38.387  19.662  24.996  1.00  0.00     0.202 C 
BRANCH  31  32
ATOM     32  C   UNL A   1      39.483  19.216  25.975  1.00  0.00     0.261 C 
BRANCH  32  33
ATOM     33  O   UNL A   1      40.838  19.387  25.533  1.00  0.00    -0.460 OA
BRANCH  33  34
ATOM     34  C   UNL A   1      41.789  19.591  26.474  1.00  0.00     0.338 C 
ATOM     35  O   UNL A   1      42.608  18.800  26.879  1.00  0.00    -0.246 OA
BRANCH  34  36
ATOM     36  C   UNL A   1      41.791  21.040  26.781  1.00  0.00     0.060 A 
ATOM     37  C   UNL A   1      41.669  21.955  25.727  1.00  0.00     0.016 A 
ATOM     38  C   UNL A   1      41.886  21.486  28.101  1.00  0.00     0.016 A 
ATOM     39  C   UNL A   1      41.671  23.325  25.988  1.00  0.00     0.010 A 
ATOM     40  C   UNL A   1      41.918  22.859  28.358  1.00  0.00     0.010 A 
ATOM     41  C   UNL A   1      41.846  23.782  27.300  1.00  0.00    -0.014 A 
BRANCH  41  42
ATOM     42  C   UNL A   1      42.184  25.205  27.538  1.00  0.00     0.031 A 
ATOM     43  C   UNL A   1      43.494  25.717  27.005  1.00  0.00     0.074 A 
ATOM     44  C   UNL A   1      41.345  26.030  28.187  1.00  0.00     0.049 A 
ATOM     45  N   UNL A   1      44.039  26.899  27.129  1.00  0.00    -0.248 NA
ATOM     46  C   UNL A   1      44.298  24.760  26.226  1.00  0.00     0.031 C 
ATOM     47  C   UNL A   1      40.028  25.667  28.705  1.00  0.00     0.029 A 
ATOM     48  N   UNL A   1      41.490  27.352  28.529  1.00  0.00    -0.354 N 
ATOM     49  C   UNL A   1      45.253  26.823  26.456  1.00  0.00     0.074 A 
ATOM     50  C   UNL A   1      45.378  25.474  25.951  1.00  0.00     0.031 C 
ATOM     51  C   UNL A   1      39.488  26.740  29.309  1.00  0.00     0.029 A 
ATOM     52  C   UNL A   1      40.436  27.851  29.254  1.00  0.00     0.049 A 
ATOM     53  H   UNL A   1      42.275  27.890  28.278  1.00  0.00     0.167 HD
ATOM     54  C   UNL A   1      46.178  27.794  26.271  1.00  0.00     0.037 A 
ATOM     55  C   UNL A   1      40.273  29.061  29.826  1.00  0.00     0.037 A 
ATOM     56  C   UNL A   1      46.049  29.134  26.778  1.00  0.00     0.049 A 
ATOM     57  C   UNL A   1      41.357  30.099  29.679  1.00  0.00     0.074 A 
ATOM     58  C   UNL A   1      46.922  30.197  26.629  1.00  0.00     0.029 A 
ATOM     59  N   UNL A   1      44.986  29.591  27.541  1.00  0.00    -0.354 N 
ATOM     60  N   UNL A   1      42.491  30.030  29.021  1.00  0.00    -0.248 NA
ATOM     61  C   UNL A   1      41.139  31.387  30.357  1.00  0.00     0.031 C 
ATOM     62  C   UNL A   1      46.416  31.279  27.355  1.00  0.00     0.029 A 
ATOM     63  C   UNL A   1      45.196  30.912  27.899  1.00  0.00     0.049 A 
ATOM     64  H   UNL A   1      44.199  29.055  27.791  1.00  0.00     0.167 HD
ATOM     65  C   UNL A   1      43.099  31.271  29.174  1.00  0.00     0.074 A 
ATOM     66  C   UNL A   1      42.206  32.077  29.978  1.00  0.00     0.031 C 
ATOM     67  C   UNL A   1      44.289  31.705  28.690  1.00  0.00     0.037 A 
BRANCH  54  68
ATOM     68  C   UNL A   1      47.426  27.428  25.523  1.00  0.00     0.057 A 
ATOM     69  C   UNL A   1      48.559  26.913  26.169  1.00  0.00     0.134 A 
ATOM     70  C   UNL A   1      47.485  27.568  24.131  1.00  0.00     0.134 A 
ATOM     71  F   UNL A   1      48.576  26.771  27.503  1.00  0.00    -0.206 F 
ATOM     72  C   UNL A   1      49.712  26.574  25.458  1.00  0.00     0.040 A 
ATOM     73  C   UNL A   1      48.621  27.203  23.407  1.00  0.00     0.040 A 
ATOM     74  F   UNL A   1      46.436  28.054  23.449  1.00  0.00    -0.206 F 
ATOM     75  C   UNL A   1      49.741  26.711  24.072  1.00  0.00     0.006 A 
ENDBRANCH  54  68
BRANCH  55  76
ATOM     76  C   UNL A   1      39.045  29.363  30.608  1.00  0.00     0.057 A 
ATOM     77  C   UNL A   1      37.912  29.912  29.996  1.00  0.00     0.134 A 
ATOM     78  C   UNL A   1      38.988  29.146  31.990  1.00  0.00     0.134 A 
ATOM     79  F   UNL A   1      37.912  30.168  28.680  1.00  0.00    -0.206 F 
ATOM     80  C   UNL A   1      36.777  30.258  30.733  1.00  0.00     0.040 A 
ATOM     81  C   UNL A   1      37.849  29.460  32.734  1.00  0.00     0.040 A 
ATOM     82  F   UNL A   1      40.040  28.624  32.639  1.00  0.00    -0.206 F 
ATOM     83  C   UNL A   1      36.742  30.026  32.106  1.00  0.00     0.006 A 
ENDBRANCH  55  76
BRANCH  67  84
ATOM     84  C   UNL A   1      44.674  33.131  28.971  1.00  0.00     0.057 A 
ATOM     85  C   UNL A   1      45.400  33.498  30.111  1.00  0.00     0.134 A 
ATOM     86  C   UNL A   1      44.351  34.145  28.058  1.00  0.00     0.134 A 
ATOM     87  F   UNL A   1      45.733  32.578  31.029  1.00  0.00    -0.206 F 
ATOM     88  C   UNL A   1      45.767  34.824  30.348  1.00  0.00     0.040 A 
ATOM     89  C   UNL A   1      44.741  35.469  28.267  1.00  0.00     0.040 A 
ATOM     90  F   UNL A   1      43.669  33.863  26.939  1.00  0.00    -0.206 F 
ATOM     91  C   UNL A   1      45.445  35.812  29.420  1.00  0.00     0.006 A 
ENDBRANCH  67  84
ENDBRANCH  41  42
ENDBRANCH  34  36
ENDBRANCH  33  34
ENDBRANCH  32  33
ENDBRANCH  31  32
ENDBRANCH  30  31
ENDBRANCH  29  30
ENDBRANCH  28  29
ENDBRANCH  27  28
ENDBRANCH   1  27
TORSDOF 23
ENDMDL
MODEL 2
REMARK VINA RESULT:     -10.2      3.964     11.033
REMARK SMILES C[C@@H](C(=O)OCCOCCOCCOCCOC(=O)c1ccc(-c2c3nc(c(-c4c(F)cccc4F)c4ccc([nH]4)c(-c4c(F)cccc4F)c4nc(c(-c5c(F)cccc5F)c5ccc2[nH]5)C=C4)C=C3)cc1)c1ccc(-c2ccn(C(F)F)c(=O)c2)cc1
REMARK SMILES IDX 10 1 9 2 8 3 7 4 6 5 5 6 3 7 4 8 2 9 1 10 74 11 75 12 89 13
REMARK SMILES IDX 76 14 88 15 77 16 78 17 79 18 87 19 80 20 85 21 81 22 86 23
REMARK SMILES IDX 82 24 83 25 84 26 11 27 12 28 13 29 14 30 15 31 16 32 17 33
REMARK SMILES IDX 18 34 19 35 20 36 21 37 73 38 22 39 72 40 23 41 24 42 25 43
REMARK SMILES IDX 66 44 26 45 71 46 65 47 67 48 27 49 70 50 64 51 63 52 28 54
REMARK SMILES IDX 54 55 37 56 53 57 38 58 41 59 52 60 68 61 39 62 40 63 51 65
REMARK SMILES IDX 69 66 42 67 29 68 30 69 35 70 31 71 32 72 34 73 36 74 33 75
REMARK SMILES IDX 55 76 56 77 61 78 57 79 58 80 60 81 62 82 59 83 43 84 44 85
REMARK SMILES IDX 49 86 45 87 46 88 48 89 50 90 47 91
REMARK H PARENT 67 53 41 64
REMARK Flexibility Score: inf
ROOT
ATOM      1  C   UNL A   1      30.849  29.122  23.868  1.00  0.00     0.188 C 
ENDROOT
BRANCH   1   2
ATOM      2  C   UNL A   1      31.236  27.989  22.903  1.00  0.00     0.188 C 
BRANCH   2   3
ATOM      3  O   UNL A   1      30.271  26.983  22.700  1.00  0.00    -0.376 OA
BRANCH   3   4
ATOM      4  C   UNL A   1      29.562  26.447  23.804  1.00  0.00     0.202 C 
BRANCH   4   5
ATOM      5  C   UNL A   1      30.072  25.385  24.810  1.00  0.00     0.261 C 
BRANCH   5   6
ATOM      6  O   UNL A   1      31.434  25.415  25.261  1.00  0.00    -0.463 OA
BRANCH   6   7
ATOM      7  C   UNL A   1      32.226  24.365  24.913  1.00  0.00     0.313 C 
ATOM      8  O   UNL A   1      32.071  23.230  25.352  1.00  0.00    -0.252 OA
BRANCH   7   9
ATOM      9  C   UNL A   1      33.347  24.729  23.917  1.00  0.00     0.126 C 
ATOM     10  C   UNL A   1      33.079  24.560  22.416  1.00  0.00     0.025 C 
BRANCH   9  11
ATOM     11  C   UNL A   1      34.687  24.114  24.324  1.00  0.00    -0.034 A 
ATOM     12  C   UNL A   1      35.421  23.273  23.474  1.00  0.00     0.005 A 
ATOM     13  C   UNL A   1      35.205  24.352  25.599  1.00  0.00     0.005 A 
ATOM     14  C   UNL A   1      36.563  22.599  23.902  1.00  0.00     0.009 A 
ATOM     15  C   UNL A   1      36.370  23.705  26.026  1.00  0.00     0.009 A 
ATOM     16  C   UNL A   1      37.044  22.802  25.192  1.00  0.00    -0.018 A 
BRANCH  16  17
ATOM     17  C   UNL A   1      38.228  22.074  25.680  1.00  0.00    -0.011 A 
ATOM     18  C   UNL A   1      39.276  22.725  26.441  1.00  0.00     0.027 A 
ATOM     19  C   UNL A   1      38.350  20.767  25.386  1.00  0.00     0.080 A 
ATOM     20  C   UNL A   1      40.395  22.064  26.759  1.00  0.00     0.095 A 
ATOM     21  C   UNL A   1      39.572  20.009  25.763  1.00  0.00     0.255 A 
ATOM     22  N   UNL A   1      40.560  20.738  26.404  1.00  0.00    -0.258 N 
ATOM     23  O   UNL A   1      39.637  18.821  25.466  1.00  0.00    -0.269 OA
BRANCH  22  24
ATOM     24  C   UNL A   1      41.806  20.065  26.658  1.00  0.00     0.451 C 
ATOM     25  F   UNL A   1      42.725  20.344  25.704  1.00  0.00    -0.185 F 
ATOM     26  F   UNL A   1      42.316  20.441  27.857  1.00  0.00    -0.185 F 
ENDBRANCH  22  24
ENDBRANCH  16  17
ENDBRANCH   9  11
ENDBRANCH   7   9
ENDBRANCH   6   7
ENDBRANCH   5   6
ENDBRANCH   4   5
ENDBRANCH   3   4
ENDBRANCH   2   3
ENDBRANCH   1   2
BRANCH   1  27
ATOM     27  O   UNL A   1      31.416  29.021  25.156  1.00  0.00    -0.377 OA
BRANCH  27  28
ATOM     28  C   UNL A   1      31.903  30.214  25.753  1.00  0.00     0.188 C 
BRANCH  28  29
ATOM     29  C   UNL A   1      32.975  30.162  26.863  1.00  0.00     0.188 C 
BRANCH  29  30
ATOM     30  O   UNL A   1      33.196  31.389  27.547  1.00  0.00    -0.376 OA
BRANCH  30  31
ATOM     31  C   UNL A   1      32.248  32.436  27.401  1.00  0.00     0.202 C 
BRANCH  31  32
ATOM     32  C   UNL A   1      32.777  33.877  27.474  1.00  0.00     0.261 C 
BRANCH  32  33
ATOM     33  O   UNL A   1      32.418  34.627  28.643  1.00  0.00    -0.460 OA
BRANCH  33  34
ATOM     34  C   UNL A   1      33.401  35.285  29.299  1.00  0.00     0.338 C 
ATOM     35  O   UNL A   1      33.365  36.406  29.750  1.00  0.00    -0.246 OA
BRANCH  34  36
ATOM     36  C   UNL A   1      34.480  34.305  29.560  1.00  0.00     0.060 A 
ATOM     37  C   UNL A   1      34.213  33.212  30.395  1.00  0.00     0.016 A 
ATOM     38  C   UNL A   1      35.733  34.453  28.963  1.00  0.00     0.016 A 
ATOM     39  C   UNL A   1      35.212  32.276  30.660  1.00  0.00     0.010 A 
ATOM     40  C   UNL A   1      36.742  33.531  29.253  1.00  0.00     0.010 A 
ATOM     41  C   UNL A   1      36.495  32.460  30.129  1.00  0.00    -0.014 A 
BRANCH  41  42
ATOM     42  C   UNL A   1      37.628  31.672  30.670  1.00  0.00     0.031 A 
ATOM     43  C   UNL A   1      38.021  31.897  32.104  1.00  0.00     0.074 A 
ATOM     44  C   UNL A   1      38.277  30.764  29.920  1.00  0.00     0.049 A 
ATOM     45  N   UNL A   1      39.006  31.376  32.790  1.00  0.00    -0.248 NA
ATOM     46  C   UNL A   1      37.188  32.841  32.867  1.00  0.00     0.031 C 
ATOM     47  C   UNL A   1      37.958  30.420  28.537  1.00  0.00     0.029 A 
ATOM     48  N   UNL A   1      39.355  29.971  30.226  1.00  0.00    -0.354 N 
ATOM     49  C   UNL A   1      38.918  31.938  34.057  1.00  0.00     0.074 A 
ATOM     50  C   UNL A   1      37.804  32.860  34.039  1.00  0.00     0.031 C 
ATOM     51  C   UNL A   1      38.829  29.491  28.109  1.00  0.00     0.029 A 
ATOM     52  C   UNL A   1      39.789  29.203  29.173  1.00  0.00     0.049 A 
ATOM     53  H   UNL A   1      39.777  29.954  31.116  1.00  0.00     0.167 HD
ATOM     54  C   UNL A   1      39.692  31.702  35.142  1.00  0.00     0.037 A 
ATOM     55  C   UNL A   1      40.855  28.383  29.080  1.00  0.00     0.037 A 
ATOM     56  C   UNL A   1      40.801  30.785  35.154  1.00  0.00     0.049 A 
ATOM     57  C   UNL A   1      41.755  28.203  30.277  1.00  0.00     0.074 A 
ATOM     58  C   UNL A   1      41.637  30.461  36.206  1.00  0.00     0.029 A 
ATOM     59  N   UNL A   1      41.233  30.055  34.057  1.00  0.00    -0.354 N 
ATOM     60  N   UNL A   1      41.652  28.718  31.479  1.00  0.00    -0.248 NA
ATOM     61  C   UNL A   1      42.923  27.326  30.102  1.00  0.00     0.031 C 
ATOM     62  C   UNL A   1      42.614  29.582  35.730  1.00  0.00     0.029 A 
ATOM     63  C   UNL A   1      42.346  29.306  34.400  1.00  0.00     0.049 A 
ATOM     64  H   UNL A   1      40.811  30.069  33.168  1.00  0.00     0.167 HD
ATOM     65  C   UNL A   1      42.715  28.200  32.211  1.00  0.00     0.074 A 
ATOM     66  C   UNL A   1      43.444  27.322  31.320  1.00  0.00     0.031 C 
ATOM     67  C   UNL A   1      43.055  28.426  33.504  1.00  0.00     0.037 A 
BRANCH  54  68
ATOM     68  C   UNL A   1      39.391  32.478  36.390  1.00  0.00     0.057 A 
ATOM     69  C   UNL A   1      38.453  32.038  37.333  1.00  0.00     0.134 A 
ATOM     70  C   UNL A   1      40.071  33.671  36.664  1.00  0.00     0.134 A 
ATOM     71  F   UNL A   1      37.752  30.913  37.123  1.00  0.00    -0.206 F 
ATOM     72  C   UNL A   1      38.185  32.770  38.492  1.00  0.00     0.040 A 
ATOM     73  C   UNL A   1      39.835  34.395  37.834  1.00  0.00     0.040 A 
ATOM     74  F   UNL A   1      40.984  34.150  35.804  1.00  0.00    -0.206 F 
ATOM     75  C   UNL A   1      38.885  33.948  38.749  1.00  0.00     0.006 A 
ENDBRANCH  54  68
BRANCH  55  76
ATOM     76  C   UNL A   1      41.150  27.678  27.805  1.00  0.00     0.057 A 
ATOM     77  C   UNL A   1      41.909  28.286  26.799  1.00  0.00     0.134 A 
ATOM     78  C   UNL A   1      40.647  26.397  27.546  1.00  0.00     0.134 A 
ATOM     79  F   UNL A   1      42.397  29.523  26.974  1.00  0.00    -0.206 F 
ATOM     80  C   UNL A   1      42.138  27.658  25.572  1.00  0.00     0.040 A 
ATOM     81  C   UNL A   1      40.892  25.745  26.336  1.00  0.00     0.040 A 
ATOM     82  F   UNL A   1      39.910  25.759  28.467  1.00  0.00    -0.206 F 
ATOM     83  C   UNL A   1      41.633  26.380  25.341  1.00  0.00     0.006 A 
ENDBRANCH  55  76
BRANCH  67  84
ATOM     84  C   UNL A   1      44.237  27.678  34.053  1.00  0.00     0.057 A 
ATOM     85  C   UNL A   1      45.535  28.202  34.016  1.00  0.00     0.134 A 
ATOM     86  C   UNL A   1      44.062  26.430  34.669  1.00  0.00     0.134 A 
ATOM     87  F   UNL A   1      45.773  29.387  33.433  1.00  0.00    -0.206 F 
ATOM     88  C   UNL A   1      46.620  27.503  34.549  1.00  0.00     0.040 A 
ATOM     89  C   UNL A   1      45.134  25.737  35.234  1.00  0.00     0.040 A 
ATOM     90  F   UNL A   1      42.845  25.875  34.750  1.00  0.00    -0.206 F 
ATOM     91  C   UNL A   1      46.419  26.271  35.167  1.00  0.00     0.006 A 
ENDBRANCH  67  84
ENDBRANCH  41  42
ENDBRANCH  34  36
ENDBRANCH  33  34
ENDBRANCH  32  33
ENDBRANCH  31  32
ENDBRANCH  30  31
ENDBRANCH  29  30
ENDBRANCH  28  29
ENDBRANCH  27  28
ENDBRANCH   1  27
TORSDOF 23
ENDMDL
MODEL 3
REMARK VINA RESULT:     -10.1      3.634      9.600
REMARK SMILES C[C@@H](C(=O)OCCOCCOCCOCCOC(=O)c1ccc(-c2c3nc(c(-c4c(F)cccc4F)c4ccc([nH]4)c(-c4c(F)cccc4F)c4nc(c(-c5c(F)cccc5F)c5ccc2[nH]5)C=C4)C=C3)cc1)c1ccc(-c2ccn(C(F)F)c(=O)c2)cc1
REMARK SMILES IDX 10 1 9 2 8 3 7 4 6 5 5 6 3 7 4 8 2 9 1 10 74 11 75 12 89 13
REMARK SMILES IDX 76 14 88 15 77 16 78 17 79 18 87 19 80 20 85 21 81 22 86 23
REMARK SMILES IDX 82 24 83 25 84 26 11 27 12 28 13 29 14 30 15 31 16 32 17 33
REMARK SMILES IDX 18 34 19 35 20 36 21 37 73 38 22 39 72 40 23 41 24 42 25 43
REMARK SMILES IDX 66 44 26 45 71 46 65 47 67 48 27 49 70 50 64 51 63 52 28 54
REMARK SMILES IDX 54 55 37 56 53 57 38 58 41 59 52 60 68 61 39 62 40 63 51 65
REMARK SMILES IDX 69 66 42 67 29 68 30 69 35 70 31 71 32 72 34 73 36 74 33 75
REMARK SMILES IDX 55 76 56 77 61 78 57 79 58 80 60 81 62 82 59 83 43 84 44 85
REMARK SMILES IDX 49 86 45 87 46 88 48 89 50 90 47 91
REMARK H PARENT 67 53 41 64
REMARK Flexibility Score: inf
ROOT
ATOM      1  C   UNL A   1      33.206  24.777  22.749  1.00  0.00     0.188 C 
ENDROOT
BRANCH   1   2
ATOM      2  C   UNL A   1      33.288  23.342  22.199  1.00  0.00     0.188 C 
BRANCH   2   3
ATOM      3  O   UNL A   1      32.201  22.496  22.495  1.00  0.00    -0.376 OA
BRANCH   3   4
ATOM      4  C   UNL A   1      32.346  21.465  23.456  1.00  0.00     0.202 C 
BRANCH   4   5
ATOM      5  C   UNL A   1      33.023  21.577  24.845  1.00  0.00     0.261 C 
BRANCH   5   6
ATOM      6  O   UNL A   1      34.338  22.139  24.962  1.00  0.00    -0.463 OA
BRANCH   6   7
ATOM      7  C   UNL A   1      34.832  22.306  26.218  1.00  0.00     0.313 C 
ATOM      8  O   UNL A   1      34.433  21.670  27.189  1.00  0.00    -0.252 OA
BRANCH   7   9
ATOM      9  C   UNL A   1      35.939  23.377  26.320  1.00  0.00     0.126 C 
ATOM     10  C   UNL A   1      35.762  24.691  25.550  1.00  0.00     0.025 C 
BRANCH   9  11
ATOM     11  C   UNL A   1      37.329  22.777  26.101  1.00  0.00    -0.034 A 
ATOM     12  C   UNL A   1      37.528  21.561  25.430  1.00  0.00     0.005 A 
ATOM     13  C   UNL A   1      38.455  23.424  26.612  1.00  0.00     0.005 A 
ATOM     14  C   UNL A   1      38.778  20.947  25.363  1.00  0.00     0.009 A 
ATOM     15  C   UNL A   1      39.720  22.830  26.519  1.00  0.00     0.009 A 
ATOM     16  C   UNL A   1      39.888  21.575  25.920  1.00  0.00    -0.018 A 
BRANCH  16  17
ATOM     17  C   UNL A   1      41.212  20.929  25.895  1.00  0.00    -0.011 A 
ATOM     18  C   UNL A   1      42.436  21.683  25.703  1.00  0.00     0.027 A 
ATOM     19  C   UNL A   1      41.283  19.593  26.028  1.00  0.00     0.080 A 
ATOM     20  C   UNL A   1      43.606  21.053  25.558  1.00  0.00     0.095 A 
ATOM     21  C   UNL A   1      42.582  18.879  25.905  1.00  0.00     0.255 A 
ATOM     22  N   UNL A   1      43.682  19.674  25.628  1.00  0.00    -0.258 N 
ATOM     23  O   UNL A   1      42.592  17.660  26.029  1.00  0.00    -0.269 OA
BRANCH  22  24
ATOM     24  C   UNL A   1      44.925  18.998  25.370  1.00  0.00     0.451 C 
ATOM     25  F   UNL A   1      45.182  18.917  24.043  1.00  0.00    -0.185 F 
ATOM     26  F   UNL A   1      45.956  19.654  25.959  1.00  0.00    -0.185 F 
ENDBRANCH  22  24
ENDBRANCH  16  17
ENDBRANCH   9  11
ENDBRANCH   7   9
ENDBRANCH   6   7
ENDBRANCH   5   6
ENDBRANCH   4   5
ENDBRANCH   3   4
ENDBRANCH   2   3
ENDBRANCH   1   2
BRANCH   1  27
ATOM     27  O   UNL A   1      33.913  25.739  21.998  1.00  0.00    -0.377 OA
BRANCH  27  28
ATOM     28  C   UNL A   1      33.549  27.100  22.170  1.00  0.00     0.188 C 
BRANCH  28  29
ATOM     29  C   UNL A   1      32.192  27.483  22.801  1.00  0.00     0.188 C 
BRANCH  29  30
ATOM     30  O   UNL A   1      32.077  28.839  23.210  1.00  0.00    -0.376 OA
BRANCH  30  31
ATOM     31  C   UNL A   1      32.678  29.242  24.433  1.00  0.00     0.202 C 
BRANCH  31  32
ATOM     32  C   UNL A   1      31.809  30.049  25.410  1.00  0.00     0.261 C 
BRANCH  32  33
ATOM     33  O   UNL A   1      32.312  30.179  26.747  1.00  0.00    -0.460 OA
BRANCH  33  34
ATOM     34  C   UNL A   1      32.785  31.388  27.130  1.00  0.00     0.338 C 
ATOM     35  O   UNL A   1      32.176  32.430  27.198  1.00  0.00    -0.246 OA
BRANCH  34  36
ATOM     36  C   UNL A   1      34.150  31.172  27.660  1.00  0.00     0.060 A 
ATOM     37  C   UNL A   1      34.564  29.864  27.948  1.00  0.00     0.016 A 
ATOM     38  C   UNL A   1      35.020  32.248  27.845  1.00  0.00     0.016 A 
ATOM     39  C   UNL A   1      35.844  29.633  28.452  1.00  0.00     0.010 A 
ATOM     40  C   UNL A   1      36.290  32.019  28.377  1.00  0.00     0.010 A 
ATOM     41  C   UNL A   1      36.694  30.715  28.715  1.00  0.00    -0.014 A 
BRANCH  41  42
ATOM     42  C   UNL A   1      37.900  30.508  29.550  1.00  0.00     0.031 A 
ATOM     43  C   UNL A   1      39.034  29.713  28.964  1.00  0.00     0.074 A 
ATOM     44  C   UNL A   1      38.001  31.029  30.785  1.00  0.00     0.049 A 
ATOM     45  N   UNL A   1      40.166  29.349  29.510  1.00  0.00    -0.248 NA
ATOM     46  C   UNL A   1      38.865  29.267  27.571  1.00  0.00     0.031 C 
ATOM     47  C   UNL A   1      36.994  31.858  31.442  1.00  0.00     0.029 A 
ATOM     48  N   UNL A   1      39.008  30.923  31.712  1.00  0.00    -0.354 N 
ATOM     49  C   UNL A   1      40.835  28.622  28.534  1.00  0.00     0.074 A 
ATOM     50  C   UNL A   1      39.974  28.571  27.373  1.00  0.00     0.031 C 
ATOM     51  C   UNL A   1      37.430  32.179  32.672  1.00  0.00     0.029 A 
ATOM     52  C   UNL A   1      38.728  31.547  32.903  1.00  0.00     0.049 A 
ATOM     53  H   UNL A   1      39.852  30.446  31.538  1.00  0.00     0.167 HD
ATOM     54  C   UNL A   1      42.062  28.053  28.596  1.00  0.00     0.037 A 
ATOM     55  C   UNL A   1      39.432  31.578  34.052  1.00  0.00     0.037 A 
ATOM     56  C   UNL A   1      42.914  28.105  29.754  1.00  0.00     0.049 A 
ATOM     57  C   UNL A   1      40.757  30.862  34.125  1.00  0.00     0.074 A 
ATOM     58  C   UNL A   1      44.182  27.576  29.912  1.00  0.00     0.029 A 
ATOM     59  N   UNL A   1      42.578  28.712  30.954  1.00  0.00    -0.354 N 
ATOM     60  N   UNL A   1      41.396  30.198  33.191  1.00  0.00    -0.248 NA
ATOM     61  C   UNL A   1      41.461  30.900  35.417  1.00  0.00     0.031 C 
ATOM     62  C   UNL A   1      44.588  27.809  31.230  1.00  0.00     0.029 A 
ATOM     63  C   UNL A   1      43.603  28.542  31.870  1.00  0.00     0.049 A 
ATOM     64  H   UNL A   1      41.737  29.192  31.129  1.00  0.00     0.167 HD
ATOM     65  C   UNL A   1      42.588  29.774  33.768  1.00  0.00     0.074 A 
ATOM     66  C   UNL A   1      42.588  30.264  35.130  1.00  0.00     0.031 C 
ATOM     67  C   UNL A   1      43.593  29.047  33.220  1.00  0.00     0.037 A 
BRANCH  54  68
ATOM     68  C   UNL A   1      42.535  27.293  27.392  1.00  0.00     0.057 A 
ATOM     69  C   UNL A   1      43.229  27.912  26.344  1.00  0.00     0.134 A 
ATOM     70  C   UNL A   1      42.314  25.913  27.294  1.00  0.00     0.134 A 
ATOM     71  F   UNL A   1      43.457  29.234  26.366  1.00  0.00    -0.206 F 
ATOM     72  C   UNL A   1      43.665  27.190  25.231  1.00  0.00     0.040 A 
ATOM     73  C   UNL A   1      42.773  25.176  26.201  1.00  0.00     0.040 A 
ATOM     74  F   UNL A   1      41.656  25.257  28.262  1.00  0.00    -0.206 F 
ATOM     75  C   UNL A   1      43.445  25.815  25.163  1.00  0.00     0.006 A 
ENDBRANCH  54  68
BRANCH  55  76
ATOM     76  C   UNL A   1      38.899  32.295  35.240  1.00  0.00     0.057 A 
ATOM     77  C   UNL A   1      39.060  33.678  35.385  1.00  0.00     0.134 A 
ATOM     78  C   UNL A   1      38.251  31.611  36.276  1.00  0.00     0.134 A 
ATOM     79  F   UNL A   1      39.694  34.387  34.440  1.00  0.00    -0.206 F 
ATOM     80  C   UNL A   1      38.618  34.351  36.527  1.00  0.00     0.040 A 
ATOM     81  C   UNL A   1      37.779  32.276  37.409  1.00  0.00     0.040 A 
ATOM     82  F   UNL A   1      38.066  30.285  36.201  1.00  0.00    -0.206 F 
ATOM     83  C   UNL A   1      37.970  33.649  37.541  1.00  0.00     0.006 A 
ENDBRANCH  55  76
BRANCH  67  84
ATOM     84  C   UNL A   1      44.801  28.779  34.073  1.00  0.00     0.057 A 
ATOM     85  C   UNL A   1      44.934  27.611  34.834  1.00  0.00     0.134 A 
ATOM     86  C   UNL A   1      45.869  29.688  34.095  1.00  0.00     0.134 A 
ATOM     87  F   UNL A   1      43.946  26.704  34.865  1.00  0.00    -0.206 F 
ATOM     88  C   UNL A   1      46.072  27.367  35.605  1.00  0.00     0.040 A 
ATOM     89  C   UNL A   1      47.026  29.440  34.837  1.00  0.00     0.040 A 
ATOM     90  F   UNL A   1      45.814  30.821  33.381  1.00  0.00    -0.206 F 
ATOM     91  C   UNL A   1      47.125  28.280  35.601  1.00  0.00     0.006 A 
ENDBRANCH  67  84
ENDBRANCH  41  42
ENDBRANCH  34  36
ENDBRANCH  33  34
ENDBRANCH  32  33
ENDBRANCH  31  32
ENDBRANCH  30  31
ENDBRANCH  29  30
ENDBRANCH  28  29
ENDBRANCH  27  28
ENDBRANCH   1  27
TORSDOF 23
ENDMDL
