MODEL 1
REMARK VINA RESULT:     -10.9      0.000      0.000
REMARK SMILES Cc1cc(C)c2c(CCCC(=O)OCCOCCOCCOCCOC(=O)c3ccc(-c4c5nc(c(-c6c(F)cccc6F)c6ccc([nH]6)c(-c6c(F)cccc6F)c6nc(c(-c7c(F)cccc7F)c7ccc4[nH]7)C=C6)C=C5)cc3)c(-c3ccccn3)[nH]c2c1
REMARK SMILES IDX 18 1 17 2 16 3 15 4 14 5 13 6 11 7 12 8 10 9 9 10 8 11 7 12
REMARK SMILES IDX 1 13 2 14 3 15 91 16 4 17 90 18 5 19 6 20 89 21 82 22 83 24
REMARK SMILES IDX 84 25 88 26 85 27 87 28 86 29 19 30 20 31 21 32 22 33 23 34
REMARK SMILES IDX 24 35 25 36 26 37 27 38 28 39 29 40 81 41 30 42 80 43 31 44
REMARK SMILES IDX 32 45 33 46 74 47 34 48 79 49 73 50 75 51 35 52 78 53 72 54
REMARK SMILES IDX 71 55 36 57 62 58 45 59 61 60 46 61 49 62 60 63 76 64 47 65
REMARK SMILES IDX 48 66 59 68 77 69 50 70 37 71 38 72 43 73 39 74 40 75 42 76
REMARK SMILES IDX 44 77 41 78 63 79 64 80 69 81 65 82 66 83 68 84 70 85 67 86
REMARK SMILES IDX 51 87 52 88 57 89 53 90 54 91 56 92 58 93 55 94
REMARK H PARENT 89 23 75 56 49 67
REMARK Flexibility Score: inf
ROOT
ATOM      1  C   UNL A   1      33.151  29.837  26.085  1.00  0.00     0.188 C 
ENDROOT
BRANCH   1   2
ATOM      2  C   UNL A   1      31.782  29.872  25.375  1.00  0.00     0.188 C 
BRANCH   2   3
ATOM      3  O   UNL A   1      31.750  29.152  24.165  1.00  0.00    -0.376 OA
BRANCH   3   4
ATOM      4  C   UNL A   1      32.597  28.047  23.995  1.00  0.00     0.202 C 
BRANCH   4   5
ATOM      5  C   UNL A   1      32.515  27.163  22.751  1.00  0.00     0.261 C 
BRANCH   5   6
ATOM      6  O   UNL A   1      33.187  25.902  22.757  1.00  0.00    -0.463 OA
BRANCH   6   7
ATOM      7  C   UNL A   1      32.455  24.765  22.784  1.00  0.00     0.305 C 
ATOM      8  O   UNL A   1      31.240  24.748  22.956  1.00  0.00    -0.252 OA
BRANCH   7   9
ATOM      9  C   UNL A   1      33.259  23.508  22.469  1.00  0.00     0.123 C 
BRANCH   9  10
ATOM     10  C   UNL A   1      32.982  22.164  23.160  1.00  0.00     0.017 C 
BRANCH  10  11
ATOM     11  C   UNL A   1      33.317  21.980  24.640  1.00  0.00     0.039 C 
BRANCH  11  12
ATOM     12  C   UNL A   1      34.651  21.358  24.904  1.00  0.00    -0.013 A 
ATOM     13  C   UNL A   1      39.908  23.131  26.360  1.00  0.00     0.044 C 
ATOM     14  C   UNL A   1      38.499  22.759  26.008  1.00  0.00    -0.049 A 
ATOM     15  C   UNL A   1      37.524  23.747  25.864  1.00  0.00     0.007 A 
ATOM     16  C   UNL A   1      38.175  21.424  25.761  1.00  0.00     0.030 A 
ATOM     17  C   UNL A   1      36.192  23.448  25.496  1.00  0.00    -0.041 A 
ATOM     18  C   UNL A   1      36.858  21.122  25.408  1.00  0.00     0.047 A 
ATOM     19  C   UNL A   1      35.234  24.607  25.381  1.00  0.00     0.045 C 
ATOM     20  C   UNL A   1      35.854  22.081  25.271  1.00  0.00     0.006 A 
ATOM     21  N   UNL A   1      36.311  19.900  25.122  1.00  0.00    -0.353 N 
ATOM     22  C   UNL A   1      34.969  20.000  24.881  1.00  0.00     0.068 A 
ATOM     23  H   UNL A   1      36.819  19.057  25.096  1.00  0.00     0.167 HD
BRANCH  22  24
ATOM     24  C   UNL A   1      34.209  18.790  24.613  1.00  0.00     0.087 A 
ATOM     25  C   UNL A   1      32.840  18.706  24.833  1.00  0.00     0.030 A 
ATOM     26  N   UNL A   1      34.951  17.751  24.176  1.00  0.00    -0.255 NA
ATOM     27  C   UNL A   1      32.193  17.510  24.525  1.00  0.00     0.004 A 
ATOM     28  C   UNL A   1      34.290  16.617  23.845  1.00  0.00     0.112 A 
ATOM     29  C   UNL A   1      32.924  16.454  23.989  1.00  0.00     0.020 A 
ENDBRANCH  22  24
ENDBRANCH  11  12
ENDBRANCH  10  11
ENDBRANCH   9  10
ENDBRANCH   7   9
ENDBRANCH   6   7
ENDBRANCH   5   6
ENDBRANCH   4   5
ENDBRANCH   3   4
ENDBRANCH   2   3
ENDBRANCH   1   2
BRANCH   1  30
ATOM     30  O   UNL A   1      33.319  30.129  27.467  1.00  0.00    -0.377 OA
BRANCH  30  31
ATOM     31  C   UNL A   1      34.119  31.230  27.876  1.00  0.00     0.188 C 
BRANCH  31  32
ATOM     32  C   UNL A   1      33.565  32.671  27.774  1.00  0.00     0.188 C 
BRANCH  32  33
ATOM     33  O   UNL A   1      33.897  33.540  28.844  1.00  0.00    -0.376 OA
BRANCH  33  34
ATOM     34  C   UNL A   1      33.764  34.948  28.784  1.00  0.00     0.202 C 
BRANCH  34  35
ATOM     35  C   UNL A   1      32.970  35.724  29.839  1.00  0.00     0.261 C 
BRANCH  35  36
ATOM     36  O   UNL A   1      33.675  35.989  31.031  1.00  0.00    -0.460 OA
BRANCH  36  37
ATOM     37  C   UNL A   1      33.135  35.392  32.105  1.00  0.00     0.338 C 
ATOM     38  O   UNL A   1      31.979  35.442  32.484  1.00  0.00    -0.246 OA
BRANCH  37  39
ATOM     39  C   UNL A   1      34.204  34.740  32.850  1.00  0.00     0.060 A 
ATOM     40  C   UNL A   1      35.418  35.417  32.831  1.00  0.00     0.016 A 
ATOM     41  C   UNL A   1      34.094  33.362  33.096  1.00  0.00     0.016 A 
ATOM     42  C   UNL A   1      36.547  34.654  32.730  1.00  0.00     0.010 A 
ATOM     43  C   UNL A   1      35.227  32.600  32.995  1.00  0.00     0.010 A 
ATOM     44  C   UNL A   1      36.415  33.256  32.703  1.00  0.00    -0.014 A 
BRANCH  44  45
ATOM     45  C   UNL A   1      37.618  32.511  32.440  1.00  0.00     0.031 A 
ATOM     46  C   UNL A   1      38.487  32.464  33.624  1.00  0.00     0.074 A 
ATOM     47  C   UNL A   1      37.908  31.962  31.249  1.00  0.00     0.049 A 
ATOM     48  N   UNL A   1      39.570  33.138  33.813  1.00  0.00    -0.248 NA
ATOM     49  C   UNL A   1      37.974  31.776  34.816  1.00  0.00     0.031 C 
ATOM     50  C   UNL A   1      37.036  31.741  30.095  1.00  0.00     0.029 A 
ATOM     51  N   UNL A   1      39.087  31.417  30.855  1.00  0.00    -0.354 N 
ATOM     52  C   UNL A   1      39.997  32.787  35.084  1.00  0.00     0.074 A 
ATOM     53  C   UNL A   1      38.893  32.117  35.718  1.00  0.00     0.031 C 
ATOM     54  C   UNL A   1      37.660  30.912  29.224  1.00  0.00     0.029 A 
ATOM     55  C   UNL A   1      39.016  30.670  29.689  1.00  0.00     0.049 A 
ATOM     56  H   UNL A   1      39.925  31.541  31.358  1.00  0.00     0.167 HD
ATOM     57  C   UNL A   1      41.320  32.825  35.388  1.00  0.00     0.037 A 
ATOM     58  C   UNL A   1      39.998  29.870  29.209  1.00  0.00     0.037 A 
ATOM     59  C   UNL A   1      42.031  33.702  34.488  1.00  0.00     0.049 A 
ATOM     60  C   UNL A   1      41.275  30.331  29.816  1.00  0.00     0.074 A 
ATOM     61  C   UNL A   1      41.955  35.046  34.175  1.00  0.00     0.029 A 
ATOM     62  N   UNL A   1      42.748  33.120  33.473  1.00  0.00    -0.354 N 
ATOM     63  N   UNL A   1      41.847  31.468  29.536  1.00  0.00    -0.248 NA
ATOM     64  C   UNL A   1      41.696  29.712  31.065  1.00  0.00     0.031 C 
ATOM     65  C   UNL A   1      42.237  35.123  32.780  1.00  0.00     0.029 A 
ATOM     66  C   UNL A   1      42.519  33.835  32.326  1.00  0.00     0.049 A 
ATOM     67  H   UNL A   1      43.327  32.329  33.553  1.00  0.00     0.167 HD
ATOM     68  C   UNL A   1      42.358  31.914  30.746  1.00  0.00     0.074 A 
ATOM     69  C   UNL A   1      42.324  30.750  31.626  1.00  0.00     0.031 C 
ATOM     70  C   UNL A   1      42.489  33.249  31.004  1.00  0.00     0.037 A 
BRANCH  57  71
ATOM     71  C   UNL A   1      42.002  31.735  36.178  1.00  0.00     0.057 A 
ATOM     72  C   UNL A   1      42.852  32.105  37.234  1.00  0.00     0.134 A 
ATOM     73  C   UNL A   1      42.110  30.389  35.769  1.00  0.00     0.134 A 
ATOM     74  F   UNL A   1      42.853  33.359  37.712  1.00  0.00    -0.206 F 
ATOM     75  C   UNL A   1      43.803  31.230  37.771  1.00  0.00     0.040 A 
ATOM     76  C   UNL A   1      43.020  29.494  36.334  1.00  0.00     0.040 A 
ATOM     77  F   UNL A   1      41.425  29.879  34.740  1.00  0.00    -0.206 F 
ATOM     78  C   UNL A   1      43.897  29.923  37.314  1.00  0.00     0.006 A 
ENDBRANCH  57  71
BRANCH  58  79
ATOM     79  C   UNL A   1      39.875  28.541  28.563  1.00  0.00     0.057 A 
ATOM     80  C   UNL A   1      40.549  28.267  27.362  1.00  0.00     0.134 A 
ATOM     81  C   UNL A   1      39.358  27.428  29.246  1.00  0.00     0.134 A 
ATOM     82  F   UNL A   1      41.108  29.258  26.654  1.00  0.00    -0.206 F 
ATOM     83  C   UNL A   1      40.738  26.961  26.894  1.00  0.00     0.040 A 
ATOM     84  C   UNL A   1      39.532  26.118  28.784  1.00  0.00     0.040 A 
ATOM     85  F   UNL A   1      38.749  27.559  30.433  1.00  0.00    -0.206 F 
ATOM     86  C   UNL A   1      40.241  25.879  27.613  1.00  0.00     0.006 A 
ENDBRANCH  58  79
BRANCH  70  87
ATOM     87  C   UNL A   1      42.350  34.207  29.853  1.00  0.00     0.057 A 
ATOM     88  C   UNL A   1      41.137  34.788  29.453  1.00  0.00     0.134 A 
ATOM     89  C   UNL A   1      43.515  34.691  29.247  1.00  0.00     0.134 A 
ATOM     90  F   UNL A   1      39.979  34.451  30.036  1.00  0.00    -0.206 F 
ATOM     91  C   UNL A   1      41.089  35.790  28.477  1.00  0.00     0.040 A 
ATOM     92  C   UNL A   1      43.483  35.714  28.297  1.00  0.00     0.040 A 
ATOM     93  F   UNL A   1      44.716  34.216  29.614  1.00  0.00    -0.206 F 
ATOM     94  C   UNL A   1      42.266  36.264  27.906  1.00  0.00     0.006 A 
ENDBRANCH  70  87
ENDBRANCH  44  45
ENDBRANCH  37  39
ENDBRANCH  36  37
ENDBRANCH  35  36
ENDBRANCH  34  35
ENDBRANCH  33  34
ENDBRANCH  32  33
ENDBRANCH  31  32
ENDBRANCH  30  31
ENDBRANCH   1  30
TORSDOF 24
ENDMDL
MODEL 2
REMARK VINA RESULT:     -10.7      2.909      4.234
REMARK SMILES Cc1cc(C)c2c(CCCC(=O)OCCOCCOCCOCCOC(=O)c3ccc(-c4c5nc(c(-c6c(F)cccc6F)c6ccc([nH]6)c(-c6c(F)cccc6F)c6nc(c(-c7c(F)cccc7F)c7ccc4[nH]7)C=C6)C=C5)cc3)c(-c3ccccn3)[nH]c2c1
REMARK SMILES IDX 18 1 17 2 16 3 15 4 14 5 13 6 11 7 12 8 10 9 9 10 8 11 7 12
REMARK SMILES IDX 1 13 2 14 3 15 91 16 4 17 90 18 5 19 6 20 89 21 82 22 83 24
REMARK SMILES IDX 84 25 88 26 85 27 87 28 86 29 19 30 20 31 21 32 22 33 23 34
REMARK SMILES IDX 24 35 25 36 26 37 27 38 28 39 29 40 81 41 30 42 80 43 31 44
REMARK SMILES IDX 32 45 33 46 74 47 34 48 79 49 73 50 75 51 35 52 78 53 72 54
REMARK SMILES IDX 71 55 36 57 62 58 45 59 61 60 46 61 49 62 60 63 76 64 47 65
REMARK SMILES IDX 48 66 59 68 77 69 50 70 37 71 38 72 43 73 39 74 40 75 42 76
REMARK SMILES IDX 44 77 41 78 63 79 64 80 69 81 65 82 66 83 68 84 70 85 67 86
REMARK SMILES IDX 51 87 52 88 57 89 53 90 54 91 56 92 58 93 55 94
REMARK H PARENT 89 23 75 56 49 67
REMARK Flexibility Score: inf
ROOT
ATOM      1  C   UNL A   1      33.947  28.459  26.787  1.00  0.00     0.188 C 
ENDROOT
BRANCH   1   2
ATOM      2  C   UNL A   1      32.459  28.101  26.975  1.00  0.00     0.188 C 
BRANCH   2   3
ATOM      3  O   UNL A   1      32.125  26.807  26.532  1.00  0.00    -0.376 OA
BRANCH   3   4
ATOM      4  C   UNL A   1      31.069  26.636  25.625  1.00  0.00     0.202 C 
BRANCH   4   5
ATOM      5  C   UNL A   1      30.384  25.283  25.442  1.00  0.00     0.261 C 
BRANCH   5   6
ATOM      6  O   UNL A   1      29.827  24.632  26.586  1.00  0.00    -0.463 OA
BRANCH   6   7
ATOM      7  C   UNL A   1      30.253  23.391  26.911  1.00  0.00     0.305 C 
ATOM      8  O   UNL A   1      29.633  22.637  27.654  1.00  0.00    -0.252 OA
BRANCH   7   9
ATOM      9  C   UNL A   1      31.522  22.966  26.179  1.00  0.00     0.123 C 
BRANCH   9  10
ATOM     10  C   UNL A   1      31.575  21.713  25.292  1.00  0.00     0.017 C 
BRANCH  10  11
ATOM     11  C   UNL A   1      32.622  21.603  24.184  1.00  0.00     0.039 C 
BRANCH  11  12
ATOM     12  C   UNL A   1      33.995  21.244  24.655  1.00  0.00    -0.013 A 
ATOM     13  C   UNL A   1      38.763  24.012  26.234  1.00  0.00     0.044 C 
ATOM     14  C   UNL A   1      37.466  23.376  25.832  1.00  0.00    -0.049 A 
ATOM     15  C   UNL A   1      36.382  24.167  25.449  1.00  0.00     0.007 A 
ATOM     16  C   UNL A   1      37.362  21.985  25.778  1.00  0.00     0.030 A 
ATOM     17  C   UNL A   1      35.153  23.613  25.026  1.00  0.00    -0.041 A 
ATOM     18  C   UNL A   1      36.147  21.433  25.371  1.00  0.00     0.047 A 
ATOM     19  C   UNL A   1      34.058  24.578  24.646  1.00  0.00     0.045 C 
ATOM     20  C   UNL A   1      35.038  22.192  24.998  1.00  0.00     0.006 A 
ATOM     21  N   UNL A   1      35.811  20.111  25.242  1.00  0.00    -0.353 N 
ATOM     22  C   UNL A   1      34.501  19.964  24.878  1.00  0.00     0.068 A 
ATOM     23  H   UNL A   1      36.433  19.364  25.395  1.00  0.00     0.167 HD
BRANCH  22  24
ATOM     24  C   UNL A   1      33.953  18.623  24.747  1.00  0.00     0.087 A 
ATOM     25  C   UNL A   1      34.437  17.709  23.821  1.00  0.00     0.030 A 
ATOM     26  N   UNL A   1      32.914  18.364  25.568  1.00  0.00    -0.255 NA
ATOM     27  C   UNL A   1      33.862  16.438  23.784  1.00  0.00     0.004 A 
ATOM     28  C   UNL A   1      32.404  17.110  25.539  1.00  0.00     0.112 A 
ATOM     29  C   UNL A   1      32.849  16.119  24.682  1.00  0.00     0.020 A 
ENDBRANCH  22  24
ENDBRANCH  11  12
ENDBRANCH  10  11
ENDBRANCH   9  10
ENDBRANCH   7   9
ENDBRANCH   6   7
ENDBRANCH   5   6
ENDBRANCH   4   5
ENDBRANCH   3   4
ENDBRANCH   2   3
ENDBRANCH   1   2
BRANCH   1  30
ATOM     30  O   UNL A   1      34.453  29.782  26.927  1.00  0.00    -0.377 OA
BRANCH  30  31
ATOM     31  C   UNL A   1      33.562  30.883  27.044  1.00  0.00     0.188 C 
BRANCH  31  32
ATOM     32  C   UNL A   1      33.689  31.860  28.236  1.00  0.00     0.188 C 
BRANCH  32  33
ATOM     33  O   UNL A   1      34.578  32.948  28.054  1.00  0.00    -0.376 OA
BRANCH  33  34
ATOM     34  C   UNL A   1      34.936  33.853  29.083  1.00  0.00     0.202 C 
BRANCH  34  35
ATOM     35  C   UNL A   1      34.596  33.573  30.549  1.00  0.00     0.261 C 
BRANCH  35  36
ATOM     36  O   UNL A   1      34.725  32.224  30.938  1.00  0.00    -0.460 OA
BRANCH  36  37
ATOM     37  C   UNL A   1      35.916  31.948  31.491  1.00  0.00     0.338 C 
ATOM     38  O   UNL A   1      36.330  32.292  32.582  1.00  0.00    -0.246 OA
BRANCH  37  39
ATOM     39  C   UNL A   1      36.724  31.242  30.504  1.00  0.00     0.060 A 
ATOM     40  C   UNL A   1      36.541  29.864  30.487  1.00  0.00     0.016 A 
ATOM     41  C   UNL A   1      37.885  31.872  30.027  1.00  0.00     0.016 A 
ATOM     42  C   UNL A   1      37.656  29.098  30.296  1.00  0.00     0.010 A 
ATOM     43  C   UNL A   1      39.001  31.101  29.836  1.00  0.00     0.010 A 
ATOM     44  C   UNL A   1      38.887  29.740  30.085  1.00  0.00    -0.014 A 
BRANCH  44  45
ATOM     45  C   UNL A   1      40.047  28.889  30.045  1.00  0.00     0.031 A 
ATOM     46  C   UNL A   1      40.697  28.808  31.361  1.00  0.00     0.074 A 
ATOM     47  C   UNL A   1      40.485  28.279  28.932  1.00  0.00     0.049 A 
ATOM     48  N   UNL A   1      41.786  29.395  31.722  1.00  0.00    -0.248 NA
ATOM     49  C   UNL A   1      39.930  28.205  32.460  1.00  0.00     0.031 C 
ATOM     50  C   UNL A   1      39.805  28.094  27.650  1.00  0.00     0.029 A 
ATOM     51  N   UNL A   1      41.662  27.625  28.756  1.00  0.00    -0.354 N 
ATOM     52  C   UNL A   1      41.960  29.052  33.053  1.00  0.00     0.074 A 
ATOM     53  C   UNL A   1      40.710  28.498  33.500  1.00  0.00     0.031 C 
ATOM     54  C   UNL A   1      40.492  27.187  26.914  1.00  0.00     0.029 A 
ATOM     55  C   UNL A   1      41.723  26.849  27.609  1.00  0.00     0.049 A 
ATOM     56  H   UNL A   1      42.410  27.695  29.392  1.00  0.00     0.167 HD
ATOM     57  C   UNL A   1      43.210  28.989  33.578  1.00  0.00     0.037 A 
ATOM     58  C   UNL A   1      42.698  25.954  27.318  1.00  0.00     0.037 A 
ATOM     59  C   UNL A   1      44.138  29.774  32.798  1.00  0.00     0.049 A 
ATOM     60  C   UNL A   1      43.890  26.326  28.127  1.00  0.00     0.074 A 
ATOM     61  C   UNL A   1      44.234  31.109  32.452  1.00  0.00     0.029 A 
ATOM     62  N   UNL A   1      44.962  29.102  31.930  1.00  0.00    -0.354 N 
ATOM     63  N   UNL A   1      44.598  27.402  27.929  1.00  0.00    -0.248 NA
ATOM     64  C   UNL A   1      44.038  25.716  29.440  1.00  0.00     0.031 C 
ATOM     65  C   UNL A   1      44.753  31.116  31.124  1.00  0.00     0.029 A 
ATOM     66  C   UNL A   1      44.994  29.795  30.749  1.00  0.00     0.049 A 
ATOM     67  H   UNL A   1      45.448  28.267  32.123  1.00  0.00     0.167 HD
ATOM     68  C   UNL A   1      44.934  27.844  29.200  1.00  0.00     0.074 A 
ATOM     69  C   UNL A   1      44.650  26.715  30.082  1.00  0.00     0.031 C 
ATOM     70  C   UNL A   1      45.137  29.171  29.452  1.00  0.00     0.037 A 
BRANCH  57  71
ATOM     71  C   UNL A   1      43.651  27.873  34.493  1.00  0.00     0.057 A 
ATOM     72  C   UNL A   1      44.219  28.208  35.734  1.00  0.00     0.134 A 
ATOM     73  C   UNL A   1      43.828  26.529  34.099  1.00  0.00     0.134 A 
ATOM     74  F   UNL A   1      44.128  29.455  36.219  1.00  0.00    -0.206 F 
ATOM     75  C   UNL A   1      44.987  27.303  36.474  1.00  0.00     0.040 A 
ATOM     76  C   UNL A   1      44.549  25.605  34.856  1.00  0.00     0.040 A 
ATOM     77  F   UNL A   1      43.410  26.050  32.923  1.00  0.00    -0.206 F 
ATOM     78  C   UNL A   1      45.164  26.000  36.031  1.00  0.00     0.006 A 
ENDBRANCH  57  71
BRANCH  58  79
ATOM     79  C   UNL A   1      42.570  24.620  26.686  1.00  0.00     0.057 A 
ATOM     80  C   UNL A   1      43.170  24.359  25.442  1.00  0.00     0.134 A 
ATOM     81  C   UNL A   1      42.131  23.495  27.404  1.00  0.00     0.134 A 
ATOM     82  F   UNL A   1      43.652  25.362  24.696  1.00  0.00    -0.206 F 
ATOM     83  C   UNL A   1      43.363  23.057  24.965  1.00  0.00     0.040 A 
ATOM     84  C   UNL A   1      42.311  22.189  26.934  1.00  0.00     0.040 A 
ATOM     85  F   UNL A   1      41.599  23.614  28.628  1.00  0.00    -0.206 F 
ATOM     86  C   UNL A   1      42.947  21.965  25.719  1.00  0.00     0.006 A 
ENDBRANCH  58  79
BRANCH  70  87
ATOM     87  C   UNL A   1      45.279  30.098  28.277  1.00  0.00     0.057 A 
ATOM     88  C   UNL A   1      44.204  30.742  27.645  1.00  0.00     0.134 A 
ATOM     89  C   UNL A   1      46.567  30.489  27.891  1.00  0.00     0.134 A 
ATOM     90  F   UNL A   1      42.938  30.496  28.007  1.00  0.00    -0.206 F 
ATOM     91  C   UNL A   1      44.406  31.713  26.659  1.00  0.00     0.040 A 
ATOM     92  C   UNL A   1      46.781  31.481  26.933  1.00  0.00     0.040 A 
ATOM     93  F   UNL A   1      47.643  29.951  28.486  1.00  0.00    -0.206 F 
ATOM     94  C   UNL A   1      45.698  32.094  26.309  1.00  0.00     0.006 A 
ENDBRANCH  70  87
ENDBRANCH  44  45
ENDBRANCH  37  39
ENDBRANCH  36  37
ENDBRANCH  35  36
ENDBRANCH  34  35
ENDBRANCH  33  34
ENDBRANCH  32  33
ENDBRANCH  31  32
ENDBRANCH  30  31
ENDBRANCH   1  30
TORSDOF 24
ENDMDL
MODEL 3
REMARK VINA RESULT:     -10.5      3.909      9.202
REMARK SMILES Cc1cc(C)c2c(CCCC(=O)OCCOCCOCCOCCOC(=O)c3ccc(-c4c5nc(c(-c6c(F)cccc6F)c6ccc([nH]6)c(-c6c(F)cccc6F)c6nc(c(-c7c(F)cccc7F)c7ccc4[nH]7)C=C6)C=C5)cc3)c(-c3ccccn3)[nH]c2c1
REMARK SMILES IDX 18 1 17 2 16 3 15 4 14 5 13 6 11 7 12 8 10 9 9 10 8 11 7 12
REMARK SMILES IDX 1 13 2 14 3 15 91 16 4 17 90 18 5 19 6 20 89 21 82 22 83 24
REMARK SMILES IDX 84 25 88 26 85 27 87 28 86 29 19 30 20 31 21 32 22 33 23 34
REMARK SMILES IDX 24 35 25 36 26 37 27 38 28 39 29 40 81 41 30 42 80 43 31 44
REMARK SMILES IDX 32 45 33 46 74 47 34 48 79 49 73 50 75 51 35 52 78 53 72 54
REMARK SMILES IDX 71 55 36 57 62 58 45 59 61 60 46 61 49 62 60 63 76 64 47 65
REMARK SMILES IDX 48 66 59 68 77 69 50 70 37 71 38 72 43 73 39 74 40 75 42 76
REMARK SMILES IDX 44 77 41 78 63 79 64 80 69 81 65 82 66 83 68 84 70 85 67 86
REMARK SMILES IDX 51 87 52 88 57 89 53 90 54 91 56 92 58 93 55 94
REMARK H PARENT 89 23 75 56 49 67
REMARK Flexibility Score: inf
ROOT
ATOM      1  C   UNL A   1      37.767  23.068  25.603  1.00  0.00     0.188 C 
ENDROOT
BRANCH   1   2
ATOM      2  C   UNL A   1      36.388  22.391  25.463  1.00  0.00     0.188 C 
BRANCH   2   3
ATOM      3  O   UNL A   1      35.309  23.295  25.466  1.00  0.00    -0.376 OA
BRANCH   3   4
ATOM      4  C   UNL A   1      34.384  23.273  24.412  1.00  0.00     0.202 C 
BRANCH   4   5
ATOM      5  C   UNL A   1      34.352  24.376  23.355  1.00  0.00     0.261 C 
BRANCH   5   6
ATOM      6  O   UNL A   1      33.086  24.878  22.921  1.00  0.00    -0.463 OA
BRANCH   6   7
ATOM      7  C   UNL A   1      33.037  26.055  22.257  1.00  0.00     0.305 C 
ATOM      8  O   UNL A   1      33.982  26.512  21.622  1.00  0.00    -0.252 OA
BRANCH   7   9
ATOM      9  C   UNL A   1      31.661  26.713  22.273  1.00  0.00     0.123 C 
BRANCH   9  10
ATOM     10  C   UNL A   1      30.502  26.169  23.121  1.00  0.00     0.017 C 
BRANCH  10  11
ATOM     11  C   UNL A   1      29.846  27.053  24.181  1.00  0.00     0.039 C 
BRANCH  11  12
ATOM     12  C   UNL A   1      30.638  28.264  24.560  1.00  0.00    -0.013 A 
ATOM     13  C   UNL A   1      35.244  29.446  27.767  1.00  0.00     0.044 C 
ATOM     14  C   UNL A   1      34.067  29.038  26.932  1.00  0.00    -0.049 A 
ATOM     15  C   UNL A   1      33.673  27.701  26.873  1.00  0.00     0.007 A 
ATOM     16  C   UNL A   1      33.324  30.010  26.260  1.00  0.00     0.030 A 
ATOM     17  C   UNL A   1      32.549  27.275  26.130  1.00  0.00    -0.041 A 
ATOM     18  C   UNL A   1      32.219  29.593  25.516  1.00  0.00     0.047 A 
ATOM     19  C   UNL A   1      32.234  25.800  26.144  1.00  0.00     0.045 C 
ATOM     20  C   UNL A   1      31.806  28.265  25.421  1.00  0.00     0.006 A 
ATOM     21  N   UNL A   1      31.349  30.354  24.782  1.00  0.00    -0.353 N 
ATOM     22  C   UNL A   1      30.426  29.576  24.139  1.00  0.00     0.068 A 
ATOM     23  H   UNL A   1      31.385  31.337  24.723  1.00  0.00     0.167 HD
BRANCH  22  24
ATOM     24  C   UNL A   1      29.453  30.212  23.266  1.00  0.00     0.087 A 
ATOM     25  C   UNL A   1      28.822  31.404  23.599  1.00  0.00     0.030 A 
ATOM     26  N   UNL A   1      29.187  29.526  22.135  1.00  0.00    -0.255 NA
ATOM     27  C   UNL A   1      27.919  31.950  22.687  1.00  0.00     0.004 A 
ATOM     28  C   UNL A   1      28.339  30.101  21.250  1.00  0.00     0.112 A 
ATOM     29  C   UNL A   1      27.696  31.306  21.474  1.00  0.00     0.020 A 
ENDBRANCH  22  24
ENDBRANCH  11  12
ENDBRANCH  10  11
ENDBRANCH   9  10
ENDBRANCH   7   9
ENDBRANCH   6   7
ENDBRANCH   5   6
ENDBRANCH   4   5
ENDBRANCH   3   4
ENDBRANCH   2   3
ENDBRANCH   1   2
BRANCH   1  30
ATOM     30  O   UNL A   1      38.908  22.409  26.142  1.00  0.00    -0.377 OA
BRANCH  30  31
ATOM     31  C   UNL A   1      39.046  21.000  26.018  1.00  0.00     0.188 C 
BRANCH  31  32
ATOM     32  C   UNL A   1      40.407  20.325  26.313  1.00  0.00     0.188 C 
BRANCH  32  33
ATOM     33  O   UNL A   1      41.238  20.989  27.250  1.00  0.00    -0.376 OA
BRANCH  33  34
ATOM     34  C   UNL A   1      42.618  21.230  27.045  1.00  0.00     0.202 C 
BRANCH  34  35
ATOM     35  C   UNL A   1      43.139  21.851  25.746  1.00  0.00     0.261 C 
BRANCH  35  36
ATOM     36  O   UNL A   1      42.470  23.026  25.343  1.00  0.00    -0.460 OA
BRANCH  36  37
ATOM     37  C   UNL A   1      43.033  24.144  25.827  1.00  0.00     0.338 C 
ATOM     38  O   UNL A   1      44.176  24.531  25.672  1.00  0.00    -0.246 OA
BRANCH  37  39
ATOM     39  C   UNL A   1      42.067  24.799  26.701  1.00  0.00     0.060 A 
ATOM     40  C   UNL A   1      41.181  25.648  26.049  1.00  0.00     0.016 A 
ATOM     41  C   UNL A   1      42.380  24.910  28.066  1.00  0.00     0.016 A 
ATOM     42  C   UNL A   1      40.861  26.812  26.689  1.00  0.00     0.010 A 
ATOM     43  C   UNL A   1      42.057  26.078  28.704  1.00  0.00     0.010 A 
ATOM     44  C   UNL A   1      41.400  27.051  27.963  1.00  0.00    -0.014 A 
BRANCH  44  45
ATOM     45  C   UNL A   1      41.156  28.355  28.520  1.00  0.00     0.031 A 
ATOM     46  C   UNL A   1      42.253  29.283  28.211  1.00  0.00     0.074 A 
ATOM     47  C   UNL A   1      40.074  28.660  29.254  1.00  0.00     0.049 A 
ATOM     48  N   UNL A   1      43.174  29.686  29.018  1.00  0.00    -0.248 NA
ATOM     49  C   UNL A   1      42.488  29.609  26.798  1.00  0.00     0.031 C 
ATOM     50  C   UNL A   1      38.829  27.910  29.423  1.00  0.00     0.029 A 
ATOM     51  N   UNL A   1      39.854  29.790  29.974  1.00  0.00    -0.354 N 
ATOM     52  C   UNL A   1      43.993  30.503  28.254  1.00  0.00     0.074 A 
ATOM     53  C   UNL A   1      43.646  30.262  26.879  1.00  0.00     0.031 C 
ATOM     54  C   UNL A   1      37.909  28.710  30.013  1.00  0.00     0.029 A 
ATOM     55  C   UNL A   1      38.544  29.963  30.390  1.00  0.00     0.049 A 
ATOM     56  H   UNL A   1      40.569  30.436  30.182  1.00  0.00     0.167 HD
ATOM     57  C   UNL A   1      44.677  31.516  28.845  1.00  0.00     0.037 A 
ATOM     58  C   UNL A   1      38.037  31.093  30.940  1.00  0.00     0.037 A 
ATOM     59  C   UNL A   1      44.834  31.278  30.260  1.00  0.00     0.049 A 
ATOM     60  C   UNL A   1      39.184  31.867  31.485  1.00  0.00     0.074 A 
ATOM     61  C   UNL A   1      45.428  30.289  31.021  1.00  0.00     0.029 A 
ATOM     62  N   UNL A   1      43.998  31.956  31.113  1.00  0.00    -0.354 N 
ATOM     63  N   UNL A   1      39.892  31.494  32.514  1.00  0.00    -0.248 NA
ATOM     64  C   UNL A   1      39.817  32.847  30.615  1.00  0.00     0.031 C 
ATOM     65  C   UNL A   1      44.591  30.141  32.166  1.00  0.00     0.029 A 
ATOM     66  C   UNL A   1      43.561  31.077  32.069  1.00  0.00     0.049 A 
ATOM     67  H   UNL A   1      43.755  32.907  31.049  1.00  0.00     0.167 HD
ATOM     68  C   UNL A   1      41.195  31.848  32.194  1.00  0.00     0.074 A 
ATOM     69  C   UNL A   1      41.073  32.764  31.063  1.00  0.00     0.031 C 
ATOM     70  C   UNL A   1      42.255  31.142  32.687  1.00  0.00     0.037 A 
BRANCH  57  71
ATOM     71  C   UNL A   1      44.782  32.891  28.231  1.00  0.00     0.057 A 
ATOM     72  C   UNL A   1      46.043  33.339  27.802  1.00  0.00     0.134 A 
ATOM     73  C   UNL A   1      43.792  33.892  28.320  1.00  0.00     0.134 A 
ATOM     74  F   UNL A   1      47.073  32.488  27.682  1.00  0.00    -0.206 F 
ATOM     75  C   UNL A   1      46.320  34.692  27.578  1.00  0.00     0.040 A 
ATOM     76  C   UNL A   1      44.045  35.238  28.048  1.00  0.00     0.040 A 
ATOM     77  F   UNL A   1      42.553  33.660  28.769  1.00  0.00    -0.206 F 
ATOM     78  C   UNL A   1      45.322  35.648  27.711  1.00  0.00     0.006 A 
ENDBRANCH  57  71
BRANCH  58  79
ATOM     79  C   UNL A   1      36.711  31.716  30.717  1.00  0.00     0.057 A 
ATOM     80  C   UNL A   1      35.862  31.994  31.800  1.00  0.00     0.134 A 
ATOM     81  C   UNL A   1      36.371  32.326  29.497  1.00  0.00     0.134 A 
ATOM     82  F   UNL A   1      36.119  31.488  33.014  1.00  0.00    -0.206 F 
ATOM     83  C   UNL A   1      34.770  32.864  31.689  1.00  0.00     0.040 A 
ATOM     84  C   UNL A   1      35.278  33.190  29.371  1.00  0.00     0.040 A 
ATOM     85  F   UNL A   1      37.140  32.183  28.409  1.00  0.00    -0.206 F 
ATOM     86  C   UNL A   1      34.484  33.478  30.474  1.00  0.00     0.006 A 
ENDBRANCH  58  79
BRANCH  70  87
ATOM     87  C   UNL A   1      41.997  30.172  33.807  1.00  0.00     0.057 A 
ATOM     88  C   UNL A   1      41.618  28.835  33.621  1.00  0.00     0.134 A 
ATOM     89  C   UNL A   1      42.322  30.563  35.111  1.00  0.00     0.134 A 
ATOM     90  F   UNL A   1      41.371  28.347  32.397  1.00  0.00    -0.206 F 
ATOM     91  C   UNL A   1      41.543  27.936  34.690  1.00  0.00     0.040 A 
ATOM     92  C   UNL A   1      42.284  29.667  36.181  1.00  0.00     0.040 A 
ATOM     93  F   UNL A   1      42.739  31.815  35.358  1.00  0.00    -0.206 F 
ATOM     94  C   UNL A   1      41.889  28.348  35.973  1.00  0.00     0.006 A 
ENDBRANCH  70  87
ENDBRANCH  44  45
ENDBRANCH  37  39
ENDBRANCH  36  37
ENDBRANCH  35  36
ENDBRANCH  34  35
ENDBRANCH  33  34
ENDBRANCH  32  33
ENDBRANCH  31  32
ENDBRANCH  30  31
ENDBRANCH   1  30
TORSDOF 24
ENDMDL
