MODEL 1
REMARK VINA RESULT:     -11.0      0.000      0.000
REMARK SMILES Cc1c(Cl)cc2c(c1C)O[C@H](C(F)(F)F)C(C(=O)OCCOCCOCCOCCOC(=O)c1ccc(-c3c4nc(c(-c5c(F)cccc5F)c5ccc([nH]5)c(-c5c(F)cccc5F)c5nc(c(-c6c(F)cccc6F)c6ccc3[nH]6)C=C5)C=C4)cc1)=C2
REMARK SMILES IDX 26 1 25 2 24 3 23 4 22 5 21 6 20 7 19 8 17 9 18 10 16 11
REMARK SMILES IDX 1 12 2 13 3 14 8 15 4 16 5 17 7 18 9 19 6 20 10 21 88 22
REMARK SMILES IDX 11 23 12 24 13 25 14 26 15 27 27 28 28 29 29 30 30 31 31 32
REMARK SMILES IDX 32 33 33 34 34 35 35 36 87 37 36 38 86 39 37 40 38 41 39 42
REMARK SMILES IDX 80 43 40 44 85 45 79 46 81 47 41 48 84 49 78 50 77 51 42 53
REMARK SMILES IDX 68 54 51 55 67 56 52 57 55 58 66 59 82 60 53 61 54 62 65 64
REMARK SMILES IDX 83 65 56 66 43 67 44 68 49 69 45 70 46 71 48 72 50 73 47 74
REMARK SMILES IDX 69 75 70 76 75 77 71 78 72 79 74 80 76 81 73 82 57 83 58 84
REMARK SMILES IDX 63 85 59 86 60 87 62 88 64 89 61 90
REMARK H PARENT 81 52 55 63
REMARK Flexibility Score: inf
ROOT
ATOM      1  C   UNL A   1      42.315  18.875  26.322  1.00  0.00     0.188 C 
ENDROOT
BRANCH   1   2
ATOM      2  O   UNL A   1      41.321  19.880  26.111  1.00  0.00    -0.377 OA
BRANCH   2   3
ATOM      3  C   UNL A   1      40.840  20.591  27.242  1.00  0.00     0.188 C 
BRANCH   3   4
ATOM      4  C   UNL A   1      40.114  21.900  26.875  1.00  0.00     0.188 C 
BRANCH   4   5
ATOM      5  O   UNL A   1      39.320  21.782  25.707  1.00  0.00    -0.376 OA
BRANCH   5   6
ATOM      6  C   UNL A   1      37.906  21.826  25.787  1.00  0.00     0.202 C 
BRANCH   6   7
ATOM      7  C   UNL A   1      36.995  21.736  24.547  1.00  0.00     0.261 C 
BRANCH   7   8
ATOM      8  O   UNL A   1      35.743  21.067  24.708  1.00  0.00    -0.460 OA
BRANCH   8   9
ATOM      9  C   UNL A   1      34.827  21.637  25.513  1.00  0.00     0.338 C 
ATOM     10  O   UNL A   1      34.574  21.331  26.663  1.00  0.00    -0.246 OA
BRANCH   9  11
ATOM     11  C   UNL A   1      34.297  22.827  24.812  1.00  0.00     0.087 C 
ATOM     12  C   UNL A   1      31.845  28.630  23.170  1.00  0.00     0.046 C 
ATOM     13  C   UNL A   1      32.647  27.447  23.653  1.00  0.00    -0.026 A 
ATOM     14  C   UNL A   1      33.439  27.554  24.813  1.00  0.00     0.045 A 
ATOM     15  C   UNL A   1      32.538  26.179  23.022  1.00  0.00    -0.004 A 
ATOM     16  Cl  UNL A   1      33.610  29.042  25.683  1.00  0.00    -0.084 Cl
ATOM     17  C   UNL A   1      34.090  26.442  25.350  1.00  0.00     0.032 A 
ATOM     18  C   UNL A   1      33.227  25.071  23.565  1.00  0.00     0.131 A 
ATOM     19  C   UNL A   1      31.700  25.953  21.786  1.00  0.00     0.049 C 
ATOM     20  C   UNL A   1      33.954  25.192  24.750  1.00  0.00     0.019 A 
ATOM     21  O   UNL A   1      33.120  23.889  22.885  1.00  0.00    -0.475 OA
ATOM     22  C   UNL A   1      34.485  24.011  25.406  1.00  0.00     0.027 C 
ATOM     23  C   UNL A   1      33.659  22.667  23.458  1.00  0.00     0.316 C 
BRANCH  23  24
ATOM     24  C   UNL A   1      32.540  21.618  23.458  1.00  0.00     0.430 C 
ATOM     25  F   UNL A   1      31.785  21.702  22.335  1.00  0.00    -0.167 F 
ATOM     26  F   UNL A   1      33.024  20.354  23.503  1.00  0.00    -0.167 F 
ATOM     27  F   UNL A   1      31.710  21.771  24.516  1.00  0.00    -0.167 F 
ENDBRANCH  23  24
ENDBRANCH   9  11
ENDBRANCH   8   9
ENDBRANCH   7   8
ENDBRANCH   6   7
ENDBRANCH   5   6
ENDBRANCH   4   5
ENDBRANCH   3   4
ENDBRANCH   2   3
ENDBRANCH   1   2
BRANCH   1  28
ATOM     28  C   UNL A   1      43.639  18.834  25.517  1.00  0.00     0.188 C 
BRANCH  28  29
ATOM     29  O   UNL A   1      43.794  19.898  24.588  1.00  0.00    -0.376 OA
BRANCH  29  30
ATOM     30  C   UNL A   1      44.411  21.092  25.040  1.00  0.00     0.202 C 
BRANCH  30  31
ATOM     31  C   UNL A   1      44.191  22.327  24.159  1.00  0.00     0.261 C 
BRANCH  31  32
ATOM     32  O   UNL A   1      43.563  23.446  24.803  1.00  0.00    -0.460 OA
BRANCH  32  33
ATOM     33  C   UNL A   1      44.344  24.500  25.121  1.00  0.00     0.338 C 
ATOM     34  O   UNL A   1      45.416  24.803  24.626  1.00  0.00    -0.246 OA
BRANCH  33  35
ATOM     35  C   UNL A   1      43.578  25.350  26.056  1.00  0.00     0.060 A 
ATOM     36  C   UNL A   1      43.814  26.731  26.071  1.00  0.00     0.016 A 
ATOM     37  C   UNL A   1      42.618  24.783  26.897  1.00  0.00     0.016 A 
ATOM     38  C   UNL A   1      43.108  27.547  26.956  1.00  0.00     0.010 A 
ATOM     39  C   UNL A   1      41.930  25.597  27.799  1.00  0.00     0.010 A 
ATOM     40  C   UNL A   1      42.196  26.977  27.854  1.00  0.00    -0.014 A 
BRANCH  40  41
ATOM     41  C   UNL A   1      41.694  27.780  28.995  1.00  0.00     0.031 A 
ATOM     42  C   UNL A   1      42.429  27.682  30.303  1.00  0.00     0.074 A 
ATOM     43  C   UNL A   1      40.636  28.599  28.870  1.00  0.00     0.049 A 
ATOM     44  N   UNL A   1      42.165  28.252  31.449  1.00  0.00    -0.248 NA
ATOM     45  C   UNL A   1      43.630  26.829  30.317  1.00  0.00     0.031 C 
ATOM     46  C   UNL A   1      39.878  28.824  27.641  1.00  0.00     0.029 A 
ATOM     47  N   UNL A   1      40.018  29.400  29.800  1.00  0.00    -0.354 N 
ATOM     48  C   UNL A   1      43.166  27.831  32.315  1.00  0.00     0.074 A 
ATOM     49  C   UNL A   1      44.022  26.930  31.578  1.00  0.00     0.031 C 
ATOM     50  C   UNL A   1      38.892  29.704  27.895  1.00  0.00     0.029 A 
ATOM     51  C   UNL A   1      38.930  30.079  29.308  1.00  0.00     0.049 A 
ATOM     52  H   UNL A   1      40.328  29.479  30.731  1.00  0.00     0.167 HD
ATOM     53  C   UNL A   1      43.365  28.181  33.607  1.00  0.00     0.037 A 
ATOM     54  C   UNL A   1      38.058  30.892  29.936  1.00  0.00     0.037 A 
ATOM     55  C   UNL A   1      42.510  29.071  34.343  1.00  0.00     0.049 A 
ATOM     56  C   UNL A   1      38.238  31.178  31.406  1.00  0.00     0.074 A 
ATOM     57  C   UNL A   1      42.625  29.478  35.660  1.00  0.00     0.029 A 
ATOM     58  N   UNL A   1      41.383  29.689  33.827  1.00  0.00    -0.354 N 
ATOM     59  N   UNL A   1      39.191  30.783  32.216  1.00  0.00    -0.248 NA
ATOM     60  C   UNL A   1      37.220  32.021  32.051  1.00  0.00     0.031 C 
ATOM     61  C   UNL A   1      41.536  30.303  35.956  1.00  0.00     0.029 A 
ATOM     62  C   UNL A   1      40.777  30.456  34.807  1.00  0.00     0.049 A 
ATOM     63  H   UNL A   1      41.060  29.598  32.901  1.00  0.00     0.167 HD
ATOM     64  C   UNL A   1      38.904  31.351  33.452  1.00  0.00     0.074 A 
ATOM     65  C   UNL A   1      37.696  32.130  33.284  1.00  0.00     0.031 C 
ATOM     66  C   UNL A   1      39.580  31.237  34.622  1.00  0.00     0.037 A 
BRANCH  53  67
ATOM     67  C   UNL A   1      44.550  27.592  34.314  1.00  0.00     0.057 A 
ATOM     68  C   UNL A   1      44.446  26.415  35.065  1.00  0.00     0.134 A 
ATOM     69  C   UNL A   1      45.819  28.172  34.188  1.00  0.00     0.134 A 
ATOM     70  F   UNL A   1      43.255  25.821  35.239  1.00  0.00    -0.206 F 
ATOM     71  C   UNL A   1      45.563  25.837  35.672  1.00  0.00     0.040 A 
ATOM     72  C   UNL A   1      46.946  27.589  34.768  1.00  0.00     0.040 A 
ATOM     73  F   UNL A   1      45.985  29.301  33.482  1.00  0.00    -0.206 F 
ATOM     74  C   UNL A   1      46.819  26.419  35.513  1.00  0.00     0.006 A 
ENDBRANCH  53  67
BRANCH  54  75
ATOM     75  C   UNL A   1      36.928  31.500  29.184  1.00  0.00     0.057 A 
ATOM     76  C   UNL A   1      36.976  32.832  28.759  1.00  0.00     0.134 A 
ATOM     77  C   UNL A   1      35.769  30.772  28.889  1.00  0.00     0.134 A 
ATOM     78  F   UNL A   1      38.047  33.591  29.034  1.00  0.00    -0.206 F 
ATOM     79  C   UNL A   1      35.907  33.424  28.081  1.00  0.00     0.040 A 
ATOM     80  C   UNL A   1      34.705  31.342  28.188  1.00  0.00     0.040 A 
ATOM     81  F   UNL A   1      35.656  29.491  29.272  1.00  0.00    -0.206 F 
ATOM     82  C   UNL A   1      34.770  32.675  27.787  1.00  0.00     0.006 A 
ENDBRANCH  54  75
BRANCH  66  83
ATOM     83  C   UNL A   1      39.057  31.987  35.813  1.00  0.00     0.057 A 
ATOM     84  C   UNL A   1      39.373  33.332  36.036  1.00  0.00     0.134 A 
ATOM     85  C   UNL A   1      38.153  31.381  36.696  1.00  0.00     0.134 A 
ATOM     86  F   UNL A   1      40.237  33.970  35.231  1.00  0.00    -0.206 F 
ATOM     87  C   UNL A   1      38.819  34.045  37.100  1.00  0.00     0.040 A 
ATOM     88  C   UNL A   1      37.570  32.090  37.746  1.00  0.00     0.040 A 
ATOM     89  F   UNL A   1      37.795  30.097  36.532  1.00  0.00    -0.206 F 
ATOM     90  C   UNL A   1      37.905  33.426  37.953  1.00  0.00     0.006 A 
ENDBRANCH  66  83
ENDBRANCH  40  41
ENDBRANCH  33  35
ENDBRANCH  32  33
ENDBRANCH  31  32
ENDBRANCH  30  31
ENDBRANCH  29  30
ENDBRANCH  28  29
ENDBRANCH   1  28
TORSDOF 21
ENDMDL
MODEL 2
REMARK VINA RESULT:     -10.8      0.765      5.961
REMARK SMILES Cc1c(Cl)cc2c(c1C)O[C@H](C(F)(F)F)C(C(=O)OCCOCCOCCOCCOC(=O)c1ccc(-c3c4nc(c(-c5c(F)cccc5F)c5ccc([nH]5)c(-c5c(F)cccc5F)c5nc(c(-c6c(F)cccc6F)c6ccc3[nH]6)C=C5)C=C4)cc1)=C2
REMARK SMILES IDX 26 1 25 2 24 3 23 4 22 5 21 6 20 7 19 8 17 9 18 10 16 11
REMARK SMILES IDX 1 12 2 13 3 14 8 15 4 16 5 17 7 18 9 19 6 20 10 21 88 22
REMARK SMILES IDX 11 23 12 24 13 25 14 26 15 27 27 28 28 29 29 30 30 31 31 32
REMARK SMILES IDX 32 33 33 34 34 35 35 36 87 37 36 38 86 39 37 40 38 41 39 42
REMARK SMILES IDX 80 43 40 44 85 45 79 46 81 47 41 48 84 49 78 50 77 51 42 53
REMARK SMILES IDX 68 54 51 55 67 56 52 57 55 58 66 59 82 60 53 61 54 62 65 64
REMARK SMILES IDX 83 65 56 66 43 67 44 68 49 69 45 70 46 71 48 72 50 73 47 74
REMARK SMILES IDX 69 75 70 76 75 77 71 78 72 79 74 80 76 81 73 82 57 83 58 84
REMARK SMILES IDX 63 85 59 86 60 87 62 88 64 89 61 90
REMARK H PARENT 81 52 55 63
REMARK Flexibility Score: inf
ROOT
ATOM      1  C   UNL A   1      42.864  18.641  25.983  1.00  0.00     0.188 C 
ENDROOT
BRANCH   1   2
ATOM      2  O   UNL A   1      41.650  19.351  25.725  1.00  0.00    -0.377 OA
BRANCH   2   3
ATOM      3  C   UNL A   1      41.045  20.050  26.803  1.00  0.00     0.188 C 
BRANCH   3   4
ATOM      4  C   UNL A   1      41.076  21.581  26.629  1.00  0.00     0.188 C 
BRANCH   4   5
ATOM      5  O   UNL A   1      40.107  22.052  25.707  1.00  0.00    -0.376 OA
BRANCH   5   6
ATOM      6  C   UNL A   1      38.726  21.988  26.016  1.00  0.00     0.202 C 
BRANCH   6   7
ATOM      7  C   UNL A   1      37.790  23.207  25.918  1.00  0.00     0.261 C 
BRANCH   7   8
ATOM      8  O   UNL A   1      36.673  23.100  25.032  1.00  0.00    -0.460 OA
BRANCH   8   9
ATOM      9  C   UNL A   1      35.444  23.049  25.577  1.00  0.00     0.338 C 
ATOM     10  O   UNL A   1      35.096  22.380  26.533  1.00  0.00    -0.246 OA
BRANCH   9  11
ATOM     11  C   UNL A   1      34.621  24.086  24.919  1.00  0.00     0.087 C 
ATOM     12  C   UNL A   1      30.803  29.159  23.477  1.00  0.00     0.046 C 
ATOM     13  C   UNL A   1      31.880  28.194  23.908  1.00  0.00    -0.026 A 
ATOM     14  C   UNL A   1      32.668  28.474  25.042  1.00  0.00     0.045 A 
ATOM     15  C   UNL A   1      32.050  26.944  23.257  1.00  0.00    -0.004 A 
ATOM     16  Cl  UNL A   1      32.516  29.951  25.934  1.00  0.00    -0.084 Cl
ATOM     17  C   UNL A   1      33.584  27.543  25.534  1.00  0.00     0.032 A 
ATOM     18  C   UNL A   1      33.003  26.025  23.754  1.00  0.00     0.131 A 
ATOM     19  C   UNL A   1      31.242  26.538  22.047  1.00  0.00     0.049 C 
ATOM     20  C   UNL A   1      33.725  26.303  24.915  1.00  0.00     0.019 A 
ATOM     21  O   UNL A   1      33.152  24.858  23.055  1.00  0.00    -0.475 OA
ATOM     22  C   UNL A   1      34.546  25.275  25.529  1.00  0.00     0.027 C 
ATOM     23  C   UNL A   1      33.987  23.794  23.585  1.00  0.00     0.316 C 
BRANCH  23  24
ATOM     24  C   UNL A   1      33.149  22.509  23.604  1.00  0.00     0.430 C 
ATOM     25  F   UNL A   1      32.291  22.464  22.555  1.00  0.00    -0.167 F 
ATOM     26  F   UNL A   1      33.916  21.396  23.521  1.00  0.00    -0.167 F 
ATOM     27  F   UNL A   1      32.412  22.408  24.734  1.00  0.00    -0.167 F 
ENDBRANCH  23  24
ENDBRANCH   9  11
ENDBRANCH   8   9
ENDBRANCH   7   8
ENDBRANCH   6   7
ENDBRANCH   5   6
ENDBRANCH   4   5
ENDBRANCH   3   4
ENDBRANCH   2   3
ENDBRANCH   1   2
BRANCH   1  28
ATOM     28  C   UNL A   1      44.174  18.926  25.206  1.00  0.00     0.188 C 
BRANCH  28  29
ATOM     29  O   UNL A   1      44.136  20.097  24.401  1.00  0.00    -0.376 OA
BRANCH  29  30
ATOM     30  C   UNL A   1      44.362  21.346  25.033  1.00  0.00     0.202 C 
BRANCH  30  31
ATOM     31  C   UNL A   1      44.004  22.585  24.202  1.00  0.00     0.261 C 
BRANCH  31  32
ATOM     32  O   UNL A   1      43.421  23.675  24.932  1.00  0.00    -0.460 OA
BRANCH  32  33
ATOM     33  C   UNL A   1      44.225  24.712  25.248  1.00  0.00     0.338 C 
ATOM     34  O   UNL A   1      45.254  25.048  24.688  1.00  0.00    -0.246 OA
BRANCH  33  35
ATOM     35  C   UNL A   1      43.536  25.503  26.288  1.00  0.00     0.060 A 
ATOM     36  C   UNL A   1      43.872  26.853  26.453  1.00  0.00     0.016 A 
ATOM     37  C   UNL A   1      42.547  24.915  27.080  1.00  0.00     0.016 A 
ATOM     38  C   UNL A   1      43.239  27.612  27.438  1.00  0.00     0.010 A 
ATOM     39  C   UNL A   1      41.933  25.668  28.082  1.00  0.00     0.010 A 
ATOM     40  C   UNL A   1      42.300  27.011  28.286  1.00  0.00    -0.014 A 
BRANCH  40  41
ATOM     41  C   UNL A   1      41.872  27.713  29.520  1.00  0.00     0.031 A 
ATOM     42  C   UNL A   1      40.672  28.615  29.436  1.00  0.00     0.074 A 
ATOM     43  C   UNL A   1      42.506  27.532  30.691  1.00  0.00     0.049 A 
ATOM     44  N   UNL A   1      40.129  29.363  30.360  1.00  0.00    -0.248 NA
ATOM     45  C   UNL A   1      39.990  28.677  28.132  1.00  0.00     0.031 C 
ATOM     46  C   UNL A   1      43.643  26.641  30.912  1.00  0.00     0.029 A 
ATOM     47  N   UNL A   1      42.275  28.097  31.922  1.00  0.00    -0.354 N 
ATOM     48  C   UNL A   1      39.042  29.977  29.753  1.00  0.00     0.074 A 
ATOM     49  C   UNL A   1      39.022  29.548  28.373  1.00  0.00     0.031 C 
ATOM     50  C   UNL A   1      44.012  26.721  32.203  1.00  0.00     0.029 A 
ATOM     51  C   UNL A   1      43.161  27.692  32.890  1.00  0.00     0.049 A 
ATOM     52  H   UNL A   1      41.542  28.731  32.093  1.00  0.00     0.167 HD
ATOM     53  C   UNL A   1      38.130  30.812  30.302  1.00  0.00     0.037 A 
ATOM     54  C   UNL A   1      43.278  28.078  34.177  1.00  0.00     0.037 A 
ATOM     55  C   UNL A   1      38.154  31.245  31.673  1.00  0.00     0.049 A 
ATOM     56  C   UNL A   1      42.315  29.095  34.735  1.00  0.00     0.074 A 
ATOM     57  C   UNL A   1      37.277  32.098  32.319  1.00  0.00     0.029 A 
ATOM     58  N   UNL A   1      39.104  30.861  32.605  1.00  0.00    -0.354 N 
ATOM     59  N   UNL A   1      41.286  29.666  34.157  1.00  0.00    -0.248 NA
ATOM     60  C   UNL A   1      42.531  29.525  36.125  1.00  0.00     0.031 C 
ATOM     61  C   UNL A   1      37.728  32.270  33.631  1.00  0.00     0.029 A 
ATOM     62  C   UNL A   1      38.850  31.479  33.816  1.00  0.00     0.049 A 
ATOM     63  H   UNL A   1      39.849  30.240  32.432  1.00  0.00     0.167 HD
ATOM     64  C   UNL A   1      40.717  30.496  35.117  1.00  0.00     0.074 A 
ATOM     65  C   UNL A   1      41.507  30.344  36.320  1.00  0.00     0.031 C 
ATOM     66  C   UNL A   1      39.638  31.310  35.011  1.00  0.00     0.037 A 
BRANCH  53  67
ATOM     67  C   UNL A   1      37.030  31.322  29.419  1.00  0.00     0.057 A 
ATOM     68  C   UNL A   1      37.058  32.616  28.884  1.00  0.00     0.134 A 
ATOM     69  C   UNL A   1      35.968  30.488  29.046  1.00  0.00     0.134 A 
ATOM     70  F   UNL A   1      38.039  33.469  29.217  1.00  0.00    -0.206 F 
ATOM     71  C   UNL A   1      36.063  33.066  28.014  1.00  0.00     0.040 A 
ATOM     72  C   UNL A   1      34.982  30.919  28.157  1.00  0.00     0.040 A 
ATOM     73  F   UNL A   1      35.883  29.238  29.524  1.00  0.00    -0.206 F 
ATOM     74  C   UNL A   1      35.028  32.211  27.639  1.00  0.00     0.006 A 
ENDBRANCH  53  67
BRANCH  54  75
ATOM     75  C   UNL A   1      44.349  27.506  35.034  1.00  0.00     0.057 A 
ATOM     76  C   UNL A   1      45.616  28.097  35.100  1.00  0.00     0.134 A 
ATOM     77  C   UNL A   1      44.141  26.346  35.791  1.00  0.00     0.134 A 
ATOM     78  F   UNL A   1      45.888  29.194  34.378  1.00  0.00    -0.206 F 
ATOM     79  C   UNL A   1      46.641  27.550  35.876  1.00  0.00     0.040 A 
ATOM     80  C   UNL A   1      45.147  25.804  36.592  1.00  0.00     0.040 A 
ATOM     81  F   UNL A   1      42.952  25.726  35.769  1.00  0.00    -0.206 F 
ATOM     82  C   UNL A   1      46.405  26.403  36.632  1.00  0.00     0.006 A 
ENDBRANCH  54  75
BRANCH  66  83
ATOM     83  C   UNL A   1      39.220  32.085  36.227  1.00  0.00     0.057 A 
ATOM     84  C   UNL A   1      39.700  33.376  36.481  1.00  0.00     0.134 A 
ATOM     85  C   UNL A   1      38.257  31.570  37.105  1.00  0.00     0.134 A 
ATOM     86  F   UNL A   1      40.628  33.925  35.682  1.00  0.00    -0.206 F 
ATOM     87  C   UNL A   1      39.246  34.122  37.569  1.00  0.00     0.040 A 
ATOM     88  C   UNL A   1      37.774  32.317  38.180  1.00  0.00     0.040 A 
ATOM     89  F   UNL A   1      37.744  30.345  36.913  1.00  0.00    -0.206 F 
ATOM     90  C   UNL A   1      38.271  33.596  38.417  1.00  0.00     0.006 A 
ENDBRANCH  66  83
ENDBRANCH  40  41
ENDBRANCH  33  35
ENDBRANCH  32  33
ENDBRANCH  31  32
ENDBRANCH  30  31
ENDBRANCH  29  30
ENDBRANCH  28  29
ENDBRANCH   1  28
TORSDOF 21
ENDMDL
MODEL 3
REMARK VINA RESULT:     -10.2      4.891     10.175
REMARK SMILES Cc1c(Cl)cc2c(c1C)O[C@H](C(F)(F)F)C(C(=O)OCCOCCOCCOCCOC(=O)c1ccc(-c3c4nc(c(-c5c(F)cccc5F)c5ccc([nH]5)c(-c5c(F)cccc5F)c5nc(c(-c6c(F)cccc6F)c6ccc3[nH]6)C=C5)C=C4)cc1)=C2
REMARK SMILES IDX 26 1 25 2 24 3 23 4 22 5 21 6 20 7 19 8 17 9 18 10 16 11
REMARK SMILES IDX 1 12 2 13 3 14 8 15 4 16 5 17 7 18 9 19 6 20 10 21 88 22
REMARK SMILES IDX 11 23 12 24 13 25 14 26 15 27 27 28 28 29 29 30 30 31 31 32
REMARK SMILES IDX 32 33 33 34 34 35 35 36 87 37 36 38 86 39 37 40 38 41 39 42
REMARK SMILES IDX 80 43 40 44 85 45 79 46 81 47 41 48 84 49 78 50 77 51 42 53
REMARK SMILES IDX 68 54 51 55 67 56 52 57 55 58 66 59 82 60 53 61 54 62 65 64
REMARK SMILES IDX 83 65 56 66 43 67 44 68 49 69 45 70 46 71 48 72 50 73 47 74
REMARK SMILES IDX 69 75 70 76 75 77 71 78 72 79 74 80 76 81 73 82 57 83 58 84
REMARK SMILES IDX 63 85 59 86 60 87 62 88 64 89 61 90
REMARK H PARENT 81 52 55 63
REMARK Flexibility Score: inf
ROOT
ATOM      1  C   UNL A   1      33.267  34.180  28.375  1.00  0.00     0.188 C 
ENDROOT
BRANCH   1   2
ATOM      2  O   UNL A   1      33.965  32.969  28.076  1.00  0.00    -0.377 OA
BRANCH   2   3
ATOM      3  C   UNL A   1      33.210  31.866  27.594  1.00  0.00     0.188 C 
BRANCH   3   4
ATOM      4  C   UNL A   1      34.037  30.572  27.465  1.00  0.00     0.188 C 
BRANCH   4   5
ATOM      5  O   UNL A   1      33.336  29.532  26.804  1.00  0.00    -0.376 OA
BRANCH   5   6
ATOM      6  C   UNL A   1      32.730  29.758  25.543  1.00  0.00     0.202 C 
BRANCH   6   7
ATOM      7  C   UNL A   1      33.175  29.030  24.260  1.00  0.00     0.261 C 
BRANCH   7   8
ATOM      8  O   UNL A   1      33.549  27.656  24.389  1.00  0.00    -0.460 OA
BRANCH   8   9
ATOM      9  C   UNL A   1      33.469  26.880  23.292  1.00  0.00     0.338 C 
ATOM     10  O   UNL A   1      33.528  27.246  22.133  1.00  0.00    -0.246 OA
BRANCH   9  11
ATOM     11  C   UNL A   1      33.473  25.471  23.743  1.00  0.00     0.087 C 
ATOM     12  C   UNL A   1      34.798  19.201  24.889  1.00  0.00     0.046 C 
ATOM     13  C   UNL A   1      34.748  20.705  24.772  1.00  0.00    -0.026 A 
ATOM     14  C   UNL A   1      35.939  21.441  24.613  1.00  0.00     0.045 A 
ATOM     15  C   UNL A   1      33.510  21.396  24.706  1.00  0.00    -0.004 A 
ATOM     16  Cl  UNL A   1      37.501  20.693  24.638  1.00  0.00    -0.084 Cl
ATOM     17  C   UNL A   1      35.913  22.817  24.377  1.00  0.00     0.032 A 
ATOM     18  C   UNL A   1      33.505  22.794  24.495  1.00  0.00     0.131 A 
ATOM     19  C   UNL A   1      32.178  20.698  24.844  1.00  0.00     0.049 C 
ATOM     20  C   UNL A   1      34.696  23.489  24.279  1.00  0.00     0.019 A 
ATOM     21  O   UNL A   1      32.283  23.409  24.488  1.00  0.00    -0.475 OA
ATOM     22  C   UNL A   1      34.667  24.878  23.861  1.00  0.00     0.027 C 
ATOM     23  C   UNL A   1      32.173  24.809  24.117  1.00  0.00     0.316 C 
BRANCH  23  24
ATOM     24  C   UNL A   1      31.120  24.917  23.007  1.00  0.00     0.430 C 
ATOM     25  F   UNL A   1      30.321  23.822  22.977  1.00  0.00    -0.167 F 
ATOM     26  F   UNL A   1      30.304  25.984  23.177  1.00  0.00    -0.167 F 
ATOM     27  F   UNL A   1      31.690  25.035  21.786  1.00  0.00    -0.167 F 
ENDBRANCH  23  24
ENDBRANCH   9  11
ENDBRANCH   8   9
ENDBRANCH   7   8
ENDBRANCH   6   7
ENDBRANCH   5   6
ENDBRANCH   4   5
ENDBRANCH   3   4
ENDBRANCH   2   3
ENDBRANCH   1   2
BRANCH   1  28
ATOM     28  C   UNL A   1      33.902  35.319  29.214  1.00  0.00     0.188 C 
BRANCH  28  29
ATOM     29  O   UNL A   1      33.852  35.109  30.618  1.00  0.00    -0.376 OA
BRANCH  29  30
ATOM     30  C   UNL A   1      34.880  34.333  31.212  1.00  0.00     0.202 C 
BRANCH  30  31
ATOM     31  C   UNL A   1      34.437  32.994  31.813  1.00  0.00     0.261 C 
BRANCH  31  32
ATOM     32  O   UNL A   1      35.419  31.946  31.784  1.00  0.00    -0.460 OA
BRANCH  32  33
ATOM     33  C   UNL A   1      36.414  32.001  32.694  1.00  0.00     0.338 C 
ATOM     34  O   UNL A   1      36.308  32.128  33.901  1.00  0.00    -0.246 OA
BRANCH  33  35
ATOM     35  C   UNL A   1      37.673  31.684  31.989  1.00  0.00     0.060 A 
ATOM     36  C   UNL A   1      37.722  31.802  30.594  1.00  0.00     0.016 A 
ATOM     37  C   UNL A   1      38.804  31.294  32.709  1.00  0.00     0.016 A 
ATOM     38  C   UNL A   1      38.900  31.496  29.911  1.00  0.00     0.010 A 
ATOM     39  C   UNL A   1      39.974  30.963  32.022  1.00  0.00     0.010 A 
ATOM     40  C   UNL A   1      40.016  31.032  30.618  1.00  0.00    -0.014 A 
BRANCH  40  41
ATOM     41  C   UNL A   1      41.141  30.407  29.883  1.00  0.00     0.031 A 
ATOM     42  C   UNL A   1      42.362  31.246  29.619  1.00  0.00     0.074 A 
ATOM     43  C   UNL A   1      41.100  29.123  29.487  1.00  0.00     0.049 A 
ATOM     44  N   UNL A   1      43.453  30.942  28.968  1.00  0.00    -0.248 NA
ATOM     45  C   UNL A   1      42.349  32.612  30.170  1.00  0.00     0.031 C 
ATOM     46  C   UNL A   1      40.000  28.195  29.734  1.00  0.00     0.029 A 
ATOM     47  N   UNL A   1      42.021  28.380  28.790  1.00  0.00    -0.354 N 
ATOM     48  C   UNL A   1      44.256  32.073  29.036  1.00  0.00     0.074 A 
ATOM     49  C   UNL A   1      43.516  33.082  29.757  1.00  0.00     0.031 C 
ATOM     50  C   UNL A   1      40.310  27.002  29.193  1.00  0.00     0.029 A 
ATOM     51  C   UNL A   1      41.612  27.093  28.534  1.00  0.00     0.049 A 
ATOM     52  H   UNL A   1      42.892  28.736  28.502  1.00  0.00     0.167 HD
ATOM     53  C   UNL A   1      45.509  32.247  28.555  1.00  0.00     0.037 A 
ATOM     54  C   UNL A   1      42.216  26.113  27.834  1.00  0.00     0.037 A 
ATOM     55  C   UNL A   1      46.243  31.245  27.832  1.00  0.00     0.049 A 
ATOM     56  C   UNL A   1      43.566  26.371  27.213  1.00  0.00     0.074 A 
ATOM     57  C   UNL A   1      47.516  31.333  27.296  1.00  0.00     0.029 A 
ATOM     58  N   UNL A   1      45.769  29.977  27.540  1.00  0.00    -0.354 N 
ATOM     59  N   UNL A   1      44.322  27.439  27.288  1.00  0.00    -0.248 NA
ATOM     60  C   UNL A   1      44.147  25.286  26.406  1.00  0.00     0.031 C 
ATOM     61  C   UNL A   1      47.792  30.133  26.635  1.00  0.00     0.029 A 
ATOM     62  C   UNL A   1      46.715  29.279  26.810  1.00  0.00     0.049 A 
ATOM     63  H   UNL A   1      44.891  29.624  27.812  1.00  0.00     0.167 HD
ATOM     64  C   UNL A   1      45.474  27.146  26.567  1.00  0.00     0.074 A 
ATOM     65  C   UNL A   1      45.325  25.794  26.073  1.00  0.00     0.031 C 
ATOM     66  C   UNL A   1      46.559  27.927  26.335  1.00  0.00     0.037 A 
BRANCH  53  67
ATOM     67  C   UNL A   1      46.166  33.575  28.788  1.00  0.00     0.057 A 
ATOM     68  C   UNL A   1      46.947  33.820  29.924  1.00  0.00     0.134 A 
ATOM     69  C   UNL A   1      46.069  34.598  27.835  1.00  0.00     0.134 A 
ATOM     70  F   UNL A   1      47.065  32.888  30.883  1.00  0.00    -0.206 F 
ATOM     71  C   UNL A   1      47.606  35.037  30.108  1.00  0.00     0.040 A 
ATOM     72  C   UNL A   1      46.744  35.809  27.996  1.00  0.00     0.040 A 
ATOM     73  F   UNL A   1      45.335  34.427  26.725  1.00  0.00    -0.206 F 
ATOM     74  C   UNL A   1      47.514  36.031  29.135  1.00  0.00     0.006 A 
ENDBRANCH  53  67
BRANCH  54  75
ATOM     75  C   UNL A   1      41.554  24.792  27.674  1.00  0.00     0.057 A 
ATOM     76  C   UNL A   1      40.529  24.605  26.739  1.00  0.00     0.134 A 
ATOM     77  C   UNL A   1      41.914  23.692  28.461  1.00  0.00     0.134 A 
ATOM     78  F   UNL A   1      40.119  25.627  25.974  1.00  0.00    -0.206 F 
ATOM     79  C   UNL A   1      39.876  23.377  26.603  1.00  0.00     0.040 A 
ATOM     80  C   UNL A   1      41.290  22.452  28.317  1.00  0.00     0.040 A 
ATOM     81  F   UNL A   1      42.885  23.803  29.380  1.00  0.00    -0.206 F 
ATOM     82  C   UNL A   1      40.262  22.293  27.388  1.00  0.00     0.006 A 
ENDBRANCH  54  75
BRANCH  66  83
ATOM     83  C   UNL A   1      47.687  27.344  25.535  1.00  0.00     0.057 A 
ATOM     84  C   UNL A   1      47.756  27.483  24.144  1.00  0.00     0.134 A 
ATOM     85  C   UNL A   1      48.764  26.714  26.175  1.00  0.00     0.134 A 
ATOM     86  F   UNL A   1      46.756  28.071  23.470  1.00  0.00    -0.206 F 
ATOM     87  C   UNL A   1      48.848  27.009  23.417  1.00  0.00     0.040 A 
ATOM     88  C   UNL A   1      49.874  26.261  25.462  1.00  0.00     0.040 A 
ATOM     89  F   UNL A   1      48.769  26.559  27.508  1.00  0.00    -0.206 F 
ATOM     90  C   UNL A   1      49.918  26.405  24.078  1.00  0.00     0.006 A 
ENDBRANCH  66  83
ENDBRANCH  40  41
ENDBRANCH  33  35
ENDBRANCH  32  33
ENDBRANCH  31  32
ENDBRANCH  30  31
ENDBRANCH  29  30
ENDBRANCH  28  29
ENDBRANCH   1  28
TORSDOF 21
ENDMDL
