MODEL 1
REMARK VINA RESULT:     -10.4      0.000      0.000
REMARK SMILES Cc1ccc(-c2cc([C@@H](C)C(=O)OCCOCCOCCOCCOC(=O)c3ccc(-c4c5nc(c(-c6c(F)cccc6F)c6ccc([nH]6)c(-c6c(F)cccc6F)c6nc(c(-c7c(F)cccc7F)c7ccc4[nH]7)C=C6)C=C5)cc3)ccc2C[C@H]2CCCC2=O)cc1
REMARK SMILES IDX 18 1 17 2 16 3 15 4 14 5 13 6 11 7 12 8 9 9 10 10 8 11 6 12
REMARK SMILES IDX 7 13 84 14 83 15 82 16 5 17 1 18 2 19 3 20 93 21 4 22 92 23
REMARK SMILES IDX 85 24 86 25 87 26 90 27 88 28 89 29 91 30 19 31 20 32 21 33
REMARK SMILES IDX 22 34 23 35 24 36 25 37 26 38 27 39 28 40 29 41 81 42 30 43
REMARK SMILES IDX 80 44 31 45 32 46 33 47 74 48 34 49 79 50 73 51 75 52 35 53
REMARK SMILES IDX 78 54 72 55 71 56 36 58 62 59 45 60 61 61 46 62 49 63 60 64
REMARK SMILES IDX 76 65 47 66 48 67 59 69 77 70 50 71 37 72 38 73 43 74 39 75
REMARK SMILES IDX 40 76 42 77 44 78 41 79 63 80 64 81 69 82 65 83 66 84 68 85
REMARK SMILES IDX 70 86 67 87 51 88 52 89 57 90 53 91 54 92 56 93 58 94 55 95
REMARK H PARENT 75 57 49 68
REMARK Flexibility Score: inf
ROOT
ATOM      1  C   UNL A   1      34.759  23.299  26.701  1.00  0.00     0.188 C 
ENDROOT
BRANCH   1   2
ATOM      2  C   UNL A   1      34.999  21.818  26.970  1.00  0.00     0.188 C 
BRANCH   2   3
ATOM      3  O   UNL A   1      34.227  20.895  26.223  1.00  0.00    -0.376 OA
BRANCH   3   4
ATOM      4  C   UNL A   1      34.453  20.938  24.814  1.00  0.00     0.202 C 
BRANCH   4   5
ATOM      5  C   UNL A   1      33.224  21.244  23.955  1.00  0.00     0.261 C 
BRANCH   5   6
ATOM      6  O   UNL A   1      32.496  22.390  24.455  1.00  0.00    -0.463 OA
BRANCH   6   7
ATOM      7  C   UNL A   1      31.534  22.135  25.377  1.00  0.00     0.313 C 
ATOM      8  O   UNL A   1      31.016  21.034  25.550  1.00  0.00    -0.252 OA
BRANCH   7   9
ATOM      9  C   UNL A   1      31.103  23.361  26.168  1.00  0.00     0.126 C 
ATOM     10  C   UNL A   1      29.888  23.001  27.026  1.00  0.00     0.025 C 
BRANCH   9  11
ATOM     11  C   UNL A   1      31.025  24.669  25.383  1.00  0.00    -0.033 A 
ATOM     12  C   UNL A   1      31.516  27.106  25.302  1.00  0.00    -0.015 A 
ATOM     13  C   UNL A   1      31.587  25.835  25.937  1.00  0.00     0.013 A 
ATOM     14  C   UNL A   1      30.788  27.232  24.091  1.00  0.00    -0.039 A 
ATOM     15  C   UNL A   1      30.256  26.058  23.523  1.00  0.00     0.004 A 
ATOM     16  C   UNL A   1      30.389  24.801  24.146  1.00  0.00     0.005 A 
BRANCH  12  17
ATOM     17  C   UNL A   1      32.240  28.226  25.939  1.00  0.00    -0.018 A 
ATOM     18  C   UNL A   1      34.307  31.572  27.750  1.00  0.00     0.044 C 
ATOM     19  C   UNL A   1      33.587  30.418  27.121  1.00  0.00    -0.051 A 
ATOM     20  C   UNL A   1      34.292  29.448  26.398  1.00  0.00     0.004 A 
ATOM     21  C   UNL A   1      32.208  30.290  27.253  1.00  0.00     0.004 A 
ATOM     22  C   UNL A   1      33.624  28.372  25.802  1.00  0.00     0.009 A 
ATOM     23  C   UNL A   1      31.551  29.205  26.675  1.00  0.00     0.009 A 
ENDBRANCH  12  17
BRANCH  14  24
ATOM     24  C   UNL A   1      30.383  28.588  23.523  1.00  0.00     0.047 C 
BRANCH  24  25
ATOM     25  C   UNL A   1      29.142  28.824  22.655  1.00  0.00     0.060 C 
ATOM     26  C   UNL A   1      27.796  28.895  23.371  1.00  0.00     0.012 C 
ATOM     27  C   UNL A   1      29.161  30.100  21.842  1.00  0.00     0.136 C 
ATOM     28  C   UNL A   1      27.468  30.372  23.418  1.00  0.00     0.009 C 
ATOM     29  C   UNL A   1      27.972  30.974  22.122  1.00  0.00     0.076 C 
ATOM     30  O   UNL A   1      30.009  30.369  21.001  1.00  0.00    -0.299 OA
ENDBRANCH  24  25
ENDBRANCH  14  24
ENDBRANCH   9  11
ENDBRANCH   7   9
ENDBRANCH   6   7
ENDBRANCH   5   6
ENDBRANCH   4   5
ENDBRANCH   3   4
ENDBRANCH   2   3
ENDBRANCH   1   2
BRANCH   1  31
ATOM     31  O   UNL A   1      35.551  23.954  25.736  1.00  0.00    -0.377 OA
BRANCH  31  32
ATOM     32  C   UNL A   1      36.963  23.797  25.805  1.00  0.00     0.188 C 
BRANCH  32  33
ATOM     33  C   UNL A   1      37.632  22.789  24.876  1.00  0.00     0.188 C 
BRANCH  33  34
ATOM     34  O   UNL A   1      38.660  22.106  25.588  1.00  0.00    -0.376 OA
BRANCH  34  35
ATOM     35  C   UNL A   1      38.393  20.728  25.839  1.00  0.00     0.202 C 
BRANCH  35  36
ATOM     36  C   UNL A   1      39.563  19.804  25.473  1.00  0.00     0.261 C 
BRANCH  36  37
ATOM     37  O   UNL A   1      40.590  19.930  26.476  1.00  0.00    -0.460 OA
BRANCH  37  38
ATOM     38  C   UNL A   1      41.842  20.159  25.992  1.00  0.00     0.338 C 
ATOM     39  O   UNL A   1      42.383  19.517  25.109  1.00  0.00    -0.246 OA
BRANCH  38  40
ATOM     40  C   UNL A   1      42.577  21.099  26.897  1.00  0.00     0.060 A 
ATOM     41  C   UNL A   1      42.041  21.401  28.160  1.00  0.00     0.016 A 
ATOM     42  C   UNL A   1      43.565  21.919  26.363  1.00  0.00     0.016 A 
ATOM     43  C   UNL A   1      42.375  22.605  28.807  1.00  0.00     0.010 A 
ATOM     44  C   UNL A   1      43.802  23.151  26.952  1.00  0.00     0.010 A 
ATOM     45  C   UNL A   1      43.194  23.535  28.161  1.00  0.00    -0.014 A 
BRANCH  45  46
ATOM     46  C   UNL A   1      43.304  24.977  28.499  1.00  0.00     0.031 A 
ATOM     47  C   UNL A   1      42.123  25.893  28.324  1.00  0.00     0.074 A 
ATOM     48  C   UNL A   1      44.324  25.420  29.282  1.00  0.00     0.049 A 
ATOM     49  N   UNL A   1      42.065  27.103  28.773  1.00  0.00    -0.248 NA
ATOM     50  C   UNL A   1      40.902  25.533  27.603  1.00  0.00     0.031 C 
ATOM     51  C   UNL A   1      44.229  26.490  30.282  1.00  0.00     0.029 A 
ATOM     52  N   UNL A   1      45.626  24.984  29.463  1.00  0.00    -0.354 N 
ATOM     53  C   UNL A   1      40.764  27.540  28.727  1.00  0.00     0.074 A 
ATOM     54  C   UNL A   1      40.108  26.578  27.877  1.00  0.00     0.031 C 
ATOM     55  C   UNL A   1      45.405  26.675  30.890  1.00  0.00     0.029 A 
ATOM     56  C   UNL A   1      46.384  25.977  30.108  1.00  0.00     0.049 A 
ATOM     57  H   UNL A   1      45.971  24.105  29.182  1.00  0.00     0.167 HD
ATOM     58  C   UNL A   1      40.392  28.601  29.508  1.00  0.00     0.037 A 
ATOM     59  C   UNL A   1      47.378  26.649  29.446  1.00  0.00     0.037 A 
ATOM     60  C   UNL A   1      41.558  29.353  30.042  1.00  0.00     0.049 A 
ATOM     61  C   UNL A   1      47.033  28.092  29.080  1.00  0.00     0.074 A 
ATOM     62  C   UNL A   1      41.951  29.900  31.255  1.00  0.00     0.029 A 
ATOM     63  N   UNL A   1      42.648  29.566  29.200  1.00  0.00    -0.354 N 
ATOM     64  N   UNL A   1      46.005  28.761  29.540  1.00  0.00    -0.248 NA
ATOM     65  C   UNL A   1      47.782  28.869  28.092  1.00  0.00     0.031 C 
ATOM     66  C   UNL A   1      43.259  30.468  31.106  1.00  0.00     0.029 A 
ATOM     67  C   UNL A   1      43.656  30.290  29.796  1.00  0.00     0.049 A 
ATOM     68  H   UNL A   1      42.691  29.235  28.274  1.00  0.00     0.167 HD
ATOM     69  C   UNL A   1      45.854  29.929  28.840  1.00  0.00     0.074 A 
ATOM     70  C   UNL A   1      47.019  29.971  27.974  1.00  0.00     0.031 C 
ATOM     71  C   UNL A   1      44.755  30.739  28.953  1.00  0.00     0.037 A 
BRANCH  58  72
ATOM     72  C   UNL A   1      38.943  28.928  29.887  1.00  0.00     0.057 A 
ATOM     73  C   UNL A   1      38.043  29.458  28.936  1.00  0.00     0.134 A 
ATOM     74  C   UNL A   1      38.393  28.850  31.187  1.00  0.00     0.134 A 
ATOM     75  F   UNL A   1      38.380  29.592  27.646  1.00  0.00    -0.206 F 
ATOM     76  C   UNL A   1      36.742  29.891  29.252  1.00  0.00     0.040 A 
ATOM     77  C   UNL A   1      37.070  29.212  31.500  1.00  0.00     0.040 A 
ATOM     78  F   UNL A   1      39.110  28.475  32.250  1.00  0.00    -0.206 F 
ATOM     79  C   UNL A   1      36.243  29.755  30.535  1.00  0.00     0.006 A 
ENDBRANCH  58  72
BRANCH  59  80
ATOM     80  C   UNL A   1      48.247  25.692  28.710  1.00  0.00     0.057 A 
ATOM     81  C   UNL A   1      48.052  25.651  27.316  1.00  0.00     0.134 A 
ATOM     82  C   UNL A   1      49.524  25.385  29.191  1.00  0.00     0.134 A 
ATOM     83  F   UNL A   1      46.840  25.908  26.801  1.00  0.00    -0.206 F 
ATOM     84  C   UNL A   1      49.126  25.540  26.433  1.00  0.00     0.040 A 
ATOM     85  C   UNL A   1      50.608  25.266  28.312  1.00  0.00     0.040 A 
ATOM     86  F   UNL A   1      49.776  25.396  30.508  1.00  0.00    -0.206 F 
ATOM     87  C   UNL A   1      50.418  25.403  26.936  1.00  0.00     0.006 A 
ENDBRANCH  59  80
BRANCH  71  88
ATOM     88  C   UNL A   1      44.565  32.001  28.145  1.00  0.00     0.057 A 
ATOM     89  C   UNL A   1      44.459  32.006  26.748  1.00  0.00     0.134 A 
ATOM     90  C   UNL A   1      44.555  33.276  28.753  1.00  0.00     0.134 A 
ATOM     91  F   UNL A   1      44.591  30.875  26.041  1.00  0.00    -0.206 F 
ATOM     92  C   UNL A   1      44.235  33.183  26.020  1.00  0.00     0.040 A 
ATOM     93  C   UNL A   1      44.381  34.460  28.033  1.00  0.00     0.040 A 
ATOM     94  F   UNL A   1      44.695  33.438  30.075  1.00  0.00    -0.206 F 
ATOM     95  C   UNL A   1      44.188  34.415  26.663  1.00  0.00     0.006 A 
ENDBRANCH  71  88
ENDBRANCH  45  46
ENDBRANCH  38  40
ENDBRANCH  37  38
ENDBRANCH  36  37
ENDBRANCH  35  36
ENDBRANCH  34  35
ENDBRANCH  33  34
ENDBRANCH  32  33
ENDBRANCH  31  32
ENDBRANCH   1  31
TORSDOF 24
ENDMDL
MODEL 2
REMARK VINA RESULT:     -10.2      1.672      6.143
REMARK SMILES Cc1ccc(-c2cc([C@@H](C)C(=O)OCCOCCOCCOCCOC(=O)c3ccc(-c4c5nc(c(-c6c(F)cccc6F)c6ccc([nH]6)c(-c6c(F)cccc6F)c6nc(c(-c7c(F)cccc7F)c7ccc4[nH]7)C=C6)C=C5)cc3)ccc2C[C@H]2CCCC2=O)cc1
REMARK SMILES IDX 18 1 17 2 16 3 15 4 14 5 13 6 11 7 12 8 9 9 10 10 8 11 6 12
REMARK SMILES IDX 7 13 84 14 83 15 82 16 5 17 1 18 2 19 3 20 93 21 4 22 92 23
REMARK SMILES IDX 85 24 86 25 87 26 90 27 88 28 89 29 91 30 19 31 20 32 21 33
REMARK SMILES IDX 22 34 23 35 24 36 25 37 26 38 27 39 28 40 29 41 81 42 30 43
REMARK SMILES IDX 80 44 31 45 32 46 33 47 74 48 34 49 79 50 73 51 75 52 35 53
REMARK SMILES IDX 78 54 72 55 71 56 36 58 62 59 45 60 61 61 46 62 49 63 60 64
REMARK SMILES IDX 76 65 47 66 48 67 59 69 77 70 50 71 37 72 38 73 43 74 39 75
REMARK SMILES IDX 40 76 42 77 44 78 41 79 63 80 64 81 69 82 65 83 66 84 68 85
REMARK SMILES IDX 70 86 67 87 51 88 52 89 57 90 53 91 54 92 56 93 58 94 55 95
REMARK H PARENT 75 57 49 68
REMARK Flexibility Score: inf
ROOT
ATOM      1  C   UNL A   1      34.915  23.403  26.512  1.00  0.00     0.188 C 
ENDROOT
BRANCH   1   2
ATOM      2  C   UNL A   1      34.938  21.916  26.848  1.00  0.00     0.188 C 
BRANCH   2   3
ATOM      3  O   UNL A   1      33.924  21.112  26.273  1.00  0.00    -0.376 OA
BRANCH   3   4
ATOM      4  C   UNL A   1      34.023  20.956  24.857  1.00  0.00     0.202 C 
BRANCH   4   5
ATOM      5  C   UNL A   1      32.883  21.571  24.042  1.00  0.00     0.261 C 
BRANCH   5   6
ATOM      6  O   UNL A   1      32.300  22.711  24.716  1.00  0.00    -0.463 OA
BRANCH   6   7
ATOM      7  C   UNL A   1      31.248  22.453  25.532  1.00  0.00     0.313 C 
ATOM      8  O   UNL A   1      30.692  21.361  25.621  1.00  0.00    -0.252 OA
BRANCH   7   9
ATOM      9  C   UNL A   1      30.767  23.666  26.315  1.00  0.00     0.126 C 
ATOM     10  C   UNL A   1      29.504  23.290  27.093  1.00  0.00     0.025 C 
BRANCH   9  11
ATOM     11  C   UNL A   1      30.734  24.986  25.548  1.00  0.00    -0.033 A 
ATOM     12  C   UNL A   1      31.377  27.387  25.463  1.00  0.00    -0.015 A 
ATOM     13  C   UNL A   1      31.398  26.106  26.082  1.00  0.00     0.013 A 
ATOM     14  C   UNL A   1      30.597  27.575  24.294  1.00  0.00    -0.039 A 
ATOM     15  C   UNL A   1      29.960  26.445  23.744  1.00  0.00     0.004 A 
ATOM     16  C   UNL A   1      30.043  25.174  24.348  1.00  0.00     0.005 A 
BRANCH  12  17
ATOM     17  C   UNL A   1      32.205  28.449  26.071  1.00  0.00    -0.018 A 
ATOM     18  C   UNL A   1      34.612  31.622  27.771  1.00  0.00     0.044 C 
ATOM     19  C   UNL A   1      33.777  30.528  27.179  1.00  0.00    -0.051 A 
ATOM     20  C   UNL A   1      34.336  29.275  26.903  1.00  0.00     0.004 A 
ATOM     21  C   UNL A   1      32.430  30.741  26.901  1.00  0.00     0.004 A 
ATOM     22  C   UNL A   1      33.562  28.252  26.343  1.00  0.00     0.009 A 
ATOM     23  C   UNL A   1      31.659  29.712  26.362  1.00  0.00     0.009 A 
ENDBRANCH  12  17
BRANCH  14  24
ATOM     24  C   UNL A   1      30.251  28.962  23.761  1.00  0.00     0.047 C 
BRANCH  24  25
ATOM     25  C   UNL A   1      29.013  29.277  22.914  1.00  0.00     0.060 C 
ATOM     26  C   UNL A   1      27.750  29.699  23.658  1.00  0.00     0.012 C 
ATOM     27  C   UNL A   1      29.195  30.384  21.899  1.00  0.00     0.136 C 
ATOM     28  C   UNL A   1      27.683  31.200  23.471  1.00  0.00     0.009 C 
ATOM     29  C   UNL A   1      28.195  31.490  22.075  1.00  0.00     0.076 C 
ATOM     30  O   UNL A   1      30.019  30.362  20.994  1.00  0.00    -0.299 OA
ENDBRANCH  24  25
ENDBRANCH  14  24
ENDBRANCH   9  11
ENDBRANCH   7   9
ENDBRANCH   6   7
ENDBRANCH   5   6
ENDBRANCH   4   5
ENDBRANCH   3   4
ENDBRANCH   2   3
ENDBRANCH   1   2
BRANCH   1  31
ATOM     31  O   UNL A   1      35.811  23.897  25.541  1.00  0.00    -0.377 OA
BRANCH  31  32
ATOM     32  C   UNL A   1      37.130  23.367  25.511  1.00  0.00     0.188 C 
BRANCH  32  33
ATOM     33  C   UNL A   1      37.426  22.195  24.579  1.00  0.00     0.188 C 
BRANCH  33  34
ATOM     34  O   UNL A   1      38.538  21.464  25.085  1.00  0.00    -0.376 OA
BRANCH  34  35
ATOM     35  C   UNL A   1      38.267  20.094  25.375  1.00  0.00     0.202 C 
BRANCH  35  36
ATOM     36  C   UNL A   1      39.529  19.271  25.666  1.00  0.00     0.261 C 
BRANCH  36  37
ATOM     37  O   UNL A   1      40.046  19.647  26.958  1.00  0.00    -0.460 OA
BRANCH  37  38
ATOM     38  C   UNL A   1      41.340  20.073  26.958  1.00  0.00     0.338 C 
ATOM     39  O   UNL A   1      42.294  19.421  27.342  1.00  0.00    -0.246 OA
BRANCH  38  40
ATOM     40  C   UNL A   1      41.393  21.550  26.717  1.00  0.00     0.060 A 
ATOM     41  C   UNL A   1      42.154  22.048  25.646  1.00  0.00     0.016 A 
ATOM     42  C   UNL A   1      40.996  22.416  27.730  1.00  0.00     0.016 A 
ATOM     43  C   UNL A   1      42.651  23.364  25.676  1.00  0.00     0.010 A 
ATOM     44  C   UNL A   1      41.579  23.670  27.806  1.00  0.00     0.010 A 
ATOM     45  C   UNL A   1      42.441  24.159  26.806  1.00  0.00    -0.014 A 
BRANCH  45  46
ATOM     46  C   UNL A   1      43.218  25.371  27.173  1.00  0.00     0.031 A 
ATOM     47  C   UNL A   1      44.692  25.273  27.455  1.00  0.00     0.074 A 
ATOM     48  C   UNL A   1      42.713  26.608  26.921  1.00  0.00     0.049 A 
ATOM     49  N   UNL A   1      45.480  26.289  27.584  1.00  0.00    -0.248 NA
ATOM     50  C   UNL A   1      45.413  24.013  27.643  1.00  0.00     0.031 C 
ATOM     51  C   UNL A   1      43.494  27.779  26.502  1.00  0.00     0.029 A 
ATOM     52  N   UNL A   1      41.421  27.102  26.871  1.00  0.00    -0.354 N 
ATOM     53  C   UNL A   1      46.783  25.862  27.518  1.00  0.00     0.074 A 
ATOM     54  C   UNL A   1      46.686  24.433  27.682  1.00  0.00     0.031 C 
ATOM     55  C   UNL A   1      42.699  28.838  26.325  1.00  0.00     0.029 A 
ATOM     56  C   UNL A   1      41.437  28.508  26.922  1.00  0.00     0.049 A 
ATOM     57  H   UNL A   1      40.608  26.550  26.808  1.00  0.00     0.167 HD
ATOM     58  C   UNL A   1      47.765  26.769  27.221  1.00  0.00     0.037 A 
ATOM     59  C   UNL A   1      40.970  29.180  28.021  1.00  0.00     0.037 A 
ATOM     60  C   UNL A   1      47.302  28.175  27.356  1.00  0.00     0.049 A 
ATOM     61  C   UNL A   1      42.060  29.802  28.894  1.00  0.00     0.074 A 
ATOM     62  C   UNL A   1      47.400  29.356  26.634  1.00  0.00     0.029 A 
ATOM     63  N   UNL A   1      46.476  28.498  28.431  1.00  0.00    -0.354 N 
ATOM     64  N   UNL A   1      43.318  29.929  28.553  1.00  0.00    -0.248 NA
ATOM     65  C   UNL A   1      41.826  30.255  30.266  1.00  0.00     0.031 C 
ATOM     66  C   UNL A   1      46.660  30.379  27.313  1.00  0.00     0.029 A 
ATOM     67  C   UNL A   1      46.129  29.830  28.464  1.00  0.00     0.049 A 
ATOM     68  H   UNL A   1      46.174  27.842  29.099  1.00  0.00     0.167 HD
ATOM     69  C   UNL A   1      44.063  30.303  29.639  1.00  0.00     0.074 A 
ATOM     70  C   UNL A   1      43.075  30.538  30.677  1.00  0.00     0.031 C 
ATOM     71  C   UNL A   1      45.433  30.318  29.645  1.00  0.00     0.037 A 
BRANCH  58  72
ATOM     72  C   UNL A   1      49.158  26.395  26.703  1.00  0.00     0.057 A 
ATOM     73  C   UNL A   1      50.092  25.737  27.534  1.00  0.00     0.134 A 
ATOM     74  C   UNL A   1      49.689  26.742  25.440  1.00  0.00     0.134 A 
ATOM     75  F   UNL A   1      49.765  25.315  28.763  1.00  0.00    -0.206 F 
ATOM     76  C   UNL A   1      51.423  25.478  27.157  1.00  0.00     0.040 A 
ATOM     77  C   UNL A   1      50.995  26.424  25.026  1.00  0.00     0.040 A 
ATOM     78  F   UNL A   1      49.005  27.460  24.545  1.00  0.00    -0.206 F 
ATOM     79  C   UNL A   1      51.877  25.807  25.892  1.00  0.00     0.006 A 
ENDBRANCH  58  72
BRANCH  59  80
ATOM     80  C   UNL A   1      39.651  28.635  28.439  1.00  0.00     0.057 A 
ATOM     81  C   UNL A   1      39.664  27.866  29.618  1.00  0.00     0.134 A 
ATOM     82  C   UNL A   1      38.473  29.325  28.131  1.00  0.00     0.134 A 
ATOM     83  F   UNL A   1      40.756  27.161  29.947  1.00  0.00    -0.206 F 
ATOM     84  C   UNL A   1      38.641  27.964  30.562  1.00  0.00     0.040 A 
ATOM     85  C   UNL A   1      37.439  29.424  29.070  1.00  0.00     0.040 A 
ATOM     86  F   UNL A   1      38.391  30.069  27.018  1.00  0.00    -0.206 F 
ATOM     87  C   UNL A   1      37.549  28.792  30.310  1.00  0.00     0.006 A 
ENDBRANCH  59  80
BRANCH  71  88
ATOM     88  C   UNL A   1      46.256  30.684  30.858  1.00  0.00     0.057 A 
ATOM     89  C   UNL A   1      46.825  31.950  31.043  1.00  0.00     0.134 A 
ATOM     90  C   UNL A   1      46.565  29.735  31.859  1.00  0.00     0.134 A 
ATOM     91  F   UNL A   1      46.721  32.898  30.100  1.00  0.00    -0.206 F 
ATOM     92  C   UNL A   1      47.544  32.285  32.198  1.00  0.00     0.040 A 
ATOM     93  C   UNL A   1      47.322  30.043  32.991  1.00  0.00     0.040 A 
ATOM     94  F   UNL A   1      46.134  28.468  31.798  1.00  0.00    -0.206 F 
ATOM     95  C   UNL A   1      47.789  31.332  33.180  1.00  0.00     0.006 A 
ENDBRANCH  71  88
ENDBRANCH  45  46
ENDBRANCH  38  40
ENDBRANCH  37  38
ENDBRANCH  36  37
ENDBRANCH  35  36
ENDBRANCH  34  35
ENDBRANCH  33  34
ENDBRANCH  32  33
ENDBRANCH  31  32
ENDBRANCH   1  31
TORSDOF 24
ENDMDL
MODEL 3
REMARK VINA RESULT:     -10.1      3.567      6.469
REMARK SMILES Cc1ccc(-c2cc([C@@H](C)C(=O)OCCOCCOCCOCCOC(=O)c3ccc(-c4c5nc(c(-c6c(F)cccc6F)c6ccc([nH]6)c(-c6c(F)cccc6F)c6nc(c(-c7c(F)cccc7F)c7ccc4[nH]7)C=C6)C=C5)cc3)ccc2C[C@H]2CCCC2=O)cc1
REMARK SMILES IDX 18 1 17 2 16 3 15 4 14 5 13 6 11 7 12 8 9 9 10 10 8 11 6 12
REMARK SMILES IDX 7 13 84 14 83 15 82 16 5 17 1 18 2 19 3 20 93 21 4 22 92 23
REMARK SMILES IDX 85 24 86 25 87 26 90 27 88 28 89 29 91 30 19 31 20 32 21 33
REMARK SMILES IDX 22 34 23 35 24 36 25 37 26 38 27 39 28 40 29 41 81 42 30 43
REMARK SMILES IDX 80 44 31 45 32 46 33 47 74 48 34 49 79 50 73 51 75 52 35 53
REMARK SMILES IDX 78 54 72 55 71 56 36 58 62 59 45 60 61 61 46 62 49 63 60 64
REMARK SMILES IDX 76 65 47 66 48 67 59 69 77 70 50 71 37 72 38 73 43 74 39 75
REMARK SMILES IDX 40 76 42 77 44 78 41 79 63 80 64 81 69 82 65 83 66 84 68 85
REMARK SMILES IDX 70 86 67 87 51 88 52 89 57 90 53 91 54 92 56 93 58 94 55 95
REMARK H PARENT 75 57 49 68
REMARK Flexibility Score: inf
ROOT
ATOM      1  C   UNL A   1      43.060  18.432  26.247  1.00  0.00     0.188 C 
ENDROOT
BRANCH   1   2
ATOM      2  C   UNL A   1      41.913  19.428  26.121  1.00  0.00     0.188 C 
BRANCH   2   3
ATOM      3  O   UNL A   1      42.247  20.749  25.737  1.00  0.00    -0.376 OA
BRANCH   3   4
ATOM      4  C   UNL A   1      41.808  21.760  26.646  1.00  0.00     0.202 C 
BRANCH   4   5
ATOM      5  C   UNL A   1      40.310  21.765  26.957  1.00  0.00     0.261 C 
BRANCH   5   6
ATOM      6  O   UNL A   1      39.517  21.917  25.757  1.00  0.00    -0.463 OA
BRANCH   6   7
ATOM      7  C   UNL A   1      38.293  22.481  25.914  1.00  0.00     0.313 C 
ATOM      8  O   UNL A   1      38.106  23.663  26.194  1.00  0.00    -0.252 OA
BRANCH   7   9
ATOM      9  C   UNL A   1      37.141  21.500  25.758  1.00  0.00     0.126 C 
ATOM     10  C   UNL A   1      37.385  20.635  24.519  1.00  0.00     0.025 C 
BRANCH   9  11
ATOM     11  C   UNL A   1      35.739  22.083  25.922  1.00  0.00    -0.033 A 
ATOM     12  C   UNL A   1      34.192  23.987  25.520  1.00  0.00    -0.015 A 
ATOM     13  C   UNL A   1      35.453  23.346  25.372  1.00  0.00     0.013 A 
ATOM     14  C   UNL A   1      33.193  23.370  26.315  1.00  0.00    -0.039 A 
ATOM     15  C   UNL A   1      33.471  22.091  26.836  1.00  0.00     0.004 A 
ATOM     16  C   UNL A   1      34.710  21.453  26.628  1.00  0.00     0.005 A 
BRANCH  12  17
ATOM     17  C   UNL A   1      33.989  25.263  24.801  1.00  0.00    -0.018 A 
ATOM     18  C   UNL A   1      33.309  29.014  22.747  1.00  0.00     0.044 C 
ATOM     19  C   UNL A   1      33.541  27.718  23.462  1.00  0.00    -0.051 A 
ATOM     20  C   UNL A   1      33.652  26.519  22.746  1.00  0.00     0.004 A 
ATOM     21  C   UNL A   1      33.655  27.687  24.849  1.00  0.00     0.004 A 
ATOM     22  C   UNL A   1      33.860  25.305  23.410  1.00  0.00     0.009 A 
ATOM     23  C   UNL A   1      33.883  26.477  25.502  1.00  0.00     0.009 A 
ENDBRANCH  12  17
BRANCH  14  24
ATOM     24  C   UNL A   1      31.956  24.122  26.795  1.00  0.00     0.047 C 
BRANCH  24  25
ATOM     25  C   UNL A   1      30.647  24.224  26.004  1.00  0.00     0.060 C 
ATOM     26  C   UNL A   1      29.947  25.580  25.989  1.00  0.00     0.012 C 
ATOM     27  C   UNL A   1      30.757  23.882  24.535  1.00  0.00     0.136 C 
ATOM     28  C   UNL A   1      30.269  26.157  24.627  1.00  0.00     0.009 C 
ATOM     29  C   UNL A   1      30.279  24.998  23.651  1.00  0.00     0.076 C 
ATOM     30  O   UNL A   1      31.130  22.799  24.105  1.00  0.00    -0.299 OA
ENDBRANCH  24  25
ENDBRANCH  14  24
ENDBRANCH   9  11
ENDBRANCH   7   9
ENDBRANCH   6   7
ENDBRANCH   5   6
ENDBRANCH   4   5
ENDBRANCH   3   4
ENDBRANCH   2   3
ENDBRANCH   1   2
BRANCH   1  31
ATOM     31  O   UNL A   1      43.950  18.277  25.165  1.00  0.00    -0.377 OA
BRANCH  31  32
ATOM     32  C   UNL A   1      45.236  18.878  25.260  1.00  0.00     0.188 C 
BRANCH  32  33
ATOM     33  C   UNL A   1      45.559  20.060  24.351  1.00  0.00     0.188 C 
BRANCH  33  34
ATOM     34  O   UNL A   1      46.405  20.969  25.049  1.00  0.00    -0.376 OA
BRANCH  34  35
ATOM     35  C   UNL A   1      46.048  22.343  24.906  1.00  0.00     0.202 C 
BRANCH  35  36
ATOM     36  C   UNL A   1      45.429  22.948  26.172  1.00  0.00     0.261 C 
BRANCH  36  37
ATOM     37  O   UNL A   1      46.139  24.156  26.510  1.00  0.00    -0.460 OA
BRANCH  37  38
ATOM     38  C   UNL A   1      45.369  25.278  26.570  1.00  0.00     0.338 C 
ATOM     39  O   UNL A   1      45.262  26.105  25.683  1.00  0.00    -0.246 OA
BRANCH  38  40
ATOM     40  C   UNL A   1      44.922  25.516  27.979  1.00  0.00     0.060 A 
ATOM     41  C   UNL A   1      43.658  25.057  28.389  1.00  0.00     0.016 A 
ATOM     42  C   UNL A   1      45.581  26.470  28.747  1.00  0.00     0.016 A 
ATOM     43  C   UNL A   1      42.993  25.670  29.467  1.00  0.00     0.010 A 
ATOM     44  C   UNL A   1      44.876  27.140  29.733  1.00  0.00     0.010 A 
ATOM     45  C   UNL A   1      43.563  26.782  30.093  1.00  0.00    -0.014 A 
BRANCH  45  46
ATOM     46  C   UNL A   1      42.841  27.771  30.932  1.00  0.00     0.031 A 
ATOM     47  C   UNL A   1      42.020  28.858  30.293  1.00  0.00     0.074 A 
ATOM     48  C   UNL A   1      42.618  27.517  32.249  1.00  0.00     0.049 A 
ATOM     49  N   UNL A   1      41.207  29.632  30.933  1.00  0.00    -0.248 NA
ATOM     50  C   UNL A   1      42.059  29.189  28.868  1.00  0.00     0.031 C 
ATOM     51  C   UNL A   1      41.412  27.892  32.999  1.00  0.00     0.029 A 
ATOM     52  N   UNL A   1      43.324  26.798  33.199  1.00  0.00    -0.354 N 
ATOM     53  C   UNL A   1      40.398  30.281  30.033  1.00  0.00     0.074 A 
ATOM     54  C   UNL A   1      41.052  30.068  28.766  1.00  0.00     0.031 C 
ATOM     55  C   UNL A   1      41.499  27.486  34.268  1.00  0.00     0.029 A 
ATOM     56  C   UNL A   1      42.870  27.124  34.490  1.00  0.00     0.049 A 
ATOM     57  H   UNL A   1      44.040  26.151  33.000  1.00  0.00     0.167 HD
ATOM     58  C   UNL A   1      39.218  30.819  30.470  1.00  0.00     0.037 A 
ATOM     59  C   UNL A   1      43.661  27.826  35.360  1.00  0.00     0.037 A 
ATOM     60  C   UNL A   1      39.152  30.922  31.951  1.00  0.00     0.049 A 
ATOM     61  C   UNL A   1      43.239  29.280  35.570  1.00  0.00     0.074 A 
ATOM     62  C   UNL A   1      38.229  30.655  32.953  1.00  0.00     0.029 A 
ATOM     63  N   UNL A   1      40.297  31.322  32.638  1.00  0.00    -0.354 N 
ATOM     64  N   UNL A   1      42.100  29.797  35.180  1.00  0.00    -0.248 NA
ATOM     65  C   UNL A   1      44.113  30.291  36.166  1.00  0.00     0.031 C 
ATOM     66  C   UNL A   1      38.829  30.937  34.224  1.00  0.00     0.029 A 
ATOM     67  C   UNL A   1      40.111  31.400  34.000  1.00  0.00     0.049 A 
ATOM     68  H   UNL A   1      41.151  31.528  32.194  1.00  0.00     0.167 HD
ATOM     69  C   UNL A   1      42.136  31.161  35.308  1.00  0.00     0.074 A 
ATOM     70  C   UNL A   1      43.402  31.416  35.973  1.00  0.00     0.031 C 
ATOM     71  C   UNL A   1      41.177  31.992  34.794  1.00  0.00     0.037 A 
BRANCH  58  72
ATOM     72  C   UNL A   1      38.043  31.183  29.554  1.00  0.00     0.057 A 
ATOM     73  C   UNL A   1      37.576  32.513  29.463  1.00  0.00     0.134 A 
ATOM     74  C   UNL A   1      37.257  30.267  28.819  1.00  0.00     0.134 A 
ATOM     75  F   UNL A   1      38.203  33.523  30.079  1.00  0.00    -0.206 F 
ATOM     76  C   UNL A   1      36.429  32.887  28.737  1.00  0.00     0.040 A 
ATOM     77  C   UNL A   1      36.152  30.640  28.031  1.00  0.00     0.040 A 
ATOM     78  F   UNL A   1      37.466  28.948  28.855  1.00  0.00    -0.206 F 
ATOM     79  C   UNL A   1      35.720  31.952  28.004  1.00  0.00     0.006 A 
ENDBRANCH  58  72
BRANCH  59  80
ATOM     80  C   UNL A   1      45.031  27.249  35.395  1.00  0.00     0.057 A 
ATOM     81  C   UNL A   1      46.017  27.998  34.726  1.00  0.00     0.134 A 
ATOM     82  C   UNL A   1      45.441  26.468  36.481  1.00  0.00     0.134 A 
ATOM     83  F   UNL A   1      45.685  28.741  33.659  1.00  0.00    -0.206 F 
ATOM     84  C   UNL A   1      47.301  28.148  35.252  1.00  0.00     0.040 A 
ATOM     85  C   UNL A   1      46.729  26.608  37.013  1.00  0.00     0.040 A 
ATOM     86  F   UNL A   1      44.554  25.723  37.157  1.00  0.00    -0.206 F 
ATOM     87  C   UNL A   1      47.640  27.493  36.433  1.00  0.00     0.006 A 
ENDBRANCH  59  80
BRANCH  71  88
ATOM     88  C   UNL A   1      41.241  33.498  34.893  1.00  0.00     0.057 A 
ATOM     89  C   UNL A   1      40.360  34.251  35.679  1.00  0.00     0.134 A 
ATOM     90  C   UNL A   1      42.162  34.253  34.131  1.00  0.00     0.134 A 
ATOM     91  F   UNL A   1      39.353  33.665  36.343  1.00  0.00    -0.206 F 
ATOM     92  C   UNL A   1      40.466  35.644  35.796  1.00  0.00     0.040 A 
ATOM     93  C   UNL A   1      42.245  35.645  34.202  1.00  0.00     0.040 A 
ATOM     94  F   UNL A   1      43.036  33.679  33.295  1.00  0.00    -0.206 F 
ATOM     95  C   UNL A   1      41.416  36.345  35.062  1.00  0.00     0.006 A 
ENDBRANCH  71  88
ENDBRANCH  45  46
ENDBRANCH  38  40
ENDBRANCH  37  38
ENDBRANCH  36  37
ENDBRANCH  35  36
ENDBRANCH  34  35
ENDBRANCH  33  34
ENDBRANCH  32  33
ENDBRANCH  31  32
ENDBRANCH   1  31
TORSDOF 24
ENDMDL
