MODEL 1
REMARK VINA RESULT:     -10.7      0.000      0.000
REMARK SMILES Cc1cc2c(c(C)c1Cl)C=C(C(=O)OCCOCCOCCOCCOC(=O)c1ccc(-c3c4nc(c(-c5c(F)cccc5F)c5ccc([nH]5)c(-c5c(F)cccc5F)c5nc(c(-c6c(F)cccc6F)c6ccc3[nH]6)C=C5)C=C4)cc1)[C@@H](C(F)(F)F)O2
REMARK SMILES IDX 21 1 20 2 19 3 18 4 17 5 16 6 15 7 14 8 12 9 13 10 11 11
REMARK SMILES IDX 1 12 2 13 3 14 8 15 4 16 6 17 9 18 5 19 88 20 7 21 10 22
REMARK SMILES IDX 83 23 84 24 85 25 86 26 87 27 22 28 23 29 24 30 25 31 26 32
REMARK SMILES IDX 27 33 28 34 29 35 30 36 82 37 31 38 81 39 32 40 33 41 34 42
REMARK SMILES IDX 75 43 35 44 80 45 74 46 76 47 36 48 79 49 73 50 72 51 37 53
REMARK SMILES IDX 63 54 46 55 62 56 47 57 50 58 61 59 77 60 48 61 49 62 60 64
REMARK SMILES IDX 78 65 51 66 38 67 39 68 44 69 40 70 41 71 43 72 45 73 42 74
REMARK SMILES IDX 64 75 65 76 70 77 66 78 67 79 69 80 71 81 68 82 52 83 53 84
REMARK SMILES IDX 58 85 54 86 55 87 57 88 59 89 56 90
REMARK H PARENT 76 52 50 63
REMARK Flexibility Score: inf
ROOT
ATOM      1  C   UNL A   1      34.257  35.306  28.555  1.00  0.00     0.188 C 
ENDROOT
BRANCH   1   2
ATOM      2  O   UNL A   1      34.692  33.967  28.301  1.00  0.00    -0.377 OA
BRANCH   2   3
ATOM      3  C   UNL A   1      33.718  33.007  27.923  1.00  0.00     0.188 C 
BRANCH   3   4
ATOM      4  C   UNL A   1      34.231  31.555  27.986  1.00  0.00     0.188 C 
BRANCH   4   5
ATOM      5  O   UNL A   1      33.281  30.616  27.507  1.00  0.00    -0.376 OA
BRANCH   5   6
ATOM      6  C   UNL A   1      33.661  29.647  26.543  1.00  0.00     0.202 C 
BRANCH   6   7
ATOM      7  C   UNL A   1      33.176  28.188  26.616  1.00  0.00     0.261 C 
BRANCH   7   8
ATOM      8  O   UNL A   1      32.333  27.733  25.554  1.00  0.00    -0.460 OA
BRANCH   8   9
ATOM      9  C   UNL A   1      32.923  27.193  24.473  1.00  0.00     0.338 C 
ATOM     10  O   UNL A   1      33.508  27.789  23.585  1.00  0.00    -0.246 OA
BRANCH   9  11
ATOM     11  C   UNL A   1      32.895  25.722  24.636  1.00  0.00     0.087 C 
ATOM     12  C   UNL A   1      33.983  19.350  24.644  1.00  0.00     0.046 C 
ATOM     13  C   UNL A   1      34.055  20.840  24.844  1.00  0.00    -0.028 A 
ATOM     14  C   UNL A   1      32.865  21.579  24.828  1.00  0.00     0.052 A 
ATOM     15  C   UNL A   1      35.278  21.522  24.991  1.00  0.00     0.047 A 
ATOM     16  C   UNL A   1      32.890  22.971  24.868  1.00  0.00     0.128 A 
ATOM     17  C   UNL A   1      35.319  22.934  25.071  1.00  0.00    -0.021 A 
ATOM     18  Cl  UNL A   1      36.745  20.591  25.035  1.00  0.00    -0.084 Cl
ATOM     19  C   UNL A   1      34.107  23.657  24.934  1.00  0.00     0.022 A 
ATOM     20  O   UNL A   1      31.664  23.568  24.812  1.00  0.00    -0.475 OA
ATOM     21  C   UNL A   1      36.612  23.681  25.307  1.00  0.00     0.047 C 
ATOM     22  C   UNL A   1      34.078  25.109  24.777  1.00  0.00     0.027 C 
ATOM     23  C   UNL A   1      31.573  25.014  24.723  1.00  0.00     0.316 C 
BRANCH  23  24
ATOM     24  C   UNL A   1      30.647  25.354  23.547  1.00  0.00     0.430 C 
ATOM     25  F   UNL A   1      29.744  26.306  23.890  1.00  0.00    -0.167 F 
ATOM     26  F   UNL A   1      31.328  25.835  22.481  1.00  0.00    -0.167 F 
ATOM     27  F   UNL A   1      29.953  24.271  23.127  1.00  0.00    -0.167 F 
ENDBRANCH  23  24
ENDBRANCH   9  11
ENDBRANCH   8   9
ENDBRANCH   7   8
ENDBRANCH   6   7
ENDBRANCH   5   6
ENDBRANCH   4   5
ENDBRANCH   3   4
ENDBRANCH   2   3
ENDBRANCH   1   2
BRANCH   1  28
ATOM     28  C   UNL A   1      33.327  35.669  29.741  1.00  0.00     0.188 C 
BRANCH  28  29
ATOM     29  O   UNL A   1      33.251  34.675  30.754  1.00  0.00    -0.376 OA
BRANCH  29  30
ATOM     30  C   UNL A   1      34.444  34.336  31.440  1.00  0.00     0.202 C 
BRANCH  30  31
ATOM     31  C   UNL A   1      34.310  33.225  32.489  1.00  0.00     0.261 C 
BRANCH  31  32
ATOM     32  O   UNL A   1      35.268  32.160  32.391  1.00  0.00    -0.460 OA
BRANCH  32  33
ATOM     33  C   UNL A   1      36.494  32.376  32.914  1.00  0.00     0.338 C 
ATOM     34  O   UNL A   1      36.765  32.967  33.945  1.00  0.00    -0.246 OA
BRANCH  33  35
ATOM     35  C   UNL A   1      37.458  31.593  32.114  1.00  0.00     0.060 A 
ATOM     36  C   UNL A   1      38.396  30.788  32.772  1.00  0.00     0.016 A 
ATOM     37  C   UNL A   1      37.416  31.642  30.718  1.00  0.00     0.016 A 
ATOM     38  C   UNL A   1      39.318  30.047  32.032  1.00  0.00     0.010 A 
ATOM     39  C   UNL A   1      38.356  30.920  29.980  1.00  0.00     0.010 A 
ATOM     40  C   UNL A   1      39.330  30.147  30.635  1.00  0.00    -0.014 A 
BRANCH  40  41
ATOM     41  C   UNL A   1      40.491  29.626  29.875  1.00  0.00     0.031 A 
ATOM     42  C   UNL A   1      41.642  30.559  29.620  1.00  0.00     0.074 A 
ATOM     43  C   UNL A   1      40.544  28.351  29.450  1.00  0.00     0.049 A 
ATOM     44  N   UNL A   1      42.750  30.351  28.956  1.00  0.00    -0.248 NA
ATOM     45  C   UNL A   1      41.529  31.911  30.195  1.00  0.00     0.031 C 
ATOM     46  C   UNL A   1      39.519  27.338  29.683  1.00  0.00     0.029 A 
ATOM     47  N   UNL A   1      41.512  27.696  28.729  1.00  0.00    -0.354 N 
ATOM     48  C   UNL A   1      43.465  31.540  29.042  1.00  0.00     0.074 A 
ATOM     49  C   UNL A   1      42.652  32.477  29.783  1.00  0.00     0.031 C 
ATOM     50  C   UNL A   1      39.911  26.185  29.112  1.00  0.00     0.029 A 
ATOM     51  C   UNL A   1      41.199  26.388  28.448  1.00  0.00     0.049 A 
ATOM     52  H   UNL A   1      42.351  28.122  28.441  1.00  0.00     0.167 HD
ATOM     53  C   UNL A   1      44.696  31.820  28.557  1.00  0.00     0.037 A 
ATOM     54  C   UNL A   1      41.870  25.471  27.722  1.00  0.00     0.037 A 
ATOM     55  C   UNL A   1      45.500  30.889  27.813  1.00  0.00     0.049 A 
ATOM     56  C   UNL A   1      43.193  25.841  27.101  1.00  0.00     0.074 A 
ATOM     57  C   UNL A   1      46.760  31.082  27.274  1.00  0.00     0.029 A 
ATOM     58  N   UNL A   1      45.121  29.595  27.495  1.00  0.00    -0.354 N 
ATOM     59  N   UNL A   1      43.867  26.962  27.195  1.00  0.00    -0.248 NA
ATOM     60  C   UNL A   1      43.849  24.818  26.272  1.00  0.00     0.031 C 
ATOM     61  C   UNL A   1      47.121  29.922  26.586  1.00  0.00     0.029 A 
ATOM     62  C   UNL A   1      46.112  28.985  26.746  1.00  0.00     0.049 A 
ATOM     63  H   UNL A   1      44.273  29.172  27.763  1.00  0.00     0.167 HD
ATOM     64  C   UNL A   1      45.033  26.771  26.461  1.00  0.00     0.074 A 
ATOM     65  C   UNL A   1      44.982  25.422  25.941  1.00  0.00     0.031 C 
ATOM     66  C   UNL A   1      46.053  27.636  26.240  1.00  0.00     0.037 A 
BRANCH  53  67
ATOM     67  C   UNL A   1      45.247  33.191  28.809  1.00  0.00     0.057 A 
ATOM     68  C   UNL A   1      46.089  33.458  29.896  1.00  0.00     0.134 A 
ATOM     69  C   UNL A   1      44.980  34.243  27.923  1.00  0.00     0.134 A 
ATOM     70  F   UNL A   1      46.368  32.498  30.791  1.00  0.00    -0.206 F 
ATOM     71  C   UNL A   1      46.637  34.725  30.100  1.00  0.00     0.040 A 
ATOM     72  C   UNL A   1      45.544  35.507  28.101  1.00  0.00     0.040 A 
ATOM     73  F   UNL A   1      44.182  34.053  26.861  1.00  0.00    -0.206 F 
ATOM     74  C   UNL A   1      46.374  35.750  29.193  1.00  0.00     0.006 A 
ENDBRANCH  53  67
BRANCH  54  75
ATOM     75  C   UNL A   1      41.305  24.108  27.540  1.00  0.00     0.057 A 
ATOM     76  C   UNL A   1      40.244  23.877  26.656  1.00  0.00     0.134 A 
ATOM     77  C   UNL A   1      41.800  23.009  28.252  1.00  0.00     0.134 A 
ATOM     78  F   UNL A   1      39.707  24.893  25.966  1.00  0.00    -0.206 F 
ATOM     79  C   UNL A   1      39.691  22.605  26.493  1.00  0.00     0.040 A 
ATOM     80  C   UNL A   1      41.274  21.726  28.078  1.00  0.00     0.040 A 
ATOM     81  F   UNL A   1      42.811  23.162  29.119  1.00  0.00    -0.206 F 
ATOM     82  C   UNL A   1      40.213  21.524  27.200  1.00  0.00     0.006 A 
ENDBRANCH  54  75
BRANCH  66  83
ATOM     83  C   UNL A   1      47.217  27.157  25.421  1.00  0.00     0.057 A 
ATOM     84  C   UNL A   1      47.361  27.504  24.072  1.00  0.00     0.134 A 
ATOM     85  C   UNL A   1      48.251  26.421  26.013  1.00  0.00     0.134 A 
ATOM     86  F   UNL A   1      46.403  28.203  23.443  1.00  0.00    -0.206 F 
ATOM     87  C   UNL A   1      48.487  27.125  23.338  1.00  0.00     0.040 A 
ATOM     88  C   UNL A   1      49.394  26.060  25.298  1.00  0.00     0.040 A 
ATOM     89  F   UNL A   1      48.183  26.068  27.306  1.00  0.00    -0.206 F 
ATOM     90  C   UNL A   1      49.513  26.412  23.955  1.00  0.00     0.006 A 
ENDBRANCH  66  83
ENDBRANCH  40  41
ENDBRANCH  33  35
ENDBRANCH  32  33
ENDBRANCH  31  32
ENDBRANCH  30  31
ENDBRANCH  29  30
ENDBRANCH  28  29
ENDBRANCH   1  28
TORSDOF 21
ENDMDL
MODEL 2
REMARK VINA RESULT:     -10.4      0.703      5.967
REMARK SMILES Cc1cc2c(c(C)c1Cl)C=C(C(=O)OCCOCCOCCOCCOC(=O)c1ccc(-c3c4nc(c(-c5c(F)cccc5F)c5ccc([nH]5)c(-c5c(F)cccc5F)c5nc(c(-c6c(F)cccc6F)c6ccc3[nH]6)C=C5)C=C4)cc1)[C@@H](C(F)(F)F)O2
REMARK SMILES IDX 21 1 20 2 19 3 18 4 17 5 16 6 15 7 14 8 12 9 13 10 11 11
REMARK SMILES IDX 1 12 2 13 3 14 8 15 4 16 6 17 9 18 5 19 88 20 7 21 10 22
REMARK SMILES IDX 83 23 84 24 85 25 86 26 87 27 22 28 23 29 24 30 25 31 26 32
REMARK SMILES IDX 27 33 28 34 29 35 30 36 82 37 31 38 81 39 32 40 33 41 34 42
REMARK SMILES IDX 75 43 35 44 80 45 74 46 76 47 36 48 79 49 73 50 72 51 37 53
REMARK SMILES IDX 63 54 46 55 62 56 47 57 50 58 61 59 77 60 48 61 49 62 60 64
REMARK SMILES IDX 78 65 51 66 38 67 39 68 44 69 40 70 41 71 43 72 45 73 42 74
REMARK SMILES IDX 64 75 65 76 70 77 66 78 67 79 69 80 71 81 68 82 52 83 53 84
REMARK SMILES IDX 58 85 54 86 55 87 57 88 59 89 56 90
REMARK H PARENT 76 52 50 63
REMARK Flexibility Score: inf
ROOT
ATOM      1  C   UNL A   1      33.622  35.561  29.355  1.00  0.00     0.188 C 
ENDROOT
BRANCH   1   2
ATOM      2  O   UNL A   1      34.352  34.504  28.725  1.00  0.00    -0.377 OA
BRANCH   2   3
ATOM      3  C   UNL A   1      33.626  33.541  27.979  1.00  0.00     0.188 C 
BRANCH   3   4
ATOM      4  C   UNL A   1      34.283  32.147  27.972  1.00  0.00     0.188 C 
BRANCH   4   5
ATOM      5  O   UNL A   1      33.335  31.093  27.898  1.00  0.00    -0.376 OA
BRANCH   5   6
ATOM      6  C   UNL A   1      33.300  30.247  26.760  1.00  0.00     0.202 C 
BRANCH   6   7
ATOM      7  C   UNL A   1      33.715  28.767  26.830  1.00  0.00     0.261 C 
BRANCH   7   8
ATOM      8  O   UNL A   1      34.351  28.218  25.672  1.00  0.00    -0.460 OA
BRANCH   8   9
ATOM      9  C   UNL A   1      33.567  27.663  24.731  1.00  0.00     0.338 C 
ATOM     10  O   UNL A   1      33.224  28.166  23.675  1.00  0.00    -0.246 OA
BRANCH   9  11
ATOM     11  C   UNL A   1      33.333  26.253  25.118  1.00  0.00     0.087 C 
ATOM     12  C   UNL A   1      33.116  19.819  25.696  1.00  0.00     0.046 C 
ATOM     13  C   UNL A   1      33.541  21.261  25.620  1.00  0.00    -0.028 A 
ATOM     14  C   UNL A   1      32.609  22.254  25.946  1.00  0.00     0.052 A 
ATOM     15  C   UNL A   1      34.822  21.646  25.181  1.00  0.00     0.047 A 
ATOM     16  C   UNL A   1      32.908  23.601  25.757  1.00  0.00     0.128 A 
ATOM     17  C   UNL A   1      35.155  23.012  25.019  1.00  0.00    -0.021 A 
ATOM     18  Cl  UNL A   1      35.977  20.403  24.805  1.00  0.00    -0.084 Cl
ATOM     19  C   UNL A   1      34.152  23.987  25.246  1.00  0.00     0.022 A 
ATOM     20  O   UNL A   1      31.901  24.463  26.082  1.00  0.00    -0.475 OA
ATOM     21  C   UNL A   1      36.547  23.450  24.624  1.00  0.00     0.047 C 
ATOM     22  C   UNL A   1      34.333  25.392  24.890  1.00  0.00     0.027 C 
ATOM     23  C   UNL A   1      32.054  25.881  25.813  1.00  0.00     0.316 C 
BRANCH  23  24
ATOM     24  C   UNL A   1      30.811  26.349  25.042  1.00  0.00     0.430 C 
ATOM     25  F   UNL A   1      29.683  25.778  25.533  1.00  0.00    -0.167 F 
ATOM     26  F   UNL A   1      30.632  27.688  25.123  1.00  0.00    -0.167 F 
ATOM     27  F   UNL A   1      30.887  26.030  23.729  1.00  0.00    -0.167 F 
ENDBRANCH  23  24
ENDBRANCH   9  11
ENDBRANCH   8   9
ENDBRANCH   7   8
ENDBRANCH   6   7
ENDBRANCH   5   6
ENDBRANCH   4   5
ENDBRANCH   3   4
ENDBRANCH   2   3
ENDBRANCH   1   2
BRANCH   1  28
ATOM     28  C   UNL A   1      33.255  35.537  30.862  1.00  0.00     0.188 C 
BRANCH  28  29
ATOM     29  O   UNL A   1      34.329  35.185  31.722  1.00  0.00    -0.376 OA
BRANCH  29  30
ATOM     30  C   UNL A   1      34.236  33.960  32.430  1.00  0.00     0.202 C 
BRANCH  30  31
ATOM     31  C   UNL A   1      34.730  32.720  31.674  1.00  0.00     0.261 C 
BRANCH  31  32
ATOM     32  O   UNL A   1      35.271  31.671  32.492  1.00  0.00    -0.460 OA
BRANCH  32  33
ATOM     33  C   UNL A   1      36.460  31.897  33.090  1.00  0.00     0.338 C 
ATOM     34  O   UNL A   1      36.654  32.385  34.190  1.00  0.00    -0.246 OA
BRANCH  33  35
ATOM     35  C   UNL A   1      37.501  31.266  32.254  1.00  0.00     0.060 A 
ATOM     36  C   UNL A   1      38.559  30.591  32.876  1.00  0.00     0.016 A 
ATOM     37  C   UNL A   1      37.415  31.324  30.861  1.00  0.00     0.016 A 
ATOM     38  C   UNL A   1      39.554  29.995  32.101  1.00  0.00     0.010 A 
ATOM     39  C   UNL A   1      38.425  30.748  30.088  1.00  0.00     0.010 A 
ATOM     40  C   UNL A   1      39.515  30.111  30.706  1.00  0.00    -0.014 A 
BRANCH  40  41
ATOM     41  C   UNL A   1      40.716  29.765  29.909  1.00  0.00     0.031 A 
ATOM     42  C   UNL A   1      40.812  28.372  29.348  1.00  0.00     0.074 A 
ATOM     43  C   UNL A   1      41.682  30.666  29.658  1.00  0.00     0.049 A 
ATOM     44  N   UNL A   1      41.772  27.822  28.652  1.00  0.00    -0.248 NA
ATOM     45  C   UNL A   1      39.668  27.482  29.607  1.00  0.00     0.031 C 
ATOM     46  C   UNL A   1      41.676  32.058  30.100  1.00  0.00     0.029 A 
ATOM     47  N   UNL A   1      42.860  30.533  28.966  1.00  0.00    -0.354 N 
ATOM     48  C   UNL A   1      41.343  26.527  28.384  1.00  0.00     0.074 A 
ATOM     49  C   UNL A   1      40.059  26.359  29.025  1.00  0.00     0.031 C 
ATOM     50  C   UNL A   1      42.802  32.654  29.668  1.00  0.00     0.029 A 
ATOM     51  C   UNL A   1      43.620  31.677  28.948  1.00  0.00     0.049 A 
ATOM     52  H   UNL A   1      43.135  29.698  28.523  1.00  0.00     0.167 HD
ATOM     53  C   UNL A   1      41.960  25.569  27.655  1.00  0.00     0.037 A 
ATOM     54  C   UNL A   1      44.842  31.901  28.424  1.00  0.00     0.037 A 
ATOM     55  C   UNL A   1      43.241  25.734  27.024  1.00  0.00     0.049 A 
ATOM     56  C   UNL A   1      45.557  30.783  27.708  1.00  0.00     0.074 A 
ATOM     57  C   UNL A   1      43.950  24.818  26.268  1.00  0.00     0.029 A 
ATOM     58  N   UNL A   1      44.007  26.888  27.082  1.00  0.00    -0.354 N 
ATOM     59  N   UNL A   1      45.141  29.566  27.449  1.00  0.00    -0.248 NA
ATOM     60  C   UNL A   1      46.911  31.068  27.210  1.00  0.00     0.031 C 
ATOM     61  C   UNL A   1      45.169  25.400  25.912  1.00  0.00     0.029 A 
ATOM     62  C   UNL A   1      45.194  26.699  26.396  1.00  0.00     0.049 A 
ATOM     63  H   UNL A   1      43.745  27.718  27.541  1.00  0.00     0.167 HD
ATOM     64  C   UNL A   1      46.168  28.952  26.740  1.00  0.00     0.074 A 
ATOM     65  C   UNL A   1      47.220  29.935  26.596  1.00  0.00     0.031 C 
ATOM     66  C   UNL A   1      46.231  27.689  26.252  1.00  0.00     0.037 A 
BRANCH  53  67
ATOM     67  C   UNL A   1      41.261  24.252  27.507  1.00  0.00     0.057 A 
ATOM     68  C   UNL A   1      40.194  24.080  26.615  1.00  0.00     0.134 A 
ATOM     69  C   UNL A   1      41.694  23.127  28.220  1.00  0.00     0.134 A 
ATOM     70  F   UNL A   1      39.718  25.122  25.915  1.00  0.00    -0.206 F 
ATOM     71  C   UNL A   1      39.577  22.840  26.446  1.00  0.00     0.040 A 
ATOM     72  C   UNL A   1      41.104  21.876  28.040  1.00  0.00     0.040 A 
ATOM     73  F   UNL A   1      42.712  23.223  29.090  1.00  0.00    -0.206 F 
ATOM     74  C   UNL A   1      40.040  21.731  27.151  1.00  0.00     0.006 A 
ENDBRANCH  53  67
BRANCH  54  75
ATOM     75  C   UNL A   1      45.475  33.239  28.556  1.00  0.00     0.057 A 
ATOM     76  C   UNL A   1      45.301  34.221  27.573  1.00  0.00     0.134 A 
ATOM     77  C   UNL A   1      46.277  33.566  29.656  1.00  0.00     0.134 A 
ATOM     78  F   UNL A   1      44.566  33.961  26.481  1.00  0.00    -0.206 F 
ATOM     79  C   UNL A   1      45.907  35.475  27.675  1.00  0.00     0.040 A 
ATOM     80  C   UNL A   1      46.868  34.825  29.784  1.00  0.00     0.040 A 
ATOM     81  F   UNL A   1      46.490  32.669  30.630  1.00  0.00    -0.206 F 
ATOM     82  C   UNL A   1      46.687  35.782  28.788  1.00  0.00     0.006 A 
ENDBRANCH  54  75
BRANCH  66  83
ATOM     83  C   UNL A   1      47.464  27.289  25.493  1.00  0.00     0.057 A 
ATOM     84  C   UNL A   1      47.607  27.558  24.127  1.00  0.00     0.134 A 
ATOM     85  C   UNL A   1      48.556  26.715  26.157  1.00  0.00     0.134 A 
ATOM     86  F   UNL A   1      46.597  28.101  23.430  1.00  0.00    -0.206 F 
ATOM     87  C   UNL A   1      48.788  27.259  23.445  1.00  0.00     0.040 A 
ATOM     88  C   UNL A   1      49.752  26.437  25.493  1.00  0.00     0.040 A 
ATOM     89  F   UNL A   1      48.490  26.444  27.470  1.00  0.00    -0.206 F 
ATOM     90  C   UNL A   1      49.869  26.708  24.131  1.00  0.00     0.006 A 
ENDBRANCH  66  83
ENDBRANCH  40  41
ENDBRANCH  33  35
ENDBRANCH  32  33
ENDBRANCH  31  32
ENDBRANCH  30  31
ENDBRANCH  29  30
ENDBRANCH  28  29
ENDBRANCH   1  28
TORSDOF 21
ENDMDL
MODEL 3
REMARK VINA RESULT:     -10.1      4.456      7.144
REMARK SMILES Cc1cc2c(c(C)c1Cl)C=C(C(=O)OCCOCCOCCOCCOC(=O)c1ccc(-c3c4nc(c(-c5c(F)cccc5F)c5ccc([nH]5)c(-c5c(F)cccc5F)c5nc(c(-c6c(F)cccc6F)c6ccc3[nH]6)C=C5)C=C4)cc1)[C@@H](C(F)(F)F)O2
REMARK SMILES IDX 21 1 20 2 19 3 18 4 17 5 16 6 15 7 14 8 12 9 13 10 11 11
REMARK SMILES IDX 1 12 2 13 3 14 8 15 4 16 6 17 9 18 5 19 88 20 7 21 10 22
REMARK SMILES IDX 83 23 84 24 85 25 86 26 87 27 22 28 23 29 24 30 25 31 26 32
REMARK SMILES IDX 27 33 28 34 29 35 30 36 82 37 31 38 81 39 32 40 33 41 34 42
REMARK SMILES IDX 75 43 35 44 80 45 74 46 76 47 36 48 79 49 73 50 72 51 37 53
REMARK SMILES IDX 63 54 46 55 62 56 47 57 50 58 61 59 77 60 48 61 49 62 60 64
REMARK SMILES IDX 78 65 51 66 38 67 39 68 44 69 40 70 41 71 43 72 45 73 42 74
REMARK SMILES IDX 64 75 65 76 70 77 66 78 67 79 69 80 71 81 68 82 52 83 53 84
REMARK SMILES IDX 58 85 54 86 55 87 57 88 59 89 56 90
REMARK H PARENT 76 52 50 63
REMARK Flexibility Score: inf
ROOT
ATOM      1  C   UNL A   1      35.872  31.988  28.032  1.00  0.00     0.188 C 
ENDROOT
BRANCH   1   2
ATOM      2  O   UNL A   1      35.972  30.692  27.434  1.00  0.00    -0.377 OA
BRANCH   2   3
ATOM      3  C   UNL A   1      35.049  29.695  27.839  1.00  0.00     0.188 C 
BRANCH   3   4
ATOM      4  C   UNL A   1      34.326  29.012  26.661  1.00  0.00     0.188 C 
BRANCH   4   5
ATOM      5  O   UNL A   1      33.162  28.309  27.064  1.00  0.00    -0.376 OA
BRANCH   5   6
ATOM      6  C   UNL A   1      33.008  26.939  26.733  1.00  0.00     0.202 C 
BRANCH   6   7
ATOM      7  C   UNL A   1      31.805  26.424  25.922  1.00  0.00     0.261 C 
BRANCH   7   8
ATOM      8  O   UNL A   1      32.092  25.797  24.668  1.00  0.00    -0.460 OA
BRANCH   8   9
ATOM      9  C   UNL A   1      33.355  25.860  24.210  1.00  0.00     0.338 C 
ATOM     10  O   UNL A   1      33.947  26.856  23.834  1.00  0.00    -0.246 OA
BRANCH   9  11
ATOM     11  C   UNL A   1      33.969  24.527  24.409  1.00  0.00     0.087 C 
ATOM     12  C   UNL A   1      37.840  19.381  24.963  1.00  0.00     0.046 C 
ATOM     13  C   UNL A   1      37.153  20.710  25.123  1.00  0.00    -0.028 A 
ATOM     14  C   UNL A   1      35.815  20.827  24.728  1.00  0.00     0.052 A 
ATOM     15  C   UNL A   1      37.823  21.851  25.604  1.00  0.00     0.047 A 
ATOM     16  C   UNL A   1      35.178  22.065  24.725  1.00  0.00     0.128 A 
ATOM     17  C   UNL A   1      37.180  23.111  25.642  1.00  0.00    -0.021 A 
ATOM     18  Cl  UNL A   1      39.476  21.687  26.114  1.00  0.00    -0.084 Cl
ATOM     19  C   UNL A   1      35.864  23.217  25.127  1.00  0.00     0.022 A 
ATOM     20  O   UNL A   1      33.886  22.045  24.286  1.00  0.00    -0.475 OA
ATOM     21  C   UNL A   1      37.854  24.332  26.226  1.00  0.00     0.047 C 
ATOM     22  C   UNL A   1      35.208  24.505  24.917  1.00  0.00     0.027 C 
ATOM     23  C   UNL A   1      33.162  23.292  24.124  1.00  0.00     0.316 C 
BRANCH  23  24
ATOM     24  C   UNL A   1      32.554  23.302  22.714  1.00  0.00     0.430 C 
ATOM     25  F   UNL A   1      31.335  23.896  22.708  1.00  0.00    -0.167 F 
ATOM     26  F   UNL A   1      33.320  23.985  21.831  1.00  0.00    -0.167 F 
ATOM     27  F   UNL A   1      32.397  22.050  22.228  1.00  0.00    -0.167 F 
ENDBRANCH  23  24
ENDBRANCH   9  11
ENDBRANCH   8   9
ENDBRANCH   7   8
ENDBRANCH   6   7
ENDBRANCH   5   6
ENDBRANCH   4   5
ENDBRANCH   3   4
ENDBRANCH   2   3
ENDBRANCH   1   2
BRANCH   1  28
ATOM     28  C   UNL A   1      34.553  32.803  28.039  1.00  0.00     0.188 C 
BRANCH  28  29
ATOM     29  O   UNL A   1      34.489  33.807  29.042  1.00  0.00    -0.376 OA
BRANCH  29  30
ATOM     30  C   UNL A   1      34.134  35.120  28.643  1.00  0.00     0.202 C 
BRANCH  30  31
ATOM     31  C   UNL A   1      32.944  35.739  29.388  1.00  0.00     0.261 C 
BRANCH  31  32
ATOM     32  O   UNL A   1      32.514  35.033  30.562  1.00  0.00    -0.460 OA
BRANCH  32  33
ATOM     33  C   UNL A   1      32.763  35.605  31.759  1.00  0.00     0.338 C 
ATOM     34  O   UNL A   1      32.066  36.409  32.354  1.00  0.00    -0.246 OA
BRANCH  33  35
ATOM     35  C   UNL A   1      33.949  34.936  32.329  1.00  0.00     0.060 A 
ATOM     36  C   UNL A   1      35.194  35.576  32.259  1.00  0.00     0.016 A 
ATOM     37  C   UNL A   1      33.824  33.691  32.950  1.00  0.00     0.016 A 
ATOM     38  C   UNL A   1      36.326  34.955  32.787  1.00  0.00     0.010 A 
ATOM     39  C   UNL A   1      34.963  33.060  33.455  1.00  0.00     0.010 A 
ATOM     40  C   UNL A   1      36.222  33.675  33.346  1.00  0.00    -0.014 A 
BRANCH  40  41
ATOM     41  C   UNL A   1      37.451  32.891  33.610  1.00  0.00     0.031 A 
ATOM     42  C   UNL A   1      38.202  33.166  34.884  1.00  0.00     0.074 A 
ATOM     43  C   UNL A   1      37.877  31.936  32.765  1.00  0.00     0.049 A 
ATOM     44  N   UNL A   1      39.316  32.639  35.323  1.00  0.00    -0.248 NA
ATOM     45  C   UNL A   1      37.615  34.171  35.786  1.00  0.00     0.031 C 
ATOM     46  C   UNL A   1      37.207  31.540  31.529  1.00  0.00     0.029 A 
ATOM     47  N   UNL A   1      38.984  31.126  32.826  1.00  0.00    -0.354 N 
ATOM     48  C   UNL A   1      39.555  33.242  36.552  1.00  0.00     0.074 A 
ATOM     49  C   UNL A   1      38.498  34.202  36.772  1.00  0.00     0.031 C 
ATOM     50  C   UNL A   1      37.920  30.560  30.944  1.00  0.00     0.029 A 
ATOM     51  C   UNL A   1      39.110  30.283  31.749  1.00  0.00     0.049 A 
ATOM     52  H   UNL A   1      39.626  31.146  33.571  1.00  0.00     0.167 HD
ATOM     53  C   UNL A   1      40.560  33.005  37.426  1.00  0.00     0.037 A 
ATOM     54  C   UNL A   1      40.086  29.404  31.442  1.00  0.00     0.037 A 
ATOM     55  C   UNL A   1      41.615  32.055  37.203  1.00  0.00     0.049 A 
ATOM     56  C   UNL A   1      41.252  29.235  32.383  1.00  0.00     0.074 A 
ATOM     57  C   UNL A   1      42.682  31.747  38.028  1.00  0.00     0.029 A 
ATOM     58  N   UNL A   1      41.742  31.266  36.071  1.00  0.00    -0.354 N 
ATOM     59  N   UNL A   1      41.466  29.800  33.547  1.00  0.00    -0.248 NA
ATOM     60  C   UNL A   1      42.315  28.306  31.967  1.00  0.00     0.031 C 
ATOM     61  C   UNL A   1      43.483  30.810  37.372  1.00  0.00     0.029 A 
ATOM     62  C   UNL A   1      42.884  30.490  36.164  1.00  0.00     0.049 A 
ATOM     63  H   UNL A   1      41.112  31.258  35.314  1.00  0.00     0.167 HD
ATOM     64  C   UNL A   1      42.668  29.278  34.012  1.00  0.00     0.074 A 
ATOM     65  C   UNL A   1      43.130  28.340  33.011  1.00  0.00     0.031 C 
ATOM     66  C   UNL A   1      43.329  29.552  35.164  1.00  0.00     0.037 A 
BRANCH  53  67
ATOM     67  C   UNL A   1      40.571  33.791  38.702  1.00  0.00     0.057 A 
ATOM     68  C   UNL A   1      41.267  35.002  38.814  1.00  0.00     0.134 A 
ATOM     69  C   UNL A   1      39.831  33.365  39.812  1.00  0.00     0.134 A 
ATOM     70  F   UNL A   1      42.009  35.457  37.794  1.00  0.00    -0.206 F 
ATOM     71  C   UNL A   1      41.235  35.754  39.989  1.00  0.00     0.040 A 
ATOM     72  C   UNL A   1      39.770  34.121  40.983  1.00  0.00     0.040 A 
ATOM     73  F   UNL A   1      39.142  32.214  39.770  1.00  0.00    -0.206 F 
ATOM     74  C   UNL A   1      40.475  35.320  41.074  1.00  0.00     0.006 A 
ENDBRANCH  53  67
BRANCH  54  75
ATOM     75  C   UNL A   1      40.006  28.612  30.188  1.00  0.00     0.057 A 
ATOM     76  C   UNL A   1      40.632  29.051  29.014  1.00  0.00     0.134 A 
ATOM     77  C   UNL A   1      39.296  27.407  30.125  1.00  0.00     0.134 A 
ATOM     78  F   UNL A   1      41.305  30.211  29.001  1.00  0.00    -0.206 F 
ATOM     79  C   UNL A   1      40.547  28.326  27.824  1.00  0.00     0.040 A 
ATOM     80  C   UNL A   1      39.225  26.658  28.948  1.00  0.00     0.040 A 
ATOM     81  F   UNL A   1      38.669  26.933  31.212  1.00  0.00    -0.206 F 
ATOM     82  C   UNL A   1      39.848  27.121  27.792  1.00  0.00     0.006 A 
ENDBRANCH  54  75
BRANCH  66  83
ATOM     83  C   UNL A   1      44.611  28.818  35.431  1.00  0.00     0.057 A 
ATOM     84  C   UNL A   1      45.847  29.311  34.995  1.00  0.00     0.134 A 
ATOM     85  C   UNL A   1      44.619  27.656  36.213  1.00  0.00     0.134 A 
ATOM     86  F   UNL A   1      45.909  30.417  34.236  1.00  0.00    -0.206 F 
ATOM     87  C   UNL A   1      47.044  28.669  35.318  1.00  0.00     0.040 A 
ATOM     88  C   UNL A   1      45.811  27.020  36.566  1.00  0.00     0.040 A 
ATOM     89  F   UNL A   1      43.471  27.138  36.676  1.00  0.00    -0.206 F 
ATOM     90  C   UNL A   1      47.028  27.526  36.116  1.00  0.00     0.006 A 
ENDBRANCH  66  83
ENDBRANCH  40  41
ENDBRANCH  33  35
ENDBRANCH  32  33
ENDBRANCH  31  32
ENDBRANCH  30  31
ENDBRANCH  29  30
ENDBRANCH  28  29
ENDBRANCH   1  28
TORSDOF 21
ENDMDL
