MODEL 1
REMARK VINA RESULT:     -10.1      0.000      0.000
REMARK SMILES COc1ccc(NC(=O)c2cccn2CC(=O)OCCOCCOCCOCCOC(=O)c2ccc(-c3c4nc(c(-c5c(F)cccc5F)c5ccc([nH]5)c(-c5c(F)cccc5F)c5nc(c(-c6c(F)cccc6F)c6ccc3[nH]6)C=C5)C=C4)cc2)cc1F
REMARK SMILES IDX 23 1 22 2 21 3 20 4 19 5 18 6 16 7 17 8 15 9 14 10 10 11
REMARK SMILES IDX 11 12 12 13 13 14 8 15 7 16 9 18 6 19 3 20 4 21 88 22 5 23
REMARK SMILES IDX 87 24 89 25 2 26 1 27 24 28 25 29 26 30 27 31 28 32 29 33
REMARK SMILES IDX 30 34 31 35 32 36 33 37 34 38 86 39 35 40 85 41 36 42 37 43
REMARK SMILES IDX 38 44 79 45 39 46 84 47 78 48 80 49 40 50 83 51 77 52 76 53
REMARK SMILES IDX 41 55 67 56 50 57 66 58 51 59 54 60 65 61 81 62 52 63 53 64
REMARK SMILES IDX 64 66 82 67 55 68 42 69 43 70 48 71 44 72 45 73 47 74 49 75
REMARK SMILES IDX 46 76 68 77 69 78 74 79 70 80 71 81 73 82 75 83 72 84 56 85
REMARK SMILES IDX 57 86 62 87 58 88 59 89 61 90 63 91 60 92
REMARK H PARENT 7 17 80 54 54 65
REMARK Flexibility Score: inf
ROOT
ATOM      1  C   UNL A   1      42.153  20.128  26.205  1.00  0.00     0.188 C 
ENDROOT
BRANCH   1   2
ATOM      2  C   UNL A   1      40.620  19.956  26.332  1.00  0.00     0.188 C 
BRANCH   2   3
ATOM      3  O   UNL A   1      39.788  21.000  26.830  1.00  0.00    -0.376 OA
BRANCH   3   4
ATOM      4  C   UNL A   1      39.265  21.958  25.930  1.00  0.00     0.202 C 
BRANCH   4   5
ATOM      5  C   UNL A   1      37.789  21.800  25.544  1.00  0.00     0.261 C 
BRANCH   5   6
ATOM      6  O   UNL A   1      36.919  22.824  26.065  1.00  0.00    -0.462 OA
BRANCH   6   7
ATOM      7  C   UNL A   1      35.597  22.514  26.102  1.00  0.00     0.326 C 
ATOM      8  O   UNL A   1      35.153  21.462  26.556  1.00  0.00    -0.250 OA
BRANCH   7   9
ATOM      9  C   UNL A   1      34.678  23.589  25.578  1.00  0.00     0.244 C 
BRANCH   9  10
ATOM     10  N   UNL A   1      33.455  23.189  24.870  1.00  0.00    -0.332 N 
ATOM     11  C   UNL A   1      32.147  23.425  25.271  1.00  0.00     0.107 A 
ATOM     12  C   UNL A   1      31.349  23.158  24.162  1.00  0.00     0.033 A 
ATOM     13  C   UNL A   1      32.163  22.655  23.125  1.00  0.00     0.020 A 
ATOM     14  C   UNL A   1      33.457  22.694  23.582  1.00  0.00     0.087 A 
BRANCH  11  15
ATOM     15  C   UNL A   1      31.771  23.971  26.561  1.00  0.00     0.272 C 
ATOM     16  N   UNL A   1      31.636  25.324  26.771  1.00  0.00    -0.321 N 
ATOM     17  H   UNL A   1      31.722  25.578  27.718  1.00  0.00     0.170 HD
ATOM     18  O   UNL A   1      31.628  23.248  27.550  1.00  0.00    -0.267 OA
BRANCH  16  19
ATOM     19  C   UNL A   1      31.401  26.422  25.927  1.00  0.00     0.044 A 
ATOM     20  C   UNL A   1      30.736  28.555  24.200  1.00  0.00     0.154 A 
ATOM     21  C   UNL A   1      31.929  28.570  24.922  1.00  0.00     0.052 A 
ATOM     22  C   UNL A   1      29.918  27.431  24.292  1.00  0.00     0.167 A 
ATOM     23  C   UNL A   1      32.264  27.508  25.774  1.00  0.00     0.030 A 
ATOM     24  C   UNL A   1      30.244  26.374  25.142  1.00  0.00     0.069 A 
ATOM     25  F   UNL A   1      28.799  27.322  23.562  1.00  0.00    -0.203 F 
BRANCH  20  26
ATOM     26  O   UNL A   1      30.506  29.661  23.429  1.00  0.00    -0.494 OA
ATOM     27  C   UNL A   1      30.240  29.394  22.053  1.00  0.00     0.278 C 
ENDBRANCH  20  26
ENDBRANCH  16  19
ENDBRANCH  11  15
ENDBRANCH   9  10
ENDBRANCH   7   9
ENDBRANCH   6   7
ENDBRANCH   5   6
ENDBRANCH   4   5
ENDBRANCH   3   4
ENDBRANCH   2   3
ENDBRANCH   1   2
BRANCH   1  28
ATOM     28  O   UNL A   1      42.744  19.486  25.080  1.00  0.00    -0.377 OA
BRANCH  28  29
ATOM     29  C   UNL A   1      44.092  19.077  25.253  1.00  0.00     0.188 C 
BRANCH  29  30
ATOM     30  C   UNL A   1      45.106  19.918  24.468  1.00  0.00     0.188 C 
BRANCH  30  31
ATOM     31  O   UNL A   1      46.077  20.537  25.306  1.00  0.00    -0.376 OA
BRANCH  31  32
ATOM     32  C   UNL A   1      45.824  21.849  25.779  1.00  0.00     0.202 C 
BRANCH  32  33
ATOM     33  C   UNL A   1      45.971  22.914  24.686  1.00  0.00     0.261 C 
BRANCH  33  34
ATOM     34  O   UNL A   1      45.098  24.039  24.819  1.00  0.00    -0.460 OA
BRANCH  34  35
ATOM     35  C   UNL A   1      43.794  23.743  24.730  1.00  0.00     0.338 C 
ATOM     36  O   UNL A   1      43.272  22.758  24.215  1.00  0.00    -0.246 OA
BRANCH  35  37
ATOM     37  C   UNL A   1      42.984  24.805  25.298  1.00  0.00     0.060 A 
ATOM     38  C   UNL A   1      43.574  26.070  25.380  1.00  0.00     0.016 A 
ATOM     39  C   UNL A   1      41.867  24.435  26.052  1.00  0.00     0.016 A 
ATOM     40  C   UNL A   1      43.153  26.924  26.373  1.00  0.00     0.010 A 
ATOM     41  C   UNL A   1      41.469  25.277  27.069  1.00  0.00     0.010 A 
ATOM     42  C   UNL A   1      42.168  26.477  27.261  1.00  0.00    -0.014 A 
BRANCH  42  43
ATOM     43  C   UNL A   1      41.920  27.277  28.466  1.00  0.00     0.031 A 
ATOM     44  C   UNL A   1      42.801  26.868  29.627  1.00  0.00     0.074 A 
ATOM     45  C   UNL A   1      40.934  28.212  28.344  1.00  0.00     0.049 A 
ATOM     46  N   UNL A   1      42.633  27.061  30.896  1.00  0.00    -0.248 NA
ATOM     47  C   UNL A   1      44.021  26.066  29.341  1.00  0.00     0.031 C 
ATOM     48  C   UNL A   1      40.159  28.437  27.106  1.00  0.00     0.029 A 
ATOM     49  N   UNL A   1      40.367  29.135  29.196  1.00  0.00    -0.354 N 
ATOM     50  C   UNL A   1      43.788  26.586  31.531  1.00  0.00     0.074 A 
ATOM     51  C   UNL A   1      44.555  25.883  30.547  1.00  0.00     0.031 C 
ATOM     52  C   UNL A   1      39.196  29.354  27.304  1.00  0.00     0.029 A 
ATOM     53  C   UNL A   1      39.264  29.850  28.663  1.00  0.00     0.049 A 
ATOM     54  H   UNL A   1      40.704  29.288  30.108  1.00  0.00     0.167 HD
ATOM     55  C   UNL A   1      44.125  26.898  32.810  1.00  0.00     0.037 A 
ATOM     56  C   UNL A   1      38.434  30.746  29.280  1.00  0.00     0.037 A 
ATOM     57  C   UNL A   1      43.120  27.683  33.444  1.00  0.00     0.049 A 
ATOM     58  C   UNL A   1      38.978  30.921  30.643  1.00  0.00     0.074 A 
ATOM     59  C   UNL A   1      41.904  27.375  33.998  1.00  0.00     0.029 A 
ATOM     60  N   UNL A   1      43.191  29.044  33.287  1.00  0.00    -0.354 N 
ATOM     61  N   UNL A   1      40.071  31.564  30.936  1.00  0.00    -0.248 NA
ATOM     62  C   UNL A   1      38.325  30.224  31.756  1.00  0.00     0.031 C 
ATOM     63  C   UNL A   1      41.125  28.548  33.850  1.00  0.00     0.029 A 
ATOM     64  C   UNL A   1      41.906  29.539  33.251  1.00  0.00     0.049 A 
ATOM     65  H   UNL A   1      44.018  29.574  33.211  1.00  0.00     0.167 HD
ATOM     66  C   UNL A   1      40.392  31.077  32.185  1.00  0.00     0.074 A 
ATOM     67  C   UNL A   1      39.181  30.513  32.731  1.00  0.00     0.031 C 
ATOM     68  C   UNL A   1      41.674  30.745  32.483  1.00  0.00     0.037 A 
BRANCH  55  69
ATOM     69  C   UNL A   1      45.429  26.681  33.502  1.00  0.00     0.057 A 
ATOM     70  C   UNL A   1      45.734  25.518  34.223  1.00  0.00     0.134 A 
ATOM     71  C   UNL A   1      46.506  27.541  33.220  1.00  0.00     0.134 A 
ATOM     72  F   UNL A   1      44.793  24.602  34.497  1.00  0.00    -0.206 F 
ATOM     73  C   UNL A   1      47.040  25.216  34.619  1.00  0.00     0.040 A 
ATOM     74  C   UNL A   1      47.820  27.231  33.579  1.00  0.00     0.040 A 
ATOM     75  F   UNL A   1      46.316  28.686  32.547  1.00  0.00    -0.206 F 
ATOM     76  C   UNL A   1      48.092  26.058  34.273  1.00  0.00     0.006 A 
ENDBRANCH  55  69
BRANCH  56  77
ATOM     77  C   UNL A   1      37.131  31.440  28.941  1.00  0.00     0.057 A 
ATOM     78  C   UNL A   1      35.951  30.684  28.713  1.00  0.00     0.134 A 
ATOM     79  C   UNL A   1      36.945  32.819  28.773  1.00  0.00     0.134 A 
ATOM     80  F   UNL A   1      35.893  29.370  28.963  1.00  0.00    -0.206 F 
ATOM     81  C   UNL A   1      34.754  31.222  28.219  1.00  0.00     0.040 A 
ATOM     82  C   UNL A   1      35.744  33.378  28.290  1.00  0.00     0.040 A 
ATOM     83  F   UNL A   1      37.887  33.704  29.105  1.00  0.00    -0.206 F 
ATOM     84  C   UNL A   1      34.654  32.578  27.981  1.00  0.00     0.006 A 
ENDBRANCH  56  77
BRANCH  68  85
ATOM     85  C   UNL A   1      42.698  31.438  31.614  1.00  0.00     0.057 A 
ATOM     86  C   UNL A   1      43.307  30.829  30.508  1.00  0.00     0.134 A 
ATOM     87  C   UNL A   1      43.002  32.787  31.814  1.00  0.00     0.134 A 
ATOM     88  F   UNL A   1      43.064  29.552  30.215  1.00  0.00    -0.206 F 
ATOM     89  C   UNL A   1      44.184  31.503  29.653  1.00  0.00     0.040 A 
ATOM     90  C   UNL A   1      43.869  33.485  30.961  1.00  0.00     0.040 A 
ATOM     91  F   UNL A   1      42.461  33.455  32.843  1.00  0.00    -0.206 F 
ATOM     92  C   UNL A   1      44.463  32.844  29.877  1.00  0.00     0.006 A 
ENDBRANCH  68  85
ENDBRANCH  42  43
ENDBRANCH  35  37
ENDBRANCH  34  35
ENDBRANCH  33  34
ENDBRANCH  32  33
ENDBRANCH  31  32
ENDBRANCH  30  31
ENDBRANCH  29  30
ENDBRANCH  28  29
ENDBRANCH   1  28
TORSDOF 24
ENDMDL
MODEL 2
REMARK VINA RESULT:     -10.0      3.120      7.944
REMARK SMILES COc1ccc(NC(=O)c2cccn2CC(=O)OCCOCCOCCOCCOC(=O)c2ccc(-c3c4nc(c(-c5c(F)cccc5F)c5ccc([nH]5)c(-c5c(F)cccc5F)c5nc(c(-c6c(F)cccc6F)c6ccc3[nH]6)C=C5)C=C4)cc2)cc1F
REMARK SMILES IDX 23 1 22 2 21 3 20 4 19 5 18 6 16 7 17 8 15 9 14 10 10 11
REMARK SMILES IDX 11 12 12 13 13 14 8 15 7 16 9 18 6 19 3 20 4 21 88 22 5 23
REMARK SMILES IDX 87 24 89 25 2 26 1 27 24 28 25 29 26 30 27 31 28 32 29 33
REMARK SMILES IDX 30 34 31 35 32 36 33 37 34 38 86 39 35 40 85 41 36 42 37 43
REMARK SMILES IDX 38 44 79 45 39 46 84 47 78 48 80 49 40 50 83 51 77 52 76 53
REMARK SMILES IDX 41 55 67 56 50 57 66 58 51 59 54 60 65 61 81 62 52 63 53 64
REMARK SMILES IDX 64 66 82 67 55 68 42 69 43 70 48 71 44 72 45 73 47 74 49 75
REMARK SMILES IDX 46 76 68 77 69 78 74 79 70 80 71 81 73 82 75 83 72 84 56 85
REMARK SMILES IDX 57 86 62 87 58 88 59 89 61 90 63 91 60 92
REMARK H PARENT 7 17 80 54 54 65
REMARK Flexibility Score: inf
ROOT
ATOM      1  C   UNL A   1      35.317  23.346  23.451  1.00  0.00     0.188 C 
ENDROOT
BRANCH   1   2
ATOM      2  C   UNL A   1      33.823  23.035  23.195  1.00  0.00     0.188 C 
BRANCH   2   3
ATOM      3  O   UNL A   1      33.190  21.889  23.758  1.00  0.00    -0.376 OA
BRANCH   3   4
ATOM      4  C   UNL A   1      32.890  21.871  25.140  1.00  0.00     0.202 C 
BRANCH   4   5
ATOM      5  C   UNL A   1      31.429  22.134  25.526  1.00  0.00     0.261 C 
BRANCH   5   6
ATOM      6  O   UNL A   1      30.969  23.473  25.262  1.00  0.00    -0.462 OA
BRANCH   6   7
ATOM      7  C   UNL A   1      30.935  24.309  26.332  1.00  0.00     0.326 C 
ATOM      8  O   UNL A   1      31.349  24.008  27.450  1.00  0.00    -0.250 OA
BRANCH   7   9
ATOM      9  C   UNL A   1      30.382  25.683  26.048  1.00  0.00     0.244 C 
BRANCH   9  10
ATOM     10  N   UNL A   1      31.276  26.842  26.166  1.00  0.00    -0.332 N 
ATOM     11  C   UNL A   1      32.000  27.441  25.144  1.00  0.00     0.107 A 
ATOM     12  C   UNL A   1      32.440  28.663  25.648  1.00  0.00     0.033 A 
ATOM     13  C   UNL A   1      32.076  28.752  27.008  1.00  0.00     0.020 A 
ATOM     14  C   UNL A   1      31.352  27.624  27.300  1.00  0.00     0.087 A 
BRANCH  11  15
ATOM     15  C   UNL A   1      32.118  26.908  23.800  1.00  0.00     0.272 C 
ATOM     16  N   UNL A   1      31.204  27.200  22.814  1.00  0.00    -0.321 N 
ATOM     17  H   UNL A   1      31.193  26.534  22.089  1.00  0.00     0.170 HD
ATOM     18  O   UNL A   1      33.005  26.105  23.502  1.00  0.00    -0.267 OA
BRANCH  16  19
ATOM     19  C   UNL A   1      30.284  28.243  22.617  1.00  0.00     0.044 A 
ATOM     20  C   UNL A   1      28.301  30.236  22.348  1.00  0.00     0.154 A 
ATOM     21  C   UNL A   1      29.588  30.440  21.850  1.00  0.00     0.052 A 
ATOM     22  C   UNL A   1      27.996  28.999  22.912  1.00  0.00     0.167 A 
ATOM     23  C   UNL A   1      30.571  29.449  21.977  1.00  0.00     0.030 A 
ATOM     24  C   UNL A   1      28.972  28.011  23.045  1.00  0.00     0.069 A 
ATOM     25  F   UNL A   1      26.757  28.713  23.336  1.00  0.00    -0.203 F 
BRANCH  20  26
ATOM     26  O   UNL A   1      27.441  31.288  22.193  1.00  0.00    -0.494 OA
ATOM     27  C   UNL A   1      27.973  32.404  21.484  1.00  0.00     0.278 C 
ENDBRANCH  20  26
ENDBRANCH  16  19
ENDBRANCH  11  15
ENDBRANCH   9  10
ENDBRANCH   7   9
ENDBRANCH   6   7
ENDBRANCH   5   6
ENDBRANCH   4   5
ENDBRANCH   3   4
ENDBRANCH   2   3
ENDBRANCH   1   2
BRANCH   1  28
ATOM     28  O   UNL A   1      35.597  24.002  24.683  1.00  0.00    -0.377 OA
BRANCH  28  29
ATOM     29  C   UNL A   1      36.574  23.373  25.498  1.00  0.00     0.188 C 
BRANCH  29  30
ATOM     30  C   UNL A   1      36.565  21.843  25.416  1.00  0.00     0.188 C 
BRANCH  30  31
ATOM     31  O   UNL A   1      37.602  21.327  24.587  1.00  0.00    -0.376 OA
BRANCH  31  32
ATOM     32  C   UNL A   1      37.982  19.971  24.744  1.00  0.00     0.202 C 
BRANCH  32  33
ATOM     33  C   UNL A   1      38.870  19.741  25.972  1.00  0.00     0.261 C 
BRANCH  33  34
ATOM     34  O   UNL A   1      40.026  20.579  26.046  1.00  0.00    -0.460 OA
BRANCH  34  35
ATOM     35  C   UNL A   1      41.193  19.919  26.030  1.00  0.00     0.338 C 
ATOM     36  O   UNL A   1      41.395  18.742  25.743  1.00  0.00    -0.246 OA
BRANCH  35  37
ATOM     37  C   UNL A   1      42.278  20.777  26.468  1.00  0.00     0.060 A 
ATOM     38  C   UNL A   1      42.225  21.233  27.788  1.00  0.00     0.016 A 
ATOM     39  C   UNL A   1      43.061  21.385  25.483  1.00  0.00     0.016 A 
ATOM     40  C   UNL A   1      42.823  22.434  28.090  1.00  0.00     0.010 A 
ATOM     41  C   UNL A   1      43.630  22.606  25.777  1.00  0.00     0.010 A 
ATOM     42  C   UNL A   1      43.440  23.148  27.056  1.00  0.00    -0.014 A 
BRANCH  42  43
ATOM     43  C   UNL A   1      43.832  24.536  27.323  1.00  0.00     0.031 A 
ATOM     44  C   UNL A   1      42.643  25.458  27.479  1.00  0.00     0.074 A 
ATOM     45  C   UNL A   1      45.179  24.758  27.351  1.00  0.00     0.049 A 
ATOM     46  N   UNL A   1      42.574  26.744  27.352  1.00  0.00    -0.248 NA
ATOM     47  C   UNL A   1      41.311  24.853  27.756  1.00  0.00     0.031 C 
ATOM     48  C   UNL A   1      46.193  23.705  27.142  1.00  0.00     0.029 A 
ATOM     49  N   UNL A   1      45.970  25.871  27.535  1.00  0.00    -0.354 N 
ATOM     50  C   UNL A   1      41.272  27.115  27.709  1.00  0.00     0.074 A 
ATOM     51  C   UNL A   1      40.508  25.911  27.837  1.00  0.00     0.031 C 
ATOM     52  C   UNL A   1      47.431  24.228  27.133  1.00  0.00     0.029 A 
ATOM     53  C   UNL A   1      47.363  25.654  27.374  1.00  0.00     0.049 A 
ATOM     54  H   UNL A   1      45.597  26.753  27.763  1.00  0.00     0.167 HD
ATOM     55  C   UNL A   1      40.909  28.391  28.008  1.00  0.00     0.037 A 
ATOM     56  C   UNL A   1      48.388  26.560  27.389  1.00  0.00     0.037 A 
ATOM     57  C   UNL A   1      41.987  29.303  27.822  1.00  0.00     0.049 A 
ATOM     58  C   UNL A   1      47.765  27.860  27.718  1.00  0.00     0.074 A 
ATOM     59  C   UNL A   1      42.541  29.880  26.709  1.00  0.00     0.029 A 
ATOM     60  N   UNL A   1      42.841  29.493  28.879  1.00  0.00    -0.354 N 
ATOM     61  N   UNL A   1      47.305  28.195  28.888  1.00  0.00    -0.248 NA
ATOM     62  C   UNL A   1      47.523  28.818  26.634  1.00  0.00     0.031 C 
ATOM     63  C   UNL A   1      43.893  30.118  27.053  1.00  0.00     0.029 A 
ATOM     64  C   UNL A   1      44.103  29.716  28.375  1.00  0.00     0.049 A 
ATOM     65  H   UNL A   1      42.593  29.472  29.833  1.00  0.00     0.167 HD
ATOM     66  C   UNL A   1      46.451  29.238  28.599  1.00  0.00     0.074 A 
ATOM     67  C   UNL A   1      46.842  29.743  27.304  1.00  0.00     0.031 C 
ATOM     68  C   UNL A   1      45.231  29.310  29.188  1.00  0.00     0.037 A 
BRANCH  55  69
ATOM     69  C   UNL A   1      39.648  28.868  28.648  1.00  0.00     0.057 A 
ATOM     70  C   UNL A   1      38.561  29.374  27.922  1.00  0.00     0.134 A 
ATOM     71  C   UNL A   1      39.410  28.568  30.001  1.00  0.00     0.134 A 
ATOM     72  F   UNL A   1      38.662  29.640  26.612  1.00  0.00    -0.206 F 
ATOM     73  C   UNL A   1      37.301  29.549  28.504  1.00  0.00     0.040 A 
ATOM     74  C   UNL A   1      38.147  28.703  30.583  1.00  0.00     0.040 A 
ATOM     75  F   UNL A   1      40.389  28.090  30.784  1.00  0.00    -0.206 F 
ATOM     76  C   UNL A   1      37.084  29.186  29.830  1.00  0.00     0.006 A 
ENDBRANCH  55  69
BRANCH  56  77
ATOM     77  C   UNL A   1      49.864  26.545  27.055  1.00  0.00     0.057 A 
ATOM     78  C   UNL A   1      50.295  26.460  25.704  1.00  0.00     0.134 A 
ATOM     79  C   UNL A   1      50.923  26.563  27.972  1.00  0.00     0.134 A 
ATOM     80  F   UNL A   1      49.440  26.573  24.680  1.00  0.00    -0.206 F 
ATOM     81  C   UNL A   1      51.626  26.256  25.314  1.00  0.00     0.040 A 
ATOM     82  C   UNL A   1      52.269  26.374  27.596  1.00  0.00     0.040 A 
ATOM     83  F   UNL A   1      50.729  26.808  29.270  1.00  0.00    -0.206 F 
ATOM     84  C   UNL A   1      52.622  26.187  26.267  1.00  0.00     0.006 A 
ENDBRANCH  56  77
BRANCH  68  85
ATOM     85  C   UNL A   1      45.139  28.547  30.489  1.00  0.00     0.057 A 
ATOM     86  C   UNL A   1      44.566  27.272  30.596  1.00  0.00     0.134 A 
ATOM     87  C   UNL A   1      45.740  29.047  31.648  1.00  0.00     0.134 A 
ATOM     88  F   UNL A   1      43.990  26.696  29.543  1.00  0.00    -0.206 F 
ATOM     89  C   UNL A   1      44.567  26.533  31.783  1.00  0.00     0.040 A 
ATOM     90  C   UNL A   1      45.763  28.316  32.844  1.00  0.00     0.040 A 
ATOM     91  F   UNL A   1      46.321  30.255  31.640  1.00  0.00    -0.206 F 
ATOM     92  C   UNL A   1      45.175  27.055  32.915  1.00  0.00     0.006 A 
ENDBRANCH  68  85
ENDBRANCH  42  43
ENDBRANCH  35  37
ENDBRANCH  34  35
ENDBRANCH  33  34
ENDBRANCH  32  33
ENDBRANCH  31  32
ENDBRANCH  30  31
ENDBRANCH  29  30
ENDBRANCH  28  29
ENDBRANCH   1  28
TORSDOF 24
ENDMDL
MODEL 3
REMARK VINA RESULT:      -9.8      3.599      8.315
REMARK SMILES COc1ccc(NC(=O)c2cccn2CC(=O)OCCOCCOCCOCCOC(=O)c2ccc(-c3c4nc(c(-c5c(F)cccc5F)c5ccc([nH]5)c(-c5c(F)cccc5F)c5nc(c(-c6c(F)cccc6F)c6ccc3[nH]6)C=C5)C=C4)cc2)cc1F
REMARK SMILES IDX 23 1 22 2 21 3 20 4 19 5 18 6 16 7 17 8 15 9 14 10 10 11
REMARK SMILES IDX 11 12 12 13 13 14 8 15 7 16 9 18 6 19 3 20 4 21 88 22 5 23
REMARK SMILES IDX 87 24 89 25 2 26 1 27 24 28 25 29 26 30 27 31 28 32 29 33
REMARK SMILES IDX 30 34 31 35 32 36 33 37 34 38 86 39 35 40 85 41 36 42 37 43
REMARK SMILES IDX 38 44 79 45 39 46 84 47 78 48 80 49 40 50 83 51 77 52 76 53
REMARK SMILES IDX 41 55 67 56 50 57 66 58 51 59 54 60 65 61 81 62 52 63 53 64
REMARK SMILES IDX 64 66 82 67 55 68 42 69 43 70 48 71 44 72 45 73 47 74 49 75
REMARK SMILES IDX 46 76 68 77 69 78 74 79 70 80 71 81 73 82 75 83 72 84 56 85
REMARK SMILES IDX 57 86 62 87 58 88 59 89 61 90 63 91 60 92
REMARK H PARENT 7 17 80 54 54 65
REMARK Flexibility Score: inf
ROOT
ATOM      1  C   UNL A   1      32.724  29.144  27.322  1.00  0.00     0.188 C 
ENDROOT
BRANCH   1   2
ATOM      2  C   UNL A   1      33.580  28.133  26.522  1.00  0.00     0.188 C 
BRANCH   2   3
ATOM      3  O   UNL A   1      33.053  26.880  26.093  1.00  0.00    -0.376 OA
BRANCH   3   4
ATOM      4  C   UNL A   1      31.774  26.475  26.544  1.00  0.00     0.202 C 
BRANCH   4   5
ATOM      5  C   UNL A   1      31.567  24.969  26.749  1.00  0.00     0.261 C 
BRANCH   5   6
ATOM      6  O   UNL A   1      32.699  24.152  26.392  1.00  0.00    -0.462 OA
BRANCH   6   7
ATOM      7  C   UNL A   1      32.700  22.891  26.896  1.00  0.00     0.326 C 
ATOM      8  O   UNL A   1      32.170  22.577  27.959  1.00  0.00    -0.250 OA
BRANCH   7   9
ATOM      9  C   UNL A   1      33.374  21.860  26.024  1.00  0.00     0.244 C 
BRANCH   9  10
ATOM     10  N   UNL A   1      34.208  22.319  24.906  1.00  0.00    -0.332 N 
ATOM     11  C   UNL A   1      33.792  22.557  23.602  1.00  0.00     0.107 A 
ATOM     12  C   UNL A   1      34.825  23.264  22.991  1.00  0.00     0.033 A 
ATOM     13  C   UNL A   1      35.909  23.355  23.890  1.00  0.00     0.020 A 
ATOM     14  C   UNL A   1      35.500  22.775  25.065  1.00  0.00     0.087 A 
BRANCH  11  15
ATOM     15  C   UNL A   1      32.477  22.229  23.088  1.00  0.00     0.272 C 
ATOM     16  N   UNL A   1      31.461  23.156  23.030  1.00  0.00    -0.321 N 
ATOM     17  H   UNL A   1      30.567  22.747  22.998  1.00  0.00     0.170 HD
ATOM     18  O   UNL A   1      32.186  21.080  22.748  1.00  0.00    -0.267 OA
BRANCH  16  19
ATOM     19  C   UNL A   1      31.425  24.560  23.007  1.00  0.00     0.044 A 
ATOM     20  C   UNL A   1      31.179  27.373  23.079  1.00  0.00     0.154 A 
ATOM     21  C   UNL A   1      32.318  26.771  22.543  1.00  0.00     0.052 A 
ATOM     22  C   UNL A   1      30.136  26.555  23.507  1.00  0.00     0.167 A 
ATOM     23  C   UNL A   1      32.438  25.375  22.499  1.00  0.00     0.030 A 
ATOM     24  C   UNL A   1      30.252  25.165  23.471  1.00  0.00     0.069 A 
ATOM     25  F   UNL A   1      28.985  27.073  23.958  1.00  0.00    -0.203 F 
BRANCH  20  26
ATOM     26  O   UNL A   1      31.193  28.741  23.095  1.00  0.00    -0.494 OA
ATOM     27  C   UNL A   1      30.414  29.364  22.076  1.00  0.00     0.278 C 
ENDBRANCH  20  26
ENDBRANCH  16  19
ENDBRANCH  11  15
ENDBRANCH   9  10
ENDBRANCH   7   9
ENDBRANCH   6   7
ENDBRANCH   5   6
ENDBRANCH   4   5
ENDBRANCH   3   4
ENDBRANCH   2   3
ENDBRANCH   1   2
BRANCH   1  28
ATOM     28  O   UNL A   1      32.909  30.510  26.965  1.00  0.00    -0.377 OA
BRANCH  28  29
ATOM     29  C   UNL A   1      33.957  31.180  27.650  1.00  0.00     0.188 C 
BRANCH  29  30
ATOM     30  C   UNL A   1      33.638  32.635  28.010  1.00  0.00     0.188 C 
BRANCH  30  31
ATOM     31  O   UNL A   1      34.675  33.259  28.760  1.00  0.00    -0.376 OA
BRANCH  31  32
ATOM     32  C   UNL A   1      34.314  34.073  29.864  1.00  0.00     0.202 C 
BRANCH  32  33
ATOM     33  C   UNL A   1      34.823  33.522  31.201  1.00  0.00     0.261 C 
BRANCH  33  34
ATOM     34  O   UNL A   1      34.863  32.095  31.289  1.00  0.00    -0.460 OA
BRANCH  34  35
ATOM     35  C   UNL A   1      35.847  31.614  32.061  1.00  0.00     0.338 C 
ATOM     36  O   UNL A   1      36.217  32.020  33.160  1.00  0.00    -0.246 OA
BRANCH  35  37
ATOM     37  C   UNL A   1      36.526  30.512  31.406  1.00  0.00     0.060 A 
ATOM     38  C   UNL A   1      37.309  29.686  32.217  1.00  0.00     0.016 A 
ATOM     39  C   UNL A   1      36.668  30.572  30.017  1.00  0.00     0.016 A 
ATOM     40  C   UNL A   1      38.384  29.041  31.650  1.00  0.00     0.010 A 
ATOM     41  C   UNL A   1      37.765  29.954  29.456  1.00  0.00     0.010 A 
ATOM     42  C   UNL A   1      38.649  29.259  30.293  1.00  0.00    -0.014 A 
BRANCH  42  43
ATOM     43  C   UNL A   1      39.936  28.793  29.765  1.00  0.00     0.031 A 
ATOM     44  C   UNL A   1      40.964  29.900  29.673  1.00  0.00     0.074 A 
ATOM     45  C   UNL A   1      39.973  27.472  29.423  1.00  0.00     0.049 A 
ATOM     46  N   UNL A   1      42.033  29.974  28.947  1.00  0.00    -0.248 NA
ATOM     47  C   UNL A   1      40.736  31.143  30.459  1.00  0.00     0.031 C 
ATOM     48  C   UNL A   1      38.828  26.550  29.567  1.00  0.00     0.029 A 
ATOM     49  N   UNL A   1      40.931  26.641  28.882  1.00  0.00    -0.354 N 
ATOM     50  C   UNL A   1      42.690  31.155  29.318  1.00  0.00     0.074 A 
ATOM     51  C   UNL A   1      41.797  31.889  30.162  1.00  0.00     0.031 C 
ATOM     52  C   UNL A   1      39.124  25.338  29.067  1.00  0.00     0.029 A 
ATOM     53  C   UNL A   1      40.490  25.326  28.585  1.00  0.00     0.049 A 
ATOM     54  H   UNL A   1      41.854  26.938  28.715  1.00  0.00     0.167 HD
ATOM     55  C   UNL A   1      43.989  31.418  29.016  1.00  0.00     0.037 A 
ATOM     56  C   UNL A   1      41.158  24.310  27.958  1.00  0.00     0.037 A 
ATOM     57  C   UNL A   1      44.560  30.397  28.204  1.00  0.00     0.049 A 
ATOM     58  C   UNL A   1      42.525  24.819  27.720  1.00  0.00     0.074 A 
ATOM     59  C   UNL A   1      44.465  30.101  26.869  1.00  0.00     0.029 A 
ATOM     60  N   UNL A   1      45.119  29.321  28.847  1.00  0.00    -0.354 N 
ATOM     61  N   UNL A   1      43.429  24.994  28.639  1.00  0.00    -0.248 NA
ATOM     62  C   UNL A   1      42.877  25.286  26.374  1.00  0.00     0.031 C 
ATOM     63  C   UNL A   1      44.665  28.702  26.787  1.00  0.00     0.029 A 
ATOM     64  C   UNL A   1      44.915  28.203  28.068  1.00  0.00     0.049 A 
ATOM     65  H   UNL A   1      45.583  29.344  29.715  1.00  0.00     0.167 HD
ATOM     66  C   UNL A   1      44.309  25.874  28.044  1.00  0.00     0.074 A 
ATOM     67  C   UNL A   1      44.086  25.781  26.621  1.00  0.00     0.031 C 
ATOM     68  C   UNL A   1      44.804  26.927  28.743  1.00  0.00     0.037 A 
BRANCH  55  69
ATOM     69  C   UNL A   1      44.866  32.492  29.566  1.00  0.00     0.057 A 
ATOM     70  C   UNL A   1      45.420  32.449  30.853  1.00  0.00     0.134 A 
ATOM     71  C   UNL A   1      45.387  33.466  28.695  1.00  0.00     0.134 A 
ATOM     72  F   UNL A   1      45.039  31.524  31.745  1.00  0.00    -0.206 F 
ATOM     73  C   UNL A   1      46.451  33.310  31.242  1.00  0.00     0.040 A 
ATOM     74  C   UNL A   1      46.441  34.306  29.060  1.00  0.00     0.040 A 
ATOM     75  F   UNL A   1      44.914  33.596  27.445  1.00  0.00    -0.206 F 
ATOM     76  C   UNL A   1      46.984  34.222  30.337  1.00  0.00     0.006 A 
ENDBRANCH  55  69
BRANCH  56  77
ATOM     77  C   UNL A   1      40.800  22.948  27.400  1.00  0.00     0.057 A 
ATOM     78  C   UNL A   1      41.628  21.824  27.659  1.00  0.00     0.134 A 
ATOM     79  C   UNL A   1      39.708  22.651  26.575  1.00  0.00     0.134 A 
ATOM     80  F   UNL A   1      42.638  21.876  28.537  1.00  0.00    -0.206 F 
ATOM     81  C   UNL A   1      41.478  20.576  27.038  1.00  0.00     0.040 A 
ATOM     82  C   UNL A   1      39.533  21.397  25.954  1.00  0.00     0.040 A 
ATOM     83  F   UNL A   1      38.727  23.531  26.357  1.00  0.00    -0.206 F 
ATOM     84  C   UNL A   1      40.436  20.364  26.158  1.00  0.00     0.006 A 
ENDBRANCH  56  77
BRANCH  68  85
ATOM     85  C   UNL A   1      44.768  26.731  30.241  1.00  0.00     0.057 A 
ATOM     86  C   UNL A   1      43.759  27.255  31.062  1.00  0.00     0.134 A 
ATOM     87  C   UNL A   1      45.701  25.904  30.871  1.00  0.00     0.134 A 
ATOM     88  F   UNL A   1      42.807  28.036  30.554  1.00  0.00    -0.206 F 
ATOM     89  C   UNL A   1      43.680  26.995  32.433  1.00  0.00     0.040 A 
ATOM     90  C   UNL A   1      45.632  25.620  32.242  1.00  0.00     0.040 A 
ATOM     91  F   UNL A   1      46.698  25.351  30.165  1.00  0.00    -0.206 F 
ATOM     92  C   UNL A   1      44.620  26.166  33.028  1.00  0.00     0.006 A 
ENDBRANCH  68  85
ENDBRANCH  42  43
ENDBRANCH  35  37
ENDBRANCH  34  35
ENDBRANCH  33  34
ENDBRANCH  32  33
ENDBRANCH  31  32
ENDBRANCH  30  31
ENDBRANCH  29  30
ENDBRANCH  28  29
ENDBRANCH   1  28
TORSDOF 24
ENDMDL
