MODEL 1
REMARK VINA RESULT:      -7.8      0.000      0.000
REMARK SMILES CC(=O)NCCc1c[nH]c2ccc(C(=O)OCCOCCOCCOCCOC(=O)c3ccc(-c4c5nc(c(-c6c(F)cccc6F)c6ccc([nH]6)c(-c6c(F)cccc6F)c6nc(c(-c7c(F)cccc7F)c7ccc4[nH]7)C=C6)C=C5)cc3)cc12
REMARK SMILES IDX 21 1 20 2 19 3 18 4 17 5 16 6 14 7 15 8 13 9 7 10 8 11 86 12
REMARK SMILES IDX 9 13 10 14 85 15 11 17 12 18 6 19 5 20 4 21 1 22 2 23 3 24
REMARK SMILES IDX 22 26 23 27 24 28 25 29 26 30 27 31 28 32 29 33 30 34 31 35
REMARK SMILES IDX 32 36 84 37 33 38 83 39 34 40 35 41 36 42 77 43 37 44 82 45
REMARK SMILES IDX 76 46 78 47 38 48 81 49 75 50 74 51 39 53 65 54 48 55 64 56
REMARK SMILES IDX 49 57 52 58 63 59 79 60 50 61 51 62 62 64 80 65 53 66 40 67
REMARK SMILES IDX 41 68 46 69 42 70 43 71 45 72 47 73 44 74 66 75 67 76 72 77
REMARK SMILES IDX 68 78 69 79 71 80 73 81 70 82 54 83 55 84 60 85 56 86 57 87
REMARK SMILES IDX 59 88 61 89 58 90
REMARK H PARENT 9 16 4 25 78 52 52 63
REMARK Flexibility Score: inf
ROOT
ATOM      1  C   UNL A   1      45.146  33.830  33.137  1.00  0.00     0.188 C 
ENDROOT
BRANCH   1   2
ATOM      2  C   UNL A   1      44.178  33.290  34.211  1.00  0.00     0.188 C 
BRANCH   2   3
ATOM      3  O   UNL A   1      43.616  32.024  33.901  1.00  0.00    -0.376 OA
BRANCH   3   4
ATOM      4  C   UNL A   1      42.493  31.592  34.646  1.00  0.00     0.202 C 
BRANCH   4   5
ATOM      5  C   UNL A   1      41.211  32.431  34.534  1.00  0.00     0.261 C 
BRANCH   5   6
ATOM      6  O   UNL A   1      40.935  32.972  33.235  1.00  0.00    -0.460 OA
BRANCH   6   7
ATOM      7  C   UNL A   1      40.095  34.030  33.184  1.00  0.00     0.338 C 
ATOM      8  O   UNL A   1      40.026  34.940  33.990  1.00  0.00    -0.246 OA
BRANCH   7   9
ATOM      9  C   UNL A   1      39.406  34.019  31.869  1.00  0.00     0.060 A 
ATOM     10  C   UNL A   1      36.007  33.343  30.240  1.00  0.00    -0.021 A 
ATOM     11  C   UNL A   1      35.954  33.437  28.862  1.00  0.00     0.087 A 
ATOM     12  C   UNL A   1      37.359  33.627  30.619  1.00  0.00     0.003 A 
ATOM     13  N   UNL A   1      37.178  33.848  28.409  1.00  0.00    -0.361 N 
ATOM     14  C   UNL A   1      38.047  34.003  29.464  1.00  0.00     0.046 A 
ATOM     15  C   UNL A   1      38.059  33.620  31.842  1.00  0.00     0.026 A 
ATOM     16  H   UNL A   1      37.405  34.009  27.464  1.00  0.00     0.166 HD
ATOM     17  C   UNL A   1      39.378  34.441  29.477  1.00  0.00     0.027 A 
ATOM     18  C   UNL A   1      40.047  34.455  30.706  1.00  0.00     0.018 A 
BRANCH  10  19
ATOM     19  C   UNL A   1      34.860  33.005  31.148  1.00  0.00     0.059 C 
BRANCH  19  20
ATOM     20  C   UNL A   1      34.017  34.233  31.525  1.00  0.00     0.120 C 
BRANCH  20  21
ATOM     21  N   UNL A   1      33.340  34.819  30.376  1.00  0.00    -0.356 N 
ATOM     22  C   UNL A   1      33.256  37.129  31.224  1.00  0.00     0.114 C 
ATOM     23  C   UNL A   1      32.945  36.106  30.169  1.00  0.00     0.216 C 
ATOM     24  O   UNL A   1      32.354  36.402  29.132  1.00  0.00    -0.275 OA
ATOM     25  H   UNL A   1      33.138  34.193  29.643  1.00  0.00     0.163 HD
ENDBRANCH  20  21
ENDBRANCH  19  20
ENDBRANCH  10  19
ENDBRANCH   7   9
ENDBRANCH   6   7
ENDBRANCH   5   6
ENDBRANCH   4   5
ENDBRANCH   3   4
ENDBRANCH   2   3
ENDBRANCH   1   2
BRANCH   1  26
ATOM     26  O   UNL A   1      44.643  34.690  32.124  1.00  0.00    -0.377 OA
BRANCH  26  27
ATOM     27  C   UNL A   1      43.477  35.470  32.368  1.00  0.00     0.188 C 
BRANCH  27  28
ATOM     28  C   UNL A   1      43.569  36.961  32.770  1.00  0.00     0.188 C 
BRANCH  28  29
ATOM     29  O   UNL A   1      44.655  37.664  32.191  1.00  0.00    -0.376 OA
BRANCH  29  30
ATOM     30  C   UNL A   1      44.348  38.598  31.170  1.00  0.00     0.202 C 
BRANCH  30  31
ATOM     31  C   UNL A   1      45.274  38.591  29.947  1.00  0.00     0.261 C 
BRANCH  31  32
ATOM     32  O   UNL A   1      45.083  37.512  29.016  1.00  0.00    -0.460 OA
BRANCH  32  33
ATOM     33  C   UNL A   1      46.182  36.933  28.488  1.00  0.00     0.338 C 
ATOM     34  O   UNL A   1      47.259  37.455  28.259  1.00  0.00    -0.246 OA
BRANCH  33  35
ATOM     35  C   UNL A   1      45.906  35.484  28.399  1.00  0.00     0.060 A 
ATOM     36  C   UNL A   1      45.260  34.970  27.265  1.00  0.00     0.016 A 
ATOM     37  C   UNL A   1      46.329  34.632  29.420  1.00  0.00     0.016 A 
ATOM     38  C   UNL A   1      45.031  33.596  27.156  1.00  0.00     0.010 A 
ATOM     39  C   UNL A   1      46.076  33.263  29.321  1.00  0.00     0.010 A 
ATOM     40  C   UNL A   1      45.409  32.741  28.198  1.00  0.00    -0.014 A 
BRANCH  40  41
ATOM     41  C   UNL A   1      44.965  31.327  28.215  1.00  0.00     0.031 A 
ATOM     42  C   UNL A   1      45.898  30.282  27.672  1.00  0.00     0.074 A 
ATOM     43  C   UNL A   1      43.749  30.976  28.674  1.00  0.00     0.049 A 
ATOM     44  N   UNL A   1      45.691  29.008  27.465  1.00  0.00    -0.248 NA
ATOM     45  C   UNL A   1      47.246  30.744  27.305  1.00  0.00     0.031 C 
ATOM     46  C   UNL A   1      42.772  31.887  29.264  1.00  0.00     0.029 A 
ATOM     47  N   UNL A   1      43.126  29.753  28.690  1.00  0.00    -0.354 N 
ATOM     48  C   UNL A   1      46.878  28.518  26.935  1.00  0.00     0.074 A 
ATOM     49  C   UNL A   1      47.790  29.635  26.827  1.00  0.00     0.031 C 
ATOM     50  C   UNL A   1      41.659  31.193  29.566  1.00  0.00     0.029 A 
ATOM     51  C   UNL A   1      41.833  29.801  29.151  1.00  0.00     0.049 A 
ATOM     52  H   UNL A   1      43.564  28.921  28.398  1.00  0.00     0.167 HD
ATOM     53  C   UNL A   1      47.181  27.248  26.573  1.00  0.00     0.037 A 
ATOM     54  C   UNL A   1      40.890  28.840  29.197  1.00  0.00     0.037 A 
ATOM     55  C   UNL A   1      46.268  26.141  26.672  1.00  0.00     0.049 A 
ATOM     56  C   UNL A   1      41.218  27.454  28.699  1.00  0.00     0.074 A 
ATOM     57  C   UNL A   1      46.485  24.815  26.349  1.00  0.00     0.029 A 
ATOM     58  N   UNL A   1      44.957  26.237  27.117  1.00  0.00    -0.354 N 
ATOM     59  N   UNL A   1      42.351  26.991  28.223  1.00  0.00    -0.248 NA
ATOM     60  C   UNL A   1      40.137  26.458  28.740  1.00  0.00     0.031 C 
ATOM     61  C   UNL A   1      45.289  24.117  26.542  1.00  0.00     0.029 A 
ATOM     62  C   UNL A   1      44.344  24.997  27.044  1.00  0.00     0.049 A 
ATOM     63  H   UNL A   1      44.528  27.062  27.437  1.00  0.00     0.167 HD
ATOM     64  C   UNL A   1      42.126  25.649  27.938  1.00  0.00     0.074 A 
ATOM     65  C   UNL A   1      40.753  25.368  28.305  1.00  0.00     0.031 C 
ATOM     66  C   UNL A   1      42.979  24.730  27.422  1.00  0.00     0.037 A 
BRANCH  53  67
ATOM     67  C   UNL A   1      48.546  27.000  26.003  1.00  0.00     0.057 A 
ATOM     68  C   UNL A   1      49.630  26.622  26.807  1.00  0.00     0.134 A 
ATOM     69  C   UNL A   1      48.773  27.114  24.626  1.00  0.00     0.134 A 
ATOM     70  F   UNL A   1      49.484  26.512  28.136  1.00  0.00    -0.206 F 
ATOM     71  C   UNL A   1      50.895  26.392  26.265  1.00  0.00     0.040 A 
ATOM     72  C   UNL A   1      50.027  26.858  24.068  1.00  0.00     0.040 A 
ATOM     73  F   UNL A   1      47.779  27.469  23.798  1.00  0.00    -0.206 F 
ATOM     74  C   UNL A   1      51.094  26.501  24.890  1.00  0.00     0.006 A 
ENDBRANCH  53  67
BRANCH  54  75
ATOM     75  C   UNL A   1      39.528  29.151  29.706  1.00  0.00     0.057 A 
ATOM     76  C   UNL A   1      39.193  28.949  31.049  1.00  0.00     0.134 A 
ATOM     77  C   UNL A   1      38.521  29.623  28.856  1.00  0.00     0.134 A 
ATOM     78  F   UNL A   1      40.105  28.472  31.908  1.00  0.00    -0.206 F 
ATOM     79  C   UNL A   1      37.902  29.190  31.527  1.00  0.00     0.040 A 
ATOM     80  C   UNL A   1      37.235  29.895  29.324  1.00  0.00     0.040 A 
ATOM     81  F   UNL A   1      38.774  29.835  27.556  1.00  0.00    -0.206 F 
ATOM     82  C   UNL A   1      36.920  29.670  30.663  1.00  0.00     0.006 A 
ENDBRANCH  54  75
BRANCH  66  83
ATOM     83  C   UNL A   1      42.474  23.325  27.254  1.00  0.00     0.057 A 
ATOM     84  C   UNL A   1      42.269  22.756  25.992  1.00  0.00     0.134 A 
ATOM     85  C   UNL A   1      42.250  22.512  28.374  1.00  0.00     0.134 A 
ATOM     86  F   UNL A   1      42.453  23.482  24.880  1.00  0.00    -0.206 F 
ATOM     87  C   UNL A   1      41.845  21.433  25.850  1.00  0.00     0.040 A 
ATOM     88  C   UNL A   1      41.854  21.180  28.244  1.00  0.00     0.040 A 
ATOM     89  F   UNL A   1      42.439  22.992  29.614  1.00  0.00    -0.206 F 
ATOM     90  C   UNL A   1      41.646  20.638  26.978  1.00  0.00     0.006 A 
ENDBRANCH  66  83
ENDBRANCH  40  41
ENDBRANCH  33  35
ENDBRANCH  32  33
ENDBRANCH  31  32
ENDBRANCH  30  31
ENDBRANCH  29  30
ENDBRANCH  28  29
ENDBRANCH  27  28
ENDBRANCH  26  27
ENDBRANCH   1  26
TORSDOF 23
ENDMDL
MODEL 2
REMARK VINA RESULT:      -7.7      3.837      9.129
REMARK SMILES CC(=O)NCCc1c[nH]c2ccc(C(=O)OCCOCCOCCOCCOC(=O)c3ccc(-c4c5nc(c(-c6c(F)cccc6F)c6ccc([nH]6)c(-c6c(F)cccc6F)c6nc(c(-c7c(F)cccc7F)c7ccc4[nH]7)C=C6)C=C5)cc3)cc12
REMARK SMILES IDX 21 1 20 2 19 3 18 4 17 5 16 6 14 7 15 8 13 9 7 10 8 11 86 12
REMARK SMILES IDX 9 13 10 14 85 15 11 17 12 18 6 19 5 20 4 21 1 22 2 23 3 24
REMARK SMILES IDX 22 26 23 27 24 28 25 29 26 30 27 31 28 32 29 33 30 34 31 35
REMARK SMILES IDX 32 36 84 37 33 38 83 39 34 40 35 41 36 42 77 43 37 44 82 45
REMARK SMILES IDX 76 46 78 47 38 48 81 49 75 50 74 51 39 53 65 54 48 55 64 56
REMARK SMILES IDX 49 57 52 58 63 59 79 60 50 61 51 62 62 64 80 65 53 66 40 67
REMARK SMILES IDX 41 68 46 69 42 70 43 71 45 72 47 73 44 74 66 75 67 76 72 77
REMARK SMILES IDX 68 78 69 79 71 80 73 81 70 82 54 83 55 84 60 85 56 86 57 87
REMARK SMILES IDX 59 88 61 89 58 90
REMARK H PARENT 9 16 4 25 78 52 52 63
REMARK Flexibility Score: inf
ROOT
ATOM      1  C   UNL A   1      35.447  33.431  30.424  1.00  0.00     0.188 C 
ENDROOT
BRANCH   1   2
ATOM      2  C   UNL A   1      36.552  32.821  29.537  1.00  0.00     0.188 C 
BRANCH   2   3
ATOM      3  O   UNL A   1      36.116  32.457  28.236  1.00  0.00    -0.376 OA
BRANCH   3   4
ATOM      4  C   UNL A   1      35.125  31.453  28.121  1.00  0.00     0.202 C 
BRANCH   4   5
ATOM      5  C   UNL A   1      35.605  30.019  27.853  1.00  0.00     0.261 C 
BRANCH   5   6
ATOM      6  O   UNL A   1      37.027  29.844  27.782  1.00  0.00    -0.460 OA
BRANCH   6   7
ATOM      7  C   UNL A   1      37.635  29.365  28.890  1.00  0.00     0.338 C 
ATOM      8  O   UNL A   1      37.129  29.217  29.988  1.00  0.00    -0.246 OA
BRANCH   7   9
ATOM      9  C   UNL A   1      38.971  28.845  28.506  1.00  0.00     0.060 A 
ATOM     10  C   UNL A   1      40.698  25.828  26.899  1.00  0.00    -0.021 A 
ATOM     11  C   UNL A   1      42.078  25.864  26.847  1.00  0.00     0.087 A 
ATOM     12  C   UNL A   1      40.280  27.041  27.537  1.00  0.00     0.003 A 
ATOM     13  N   UNL A   1      42.500  27.070  27.338  1.00  0.00    -0.361 N 
ATOM     14  C   UNL A   1      41.419  27.822  27.738  1.00  0.00     0.046 A 
ATOM     15  C   UNL A   1      39.034  27.558  27.945  1.00  0.00     0.026 A 
ATOM     16  H   UNL A   1      43.439  27.357  27.398  1.00  0.00     0.166 HD
ATOM     17  C   UNL A   1      41.372  29.122  28.258  1.00  0.00     0.027 A 
ATOM     18  C   UNL A   1      40.122  29.629  28.631  1.00  0.00     0.018 A 
BRANCH  10  19
ATOM     19  C   UNL A   1      39.821  24.723  26.384  1.00  0.00     0.059 C 
BRANCH  19  20
ATOM     20  C   UNL A   1      39.425  23.719  27.479  1.00  0.00     0.120 C 
BRANCH  20  21
ATOM     21  N   UNL A   1      39.600  22.336  27.057  1.00  0.00    -0.356 N 
ATOM     22  C   UNL A   1      41.884  22.045  27.931  1.00  0.00     0.114 C 
ATOM     23  C   UNL A   1      40.679  21.518  27.203  1.00  0.00     0.216 C 
ATOM     24  O   UNL A   1      40.643  20.377  26.748  1.00  0.00    -0.275 OA
ATOM     25  H   UNL A   1      38.827  21.935  26.598  1.00  0.00     0.163 HD
ENDBRANCH  20  21
ENDBRANCH  19  20
ENDBRANCH  10  19
ENDBRANCH   7   9
ENDBRANCH   6   7
ENDBRANCH   5   6
ENDBRANCH   4   5
ENDBRANCH   3   4
ENDBRANCH   2   3
ENDBRANCH   1   2
BRANCH   1  26
ATOM     26  O   UNL A   1      34.624  34.460  29.892  1.00  0.00    -0.377 OA
BRANCH  26  27
ATOM     27  C   UNL A   1      33.705  35.144  30.738  1.00  0.00     0.188 C 
BRANCH  27  28
ATOM     28  C   UNL A   1      33.732  34.967  32.275  1.00  0.00     0.188 C 
BRANCH  28  29
ATOM     29  O   UNL A   1      34.751  35.698  32.936  1.00  0.00    -0.376 OA
BRANCH  29  30
ATOM     30  C   UNL A   1      35.818  34.953  33.498  1.00  0.00     0.202 C 
BRANCH  30  31
ATOM     31  C   UNL A   1      35.423  33.730  34.334  1.00  0.00     0.261 C 
BRANCH  31  32
ATOM     32  O   UNL A   1      36.290  32.589  34.233  1.00  0.00    -0.460 OA
BRANCH  32  33
ATOM     33  C   UNL A   1      37.265  32.454  35.158  1.00  0.00     0.338 C 
ATOM     34  O   UNL A   1      37.182  32.648  36.358  1.00  0.00    -0.246 OA
BRANCH  33  35
ATOM     35  C   UNL A   1      38.426  31.846  34.476  1.00  0.00     0.060 A 
ATOM     36  C   UNL A   1      39.717  32.053  34.985  1.00  0.00     0.016 A 
ATOM     37  C   UNL A   1      38.229  31.034  33.358  1.00  0.00     0.016 A 
ATOM     38  C   UNL A   1      40.816  31.449  34.368  1.00  0.00     0.010 A 
ATOM     39  C   UNL A   1      39.330  30.452  32.728  1.00  0.00     0.010 A 
ATOM     40  C   UNL A   1      40.630  30.673  33.218  1.00  0.00    -0.014 A 
BRANCH  40  41
ATOM     41  C   UNL A   1      41.791  30.225  32.413  1.00  0.00     0.031 A 
ATOM     42  C   UNL A   1      42.460  28.933  32.788  1.00  0.00     0.074 A 
ATOM     43  C   UNL A   1      42.263  30.959  31.389  1.00  0.00     0.049 A 
ATOM     44  N   UNL A   1      43.558  28.398  32.321  1.00  0.00    -0.248 NA
ATOM     45  C   UNL A   1      41.803  28.144  33.842  1.00  0.00     0.031 C 
ATOM     46  C   UNL A   1      41.677  32.204  30.899  1.00  0.00     0.029 A 
ATOM     47  N   UNL A   1      43.363  30.766  30.592  1.00  0.00    -0.354 N 
ATOM     48  C   UNL A   1      43.728  27.216  33.030  1.00  0.00     0.074 A 
ATOM     49  C   UNL A   1      42.638  27.125  33.976  1.00  0.00     0.031 C 
ATOM     50  C   UNL A   1      42.440  32.677  29.897  1.00  0.00     0.029 A 
ATOM     51  C   UNL A   1      43.586  31.790  29.704  1.00  0.00     0.049 A 
ATOM     52  H   UNL A   1      43.939  29.969  30.650  1.00  0.00     0.167 HD
ATOM     53  C   UNL A   1      44.706  26.287  32.902  1.00  0.00     0.037 A 
ATOM     54  C   UNL A   1      44.617  32.003  28.862  1.00  0.00     0.037 A 
ATOM     55  C   UNL A   1      45.794  26.386  31.967  1.00  0.00     0.049 A 
ATOM     56  C   UNL A   1      45.745  31.003  28.803  1.00  0.00     0.074 A 
ATOM     57  C   UNL A   1      46.824  25.489  31.747  1.00  0.00     0.029 A 
ATOM     58  N   UNL A   1      46.001  27.454  31.106  1.00  0.00    -0.354 N 
ATOM     59  N   UNL A   1      45.886  29.874  29.457  1.00  0.00    -0.248 NA
ATOM     60  C   UNL A   1      46.858  31.309  27.893  1.00  0.00     0.031 C 
ATOM     61  C   UNL A   1      47.687  26.041  30.795  1.00  0.00     0.029 A 
ATOM     62  C   UNL A   1      47.161  27.254  30.377  1.00  0.00     0.049 A 
ATOM     63  H   UNL A   1      45.410  28.236  31.025  1.00  0.00     0.167 HD
ATOM     64  C   UNL A   1      47.085  29.323  29.016  1.00  0.00     0.074 A 
ATOM     65  C   UNL A   1      47.626  30.237  28.031  1.00  0.00     0.031 C 
ATOM     66  C   UNL A   1      47.683  28.166  29.391  1.00  0.00     0.037 A 
BRANCH  53  67
ATOM     67  C   UNL A   1      44.657  25.102  33.820  1.00  0.00     0.057 A 
ATOM     68  C   UNL A   1      45.109  25.169  35.145  1.00  0.00     0.134 A 
ATOM     69  C   UNL A   1      44.125  23.884  33.380  1.00  0.00     0.134 A 
ATOM     70  F   UNL A   1      45.646  26.302  35.624  1.00  0.00    -0.206 F 
ATOM     71  C   UNL A   1      45.057  24.060  35.990  1.00  0.00     0.040 A 
ATOM     72  C   UNL A   1      44.041  22.775  34.225  1.00  0.00     0.040 A 
ATOM     73  F   UNL A   1      43.672  23.751  32.124  1.00  0.00    -0.206 F 
ATOM     74  C   UNL A   1      44.514  22.861  35.533  1.00  0.00     0.006 A 
ENDBRANCH  53  67
BRANCH  54  75
ATOM     75  C   UNL A   1      44.655  33.228  28.021  1.00  0.00     0.057 A 
ATOM     76  C   UNL A   1      45.067  34.457  28.548  1.00  0.00     0.134 A 
ATOM     77  C   UNL A   1      44.250  33.207  26.681  1.00  0.00     0.134 A 
ATOM     78  F   UNL A   1      45.441  34.550  29.833  1.00  0.00    -0.206 F 
ATOM     79  C   UNL A   1      45.058  35.624  27.780  1.00  0.00     0.040 A 
ATOM     80  C   UNL A   1      44.263  34.359  25.894  1.00  0.00     0.040 A 
ATOM     81  F   UNL A   1      43.840  32.062  26.114  1.00  0.00    -0.206 F 
ATOM     82  C   UNL A   1      44.660  35.575  26.446  1.00  0.00     0.006 A 
ENDBRANCH  54  75
BRANCH  66  83
ATOM     83  C   UNL A   1      48.971  27.794  28.712  1.00  0.00     0.057 A 
ATOM     84  C   UNL A   1      48.995  27.104  27.495  1.00  0.00     0.134 A 
ATOM     85  C   UNL A   1      50.201  28.189  29.256  1.00  0.00     0.134 A 
ATOM     86  F   UNL A   1      47.855  26.686  26.926  1.00  0.00    -0.206 F 
ATOM     87  C   UNL A   1      50.198  26.807  26.850  1.00  0.00     0.040 A 
ATOM     88  C   UNL A   1      51.407  27.924  28.607  1.00  0.00     0.040 A 
ATOM     89  F   UNL A   1      50.248  28.865  30.415  1.00  0.00    -0.206 F 
ATOM     90  C   UNL A   1      51.408  27.225  27.401  1.00  0.00     0.006 A 
ENDBRANCH  66  83
ENDBRANCH  40  41
ENDBRANCH  33  35
ENDBRANCH  32  33
ENDBRANCH  31  32
ENDBRANCH  30  31
ENDBRANCH  29  30
ENDBRANCH  28  29
ENDBRANCH  27  28
ENDBRANCH  26  27
ENDBRANCH   1  26
TORSDOF 23
ENDMDL
MODEL 3
REMARK VINA RESULT:      -7.7      5.445     10.114
REMARK SMILES CC(=O)NCCc1c[nH]c2ccc(C(=O)OCCOCCOCCOCCOC(=O)c3ccc(-c4c5nc(c(-c6c(F)cccc6F)c6ccc([nH]6)c(-c6c(F)cccc6F)c6nc(c(-c7c(F)cccc7F)c7ccc4[nH]7)C=C6)C=C5)cc3)cc12
REMARK SMILES IDX 21 1 20 2 19 3 18 4 17 5 16 6 14 7 15 8 13 9 7 10 8 11 86 12
REMARK SMILES IDX 9 13 10 14 85 15 11 17 12 18 6 19 5 20 4 21 1 22 2 23 3 24
REMARK SMILES IDX 22 26 23 27 24 28 25 29 26 30 27 31 28 32 29 33 30 34 31 35
REMARK SMILES IDX 32 36 84 37 33 38 83 39 34 40 35 41 36 42 77 43 37 44 82 45
REMARK SMILES IDX 76 46 78 47 38 48 81 49 75 50 74 51 39 53 65 54 48 55 64 56
REMARK SMILES IDX 49 57 52 58 63 59 79 60 50 61 51 62 62 64 80 65 53 66 40 67
REMARK SMILES IDX 41 68 46 69 42 70 43 71 45 72 47 73 44 74 66 75 67 76 72 77
REMARK SMILES IDX 68 78 69 79 71 80 73 81 70 82 54 83 55 84 60 85 56 86 57 87
REMARK SMILES IDX 59 88 61 89 58 90
REMARK H PARENT 9 16 4 25 78 52 52 63
REMARK Flexibility Score: inf
ROOT
ATOM      1  C   UNL A   1      37.214  29.712  30.737  1.00  0.00     0.188 C 
ENDROOT
BRANCH   1   2
ATOM      2  C   UNL A   1      37.515  30.728  29.615  1.00  0.00     0.188 C 
BRANCH   2   3
ATOM      3  O   UNL A   1      37.360  30.207  28.304  1.00  0.00    -0.376 OA
BRANCH   3   4
ATOM      4  C   UNL A   1      36.168  29.506  28.001  1.00  0.00     0.202 C 
BRANCH   4   5
ATOM      5  C   UNL A   1      34.910  30.344  27.730  1.00  0.00     0.261 C 
BRANCH   5   6
ATOM      6  O   UNL A   1      34.167  29.985  26.557  1.00  0.00    -0.460 OA
BRANCH   6   7
ATOM      7  C   UNL A   1      33.521  28.798  26.587  1.00  0.00     0.338 C 
ATOM      8  O   UNL A   1      33.006  28.278  27.560  1.00  0.00    -0.246 OA
BRANCH   7   9
ATOM      9  C   UNL A   1      33.352  28.319  25.192  1.00  0.00     0.060 A 
ATOM     10  C   UNL A   1      33.291  25.128  23.076  1.00  0.00    -0.021 A 
ATOM     11  C   UNL A   1      33.143  25.296  21.712  1.00  0.00     0.087 A 
ATOM     12  C   UNL A   1      33.291  26.440  23.653  1.00  0.00     0.003 A 
ATOM     13  N   UNL A   1      32.967  26.629  21.456  1.00  0.00    -0.361 N 
ATOM     14  C   UNL A   1      33.021  27.348  22.628  1.00  0.00     0.046 A 
ATOM     15  C   UNL A   1      33.476  26.939  24.958  1.00  0.00     0.026 A 
ATOM     16  H   UNL A   1      32.823  27.017  20.563  1.00  0.00     0.166 HD
ATOM     17  C   UNL A   1      32.855  28.721  22.849  1.00  0.00     0.027 A 
ATOM     18  C   UNL A   1      33.014  29.194  24.156  1.00  0.00     0.018 A 
BRANCH  10  19
ATOM     19  C   UNL A   1      33.426  23.817  23.796  1.00  0.00     0.059 C 
BRANCH  19  20
ATOM     20  C   UNL A   1      32.078  23.107  23.996  1.00  0.00     0.120 C 
BRANCH  20  21
ATOM     21  N   UNL A   1      31.301  23.682  25.085  1.00  0.00    -0.356 N 
ATOM     22  C   UNL A   1      32.660  22.780  26.930  1.00  0.00     0.114 C 
ATOM     23  C   UNL A   1      31.482  23.568  26.431  1.00  0.00     0.216 C 
ATOM     24  O   UNL A   1      30.692  24.112  27.199  1.00  0.00    -0.275 OA
ATOM     25  H   UNL A   1      30.532  24.232  24.809  1.00  0.00     0.163 HD
ENDBRANCH  20  21
ENDBRANCH  19  20
ENDBRANCH  10  19
ENDBRANCH   7   9
ENDBRANCH   6   7
ENDBRANCH   5   6
ENDBRANCH   4   5
ENDBRANCH   3   4
ENDBRANCH   2   3
ENDBRANCH   1   2
BRANCH   1  26
ATOM     26  O   UNL A   1      37.796  28.418  30.671  1.00  0.00    -0.377 OA
BRANCH  26  27
ATOM     27  C   UNL A   1      39.211  28.271  30.728  1.00  0.00     0.188 C 
BRANCH  27  28
ATOM     28  C   UNL A   1      40.008  27.636  29.565  1.00  0.00     0.188 C 
BRANCH  28  29
ATOM     29  O   UNL A   1      39.209  27.087  28.531  1.00  0.00    -0.376 OA
BRANCH  29  30
ATOM     30  C   UNL A   1      39.869  26.305  27.551  1.00  0.00     0.202 C 
BRANCH  30  31
ATOM     31  C   UNL A   1      39.829  24.786  27.758  1.00  0.00     0.261 C 
BRANCH  31  32
ATOM     32  O   UNL A   1      41.059  24.172  28.177  1.00  0.00    -0.460 OA
BRANCH  32  33
ATOM     33  C   UNL A   1      41.892  23.710  27.221  1.00  0.00     0.338 C 
ATOM     34  O   UNL A   1      41.746  22.720  26.525  1.00  0.00    -0.246 OA
BRANCH  33  35
ATOM     35  C   UNL A   1      42.946  24.729  27.036  1.00  0.00     0.060 A 
ATOM     36  C   UNL A   1      43.618  25.243  28.155  1.00  0.00     0.016 A 
ATOM     37  C   UNL A   1      43.298  25.139  25.749  1.00  0.00     0.016 A 
ATOM     38  C   UNL A   1      44.642  26.178  27.985  1.00  0.00     0.010 A 
ATOM     39  C   UNL A   1      44.304  26.092  25.583  1.00  0.00     0.010 A 
ATOM     40  C   UNL A   1      44.967  26.630  26.700  1.00  0.00    -0.014 A 
BRANCH  40  41
ATOM     41  C   UNL A   1      45.874  27.787  26.513  1.00  0.00     0.031 A 
ATOM     42  C   UNL A   1      47.340  27.518  26.325  1.00  0.00     0.074 A 
ATOM     43  C   UNL A   1      45.416  29.052  26.538  1.00  0.00     0.049 A 
ATOM     44  N   UNL A   1      48.341  28.359  26.267  1.00  0.00    -0.248 NA
ATOM     45  C   UNL A   1      47.729  26.105  26.192  1.00  0.00     0.031 C 
ATOM     46  C   UNL A   1      44.015  29.443  26.669  1.00  0.00     0.029 A 
ATOM     47  N   UNL A   1      46.096  30.243  26.476  1.00  0.00    -0.354 N 
ATOM     48  C   UNL A   1      49.477  27.577  26.102  1.00  0.00     0.074 A 
ATOM     49  C   UNL A   1      49.047  26.196  26.096  1.00  0.00     0.031 C 
ATOM     50  C   UNL A   1      43.940  30.786  26.701  1.00  0.00     0.029 A 
ATOM     51  C   UNL A   1      45.290  31.344  26.634  1.00  0.00     0.049 A 
ATOM     52  H   UNL A   1      47.068  30.303  26.333  1.00  0.00     0.167 HD
ATOM     53  C   UNL A   1      50.764  27.975  25.966  1.00  0.00     0.037 A 
ATOM     54  C   UNL A   1      45.611  32.648  26.748  1.00  0.00     0.037 A 
ATOM     55  C   UNL A   1      51.189  29.349  25.983  1.00  0.00     0.049 A 
ATOM     56  C   UNL A   1      47.061  33.063  26.689  1.00  0.00     0.074 A 
ATOM     57  C   UNL A   1      52.467  29.857  25.835  1.00  0.00     0.029 A 
ATOM     58  N   UNL A   1      50.346  30.434  26.175  1.00  0.00    -0.354 N 
ATOM     59  N   UNL A   1      48.128  32.321  26.506  1.00  0.00    -0.248 NA
ATOM     60  C   UNL A   1      47.351  34.494  26.857  1.00  0.00     0.031 C 
ATOM     61  C   UNL A   1      52.406  31.245  25.995  1.00  0.00     0.029 A 
ATOM     62  C   UNL A   1      51.081  31.607  26.182  1.00  0.00     0.049 A 
ATOM     63  H   UNL A   1      49.370  30.378  26.288  1.00  0.00     0.167 HD
ATOM     64  C   UNL A   1      49.208  33.197  26.507  1.00  0.00     0.074 A 
ATOM     65  C   UNL A   1      48.667  34.527  26.697  1.00  0.00     0.031 C 
ATOM     66  C   UNL A   1      50.529  32.926  26.362  1.00  0.00     0.037 A 
BRANCH  53  67
ATOM     67  C   UNL A   1      51.806  26.906  25.822  1.00  0.00     0.057 A 
ATOM     68  C   UNL A   1      52.413  26.304  26.932  1.00  0.00     0.134 A 
ATOM     69  C   UNL A   1      52.188  26.454  24.552  1.00  0.00     0.134 A 
ATOM     70  F   UNL A   1      52.104  26.704  28.175  1.00  0.00    -0.206 F 
ATOM     71  C   UNL A   1      53.380  25.309  26.784  1.00  0.00     0.040 A 
ATOM     72  C   UNL A   1      53.133  25.438  24.392  1.00  0.00     0.040 A 
ATOM     73  F   UNL A   1      51.645  26.985  23.447  1.00  0.00    -0.206 F 
ATOM     74  C   UNL A   1      53.736  24.868  25.511  1.00  0.00     0.006 A 
ENDBRANCH  53  67
BRANCH  54  75
ATOM     75  C   UNL A   1      44.549  33.666  26.960  1.00  0.00     0.057 A 
ATOM     76  C   UNL A   1      43.904  34.277  25.879  1.00  0.00     0.134 A 
ATOM     77  C   UNL A   1      44.176  34.076  28.245  1.00  0.00     0.134 A 
ATOM     78  F   UNL A   1      44.235  33.948  24.621  1.00  0.00    -0.206 F 
ATOM     79  C   UNL A   1      42.940  35.271  26.066  1.00  0.00     0.040 A 
ATOM     80  C   UNL A   1      43.195  35.048  28.449  1.00  0.00     0.040 A 
ATOM     81  F   UNL A   1      44.757  33.533  29.325  1.00  0.00    -0.206 F 
ATOM     82  C   UNL A   1      42.580  35.654  27.356  1.00  0.00     0.006 A 
ENDBRANCH  54  75
BRANCH  66  83
ATOM     83  C   UNL A   1      51.483  34.086  26.363  1.00  0.00     0.057 A 
ATOM     84  C   UNL A   1      51.834  34.759  25.188  1.00  0.00     0.134 A 
ATOM     85  C   UNL A   1      52.008  34.573  27.568  1.00  0.00     0.134 A 
ATOM     86  F   UNL A   1      51.377  34.338  23.999  1.00  0.00    -0.206 F 
ATOM     87  C   UNL A   1      52.685  35.866  25.208  1.00  0.00     0.040 A 
ATOM     88  C   UNL A   1      52.836  35.696  27.605  1.00  0.00     0.040 A 
ATOM     89  F   UNL A   1      51.703  33.981  28.734  1.00  0.00    -0.206 F 
ATOM     90  C   UNL A   1      53.181  36.343  26.421  1.00  0.00     0.006 A 
ENDBRANCH  66  83
ENDBRANCH  40  41
ENDBRANCH  33  35
ENDBRANCH  32  33
ENDBRANCH  31  32
ENDBRANCH  30  31
ENDBRANCH  29  30
ENDBRANCH  28  29
ENDBRANCH  27  28
ENDBRANCH  26  27
ENDBRANCH   1  26
TORSDOF 23
ENDMDL
