MODEL 1
REMARK VINA RESULT:     -10.7      0.000      0.000
REMARK SMILES CCc1ccc(C(=O)N2Cc3nc[nH]c3C[C@@H]2C(=O)OCCOCCOCCOCCOC(=O)c2ccc(-c3c4nc(c(-c5c(F)cccc5F)c5ccc([nH]5)c(-c5c(F)cccc5F)c5nc(c(-c6c(F)cccc6F)c6ccc3[nH]6)C=C5)C=C4)cc2)o1
REMARK SMILES IDX 25 1 24 2 23 3 22 4 21 5 20 6 18 7 19 8 17 9 9 10 10 11
REMARK SMILES IDX 11 12 16 13 12 14 15 15 13 16 14 17 7 19 8 20 6 21 3 22 4 23
REMARK SMILES IDX 89 24 5 25 2 26 1 27 26 28 27 29 28 30 29 31 30 32 31 33
REMARK SMILES IDX 32 34 33 35 34 36 35 37 36 38 88 39 37 40 87 41 38 42 39 43
REMARK SMILES IDX 40 44 81 45 41 46 86 47 80 48 82 49 42 50 85 51 79 52 78 53
REMARK SMILES IDX 43 55 69 56 52 57 68 58 53 59 56 60 67 61 83 62 54 63 55 64
REMARK SMILES IDX 66 66 84 67 57 68 44 69 45 70 50 71 46 72 47 73 49 74 51 75
REMARK SMILES IDX 48 76 70 77 71 78 76 79 72 80 73 81 75 82 77 83 74 84 58 85
REMARK SMILES IDX 59 86 64 87 60 88 61 89 63 90 65 91 62 92
REMARK H PARENT 14 18 82 54 56 65
REMARK Flexibility Score: inf
ROOT
ATOM      1  C   UNL A   1      35.939  21.164  25.370  1.00  0.00     0.188 C 
ENDROOT
BRANCH   1   2
ATOM      2  C   UNL A   1      35.344  22.057  26.483  1.00  0.00     0.188 C 
BRANCH   2   3
ATOM      3  O   UNL A   1      34.163  21.520  27.052  1.00  0.00    -0.376 OA
BRANCH   3   4
ATOM      4  C   UNL A   1      33.288  22.376  27.752  1.00  0.00     0.202 C 
BRANCH   4   5
ATOM      5  C   UNL A   1      32.046  22.890  27.014  1.00  0.00     0.261 C 
BRANCH   5   6
ATOM      6  O   UNL A   1      31.945  24.317  26.915  1.00  0.00    -0.462 OA
BRANCH   6   7
ATOM      7  C   UNL A   1      32.767  24.976  26.043  1.00  0.00     0.329 C 
ATOM      8  O   UNL A   1      33.975  25.078  26.165  1.00  0.00    -0.250 OA
BRANCH   7   9
ATOM      9  C   UNL A   1      31.893  25.492  24.881  1.00  0.00     0.201 C 
ATOM     10  N   UNL A   1      32.337  25.283  23.473  1.00  0.00    -0.316 N 
ATOM     11  C   UNL A   1      31.476  25.814  22.400  1.00  0.00     0.179 C 
ATOM     12  C   UNL A   1      30.951  27.149  22.785  1.00  0.00     0.081 A 
ATOM     13  C   UNL A   1      31.638  26.996  25.216  1.00  0.00     0.093 C 
ATOM     14  N   UNL A   1      30.314  28.024  21.949  1.00  0.00    -0.240 NA
ATOM     15  C   UNL A   1      31.019  27.665  24.056  1.00  0.00     0.042 A 
ATOM     16  C   UNL A   1      30.056  29.080  22.692  1.00  0.00     0.197 A 
ATOM     17  N   UNL A   1      30.465  28.908  23.988  1.00  0.00    -0.348 N 
ATOM     18  H   UNL A   1      30.376  29.554  24.726  1.00  0.00     0.167 HD
BRANCH  10  19
ATOM     19  C   UNL A   1      33.234  24.296  23.065  1.00  0.00     0.290 C 
ATOM     20  O   UNL A   1      34.362  24.638  22.709  1.00  0.00    -0.265 OA
BRANCH  19  21
ATOM     21  C   UNL A   1      32.748  22.932  22.909  1.00  0.00     0.191 A 
ATOM     22  C   UNL A   1      32.426  20.849  23.592  1.00  0.00     0.104 A 
ATOM     23  C   UNL A   1      32.031  20.890  22.274  1.00  0.00     0.046 A 
ATOM     24  O   UNL A   1      32.867  22.079  23.979  1.00  0.00    -0.456 OA
ATOM     25  C   UNL A   1      32.258  22.220  21.828  1.00  0.00     0.056 A 
BRANCH  22  26
ATOM     26  C   UNL A   1      32.455  19.780  24.627  1.00  0.00     0.072 C 
ATOM     27  C   UNL A   1      33.368  18.622  24.246  1.00  0.00     0.012 C 
ENDBRANCH  22  26
ENDBRANCH  19  21
ENDBRANCH  10  19
ENDBRANCH   7   9
ENDBRANCH   6   7
ENDBRANCH   5   6
ENDBRANCH   4   5
ENDBRANCH   3   4
ENDBRANCH   2   3
ENDBRANCH   1   2
BRANCH   1  28
ATOM     28  O   UNL A   1      37.344  20.977  25.354  1.00  0.00    -0.377 OA
BRANCH  28  29
ATOM     29  C   UNL A   1      38.178  22.065  25.748  1.00  0.00     0.188 C 
BRANCH  29  30
ATOM     30  C   UNL A   1      39.603  21.859  26.359  1.00  0.00     0.188 C 
BRANCH  30  31
ATOM     31  O   UNL A   1      40.188  20.577  26.159  1.00  0.00    -0.376 OA
BRANCH  31  32
ATOM     32  C   UNL A   1      41.189  20.050  27.009  1.00  0.00     0.202 C 
BRANCH  32  33
ATOM     33  C   UNL A   1      42.385  19.425  26.292  1.00  0.00     0.261 C 
BRANCH  33  34
ATOM     34  O   UNL A   1      43.445  20.345  26.136  1.00  0.00    -0.460 OA
BRANCH  34  35
ATOM     35  C   UNL A   1      44.058  20.263  24.946  1.00  0.00     0.338 C 
ATOM     36  O   UNL A   1      44.092  19.295  24.193  1.00  0.00    -0.246 OA
BRANCH  35  37
ATOM     37  C   UNL A   1      44.739  21.530  24.688  1.00  0.00     0.060 A 
ATOM     38  C   UNL A   1      45.835  21.778  25.511  1.00  0.00     0.016 A 
ATOM     39  C   UNL A   1      43.992  22.542  24.069  1.00  0.00     0.016 A 
ATOM     40  C   UNL A   1      45.897  23.019  26.075  1.00  0.00     0.010 A 
ATOM     41  C   UNL A   1      44.032  23.770  24.654  1.00  0.00     0.010 A 
ATOM     42  C   UNL A   1      44.887  23.924  25.741  1.00  0.00    -0.014 A 
BRANCH  42  43
ATOM     43  C   UNL A   1      44.678  25.030  26.632  1.00  0.00     0.031 A 
ATOM     44  C   UNL A   1      45.806  25.967  26.628  1.00  0.00     0.074 A 
ATOM     45  C   UNL A   1      43.522  25.164  27.303  1.00  0.00     0.049 A 
ATOM     46  N   UNL A   1      46.673  26.160  27.562  1.00  0.00    -0.248 NA
ATOM     47  C   UNL A   1      46.135  26.600  25.342  1.00  0.00     0.031 C 
ATOM     48  C   UNL A   1      42.265  24.425  27.130  1.00  0.00     0.029 A 
ATOM     49  N   UNL A   1      43.207  26.091  28.239  1.00  0.00    -0.354 N 
ATOM     50  C   UNL A   1      47.541  27.110  27.046  1.00  0.00     0.074 A 
ATOM     51  C   UNL A   1      47.308  27.159  25.628  1.00  0.00     0.031 C 
ATOM     52  C   UNL A   1      41.272  25.087  27.769  1.00  0.00     0.029 A 
ATOM     53  C   UNL A   1      41.849  26.208  28.489  1.00  0.00     0.049 A 
ATOM     54  H   UNL A   1      43.884  26.635  28.701  1.00  0.00     0.167 HD
ATOM     55  C   UNL A   1      48.176  27.992  27.859  1.00  0.00     0.037 A 
ATOM     56  C   UNL A   1      41.276  27.240  29.154  1.00  0.00     0.037 A 
ATOM     57  C   UNL A   1      48.174  27.543  29.226  1.00  0.00     0.049 A 
ATOM     58  C   UNL A   1      42.355  27.931  29.915  1.00  0.00     0.074 A 
ATOM     59  C   UNL A   1      48.695  26.444  29.883  1.00  0.00     0.029 A 
ATOM     60  N   UNL A   1      47.229  28.074  30.072  1.00  0.00    -0.354 N 
ATOM     61  N   UNL A   1      42.980  27.397  30.930  1.00  0.00    -0.248 NA
ATOM     62  C   UNL A   1      43.075  29.008  29.245  1.00  0.00     0.031 C 
ATOM     63  C   UNL A   1      47.730  26.110  30.877  1.00  0.00     0.029 A 
ATOM     64  C   UNL A   1      46.696  27.044  30.807  1.00  0.00     0.049 A 
ATOM     65  H   UNL A   1      46.978  29.024  30.137  1.00  0.00     0.167 HD
ATOM     66  C   UNL A   1      44.309  27.775  30.778  1.00  0.00     0.074 A 
ATOM     67  C   UNL A   1      44.292  28.829  29.767  1.00  0.00     0.031 C 
ATOM     68  C   UNL A   1      45.325  27.002  31.267  1.00  0.00     0.037 A 
BRANCH  55  69
ATOM     69  C   UNL A   1      48.455  29.414  27.459  1.00  0.00     0.057 A 
ATOM     70  C   UNL A   1      49.778  29.877  27.473  1.00  0.00     0.134 A 
ATOM     71  C   UNL A   1      47.468  30.412  27.311  1.00  0.00     0.134 A 
ATOM     72  F   UNL A   1      50.802  29.025  27.634  1.00  0.00    -0.206 F 
ATOM     73  C   UNL A   1      50.092  31.238  27.401  1.00  0.00     0.040 A 
ATOM     74  C   UNL A   1      47.771  31.766  27.176  1.00  0.00     0.040 A 
ATOM     75  F   UNL A   1      46.156  30.153  27.392  1.00  0.00    -0.206 F 
ATOM     76  C   UNL A   1      49.087  32.188  27.252  1.00  0.00     0.006 A 
ENDBRANCH  55  69
BRANCH  56  77
ATOM     77  C   UNL A   1      39.970  27.868  28.859  1.00  0.00     0.057 A 
ATOM     78  C   UNL A   1      38.947  27.909  29.814  1.00  0.00     0.134 A 
ATOM     79  C   UNL A   1      39.779  28.660  27.712  1.00  0.00     0.134 A 
ATOM     80  F   UNL A   1      39.062  27.228  30.962  1.00  0.00    -0.206 F 
ATOM     81  C   UNL A   1      37.800  28.696  29.639  1.00  0.00     0.040 A 
ATOM     82  C   UNL A   1      38.637  29.444  27.521  1.00  0.00     0.040 A 
ATOM     83  F   UNL A   1      40.734  28.768  26.777  1.00  0.00    -0.206 F 
ATOM     84  C   UNL A   1      37.645  29.471  28.492  1.00  0.00     0.006 A 
ENDBRANCH  56  77
BRANCH  68  85
ATOM     85  C   UNL A   1      44.951  25.853  32.164  1.00  0.00     0.057 A 
ATOM     86  C   UNL A   1      44.707  25.987  33.540  1.00  0.00     0.134 A 
ATOM     87  C   UNL A   1      44.678  24.605  31.596  1.00  0.00     0.134 A 
ATOM     88  F   UNL A   1      44.839  27.169  34.153  1.00  0.00    -0.206 F 
ATOM     89  C   UNL A   1      44.255  24.918  34.321  1.00  0.00     0.040 A 
ATOM     90  C   UNL A   1      44.194  23.537  32.356  1.00  0.00     0.040 A 
ATOM     91  F   UNL A   1      44.826  24.419  30.275  1.00  0.00    -0.206 F 
ATOM     92  C   UNL A   1      43.992  23.688  33.726  1.00  0.00     0.006 A 
ENDBRANCH  68  85
ENDBRANCH  42  43
ENDBRANCH  35  37
ENDBRANCH  34  35
ENDBRANCH  33  34
ENDBRANCH  32  33
ENDBRANCH  31  32
ENDBRANCH  30  31
ENDBRANCH  29  30
ENDBRANCH  28  29
ENDBRANCH   1  28
TORSDOF 23
ENDMDL
MODEL 2
REMARK VINA RESULT:     -10.6      5.035     10.100
REMARK SMILES CCc1ccc(C(=O)N2Cc3nc[nH]c3C[C@@H]2C(=O)OCCOCCOCCOCCOC(=O)c2ccc(-c3c4nc(c(-c5c(F)cccc5F)c5ccc([nH]5)c(-c5c(F)cccc5F)c5nc(c(-c6c(F)cccc6F)c6ccc3[nH]6)C=C5)C=C4)cc2)o1
REMARK SMILES IDX 25 1 24 2 23 3 22 4 21 5 20 6 18 7 19 8 17 9 9 10 10 11
REMARK SMILES IDX 11 12 16 13 12 14 15 15 13 16 14 17 7 19 8 20 6 21 3 22 4 23
REMARK SMILES IDX 89 24 5 25 2 26 1 27 26 28 27 29 28 30 29 31 30 32 31 33
REMARK SMILES IDX 32 34 33 35 34 36 35 37 36 38 88 39 37 40 87 41 38 42 39 43
REMARK SMILES IDX 40 44 81 45 41 46 86 47 80 48 82 49 42 50 85 51 79 52 78 53
REMARK SMILES IDX 43 55 69 56 52 57 68 58 53 59 56 60 67 61 83 62 54 63 55 64
REMARK SMILES IDX 66 66 84 67 57 68 44 69 45 70 50 71 46 72 47 73 49 74 51 75
REMARK SMILES IDX 48 76 70 77 71 78 76 79 72 80 73 81 75 82 77 83 74 84 58 85
REMARK SMILES IDX 59 86 64 87 60 88 61 89 63 90 65 91 62 92
REMARK H PARENT 14 18 82 54 56 65
REMARK Flexibility Score: inf
ROOT
ATOM      1  C   UNL A   1      32.106  29.595  25.464  1.00  0.00     0.188 C 
ENDROOT
BRANCH   1   2
ATOM      2  C   UNL A   1      32.334  28.737  24.198  1.00  0.00     0.188 C 
BRANCH   2   3
ATOM      3  O   UNL A   1      31.632  27.508  24.228  1.00  0.00    -0.376 OA
BRANCH   3   4
ATOM      4  C   UNL A   1      31.360  26.903  25.473  1.00  0.00     0.202 C 
BRANCH   4   5
ATOM      5  C   UNL A   1      32.109  25.611  25.820  1.00  0.00     0.261 C 
BRANCH   5   6
ATOM      6  O   UNL A   1      31.665  24.442  25.116  1.00  0.00    -0.462 OA
BRANCH   6   7
ATOM      7  C   UNL A   1      32.552  23.782  24.311  1.00  0.00     0.329 C 
ATOM      8  O   UNL A   1      33.337  24.319  23.550  1.00  0.00    -0.250 OA
BRANCH   7   9
ATOM      9  C   UNL A   1      32.408  22.273  24.601  1.00  0.00     0.201 C 
ATOM     10  N   UNL A   1      33.402  21.590  25.477  1.00  0.00    -0.316 N 
ATOM     11  C   UNL A   1      33.232  20.143  25.705  1.00  0.00     0.179 C 
ATOM     12  C   UNL A   1      32.826  19.476  24.441  1.00  0.00     0.081 A 
ATOM     13  C   UNL A   1      32.290  21.610  23.192  1.00  0.00     0.093 C 
ATOM     14  N   UNL A   1      32.800  18.125  24.229  1.00  0.00    -0.240 NA
ATOM     15  C   UNL A   1      32.393  20.145  23.322  1.00  0.00     0.042 A 
ATOM     16  C   UNL A   1      32.416  17.984  22.977  1.00  0.00     0.197 A 
ATOM     17  N   UNL A   1      32.152  19.189  22.382  1.00  0.00    -0.348 N 
ATOM     18  H   UNL A   1      31.848  19.336  21.457  1.00  0.00     0.167 HD
BRANCH  10  19
ATOM     19  C   UNL A   1      34.203  22.237  26.418  1.00  0.00     0.290 C 
ATOM     20  O   UNL A   1      33.704  22.551  27.499  1.00  0.00    -0.265 OA
BRANCH  19  21
ATOM     21  C   UNL A   1      35.535  22.671  26.021  1.00  0.00     0.191 A 
ATOM     22  C   UNL A   1      37.714  22.384  25.737  1.00  0.00     0.104 A 
ATOM     23  C   UNL A   1      37.461  23.713  25.479  1.00  0.00     0.046 A 
ATOM     24  O   UNL A   1      36.554  21.752  26.072  1.00  0.00    -0.456 OA
ATOM     25  C   UNL A   1      36.068  23.903  25.683  1.00  0.00     0.056 A 
BRANCH  22  26
ATOM     26  C   UNL A   1      38.943  21.545  25.713  1.00  0.00     0.072 C 
ATOM     27  C   UNL A   1      39.879  21.847  26.875  1.00  0.00     0.012 C 
ENDBRANCH  22  26
ENDBRANCH  19  21
ENDBRANCH  10  19
ENDBRANCH   7   9
ENDBRANCH   6   7
ENDBRANCH   5   6
ENDBRANCH   4   5
ENDBRANCH   3   4
ENDBRANCH   2   3
ENDBRANCH   1   2
BRANCH   1  28
ATOM     28  O   UNL A   1      33.237  29.913  26.258  1.00  0.00    -0.377 OA
BRANCH  28  29
ATOM     29  C   UNL A   1      33.126  30.975  27.203  1.00  0.00     0.188 C 
BRANCH  29  30
ATOM     30  C   UNL A   1      34.357  31.543  27.983  1.00  0.00     0.188 C 
BRANCH  30  31
ATOM     31  O   UNL A   1      34.451  32.961  28.055  1.00  0.00    -0.376 OA
BRANCH  31  32
ATOM     32  C   UNL A   1      33.319  33.808  28.008  1.00  0.00     0.202 C 
BRANCH  32  33
ATOM     33  C   UNL A   1      33.241  34.848  29.124  1.00  0.00     0.261 C 
BRANCH  33  34
ATOM     34  O   UNL A   1      33.999  34.467  30.253  1.00  0.00    -0.460 OA
BRANCH  34  35
ATOM     35  C   UNL A   1      33.508  34.927  31.412  1.00  0.00     0.338 C 
ATOM     36  O   UNL A   1      32.533  35.656  31.570  1.00  0.00    -0.246 OA
BRANCH  35  37
ATOM     37  C   UNL A   1      34.361  34.450  32.499  1.00  0.00     0.060 A 
ATOM     38  C   UNL A   1      35.446  35.273  32.790  1.00  0.00     0.016 A 
ATOM     39  C   UNL A   1      34.339  33.075  32.771  1.00  0.00     0.016 A 
ATOM     40  C   UNL A   1      36.655  34.654  32.920  1.00  0.00     0.010 A 
ATOM     41  C   UNL A   1      35.546  32.456  32.869  1.00  0.00     0.010 A 
ATOM     42  C   UNL A   1      36.678  33.262  32.793  1.00  0.00    -0.014 A 
BRANCH  42  43
ATOM     43  C   UNL A   1      37.940  32.654  32.482  1.00  0.00     0.031 A 
ATOM     44  C   UNL A   1      38.861  32.673  33.622  1.00  0.00     0.074 A 
ATOM     45  C   UNL A   1      38.152  32.086  31.283  1.00  0.00     0.049 A 
ATOM     46  N   UNL A   1      39.925  33.386  33.764  1.00  0.00    -0.248 NA
ATOM     47  C   UNL A   1      38.419  31.977  34.840  1.00  0.00     0.031 C 
ATOM     48  C   UNL A   1      37.185  31.787  30.220  1.00  0.00     0.029 A 
ATOM     49  N   UNL A   1      39.305  31.556  30.807  1.00  0.00    -0.354 N 
ATOM     50  C   UNL A   1      40.403  33.059  35.024  1.00  0.00     0.074 A 
ATOM     51  C   UNL A   1      39.332  32.391  35.714  1.00  0.00     0.031 C 
ATOM     52  C   UNL A   1      37.749  30.930  29.337  1.00  0.00     0.029 A 
ATOM     53  C   UNL A   1      39.140  30.731  29.706  1.00  0.00     0.049 A 
ATOM     54  H   UNL A   1      40.183  31.741  31.210  1.00  0.00     0.167 HD
ATOM     55  C   UNL A   1      41.731  33.098  35.301  1.00  0.00     0.037 A 
ATOM     56  C   UNL A   1      40.080  29.876  29.239  1.00  0.00     0.037 A 
ATOM     57  C   UNL A   1      42.446  33.890  34.334  1.00  0.00     0.049 A 
ATOM     58  C   UNL A   1      41.390  30.303  29.805  1.00  0.00     0.074 A 
ATOM     59  C   UNL A   1      42.407  35.218  33.955  1.00  0.00     0.029 A 
ATOM     60  N   UNL A   1      43.095  33.227  33.319  1.00  0.00    -0.354 N 
ATOM     61  N   UNL A   1      41.992  31.416  29.479  1.00  0.00    -0.248 NA
ATOM     62  C   UNL A   1      41.788  29.742  31.091  1.00  0.00     0.031 C 
ATOM     63  C   UNL A   1      42.626  35.212  32.547  1.00  0.00     0.029 A 
ATOM     64  C   UNL A   1      42.831  33.891  32.147  1.00  0.00     0.049 A 
ATOM     65  H   UNL A   1      43.649  32.419  33.416  1.00  0.00     0.167 HD
ATOM     66  C   UNL A   1      42.523  31.905  30.666  1.00  0.00     0.074 A 
ATOM     67  C   UNL A   1      42.433  30.793  31.609  1.00  0.00     0.031 C 
ATOM     68  C   UNL A   1      42.716  33.244  30.858  1.00  0.00     0.037 A 
BRANCH  55  69
ATOM     69  C   UNL A   1      42.401  32.116  36.220  1.00  0.00     0.057 A 
ATOM     70  C   UNL A   1      43.046  32.592  37.369  1.00  0.00     0.134 A 
ATOM     71  C   UNL A   1      42.663  30.767  35.896  1.00  0.00     0.134 A 
ATOM     72  F   UNL A   1      42.896  33.865  37.764  1.00  0.00    -0.206 F 
ATOM     73  C   UNL A   1      43.928  31.799  38.111  1.00  0.00     0.040 A 
ATOM     74  C   UNL A   1      43.492  29.948  36.662  1.00  0.00     0.040 A 
ATOM     75  F   UNL A   1      42.218  30.191  34.771  1.00  0.00    -0.206 F 
ATOM     76  C   UNL A   1      44.154  30.473  37.758  1.00  0.00     0.006 A 
ENDBRANCH  55  69
BRANCH  56  77
ATOM     77  C   UNL A   1      39.849  28.529  28.671  1.00  0.00     0.057 A 
ATOM     78  C   UNL A   1      40.357  28.169  27.418  1.00  0.00     0.134 A 
ATOM     79  C   UNL A   1      39.331  27.482  29.455  1.00  0.00     0.134 A 
ATOM     80  F   UNL A   1      40.918  29.089  26.622  1.00  0.00    -0.206 F 
ATOM     81  C   UNL A   1      40.351  26.840  26.969  1.00  0.00     0.040 A 
ATOM     82  C   UNL A   1      39.312  26.154  29.017  1.00  0.00     0.040 A 
ATOM     83  F   UNL A   1      38.903  27.699  30.707  1.00  0.00    -0.206 F 
ATOM     84  C   UNL A   1      39.832  25.827  27.773  1.00  0.00     0.006 A 
ENDBRANCH  56  77
BRANCH  68  85
ATOM     85  C   UNL A   1      42.545  34.146  29.665  1.00  0.00     0.057 A 
ATOM     86  C   UNL A   1      41.337  34.785  29.339  1.00  0.00     0.134 A 
ATOM     87  C   UNL A   1      43.668  34.505  28.916  1.00  0.00     0.134 A 
ATOM     88  F   UNL A   1      40.232  34.585  30.066  1.00  0.00    -0.206 F 
ATOM     89  C   UNL A   1      41.245  35.702  28.287  1.00  0.00     0.040 A 
ATOM     90  C   UNL A   1      43.598  35.446  27.884  1.00  0.00     0.040 A 
ATOM     91  F   UNL A   1      44.870  33.985  29.210  1.00  0.00    -0.206 F 
ATOM     92  C   UNL A   1      42.381  36.039  27.559  1.00  0.00     0.006 A 
ENDBRANCH  68  85
ENDBRANCH  42  43
ENDBRANCH  35  37
ENDBRANCH  34  35
ENDBRANCH  33  34
ENDBRANCH  32  33
ENDBRANCH  31  32
ENDBRANCH  30  31
ENDBRANCH  29  30
ENDBRANCH  28  29
ENDBRANCH   1  28
TORSDOF 23
ENDMDL
MODEL 3
REMARK VINA RESULT:     -10.3      4.320      9.192
REMARK SMILES CCc1ccc(C(=O)N2Cc3nc[nH]c3C[C@@H]2C(=O)OCCOCCOCCOCCOC(=O)c2ccc(-c3c4nc(c(-c5c(F)cccc5F)c5ccc([nH]5)c(-c5c(F)cccc5F)c5nc(c(-c6c(F)cccc6F)c6ccc3[nH]6)C=C5)C=C4)cc2)o1
REMARK SMILES IDX 25 1 24 2 23 3 22 4 21 5 20 6 18 7 19 8 17 9 9 10 10 11
REMARK SMILES IDX 11 12 16 13 12 14 15 15 13 16 14 17 7 19 8 20 6 21 3 22 4 23
REMARK SMILES IDX 89 24 5 25 2 26 1 27 26 28 27 29 28 30 29 31 30 32 31 33
REMARK SMILES IDX 32 34 33 35 34 36 35 37 36 38 88 39 37 40 87 41 38 42 39 43
REMARK SMILES IDX 40 44 81 45 41 46 86 47 80 48 82 49 42 50 85 51 79 52 78 53
REMARK SMILES IDX 43 55 69 56 52 57 68 58 53 59 56 60 67 61 83 62 54 63 55 64
REMARK SMILES IDX 66 66 84 67 57 68 44 69 45 70 50 71 46 72 47 73 49 74 51 75
REMARK SMILES IDX 48 76 70 77 71 78 76 79 72 80 73 81 75 82 77 83 74 84 58 85
REMARK SMILES IDX 59 86 64 87 60 88 61 89 63 90 65 91 62 92
REMARK H PARENT 14 18 82 54 56 65
REMARK Flexibility Score: inf
ROOT
ATOM      1  C   UNL A   1      30.904  28.970  23.797  1.00  0.00     0.188 C 
ENDROOT
BRANCH   1   2
ATOM      2  C   UNL A   1      30.237  27.649  24.242  1.00  0.00     0.188 C 
BRANCH   2   3
ATOM      3  O   UNL A   1      30.638  26.535  23.465  1.00  0.00    -0.376 OA
BRANCH   3   4
ATOM      4  C   UNL A   1      30.033  25.282  23.696  1.00  0.00     0.202 C 
BRANCH   4   5
ATOM      5  C   UNL A   1      30.939  24.046  23.733  1.00  0.00     0.261 C 
BRANCH   5   6
ATOM      6  O   UNL A   1      32.320  24.294  23.432  1.00  0.00    -0.462 OA
BRANCH   6   7
ATOM      7  C   UNL A   1      33.134  23.231  23.150  1.00  0.00     0.329 C 
ATOM      8  O   UNL A   1      34.065  23.255  22.365  1.00  0.00    -0.250 OA
BRANCH   7   9
ATOM      9  C   UNL A   1      32.689  22.056  24.046  1.00  0.00     0.201 C 
ATOM     10  N   UNL A   1      33.380  21.813  25.344  1.00  0.00    -0.316 N 
ATOM     11  C   UNL A   1      32.931  20.664  26.152  1.00  0.00     0.179 C 
ATOM     12  C   UNL A   1      32.655  19.501  25.269  1.00  0.00     0.081 A 
ATOM     13  C   UNL A   1      32.719  20.810  23.104  1.00  0.00     0.093 C 
ATOM     14  N   UNL A   1      32.444  18.217  25.689  1.00  0.00    -0.240 NA
ATOM     15  C   UNL A   1      32.550  19.581  23.902  1.00  0.00     0.042 A 
ATOM     16  C   UNL A   1      32.275  17.520  24.585  1.00  0.00     0.197 A 
ATOM     17  N   UNL A   1      32.328  18.309  23.467  1.00  0.00    -0.348 N 
ATOM     18  H   UNL A   1      32.226  18.016  22.532  1.00  0.00     0.167 HD
BRANCH  10  19
ATOM     19  C   UNL A   1      34.093  22.779  26.053  1.00  0.00     0.290 C 
ATOM     20  O   UNL A   1      33.477  23.524  26.815  1.00  0.00    -0.265 OA
BRANCH  19  21
ATOM     21  C   UNL A   1      35.499  22.984  25.732  1.00  0.00     0.191 A 
ATOM     22  C   UNL A   1      37.605  22.328  25.530  1.00  0.00     0.104 A 
ATOM     23  C   UNL A   1      37.601  23.688  25.318  1.00  0.00     0.046 A 
ATOM     24  O   UNL A   1      36.338  21.899  25.787  1.00  0.00    -0.456 OA
ATOM     25  C   UNL A   1      36.255  24.114  25.470  1.00  0.00     0.056 A 
BRANCH  22  26
ATOM     26  C   UNL A   1      38.668  21.286  25.522  1.00  0.00     0.072 C 
ATOM     27  C   UNL A   1      39.722  21.518  26.597  1.00  0.00     0.012 C 
ENDBRANCH  22  26
ENDBRANCH  19  21
ENDBRANCH  10  19
ENDBRANCH   7   9
ENDBRANCH   6   7
ENDBRANCH   5   6
ENDBRANCH   4   5
ENDBRANCH   3   4
ENDBRANCH   2   3
ENDBRANCH   1   2
BRANCH   1  28
ATOM     28  O   UNL A   1      31.930  28.896  22.821  1.00  0.00    -0.377 OA
BRANCH  28  29
ATOM     29  C   UNL A   1      33.287  28.905  23.260  1.00  0.00     0.188 C 
BRANCH  29  30
ATOM     30  C   UNL A   1      33.759  28.171  24.558  1.00  0.00     0.188 C 
BRANCH  30  31
ATOM     31  O   UNL A   1      34.034  29.003  25.679  1.00  0.00    -0.376 OA
BRANCH  31  32
ATOM     32  C   UNL A   1      33.151  29.125  26.778  1.00  0.00     0.202 C 
BRANCH  32  33
ATOM     33  C   UNL A   1      32.641  30.540  27.045  1.00  0.00     0.261 C 
BRANCH  33  34
ATOM     34  O   UNL A   1      33.647  31.369  27.587  1.00  0.00    -0.460 OA
BRANCH  34  35
ATOM     35  C   UNL A   1      33.229  32.612  27.867  1.00  0.00     0.338 C 
ATOM     36  O   UNL A   1      32.251  33.190  27.400  1.00  0.00    -0.246 OA
BRANCH  35  37
ATOM     37  C   UNL A   1      34.165  33.215  28.812  1.00  0.00     0.060 A 
ATOM     38  C   UNL A   1      35.103  34.070  28.237  1.00  0.00     0.016 A 
ATOM     39  C   UNL A   1      34.377  32.538  30.021  1.00  0.00     0.016 A 
ATOM     40  C   UNL A   1      36.400  33.889  28.619  1.00  0.00     0.010 A 
ATOM     41  C   UNL A   1      35.673  32.332  30.383  1.00  0.00     0.010 A 
ATOM     42  C   UNL A   1      36.653  32.901  29.575  1.00  0.00    -0.014 A 
BRANCH  42  43
ATOM     43  C   UNL A   1      37.994  32.397  29.656  1.00  0.00     0.031 A 
ATOM     44  C   UNL A   1      38.109  31.038  29.119  1.00  0.00     0.074 A 
ATOM     45  C   UNL A   1      38.993  33.171  30.113  1.00  0.00     0.049 A 
ATOM     46  N   UNL A   1      38.304  29.946  29.775  1.00  0.00    -0.248 NA
ATOM     47  C   UNL A   1      37.741  30.851  27.707  1.00  0.00     0.031 C 
ATOM     48  C   UNL A   1      38.989  34.612  30.391  1.00  0.00     0.029 A 
ATOM     49  N   UNL A   1      40.282  32.819  30.334  1.00  0.00    -0.354 N 
ATOM     50  C   UNL A   1      38.294  28.949  28.810  1.00  0.00     0.074 A 
ATOM     51  C   UNL A   1      37.716  29.523  27.625  1.00  0.00     0.031 C 
ATOM     52  C   UNL A   1      40.267  35.041  30.517  1.00  0.00     0.029 A 
ATOM     53  C   UNL A   1      41.151  33.890  30.458  1.00  0.00     0.049 A 
ATOM     54  H   UNL A   1      40.575  31.882  30.400  1.00  0.00     0.167 HD
ATOM     55  C   UNL A   1      39.027  27.818  28.966  1.00  0.00     0.037 A 
ATOM     56  C   UNL A   1      42.501  33.796  30.394  1.00  0.00     0.037 A 
ATOM     57  C   UNL A   1      39.409  27.623  30.340  1.00  0.00     0.049 A 
ATOM     58  C   UNL A   1      42.858  32.368  30.622  1.00  0.00     0.074 A 
ATOM     59  C   UNL A   1      38.713  27.425  31.517  1.00  0.00     0.029 A 
ATOM     60  N   UNL A   1      40.676  28.005  30.711  1.00  0.00    -0.354 N 
ATOM     61  N   UNL A   1      42.696  31.755  31.764  1.00  0.00    -0.248 NA
ATOM     62  C   UNL A   1      42.930  31.493  29.458  1.00  0.00     0.031 C 
ATOM     63  C   UNL A   1      39.452  28.129  32.512  1.00  0.00     0.029 A 
ATOM     64  C   UNL A   1      40.580  28.680  31.903  1.00  0.00     0.049 A 
ATOM     65  H   UNL A   1      41.505  27.827  30.210  1.00  0.00     0.167 HD
ATOM     66  C   UNL A   1      42.241  30.483  31.433  1.00  0.00     0.074 A 
ATOM     67  C   UNL A   1      42.480  30.356  29.998  1.00  0.00     0.031 C 
ATOM     68  C   UNL A   1      41.451  29.769  32.289  1.00  0.00     0.037 A 
BRANCH  55  69
ATOM     69  C   UNL A   1      39.695  27.116  27.817  1.00  0.00     0.057 A 
ATOM     70  C   UNL A   1      39.641  25.717  27.751  1.00  0.00     0.134 A 
ATOM     71  C   UNL A   1      40.601  27.728  26.924  1.00  0.00     0.134 A 
ATOM     72  F   UNL A   1      38.836  25.021  28.568  1.00  0.00    -0.206 F 
ATOM     73  C   UNL A   1      40.466  24.979  26.896  1.00  0.00     0.040 A 
ATOM     74  C   UNL A   1      41.385  27.006  26.023  1.00  0.00     0.040 A 
ATOM     75  F   UNL A   1      40.859  29.042  26.937  1.00  0.00    -0.206 F 
ATOM     76  C   UNL A   1      41.342  25.624  26.029  1.00  0.00     0.006 A 
ENDBRANCH  55  69
BRANCH  56  77
ATOM     77  C   UNL A   1      43.429  34.769  29.778  1.00  0.00     0.057 A 
ATOM     78  C   UNL A   1      43.161  35.346  28.531  1.00  0.00     0.134 A 
ATOM     79  C   UNL A   1      44.483  35.344  30.512  1.00  0.00     0.134 A 
ATOM     80  F   UNL A   1      42.143  34.900  27.782  1.00  0.00    -0.206 F 
ATOM     81  C   UNL A   1      43.898  36.433  28.042  1.00  0.00     0.040 A 
ATOM     82  C   UNL A   1      45.232  36.423  30.034  1.00  0.00     0.040 A 
ATOM     83  F   UNL A   1      44.767  34.931  31.757  1.00  0.00    -0.206 F 
ATOM     84  C   UNL A   1      44.935  36.979  28.797  1.00  0.00     0.006 A 
ENDBRANCH  56  77
BRANCH  68  85
ATOM     85  C   UNL A   1      41.275  30.308  33.684  1.00  0.00     0.057 A 
ATOM     86  C   UNL A   1      42.179  30.066  34.731  1.00  0.00     0.134 A 
ATOM     87  C   UNL A   1      40.250  31.223  33.937  1.00  0.00     0.134 A 
ATOM     88  F   UNL A   1      43.252  29.287  34.551  1.00  0.00    -0.206 F 
ATOM     89  C   UNL A   1      42.041  30.673  35.984  1.00  0.00     0.040 A 
ATOM     90  C   UNL A   1      40.120  31.863  35.172  1.00  0.00     0.040 A 
ATOM     91  F   UNL A   1      39.385  31.553  32.965  1.00  0.00    -0.206 F 
ATOM     92  C   UNL A   1      41.010  31.580  36.205  1.00  0.00     0.006 A 
ENDBRANCH  68  85
ENDBRANCH  42  43
ENDBRANCH  35  37
ENDBRANCH  34  35
ENDBRANCH  33  34
ENDBRANCH  32  33
ENDBRANCH  31  32
ENDBRANCH  30  31
ENDBRANCH  29  30
ENDBRANCH  28  29
ENDBRANCH   1  28
TORSDOF 23
ENDMDL
