MODEL 1
REMARK VINA RESULT:     -10.2      0.000      0.000
REMARK SMILES O=C(CCC(=O)OCCOCCOCCOCCOC(=O)c1ccc(-c2c3nc(c(-c4c(F)cccc4F)c4ccc([nH]4)c(-c4c(F)cccc4F)c4nc(c(-c5c(F)cccc5F)c5ccc2[nH]5)C=C4)C=C3)cc1)Nc1ccc(C(=O)N2CCOCC2)cc1
REMARK SMILES IDX 12 1 11 2 10 3 9 4 8 5 7 6 5 7 6 8 4 9 3 10 2 11 1 12 76 13
REMARK SMILES IDX 77 15 78 16 90 17 79 18 89 19 80 20 81 21 82 22 83 23 84 24
REMARK SMILES IDX 88 25 85 26 87 27 86 28 13 29 14 30 15 31 16 32 17 33 18 34
REMARK SMILES IDX 19 35 20 36 21 37 22 38 23 39 75 40 24 41 74 42 25 43 26 44
REMARK SMILES IDX 27 45 68 46 28 47 73 48 67 49 69 50 29 51 72 52 66 53 65 54
REMARK SMILES IDX 30 56 56 57 39 58 55 59 40 60 43 61 54 62 70 63 41 64 42 65
REMARK SMILES IDX 53 67 71 68 44 69 31 70 32 71 37 72 33 73 34 74 36 75 38 76
REMARK SMILES IDX 35 77 57 78 58 79 63 80 59 81 60 82 62 83 64 84 61 85 45 86
REMARK SMILES IDX 46 87 51 88 47 89 48 90 50 91 52 92 49 93
REMARK H PARENT 76 14 69 55 43 66
REMARK Flexibility Score: inf
ROOT
ATOM      1  C   UNL A   1      38.278  21.438  25.289  1.00  0.00     0.188 C 
ENDROOT
BRANCH   1   2
ATOM      2  C   UNL A   1      37.957  22.870  25.725  1.00  0.00     0.188 C 
BRANCH   2   3
ATOM      3  O   UNL A   1      37.054  23.614  24.933  1.00  0.00    -0.376 OA
BRANCH   3   4
ATOM      4  C   UNL A   1      35.835  24.094  25.485  1.00  0.00     0.202 C 
BRANCH   4   5
ATOM      5  C   UNL A   1      34.855  23.217  26.287  1.00  0.00     0.261 C 
BRANCH   5   6
ATOM      6  O   UNL A   1      34.684  21.856  25.836  1.00  0.00    -0.463 OA
BRANCH   6   7
ATOM      7  C   UNL A   1      33.674  21.169  26.423  1.00  0.00     0.306 C 
ATOM      8  O   UNL A   1      33.291  21.376  27.570  1.00  0.00    -0.252 OA
BRANCH   7   9
ATOM      9  C   UNL A   1      32.975  20.137  25.560  1.00  0.00     0.132 C 
BRANCH   9  10
ATOM     10  C   UNL A   1      33.010  20.077  24.041  1.00  0.00     0.112 C 
BRANCH  10  11
ATOM     11  C   UNL A   1      32.437  21.226  23.246  1.00  0.00     0.224 C 
ATOM     12  O   UNL A   1      31.813  21.003  22.211  1.00  0.00    -0.275 OA
ATOM     13  N   UNL A   1      32.635  22.464  23.809  1.00  0.00    -0.326 N 
ATOM     14  H   UNL A   1      33.195  22.508  24.619  1.00  0.00     0.169 HD
BRANCH  13  15
ATOM     15  C   UNL A   1      32.106  23.667  23.328  1.00  0.00     0.041 A 
ATOM     16  C   UNL A   1      30.949  24.164  23.929  1.00  0.00     0.027 A 
ATOM     17  C   UNL A   1      32.731  24.391  22.316  1.00  0.00     0.027 A 
ATOM     18  C   UNL A   1      30.513  25.454  23.624  1.00  0.00     0.016 A 
ATOM     19  C   UNL A   1      32.279  25.665  21.990  1.00  0.00     0.016 A 
ATOM     20  C   UNL A   1      31.193  26.221  22.669  1.00  0.00     0.040 A 
BRANCH  20  21
ATOM     21  C   UNL A   1      30.958  27.685  22.630  1.00  0.00     0.254 C 
ATOM     22  O   UNL A   1      29.916  28.057  22.089  1.00  0.00    -0.269 OA
ATOM     23  N   UNL A   1      31.794  28.539  23.326  1.00  0.00    -0.334 N 
ATOM     24  C   UNL A   1      33.232  28.392  23.567  1.00  0.00     0.148 C 
ATOM     25  C   UNL A   1      31.230  29.748  23.911  1.00  0.00     0.148 C 
ATOM     26  C   UNL A   1      33.559  28.544  25.063  1.00  0.00     0.181 C 
ATOM     27  C   UNL A   1      31.521  29.718  25.413  1.00  0.00     0.181 C 
ATOM     28  O   UNL A   1      32.942  29.703  25.647  1.00  0.00    -0.378 OA
ENDBRANCH  20  21
ENDBRANCH  13  15
ENDBRANCH  10  11
ENDBRANCH   9  10
ENDBRANCH   7   9
ENDBRANCH   6   7
ENDBRANCH   5   6
ENDBRANCH   4   5
ENDBRANCH   3   4
ENDBRANCH   2   3
ENDBRANCH   1   2
BRANCH   1  29
ATOM     29  O   UNL A   1      39.249  20.761  26.064  1.00  0.00    -0.377 OA
BRANCH  29  30
ATOM     30  C   UNL A   1      40.289  21.505  26.698  1.00  0.00     0.188 C 
BRANCH  30  31
ATOM     31  C   UNL A   1      41.615  21.818  25.976  1.00  0.00     0.188 C 
BRANCH  31  32
ATOM     32  O   UNL A   1      42.367  20.682  25.588  1.00  0.00    -0.376 OA
BRANCH  32  33
ATOM     33  C   UNL A   1      43.783  20.798  25.546  1.00  0.00     0.202 C 
BRANCH  33  34
ATOM     34  C   UNL A   1      44.346  22.107  24.969  1.00  0.00     0.261 C 
BRANCH  34  35
ATOM     35  O   UNL A   1      44.737  23.089  25.945  1.00  0.00    -0.460 OA
BRANCH  35  36
ATOM     36  C   UNL A   1      44.855  24.363  25.516  1.00  0.00     0.338 C 
ATOM     37  O   UNL A   1      45.437  24.758  24.526  1.00  0.00    -0.246 OA
BRANCH  36  38
ATOM     38  C   UNL A   1      44.003  25.219  26.365  1.00  0.00     0.060 A 
ATOM     39  C   UNL A   1      44.375  26.554  26.553  1.00  0.00     0.016 A 
ATOM     40  C   UNL A   1      42.887  24.694  27.020  1.00  0.00     0.016 A 
ATOM     41  C   UNL A   1      43.663  27.356  27.444  1.00  0.00     0.010 A 
ATOM     42  C   UNL A   1      42.182  25.497  27.922  1.00  0.00     0.010 A 
ATOM     43  C   UNL A   1      42.592  26.822  28.170  1.00  0.00    -0.014 A 
BRANCH  43  44
ATOM     44  C   UNL A   1      42.025  27.596  29.304  1.00  0.00     0.031 A 
ATOM     45  C   UNL A   1      42.667  27.482  30.661  1.00  0.00     0.074 A 
ATOM     46  C   UNL A   1      40.992  28.440  29.133  1.00  0.00     0.049 A 
ATOM     47  N   UNL A   1      42.362  28.093  31.776  1.00  0.00    -0.248 NA
ATOM     48  C   UNL A   1      43.815  26.569  30.769  1.00  0.00     0.031 C 
ATOM     49  C   UNL A   1      40.315  28.701  27.866  1.00  0.00     0.029 A 
ATOM     50  N   UNL A   1      40.322  29.223  30.039  1.00  0.00    -0.354 N 
ATOM     51  C   UNL A   1      43.295  27.663  32.710  1.00  0.00     0.074 A 
ATOM     52  C   UNL A   1      44.134  26.687  32.049  1.00  0.00     0.031 C 
ATOM     53  C   UNL A   1      39.296  29.553  28.082  1.00  0.00     0.029 A 
ATOM     54  C   UNL A   1      39.251  29.894  29.499  1.00  0.00     0.049 A 
ATOM     55  H   UNL A   1      40.584  29.298  30.985  1.00  0.00     0.167 HD
ATOM     56  C   UNL A   1      43.461  28.067  33.993  1.00  0.00     0.037 A 
ATOM     57  C   UNL A   1      38.332  30.685  30.083  1.00  0.00     0.037 A 
ATOM     58  C   UNL A   1      42.625  29.033  34.657  1.00  0.00     0.049 A 
ATOM     59  C   UNL A   1      38.449  31.010  31.541  1.00  0.00     0.074 A 
ATOM     60  C   UNL A   1      42.744  29.541  35.940  1.00  0.00     0.029 A 
ATOM     61  N   UNL A   1      41.503  29.626  34.098  1.00  0.00    -0.354 N 
ATOM     62  N   UNL A   1      39.360  30.629  32.403  1.00  0.00    -0.248 NA
ATOM     63  C   UNL A   1      37.425  31.904  32.097  1.00  0.00     0.031 C 
ATOM     64  C   UNL A   1      41.658  30.390  36.179  1.00  0.00     0.029 A 
ATOM     65  C   UNL A   1      40.896  30.463  35.024  1.00  0.00     0.049 A 
ATOM     66  H   UNL A   1      41.182  29.476  33.180  1.00  0.00     0.167 HD
ATOM     67  C   UNL A   1      39.049  31.276  33.591  1.00  0.00     0.074 A 
ATOM     68  C   UNL A   1      37.860  32.066  33.337  1.00  0.00     0.031 C 
ATOM     69  C   UNL A   1      39.705  31.236  34.777  1.00  0.00     0.037 A 
BRANCH  56  70
ATOM     70  C   UNL A   1      44.585  27.440  34.767  1.00  0.00     0.057 A 
ATOM     71  C   UNL A   1      45.851  28.036  34.854  1.00  0.00     0.134 A 
ATOM     72  C   UNL A   1      44.394  26.230  35.446  1.00  0.00     0.134 A 
ATOM     73  F   UNL A   1      46.107  29.187  34.214  1.00  0.00    -0.206 F 
ATOM     74  C   UNL A   1      46.895  27.434  35.561  1.00  0.00     0.040 A 
ATOM     75  C   UNL A   1      45.421  25.634  36.180  1.00  0.00     0.040 A 
ATOM     76  F   UNL A   1      43.206  25.608  35.407  1.00  0.00    -0.206 F 
ATOM     77  C   UNL A   1      46.679  26.233  36.231  1.00  0.00     0.006 A 
ENDBRANCH  56  70
BRANCH  57  78
ATOM     78  C   UNL A   1      37.210  31.235  29.287  1.00  0.00     0.057 A 
ATOM     79  C   UNL A   1      37.225  32.544  28.800  1.00  0.00     0.134 A 
ATOM     80  C   UNL A   1      36.075  30.460  29.029  1.00  0.00     0.134 A 
ATOM     81  F   UNL A   1      38.261  33.352  29.071  1.00  0.00    -0.206 F 
ATOM     82  C   UNL A   1      36.156  33.061  28.066  1.00  0.00     0.040 A 
ATOM     83  C   UNL A   1      35.016  30.948  28.265  1.00  0.00     0.040 A 
ATOM     84  F   UNL A   1      35.969  29.235  29.558  1.00  0.00    -0.206 F 
ATOM     85  C   UNL A   1      35.054  32.255  27.783  1.00  0.00     0.006 A 
ENDBRANCH  57  78
BRANCH  69  86
ATOM     86  C   UNL A   1      39.176  32.116  35.872  1.00  0.00     0.057 A 
ATOM     87  C   UNL A   1      38.241  31.662  36.812  1.00  0.00     0.134 A 
ATOM     88  C   UNL A   1      39.595  33.450  35.972  1.00  0.00     0.134 A 
ATOM     89  F   UNL A   1      37.787  30.401  36.763  1.00  0.00    -0.206 F 
ATOM     90  C   UNL A   1      37.708  32.514  37.780  1.00  0.00     0.040 A 
ATOM     91  C   UNL A   1      39.093  34.302  36.957  1.00  0.00     0.040 A 
ATOM     92  F   UNL A   1      40.494  33.950  35.111  1.00  0.00    -0.206 F 
ATOM     93  C   UNL A   1      38.136  33.838  37.856  1.00  0.00     0.006 A 
ENDBRANCH  69  86
ENDBRANCH  43  44
ENDBRANCH  36  38
ENDBRANCH  35  36
ENDBRANCH  34  35
ENDBRANCH  33  34
ENDBRANCH  32  33
ENDBRANCH  31  32
ENDBRANCH  30  31
ENDBRANCH  29  30
ENDBRANCH   1  29
TORSDOF 24
ENDMDL
MODEL 2
REMARK VINA RESULT:      -9.8      1.387      2.439
REMARK SMILES O=C(CCC(=O)OCCOCCOCCOCCOC(=O)c1ccc(-c2c3nc(c(-c4c(F)cccc4F)c4ccc([nH]4)c(-c4c(F)cccc4F)c4nc(c(-c5c(F)cccc5F)c5ccc2[nH]5)C=C4)C=C3)cc1)Nc1ccc(C(=O)N2CCOCC2)cc1
REMARK SMILES IDX 12 1 11 2 10 3 9 4 8 5 7 6 5 7 6 8 4 9 3 10 2 11 1 12 76 13
REMARK SMILES IDX 77 15 78 16 90 17 79 18 89 19 80 20 81 21 82 22 83 23 84 24
REMARK SMILES IDX 88 25 85 26 87 27 86 28 13 29 14 30 15 31 16 32 17 33 18 34
REMARK SMILES IDX 19 35 20 36 21 37 22 38 23 39 75 40 24 41 74 42 25 43 26 44
REMARK SMILES IDX 27 45 68 46 28 47 73 48 67 49 69 50 29 51 72 52 66 53 65 54
REMARK SMILES IDX 30 56 56 57 39 58 55 59 40 60 43 61 54 62 70 63 41 64 42 65
REMARK SMILES IDX 53 67 71 68 44 69 31 70 32 71 37 72 33 73 34 74 36 75 38 76
REMARK SMILES IDX 35 77 57 78 58 79 63 80 59 81 60 82 62 83 64 84 61 85 45 86
REMARK SMILES IDX 46 87 51 88 47 89 48 90 50 91 52 92 49 93
REMARK H PARENT 76 14 69 55 43 66
REMARK Flexibility Score: inf
ROOT
ATOM      1  C   UNL A   1      37.744  21.953  25.219  1.00  0.00     0.188 C 
ENDROOT
BRANCH   1   2
ATOM      2  C   UNL A   1      37.206  22.935  26.265  1.00  0.00     0.188 C 
BRANCH   2   3
ATOM      3  O   UNL A   1      36.226  23.866  25.854  1.00  0.00    -0.376 OA
BRANCH   3   4
ATOM      4  C   UNL A   1      34.868  23.700  26.234  1.00  0.00     0.202 C 
BRANCH   4   5
ATOM      5  C   UNL A   1      33.874  22.794  25.483  1.00  0.00     0.261 C 
BRANCH   5   6
ATOM      6  O   UNL A   1      33.852  22.907  24.044  1.00  0.00    -0.463 OA
BRANCH   6   7
ATOM      7  C   UNL A   1      32.878  22.202  23.418  1.00  0.00     0.306 C 
ATOM      8  O   UNL A   1      32.085  21.472  24.005  1.00  0.00    -0.252 OA
BRANCH   7   9
ATOM      9  C   UNL A   1      32.767  22.399  21.919  1.00  0.00     0.132 C 
BRANCH   9  10
ATOM     10  C   UNL A   1      33.501  23.452  21.104  1.00  0.00     0.112 C 
BRANCH  10  11
ATOM     11  C   UNL A   1      32.944  24.853  21.039  1.00  0.00     0.224 C 
ATOM     12  O   UNL A   1      32.768  25.393  19.949  1.00  0.00    -0.275 OA
ATOM     13  N   UNL A   1      32.624  25.397  22.261  1.00  0.00    -0.326 N 
ATOM     14  H   UNL A   1      32.859  24.875  23.063  1.00  0.00     0.169 HD
BRANCH  13  15
ATOM     15  C   UNL A   1      31.991  26.629  22.459  1.00  0.00     0.041 A 
ATOM     16  C   UNL A   1      30.614  26.632  22.687  1.00  0.00     0.027 A 
ATOM     17  C   UNL A   1      32.703  27.825  22.486  1.00  0.00     0.027 A 
ATOM     18  C   UNL A   1      29.985  27.809  23.095  1.00  0.00     0.016 A 
ATOM     19  C   UNL A   1      32.072  29.004  22.864  1.00  0.00     0.016 A 
ATOM     20  C   UNL A   1      30.719  28.997  23.209  1.00  0.00     0.040 A 
BRANCH  20  21
ATOM     21  C   UNL A   1      30.141  30.120  23.986  1.00  0.00     0.254 C 
ATOM     22  O   UNL A   1      30.752  30.453  25.003  1.00  0.00    -0.269 OA
ATOM     23  N   UNL A   1      29.079  30.843  23.474  1.00  0.00    -0.334 N 
ATOM     24  C   UNL A   1      27.978  30.355  22.639  1.00  0.00     0.148 C 
ATOM     25  C   UNL A   1      28.992  32.267  23.770  1.00  0.00     0.148 C 
ATOM     26  C   UNL A   1      27.816  31.222  21.378  1.00  0.00     0.181 C 
ATOM     27  C   UNL A   1      28.957  33.018  22.438  1.00  0.00     0.181 C 
ATOM     28  O   UNL A   1      27.801  32.628  21.673  1.00  0.00    -0.378 OA
ENDBRANCH  20  21
ENDBRANCH  13  15
ENDBRANCH  10  11
ENDBRANCH   9  10
ENDBRANCH   7   9
ENDBRANCH   6   7
ENDBRANCH   5   6
ENDBRANCH   4   5
ENDBRANCH   3   4
ENDBRANCH   2   3
ENDBRANCH   1   2
BRANCH   1  29
ATOM     29  O   UNL A   1      38.827  21.143  25.633  1.00  0.00    -0.377 OA
BRANCH  29  30
ATOM     30  C   UNL A   1      39.828  21.689  26.492  1.00  0.00     0.188 C 
BRANCH  30  31
ATOM     31  C   UNL A   1      41.280  21.890  26.016  1.00  0.00     0.188 C 
BRANCH  31  32
ATOM     32  O   UNL A   1      41.977  20.696  25.702  1.00  0.00    -0.376 OA
BRANCH  32  33
ATOM     33  C   UNL A   1      43.397  20.714  25.760  1.00  0.00     0.202 C 
BRANCH  33  34
ATOM     34  C   UNL A   1      44.091  21.944  25.156  1.00  0.00     0.261 C 
BRANCH  34  35
ATOM     35  O   UNL A   1      44.500  22.946  26.104  1.00  0.00    -0.460 OA
BRANCH  35  36
ATOM     36  C   UNL A   1      44.633  24.207  25.641  1.00  0.00     0.338 C 
ATOM     37  O   UNL A   1      45.206  24.567  24.633  1.00  0.00    -0.246 OA
BRANCH  36  38
ATOM     38  C   UNL A   1      43.806  25.096  26.480  1.00  0.00     0.060 A 
ATOM     39  C   UNL A   1      44.179  26.440  26.596  1.00  0.00     0.016 A 
ATOM     40  C   UNL A   1      42.716  24.598  27.197  1.00  0.00     0.016 A 
ATOM     41  C   UNL A   1      43.495  27.279  27.474  1.00  0.00     0.010 A 
ATOM     42  C   UNL A   1      42.040  25.439  28.086  1.00  0.00     0.010 A 
ATOM     43  C   UNL A   1      42.451  26.774  28.261  1.00  0.00    -0.014 A 
BRANCH  43  44
ATOM     44  C   UNL A   1      41.921  27.596  29.379  1.00  0.00     0.031 A 
ATOM     45  C   UNL A   1      42.590  27.519  30.725  1.00  0.00     0.074 A 
ATOM     46  C   UNL A   1      40.898  28.451  29.199  1.00  0.00     0.049 A 
ATOM     47  N   UNL A   1      42.317  28.173  31.824  1.00  0.00    -0.248 NA
ATOM     48  C   UNL A   1      43.725  26.590  30.841  1.00  0.00     0.031 C 
ATOM     49  C   UNL A   1      40.199  28.680  27.937  1.00  0.00     0.029 A 
ATOM     50  N   UNL A   1      40.260  29.276  30.090  1.00  0.00    -0.354 N 
ATOM     51  C   UNL A   1      43.263  27.759  32.753  1.00  0.00     0.074 A 
ATOM     52  C   UNL A   1      44.072  26.748  32.109  1.00  0.00     0.031 C 
ATOM     53  C   UNL A   1      39.199  29.555  28.145  1.00  0.00     0.029 A 
ATOM     54  C   UNL A   1      39.189  29.945  29.549  1.00  0.00     0.049 A 
ATOM     55  H   UNL A   1      40.543  29.379  31.028  1.00  0.00     0.167 HD
ATOM     56  C   UNL A   1      43.462  28.204  34.018  1.00  0.00     0.037 A 
ATOM     57  C   UNL A   1      38.295  30.772  30.124  1.00  0.00     0.037 A 
ATOM     58  C   UNL A   1      42.656  29.207  34.665  1.00  0.00     0.049 A 
ATOM     59  C   UNL A   1      38.448  31.144  31.567  1.00  0.00     0.074 A 
ATOM     60  C   UNL A   1      42.810  29.756  35.927  1.00  0.00     0.029 A 
ATOM     61  N   UNL A   1      41.532  29.799  34.109  1.00  0.00    -0.354 N 
ATOM     62  N   UNL A   1      39.371  30.778  32.423  1.00  0.00    -0.248 NA
ATOM     63  C   UNL A   1      37.451  32.075  32.112  1.00  0.00     0.031 C 
ATOM     64  C   UNL A   1      41.743  30.631  36.158  1.00  0.00     0.029 A 
ATOM     65  C   UNL A   1      40.958  30.677  35.017  1.00  0.00     0.049 A 
ATOM     66  H   UNL A   1      41.190  29.622  33.203  1.00  0.00     0.167 HD
ATOM     67  C   UNL A   1      39.094  31.471  33.595  1.00  0.00     0.074 A 
ATOM     68  C   UNL A   1      37.914  32.272  33.337  1.00  0.00     0.031 C 
ATOM     69  C   UNL A   1      39.775  31.461  34.767  1.00  0.00     0.037 A 
BRANCH  56  70
ATOM     70  C   UNL A   1      44.592  27.585  34.790  1.00  0.00     0.057 A 
ATOM     71  C   UNL A   1      44.410  26.448  35.589  1.00  0.00     0.134 A 
ATOM     72  C   UNL A   1      45.882  28.126  34.721  1.00  0.00     0.134 A 
ATOM     73  F   UNL A   1      43.197  25.889  35.712  1.00  0.00    -0.206 F 
ATOM     74  C   UNL A   1      45.464  25.891  36.318  1.00  0.00     0.040 A 
ATOM     75  C   UNL A   1      46.949  27.561  35.422  1.00  0.00     0.040 A 
ATOM     76  F   UNL A   1      46.126  29.211  33.972  1.00  0.00    -0.206 F 
ATOM     77  C   UNL A   1      46.739  26.445  36.230  1.00  0.00     0.006 A 
ENDBRANCH  56  70
BRANCH  57  78
ATOM     78  C   UNL A   1      37.166  31.313  29.332  1.00  0.00     0.057 A 
ATOM     79  C   UNL A   1      37.185  32.610  28.815  1.00  0.00     0.134 A 
ATOM     80  C   UNL A   1      36.021  30.542  29.110  1.00  0.00     0.134 A 
ATOM     81  F   UNL A   1      38.231  33.415  29.051  1.00  0.00    -0.206 F 
ATOM     82  C   UNL A   1      36.108  33.119  28.085  1.00  0.00     0.040 A 
ATOM     83  C   UNL A   1      34.954  31.021  28.351  1.00  0.00     0.040 A 
ATOM     84  F   UNL A   1      35.912  29.331  29.669  1.00  0.00    -0.206 F 
ATOM     85  C   UNL A   1      34.995  32.316  27.837  1.00  0.00     0.006 A 
ENDBRANCH  57  78
BRANCH  69  86
ATOM     86  C   UNL A   1      39.283  32.387  35.842  1.00  0.00     0.057 A 
ATOM     87  C   UNL A   1      39.813  33.672  36.022  1.00  0.00     0.134 A 
ATOM     88  C   UNL A   1      38.277  31.975  36.726  1.00  0.00     0.134 A 
ATOM     89  F   UNL A   1      40.790  34.122  35.221  1.00  0.00    -0.206 F 
ATOM     90  C   UNL A   1      39.394  34.494  37.070  1.00  0.00     0.040 A 
ATOM     91  C   UNL A   1      37.826  32.801  37.757  1.00  0.00     0.040 A 
ATOM     92  F   UNL A   1      37.718  30.761  36.607  1.00  0.00    -0.206 F 
ATOM     93  C   UNL A   1      38.395  34.059  37.939  1.00  0.00     0.006 A 
ENDBRANCH  69  86
ENDBRANCH  43  44
ENDBRANCH  36  38
ENDBRANCH  35  36
ENDBRANCH  34  35
ENDBRANCH  33  34
ENDBRANCH  32  33
ENDBRANCH  31  32
ENDBRANCH  30  31
ENDBRANCH  29  30
ENDBRANCH   1  29
TORSDOF 24
ENDMDL
MODEL 3
REMARK VINA RESULT:      -9.1      3.730      5.421
REMARK SMILES O=C(CCC(=O)OCCOCCOCCOCCOC(=O)c1ccc(-c2c3nc(c(-c4c(F)cccc4F)c4ccc([nH]4)c(-c4c(F)cccc4F)c4nc(c(-c5c(F)cccc5F)c5ccc2[nH]5)C=C4)C=C3)cc1)Nc1ccc(C(=O)N2CCOCC2)cc1
REMARK SMILES IDX 12 1 11 2 10 3 9 4 8 5 7 6 5 7 6 8 4 9 3 10 2 11 1 12 76 13
REMARK SMILES IDX 77 15 78 16 90 17 79 18 89 19 80 20 81 21 82 22 83 23 84 24
REMARK SMILES IDX 88 25 85 26 87 27 86 28 13 29 14 30 15 31 16 32 17 33 18 34
REMARK SMILES IDX 19 35 20 36 21 37 22 38 23 39 75 40 24 41 74 42 25 43 26 44
REMARK SMILES IDX 27 45 68 46 28 47 73 48 67 49 69 50 29 51 72 52 66 53 65 54
REMARK SMILES IDX 30 56 56 57 39 58 55 59 40 60 43 61 54 62 70 63 41 64 42 65
REMARK SMILES IDX 53 67 71 68 44 69 31 70 32 71 37 72 33 73 34 74 36 75 38 76
REMARK SMILES IDX 35 77 57 78 58 79 63 80 59 81 60 82 62 83 64 84 61 85 45 86
REMARK SMILES IDX 46 87 51 88 47 89 48 90 50 91 52 92 49 93
REMARK H PARENT 76 14 69 55 43 66
REMARK Flexibility Score: inf
ROOT
ATOM      1  C   UNL A   1      34.299  16.161  24.291  1.00  0.00     0.188 C 
ENDROOT
BRANCH   1   2
ATOM      2  C   UNL A   1      32.835  16.134  24.738  1.00  0.00     0.188 C 
BRANCH   2   3
ATOM      3  O   UNL A   1      32.316  17.286  25.372  1.00  0.00    -0.376 OA
BRANCH   3   4
ATOM      4  C   UNL A   1      32.284  18.532  24.691  1.00  0.00     0.202 C 
BRANCH   4   5
ATOM      5  C   UNL A   1      32.646  19.877  25.350  1.00  0.00     0.261 C 
BRANCH   5   6
ATOM      6  O   UNL A   1      31.690  20.949  25.201  1.00  0.00    -0.463 OA
BRANCH   6   7
ATOM      7  C   UNL A   1      32.188  22.110  24.710  1.00  0.00     0.306 C 
ATOM      8  O   UNL A   1      32.158  23.174  25.322  1.00  0.00    -0.252 OA
BRANCH   7   9
ATOM      9  C   UNL A   1      32.855  22.032  23.351  1.00  0.00     0.132 C 
BRANCH   9  10
ATOM     10  C   UNL A   1      33.786  23.077  22.756  1.00  0.00     0.112 C 
BRANCH  10  11
ATOM     11  C   UNL A   1      33.237  24.439  22.407  1.00  0.00     0.224 C 
ATOM     12  O   UNL A   1      33.027  24.732  21.232  1.00  0.00    -0.275 OA
ATOM     13  N   UNL A   1      32.964  25.238  23.492  1.00  0.00    -0.326 N 
ATOM     14  H   UNL A   1      33.223  24.900  24.380  1.00  0.00     0.169 HD
BRANCH  13  15
ATOM     15  C   UNL A   1      32.346  26.494  23.438  1.00  0.00     0.041 A 
ATOM     16  C   UNL A   1      30.961  26.538  23.278  1.00  0.00     0.027 A 
ATOM     17  C   UNL A   1      33.068  27.674  23.593  1.00  0.00     0.027 A 
ATOM     18  C   UNL A   1      30.288  27.751  23.430  1.00  0.00     0.016 A 
ATOM     19  C   UNL A   1      32.401  28.887  23.715  1.00  0.00     0.016 A 
ATOM     20  C   UNL A   1      31.006  28.929  23.675  1.00  0.00     0.040 A 
BRANCH  20  21
ATOM     21  C   UNL A   1      30.279  30.112  24.198  1.00  0.00     0.254 C 
ATOM     22  O   UNL A   1      30.810  30.707  25.138  1.00  0.00    -0.269 OA
ATOM     23  N   UNL A   1      29.167  30.592  23.532  1.00  0.00    -0.334 N 
ATOM     24  C   UNL A   1      28.159  29.826  22.794  1.00  0.00     0.148 C 
ATOM     25  C   UNL A   1      28.915  32.027  23.532  1.00  0.00     0.148 C 
ATOM     26  C   UNL A   1      27.955  30.400  21.381  1.00  0.00     0.181 C 
ATOM     27  C   UNL A   1      28.852  32.490  22.075  1.00  0.00     0.181 C 
ATOM     28  O   UNL A   1      27.777  31.826  21.385  1.00  0.00    -0.378 OA
ENDBRANCH  20  21
ENDBRANCH  13  15
ENDBRANCH  10  11
ENDBRANCH   9  10
ENDBRANCH   7   9
ENDBRANCH   6   7
ENDBRANCH   5   6
ENDBRANCH   4   5
ENDBRANCH   3   4
ENDBRANCH   2   3
ENDBRANCH   1   2
BRANCH   1  29
ATOM     29  O   UNL A   1      35.135  17.075  24.975  1.00  0.00    -0.377 OA
BRANCH  29  30
ATOM     30  C   UNL A   1      35.593  18.249  24.304  1.00  0.00     0.188 C 
BRANCH  30  31
ATOM     31  C   UNL A   1      36.603  19.212  24.959  1.00  0.00     0.188 C 
BRANCH  31  32
ATOM     32  O   UNL A   1      36.118  20.526  25.181  1.00  0.00    -0.376 OA
BRANCH  32  33
ATOM     33  C   UNL A   1      36.884  21.615  24.683  1.00  0.00     0.202 C 
BRANCH  33  34
ATOM     34  C   UNL A   1      37.557  22.515  25.731  1.00  0.00     0.261 C 
BRANCH  34  35
ATOM     35  O   UNL A   1      38.983  22.651  25.597  1.00  0.00    -0.460 OA
BRANCH  35  36
ATOM     36  C   UNL A   1      39.717  22.529  26.723  1.00  0.00     0.338 C 
ATOM     37  O   UNL A   1      39.960  21.511  27.339  1.00  0.00    -0.246 OA
BRANCH  36  38
ATOM     38  C   UNL A   1      40.341  23.835  27.013  1.00  0.00     0.060 A 
ATOM     39  C   UNL A   1      41.104  23.966  28.177  1.00  0.00     0.016 A 
ATOM     40  C   UNL A   1      40.121  24.935  26.181  1.00  0.00     0.016 A 
ATOM     41  C   UNL A   1      41.607  25.214  28.544  1.00  0.00     0.010 A 
ATOM     42  C   UNL A   1      40.615  26.188  26.558  1.00  0.00     0.010 A 
ATOM     43  C   UNL A   1      41.326  26.342  27.763  1.00  0.00    -0.014 A 
BRANCH  43  44
ATOM     44  C   UNL A   1      41.627  27.693  28.305  1.00  0.00     0.031 A 
ATOM     45  C   UNL A   1      43.058  28.152  28.373  1.00  0.00     0.074 A 
ATOM     46  C   UNL A   1      40.645  28.535  28.678  1.00  0.00     0.049 A 
ATOM     47  N   UNL A   1      43.542  29.300  28.773  1.00  0.00    -0.248 NA
ATOM     48  C   UNL A   1      44.077  27.195  27.915  1.00  0.00     0.031 C 
ATOM     49  C   UNL A   1      39.215  28.251  28.605  1.00  0.00     0.029 A 
ATOM     50  N   UNL A   1      40.710  29.798  29.209  1.00  0.00    -0.354 N 
ATOM     51  C   UNL A   1      44.916  29.215  28.588  1.00  0.00     0.074 A 
ATOM     52  C   UNL A   1      45.194  27.880  28.105  1.00  0.00     0.031 C 
ATOM     53  C   UNL A   1      38.536  29.295  29.114  1.00  0.00     0.029 A 
ATOM     54  C   UNL A   1      39.483  30.315  29.547  1.00  0.00     0.049 A 
ATOM     55  H   UNL A   1      41.555  30.288  29.334  1.00  0.00     0.167 HD
ATOM     56  C   UNL A   1      45.858  30.172  28.771  1.00  0.00     0.037 A 
ATOM     57  C   UNL A   1      39.161  31.476  30.148  1.00  0.00     0.037 A 
ATOM     58  C   UNL A   1      45.586  31.500  29.257  1.00  0.00     0.049 A 
ATOM     59  C   UNL A   1      40.235  32.468  30.475  1.00  0.00     0.074 A 
ATOM     60  C   UNL A   1      46.469  32.553  29.430  1.00  0.00     0.029 A 
ATOM     61  N   UNL A   1      44.341  31.954  29.665  1.00  0.00    -0.354 N 
ATOM     62  N   UNL A   1      41.525  32.392  30.257  1.00  0.00    -0.248 NA
ATOM     63  C   UNL A   1      39.799  33.723  31.101  1.00  0.00     0.031 C 
ATOM     64  C   UNL A   1      45.770  33.621  30.003  1.00  0.00     0.029 A 
ATOM     65  C   UNL A   1      44.439  33.258  30.128  1.00  0.00     0.049 A 
ATOM     66  H   UNL A   1      43.509  31.429  29.631  1.00  0.00     0.167 HD
ATOM     67  C   UNL A   1      42.050  33.608  30.674  1.00  0.00     0.074 A 
ATOM     68  C   UNL A   1      40.937  34.397  31.163  1.00  0.00     0.031 C 
ATOM     69  C   UNL A   1      43.335  34.037  30.630  1.00  0.00     0.037 A 
BRANCH  56  70
ATOM     70  C   UNL A   1      47.280  29.799  28.461  1.00  0.00     0.057 A 
ATOM     71  C   UNL A   1      47.819  29.930  27.174  1.00  0.00     0.134 A 
ATOM     72  C   UNL A   1      48.124  29.316  29.468  1.00  0.00     0.134 A 
ATOM     73  F   UNL A   1      47.060  30.372  26.160  1.00  0.00    -0.206 F 
ATOM     74  C   UNL A   1      49.137  29.563  26.893  1.00  0.00     0.040 A 
ATOM     75  C   UNL A   1      49.452  28.973  29.206  1.00  0.00     0.040 A 
ATOM     76  F   UNL A   1      47.674  29.169  30.723  1.00  0.00    -0.206 F 
ATOM     77  C   UNL A   1      49.959  29.088  27.913  1.00  0.00     0.006 A 
ENDBRANCH  56  70
BRANCH  57  78
ATOM     78  C   UNL A   1      37.748  31.773  30.483  1.00  0.00     0.057 A 
ATOM     79  C   UNL A   1      37.199  31.438  31.722  1.00  0.00     0.134 A 
ATOM     80  C   UNL A   1      36.906  32.371  29.540  1.00  0.00     0.134 A 
ATOM     81  F   UNL A   1      37.944  30.806  32.641  1.00  0.00    -0.206 F 
ATOM     82  C   UNL A   1      35.862  31.704  32.022  1.00  0.00     0.040 A 
ATOM     83  C   UNL A   1      35.579  32.678  29.838  1.00  0.00     0.040 A 
ATOM     84  F   UNL A   1      37.357  32.619  28.304  1.00  0.00    -0.206 F 
ATOM     85  C   UNL A   1      35.053  32.342  31.083  1.00  0.00     0.006 A 
ENDBRANCH  57  78
BRANCH  69  86
ATOM     86  C   UNL A   1      43.592  35.447  31.078  1.00  0.00     0.057 A 
ATOM     87  C   UNL A   1      43.802  35.780  32.423  1.00  0.00     0.134 A 
ATOM     88  C   UNL A   1      43.606  36.494  30.146  1.00  0.00     0.134 A 
ATOM     89  F   UNL A   1      43.785  34.828  33.368  1.00  0.00    -0.206 F 
ATOM     90  C   UNL A   1      43.969  37.104  32.830  1.00  0.00     0.040 A 
ATOM     91  C   UNL A   1      43.806  37.819  30.537  1.00  0.00     0.040 A 
ATOM     92  F   UNL A   1      43.421  36.248  28.840  1.00  0.00    -0.206 F 
ATOM     93  C   UNL A   1      43.974  38.128  31.884  1.00  0.00     0.006 A 
ENDBRANCH  69  86
ENDBRANCH  43  44
ENDBRANCH  36  38
ENDBRANCH  35  36
ENDBRANCH  34  35
ENDBRANCH  33  34
ENDBRANCH  32  33
ENDBRANCH  31  32
ENDBRANCH  30  31
ENDBRANCH  29  30
ENDBRANCH   1  29
TORSDOF 24
ENDMDL
