MODEL 1
REMARK VINA RESULT:     -11.4      0.000      0.000
REMARK SMILES Cc1nc(-c2ccccc2)sc1C(=O)N[C@@H](CC1=c2ccccc2=NC1)C(=O)OCCOCCOCCOCCOC(=O)c1ccc(-c2c3nc(c(-c4c(F)cccc4F)c4ccc([nH]4)c(-c4c(F)cccc4F)c4nc(c(-c5c(F)cccc5F)c5ccc2[nH]5)C=C4)C=C3)cc1
REMARK SMILES IDX 34 1 33 2 32 3 31 4 30 5 29 6 27 7 28 8 16 9 15 10 13 11
REMARK SMILES IDX 14 12 12 14 1 15 2 16 3 17 4 18 11 19 5 20 6 21 10 22 7 23
REMARK SMILES IDX 9 24 8 25 17 26 18 27 19 28 26 29 20 30 24 31 25 32 21 33
REMARK SMILES IDX 23 34 22 35 35 36 36 37 37 38 38 39 39 40 40 41 41 42 42 43
REMARK SMILES IDX 43 44 44 45 45 46 97 47 46 48 96 49 47 50 48 51 49 52 90 53
REMARK SMILES IDX 50 54 95 55 89 56 91 57 51 58 94 59 88 60 87 61 52 63 78 64
REMARK SMILES IDX 61 65 77 66 62 67 65 68 76 69 92 70 63 71 64 72 75 74 93 75
REMARK SMILES IDX 66 76 53 77 54 78 59 79 55 80 56 81 58 82 60 83 57 84 79 85
REMARK SMILES IDX 80 86 85 87 81 88 82 89 84 90 86 91 83 92 67 93 68 94 73 95
REMARK SMILES IDX 69 96 70 97 72 98 74 99 71 100
REMARK H PARENT 15 13 91 62 65 73
REMARK Flexibility Score: inf
ROOT
ATOM      1  C   UNL A   1      40.953  21.176  27.007  1.00  0.00     0.188 C 
ENDROOT
BRANCH   1   2
ATOM      2  C   UNL A   1      39.784  20.691  26.141  1.00  0.00     0.188 C 
BRANCH   2   3
ATOM      3  O   UNL A   1      38.596  21.460  26.031  1.00  0.00    -0.376 OA
BRANCH   3   4
ATOM      4  C   UNL A   1      37.836  21.478  24.830  1.00  0.00     0.202 C 
BRANCH   4   5
ATOM      5  C   UNL A   1      36.305  21.355  24.817  1.00  0.00     0.261 C 
BRANCH   5   6
ATOM      6  O   UNL A   1      35.604  22.533  24.389  1.00  0.00    -0.462 OA
BRANCH   6   7
ATOM      7  C   UNL A   1      34.818  23.116  25.316  1.00  0.00     0.329 C 
ATOM      8  O   UNL A   1      35.001  23.044  26.528  1.00  0.00    -0.250 OA
BRANCH   7   9
ATOM      9  C   UNL A   1      33.607  23.870  24.744  1.00  0.00     0.196 C 
BRANCH   9  10
ATOM     10  N   UNL A   1      32.528  23.239  23.995  1.00  0.00    -0.338 N 
ATOM     11  C   UNL A   1      31.357  23.727  23.446  1.00  0.00     0.264 C 
ATOM     12  O   UNL A   1      30.534  22.835  23.203  1.00  0.00    -0.268 OA
ATOM     13  H   UNL A   1      32.660  22.274  23.850  1.00  0.00     0.164 HD
BRANCH  11  14
ATOM     14  C   UNL A   1      31.111  25.130  23.071  1.00  0.00     0.115 A 
ATOM     15  C   UNL A   1      32.571  26.071  21.058  1.00  0.00     0.068 C 
ATOM     16  C   UNL A   1      31.528  26.057  22.112  1.00  0.00     0.062 A 
ATOM     17  N   UNL A   1      30.831  27.247  22.106  1.00  0.00    -0.241 NA
ATOM     18  C   UNL A   1      30.001  27.343  23.108  1.00  0.00     0.124 A 
ATOM     19  S   UNL A   1      29.911  25.960  24.085  1.00  0.00    -0.108 S 
BRANCH  18  20
ATOM     20  C   UNL A   1      29.261  28.581  23.331  1.00  0.00     0.010 A 
ATOM     21  C   UNL A   1      27.892  28.601  23.015  1.00  0.00     0.011 A 
ATOM     22  C   UNL A   1      29.918  29.788  23.590  1.00  0.00     0.011 A 
ATOM     23  C   UNL A   1      27.199  29.806  22.920  1.00  0.00     0.001 A 
ATOM     24  C   UNL A   1      29.223  30.998  23.488  1.00  0.00     0.001 A 
ATOM     25  C   UNL A   1      27.871  31.005  23.141  1.00  0.00     0.000 A 
ENDBRANCH  18  20
ENDBRANCH  11  14
ENDBRANCH   9  10
BRANCH   9  26
ATOM     26  C   UNL A   1      33.032  24.796  25.828  1.00  0.00     0.070 C 
BRANCH  26  27
ATOM     27  C   UNL A   1      33.115  26.229  25.410  1.00  0.00    -0.037 C 
ATOM     28  C   UNL A   1      32.524  27.273  25.985  1.00  0.00     0.001 A 
ATOM     29  C   UNL A   1      34.051  26.676  24.328  1.00  0.00     0.174 C 
ATOM     30  C   UNL A   1      31.610  27.444  27.067  1.00  0.00     0.010 A 
ATOM     31  C   UNL A   1      33.210  28.410  25.353  1.00  0.00     0.065 A 
ATOM     32  N   UNL A   1      34.052  28.155  24.399  1.00  0.00    -0.280 NA
ATOM     33  C   UNL A   1      31.411  28.680  27.549  1.00  0.00     0.001 A 
ATOM     34  C   UNL A   1      32.917  29.743  25.922  1.00  0.00     0.028 A 
ATOM     35  C   UNL A   1      32.082  29.832  26.972  1.00  0.00     0.002 A 
ENDBRANCH  26  27
ENDBRANCH   9  26
ENDBRANCH   7   9
ENDBRANCH   6   7
ENDBRANCH   5   6
ENDBRANCH   4   5
ENDBRANCH   3   4
ENDBRANCH   2   3
ENDBRANCH   1   2
BRANCH   1  36
ATOM     36  O   UNL A   1      42.114  20.376  26.959  1.00  0.00    -0.377 OA
BRANCH  36  37
ATOM     37  C   UNL A   1      42.335  19.611  25.783  1.00  0.00     0.188 C 
BRANCH  37  38
ATOM     38  C   UNL A   1      43.765  19.131  25.449  1.00  0.00     0.188 C 
BRANCH  38  39
ATOM     39  O   UNL A   1      44.508  19.986  24.595  1.00  0.00    -0.376 OA
BRANCH  39  40
ATOM     40  C   UNL A   1      44.684  21.349  24.950  1.00  0.00     0.202 C 
BRANCH  40  41
ATOM     41  C   UNL A   1      44.047  22.440  24.070  1.00  0.00     0.261 C 
BRANCH  41  42
ATOM     42  O   UNL A   1      43.461  23.564  24.748  1.00  0.00    -0.460 OA
BRANCH  42  43
ATOM     43  C   UNL A   1      44.270  24.556  25.167  1.00  0.00     0.338 C 
ATOM     44  O   UNL A   1      45.379  24.836  24.743  1.00  0.00    -0.246 OA
BRANCH  43  45
ATOM     45  C   UNL A   1      43.492  25.403  26.097  1.00  0.00     0.060 A 
ATOM     46  C   UNL A   1      43.689  26.790  26.079  1.00  0.00     0.016 A 
ATOM     47  C   UNL A   1      42.568  24.833  26.977  1.00  0.00     0.016 A 
ATOM     48  C   UNL A   1      42.991  27.610  26.964  1.00  0.00     0.010 A 
ATOM     49  C   UNL A   1      41.893  25.652  27.887  1.00  0.00     0.010 A 
ATOM     50  C   UNL A   1      42.130  27.039  27.909  1.00  0.00    -0.014 A 
BRANCH  50  51
ATOM     51  C   UNL A   1      41.660  27.856  29.053  1.00  0.00     0.031 A 
ATOM     52  C   UNL A   1      42.391  27.725  30.362  1.00  0.00     0.074 A 
ATOM     53  C   UNL A   1      40.636  28.716  28.933  1.00  0.00     0.049 A 
ATOM     54  N   UNL A   1      42.144  28.292  31.514  1.00  0.00    -0.248 NA
ATOM     55  C   UNL A   1      43.560  26.830  30.367  1.00  0.00     0.031 C 
ATOM     56  C   UNL A   1      39.884  28.975  27.707  1.00  0.00     0.029 A 
ATOM     57  N   UNL A   1      40.049  29.530  29.869  1.00  0.00    -0.354 N 
ATOM     58  C   UNL A   1      43.119  27.816  32.382  1.00  0.00     0.074 A 
ATOM     59  C   UNL A   1      43.939  26.889  31.634  1.00  0.00     0.031 C 
ATOM     60  C   UNL A   1      38.924  29.879  27.970  1.00  0.00     0.029 A 
ATOM     61  C   UNL A   1      38.972  30.233  29.388  1.00  0.00     0.049 A 
ATOM     62  H   UNL A   1      40.369  29.603  30.797  1.00  0.00     0.167 HD
ATOM     63  C   UNL A   1      43.319  28.128  33.685  1.00  0.00     0.037 A 
ATOM     64  C   UNL A   1      38.111  31.049  30.029  1.00  0.00     0.037 A 
ATOM     65  C   UNL A   1      42.496  29.044  34.429  1.00  0.00     0.049 A 
ATOM     66  C   UNL A   1      38.295  31.308  31.502  1.00  0.00     0.074 A 
ATOM     67  C   UNL A   1      42.621  29.436  35.749  1.00  0.00     0.029 A 
ATOM     68  N   UNL A   1      41.387  29.701  33.918  1.00  0.00    -0.354 N 
ATOM     69  N   UNL A   1      39.229  30.871  32.313  1.00  0.00    -0.248 NA
ATOM     70  C   UNL A   1      37.302  32.178  32.151  1.00  0.00     0.031 C 
ATOM     71  C   UNL A   1      41.550  30.281  36.055  1.00  0.00     0.029 A 
ATOM     72  C   UNL A   1      40.796  30.470  34.908  1.00  0.00     0.049 A 
ATOM     73  H   UNL A   1      41.065  29.632  32.990  1.00  0.00     0.167 HD
ATOM     74  C   UNL A   1      38.957  31.435  33.554  1.00  0.00     0.074 A 
ATOM     75  C   UNL A   1      37.777  32.258  33.387  1.00  0.00     0.031 C 
ATOM     76  C   UNL A   1      39.624  31.288  34.726  1.00  0.00     0.037 A 
BRANCH  63  77
ATOM     77  C   UNL A   1      44.450  27.439  34.392  1.00  0.00     0.057 A 
ATOM     78  C   UNL A   1      45.736  27.992  34.457  1.00  0.00     0.134 A 
ATOM     79  C   UNL A   1      44.246  26.208  35.028  1.00  0.00     0.134 A 
ATOM     80  F   UNL A   1      46.006  29.160  33.854  1.00  0.00    -0.206 F 
ATOM     81  C   UNL A   1      46.784  27.331  35.101  1.00  0.00     0.040 A 
ATOM     82  C   UNL A   1      45.276  25.552  35.702  1.00  0.00     0.040 A 
ATOM     83  F   UNL A   1      43.038  25.622  35.007  1.00  0.00    -0.206 F 
ATOM     84  C   UNL A   1      46.553  26.110  35.732  1.00  0.00     0.006 A 
ENDBRANCH  63  77
BRANCH  64  85
ATOM     85  C   UNL A   1      36.982  31.669  29.289  1.00  0.00     0.057 A 
ATOM     86  C   UNL A   1      35.817  30.946  29.004  1.00  0.00     0.134 A 
ATOM     87  C   UNL A   1      37.048  32.989  28.827  1.00  0.00     0.134 A 
ATOM     88  F   UNL A   1      35.702  29.669  29.396  1.00  0.00    -0.206 F 
ATOM     89  C   UNL A   1      34.767  31.507  28.273  1.00  0.00     0.040 A 
ATOM     90  C   UNL A   1      35.996  33.572  28.120  1.00  0.00     0.040 A 
ATOM     91  F   UNL A   1      38.138  33.734  29.062  1.00  0.00    -0.206 F 
ATOM     92  C   UNL A   1      34.854  32.827  27.834  1.00  0.00     0.006 A 
ENDBRANCH  64  85
BRANCH  76  93
ATOM     93  C   UNL A   1      39.121  32.064  35.912  1.00  0.00     0.057 A 
ATOM     94  C   UNL A   1      38.250  31.501  36.854  1.00  0.00     0.134 A 
ATOM     95  C   UNL A   1      39.552  33.378  36.139  1.00  0.00     0.134 A 
ATOM     96  F   UNL A   1      37.790  30.250  36.694  1.00  0.00    -0.206 F 
ATOM     97  C   UNL A   1      37.805  32.226  37.962  1.00  0.00     0.040 A 
ATOM     98  C   UNL A   1      39.141  34.100  37.260  1.00  0.00     0.040 A 
ATOM     99  F   UNL A   1      40.396  33.974  35.285  1.00  0.00    -0.206 F 
ATOM    100  C   UNL A   1      38.258  33.527  38.172  1.00  0.00     0.006 A 
ENDBRANCH  76  93
ENDBRANCH  50  51
ENDBRANCH  43  45
ENDBRANCH  42  43
ENDBRANCH  41  42
ENDBRANCH  40  41
ENDBRANCH  39  40
ENDBRANCH  38  39
ENDBRANCH  37  38
ENDBRANCH  36  37
ENDBRANCH   1  36
TORSDOF 25
ENDMDL
MODEL 2
REMARK VINA RESULT:     -11.1      1.840      6.933
REMARK SMILES Cc1nc(-c2ccccc2)sc1C(=O)N[C@@H](CC1=c2ccccc2=NC1)C(=O)OCCOCCOCCOCCOC(=O)c1ccc(-c2c3nc(c(-c4c(F)cccc4F)c4ccc([nH]4)c(-c4c(F)cccc4F)c4nc(c(-c5c(F)cccc5F)c5ccc2[nH]5)C=C4)C=C3)cc1
REMARK SMILES IDX 34 1 33 2 32 3 31 4 30 5 29 6 27 7 28 8 16 9 15 10 13 11
REMARK SMILES IDX 14 12 12 14 1 15 2 16 3 17 4 18 11 19 5 20 6 21 10 22 7 23
REMARK SMILES IDX 9 24 8 25 17 26 18 27 19 28 26 29 20 30 24 31 25 32 21 33
REMARK SMILES IDX 23 34 22 35 35 36 36 37 37 38 38 39 39 40 40 41 41 42 42 43
REMARK SMILES IDX 43 44 44 45 45 46 97 47 46 48 96 49 47 50 48 51 49 52 90 53
REMARK SMILES IDX 50 54 95 55 89 56 91 57 51 58 94 59 88 60 87 61 52 63 78 64
REMARK SMILES IDX 61 65 77 66 62 67 65 68 76 69 92 70 63 71 64 72 75 74 93 75
REMARK SMILES IDX 66 76 53 77 54 78 59 79 55 80 56 81 58 82 60 83 57 84 79 85
REMARK SMILES IDX 80 86 85 87 81 88 82 89 84 90 86 91 83 92 67 93 68 94 73 95
REMARK SMILES IDX 69 96 70 97 72 98 74 99 71 100
REMARK H PARENT 15 13 91 62 65 73
REMARK Flexibility Score: inf
ROOT
ATOM      1  C   UNL A   1      39.336  22.293  26.849  1.00  0.00     0.188 C 
ENDROOT
BRANCH   1   2
ATOM      2  C   UNL A   1      38.945  23.721  26.452  1.00  0.00     0.188 C 
BRANCH   2   3
ATOM      3  O   UNL A   1      37.581  24.085  26.308  1.00  0.00    -0.376 OA
BRANCH   3   4
ATOM      4  C   UNL A   1      36.675  23.277  25.567  1.00  0.00     0.202 C 
BRANCH   4   5
ATOM      5  C   UNL A   1      35.340  23.811  25.027  1.00  0.00     0.261 C 
BRANCH   5   6
ATOM      6  O   UNL A   1      34.756  24.874  25.796  1.00  0.00    -0.462 OA
BRANCH   6   7
ATOM      7  C   UNL A   1      33.850  25.635  25.151  1.00  0.00     0.329 C 
ATOM      8  O   UNL A   1      34.033  26.154  24.053  1.00  0.00    -0.250 OA
BRANCH   7   9
ATOM      9  C   UNL A   1      32.538  25.859  25.920  1.00  0.00     0.196 C 
BRANCH   9  10
ATOM     10  N   UNL A   1      31.947  24.888  26.831  1.00  0.00    -0.338 N 
ATOM     11  C   UNL A   1      31.423  23.623  26.642  1.00  0.00     0.264 C 
ATOM     12  O   UNL A   1      30.696  23.261  27.577  1.00  0.00    -0.268 OA
ATOM     13  H   UNL A   1      31.914  25.193  27.766  1.00  0.00     0.164 HD
BRANCH  11  14
ATOM     14  C   UNL A   1      31.749  22.722  25.523  1.00  0.00     0.115 A 
ATOM     15  C   UNL A   1      31.090  23.592  23.098  1.00  0.00     0.068 C 
ATOM     16  C   UNL A   1      31.681  22.702  24.127  1.00  0.00     0.062 A 
ATOM     17  N   UNL A   1      32.300  21.626  23.526  1.00  0.00    -0.241 NA
ATOM     18  C   UNL A   1      32.708  20.740  24.391  1.00  0.00     0.124 A 
ATOM     19  S   UNL A   1      32.478  21.178  26.014  1.00  0.00    -0.108 S 
BRANCH  18  20
ATOM     20  C   UNL A   1      33.283  19.479  23.934  1.00  0.00     0.010 A 
ATOM     21  C   UNL A   1      32.541  18.703  23.026  1.00  0.00     0.011 A 
ATOM     22  C   UNL A   1      34.395  18.912  24.563  1.00  0.00     0.011 A 
ATOM     23  C   UNL A   1      32.880  17.375  22.780  1.00  0.00     0.001 A 
ATOM     24  C   UNL A   1      34.731  17.576  24.321  1.00  0.00     0.001 A 
ATOM     25  C   UNL A   1      33.967  16.807  23.441  1.00  0.00     0.000 A 
ENDBRANCH  18  20
ENDBRANCH  11  14
ENDBRANCH   9  10
BRANCH   9  26
ATOM     26  C   UNL A   1      32.569  27.251  26.571  1.00  0.00     0.070 C 
BRANCH  26  27
ATOM     27  C   UNL A   1      32.009  28.287  25.650  1.00  0.00    -0.037 C 
ATOM     28  C   UNL A   1      31.065  28.122  24.727  1.00  0.00     0.001 A 
ATOM     29  C   UNL A   1      32.371  29.735  25.788  1.00  0.00     0.174 C 
ATOM     30  C   UNL A   1      30.325  27.007  24.231  1.00  0.00     0.010 A 
ATOM     31  C   UNL A   1      30.718  29.508  24.379  1.00  0.00     0.065 A 
ATOM     32  N   UNL A   1      31.425  30.459  24.908  1.00  0.00    -0.280 NA
ATOM     33  C   UNL A   1      29.252  27.241  23.459  1.00  0.00     0.001 A 
ATOM     34  C   UNL A   1      29.541  29.682  23.503  1.00  0.00     0.028 A 
ATOM     35  C   UNL A   1      28.858  28.594  23.106  1.00  0.00     0.002 A 
ENDBRANCH  26  27
ENDBRANCH   9  26
ENDBRANCH   7   9
ENDBRANCH   6   7
ENDBRANCH   5   6
ENDBRANCH   4   5
ENDBRANCH   3   4
ENDBRANCH   2   3
ENDBRANCH   1   2
BRANCH   1  36
ATOM     36  O   UNL A   1      39.813  21.481  25.799  1.00  0.00    -0.377 OA
BRANCH  36  37
ATOM     37  C   UNL A   1      40.339  20.207  26.142  1.00  0.00     0.188 C 
BRANCH  37  38
ATOM     38  C   UNL A   1      41.870  20.002  26.166  1.00  0.00     0.188 C 
BRANCH  38  39
ATOM     39  O   UNL A   1      42.633  21.160  26.466  1.00  0.00    -0.376 OA
BRANCH  39  40
ATOM     40  C   UNL A   1      43.328  21.829  25.424  1.00  0.00     0.202 C 
BRANCH  40  41
ATOM     41  C   UNL A   1      44.771  22.303  25.673  1.00  0.00     0.261 C 
BRANCH  41  42
ATOM     42  O   UNL A   1      44.937  23.528  26.407  1.00  0.00    -0.460 OA
BRANCH  42  43
ATOM     43  C   UNL A   1      44.636  24.690  25.798  1.00  0.00     0.338 C 
ATOM     44  O   UNL A   1      44.792  24.971  24.620  1.00  0.00    -0.246 OA
BRANCH  43  45
ATOM     45  C   UNL A   1      43.874  25.515  26.760  1.00  0.00     0.060 A 
ATOM     46  C   UNL A   1      44.214  26.866  26.916  1.00  0.00     0.016 A 
ATOM     47  C   UNL A   1      42.825  24.963  27.500  1.00  0.00     0.016 A 
ATOM     48  C   UNL A   1      43.532  27.660  27.836  1.00  0.00     0.010 A 
ATOM     49  C   UNL A   1      42.164  25.750  28.446  1.00  0.00     0.010 A 
ATOM     50  C   UNL A   1      42.540  27.092  28.644  1.00  0.00    -0.014 A 
BRANCH  50  51
ATOM     51  C   UNL A   1      42.062  27.830  29.837  1.00  0.00     0.031 A 
ATOM     52  C   UNL A   1      40.824  28.673  29.699  1.00  0.00     0.074 A 
ATOM     53  C   UNL A   1      42.686  27.733  31.023  1.00  0.00     0.049 A 
ATOM     54  N   UNL A   1      40.240  29.447  30.577  1.00  0.00    -0.248 NA
ATOM     55  C   UNL A   1      40.157  28.639  28.387  1.00  0.00     0.031 C 
ATOM     56  C   UNL A   1      43.859  26.907  31.300  1.00  0.00     0.029 A 
ATOM     57  N   UNL A   1      42.414  28.349  32.220  1.00  0.00    -0.354 N 
ATOM     58  C   UNL A   1      39.145  29.996  29.922  1.00  0.00     0.074 A 
ATOM     59  C   UNL A   1      39.165  29.495  28.565  1.00  0.00     0.031 C 
ATOM     60  C   UNL A   1      44.215  27.078  32.586  1.00  0.00     0.029 A 
ATOM     61  C   UNL A   1      43.318  28.049  33.209  1.00  0.00     0.049 A 
ATOM     62  H   UNL A   1      41.644  28.948  32.355  1.00  0.00     0.167 HD
ATOM     63  C   UNL A   1      38.200  30.836  30.409  1.00  0.00     0.037 A 
ATOM     64  C   UNL A   1      43.420  28.529  34.465  1.00  0.00     0.037 A 
ATOM     65  C   UNL A   1      38.188  31.339  31.757  1.00  0.00     0.049 A 
ATOM     66  C   UNL A   1      42.413  29.537  34.957  1.00  0.00     0.074 A 
ATOM     67  C   UNL A   1      37.271  32.187  32.351  1.00  0.00     0.029 A 
ATOM     68  N   UNL A   1      39.147  31.049  32.716  1.00  0.00    -0.354 N 
ATOM     69  N   UNL A   1      41.369  30.038  34.340  1.00  0.00    -0.248 NA
ATOM     70  C   UNL A   1      42.600  30.047  36.323  1.00  0.00     0.031 C 
ATOM     71  C   UNL A   1      37.709  32.460  33.651  1.00  0.00     0.029 A 
ATOM     72  C   UNL A   1      38.862  31.729  33.889  1.00  0.00     0.049 A 
ATOM     73  H   UNL A   1      39.917  30.449  32.583  1.00  0.00     0.167 HD
ATOM     74  C   UNL A   1      40.759  30.893  35.250  1.00  0.00     0.074 A 
ATOM     75  C   UNL A   1      41.542  30.834  36.467  1.00  0.00     0.031 C 
ATOM     76  C   UNL A   1      39.649  31.657  35.095  1.00  0.00     0.037 A 
BRANCH  63  77
ATOM     77  C   UNL A   1      37.129  31.292  29.461  1.00  0.00     0.057 A 
ATOM     78  C   UNL A   1      36.037  30.480  29.124  1.00  0.00     0.134 A 
ATOM     79  C   UNL A   1      37.185  32.568  28.885  1.00  0.00     0.134 A 
ATOM     80  F   UNL A   1      35.931  29.240  29.626  1.00  0.00    -0.206 F 
ATOM     81  C   UNL A   1      35.058  30.908  28.225  1.00  0.00     0.040 A 
ATOM     82  C   UNL A   1      36.197  33.020  28.010  1.00  0.00     0.040 A 
ATOM     83  F   UNL A   1      38.202  33.397  29.165  1.00  0.00    -0.206 F 
ATOM     84  C   UNL A   1      35.134  32.185  27.671  1.00  0.00     0.006 A 
ENDBRANCH  63  77
BRANCH  64  85
ATOM     85  C   UNL A   1      44.527  28.077  35.346  1.00  0.00     0.057 A 
ATOM     86  C   UNL A   1      45.688  28.843  35.503  1.00  0.00     0.134 A 
ATOM     87  C   UNL A   1      44.464  26.857  36.032  1.00  0.00     0.134 A 
ATOM     88  F   UNL A   1      45.822  30.008  34.853  1.00  0.00    -0.206 F 
ATOM     89  C   UNL A   1      46.752  28.407  36.297  1.00  0.00     0.040 A 
ATOM     90  C   UNL A   1      45.508  26.422  36.851  1.00  0.00     0.040 A 
ATOM     91  F   UNL A   1      43.382  26.073  35.920  1.00  0.00    -0.206 F 
ATOM     92  C   UNL A   1      46.660  27.195  36.978  1.00  0.00     0.006 A 
ENDBRANCH  64  85
BRANCH  76  93
ATOM     93  C   UNL A   1      39.188  32.461  36.280  1.00  0.00     0.057 A 
ATOM     94  C   UNL A   1      39.630  33.770  36.507  1.00  0.00     0.134 A 
ATOM     95  C   UNL A   1      38.253  31.932  37.179  1.00  0.00     0.134 A 
ATOM     96  F   UNL A   1      40.533  34.336  35.691  1.00  0.00    -0.206 F 
ATOM     97  C   UNL A   1      39.180  34.513  37.601  1.00  0.00     0.040 A 
ATOM     98  C   UNL A   1      37.771  32.676  38.256  1.00  0.00     0.040 A 
ATOM     99  F   UNL A   1      37.777  30.689  37.014  1.00  0.00    -0.206 F 
ATOM    100  C   UNL A   1      38.241  33.968  38.475  1.00  0.00     0.006 A 
ENDBRANCH  76  93
ENDBRANCH  50  51
ENDBRANCH  43  45
ENDBRANCH  42  43
ENDBRANCH  41  42
ENDBRANCH  40  41
ENDBRANCH  39  40
ENDBRANCH  38  39
ENDBRANCH  37  38
ENDBRANCH  36  37
ENDBRANCH   1  36
TORSDOF 25
ENDMDL
MODEL 3
REMARK VINA RESULT:     -10.4      1.967      4.092
REMARK SMILES Cc1nc(-c2ccccc2)sc1C(=O)N[C@@H](CC1=c2ccccc2=NC1)C(=O)OCCOCCOCCOCCOC(=O)c1ccc(-c2c3nc(c(-c4c(F)cccc4F)c4ccc([nH]4)c(-c4c(F)cccc4F)c4nc(c(-c5c(F)cccc5F)c5ccc2[nH]5)C=C4)C=C3)cc1
REMARK SMILES IDX 34 1 33 2 32 3 31 4 30 5 29 6 27 7 28 8 16 9 15 10 13 11
REMARK SMILES IDX 14 12 12 14 1 15 2 16 3 17 4 18 11 19 5 20 6 21 10 22 7 23
REMARK SMILES IDX 9 24 8 25 17 26 18 27 19 28 26 29 20 30 24 31 25 32 21 33
REMARK SMILES IDX 23 34 22 35 35 36 36 37 37 38 38 39 39 40 40 41 41 42 42 43
REMARK SMILES IDX 43 44 44 45 45 46 97 47 46 48 96 49 47 50 48 51 49 52 90 53
REMARK SMILES IDX 50 54 95 55 89 56 91 57 51 58 94 59 88 60 87 61 52 63 78 64
REMARK SMILES IDX 61 65 77 66 62 67 65 68 76 69 92 70 63 71 64 72 75 74 93 75
REMARK SMILES IDX 66 76 53 77 54 78 59 79 55 80 56 81 58 82 60 83 57 84 79 85
REMARK SMILES IDX 80 86 85 87 81 88 82 89 84 90 86 91 83 92 67 93 68 94 73 95
REMARK SMILES IDX 69 96 70 97 72 98 74 99 71 100
REMARK H PARENT 15 13 91 62 65 73
REMARK Flexibility Score: inf
ROOT
ATOM      1  C   UNL A   1      37.419  21.752  25.227  1.00  0.00     0.188 C 
ENDROOT
BRANCH   1   2
ATOM      2  C   UNL A   1      36.007  22.005  25.772  1.00  0.00     0.188 C 
BRANCH   2   3
ATOM      3  O   UNL A   1      35.506  23.327  25.894  1.00  0.00    -0.376 OA
BRANCH   3   4
ATOM      4  C   UNL A   1      34.502  23.652  26.847  1.00  0.00     0.202 C 
BRANCH   4   5
ATOM      5  C   UNL A   1      33.709  22.581  27.612  1.00  0.00     0.261 C 
BRANCH   5   6
ATOM      6  O   UNL A   1      32.537  22.097  26.938  1.00  0.00    -0.462 OA
BRANCH   6   7
ATOM      7  C   UNL A   1      31.658  23.039  26.542  1.00  0.00     0.329 C 
ATOM      8  O   UNL A   1      31.137  23.862  27.290  1.00  0.00    -0.250 OA
BRANCH   7   9
ATOM      9  C   UNL A   1      31.301  22.992  25.048  1.00  0.00     0.196 C 
BRANCH   9  10
ATOM     10  N   UNL A   1      30.403  23.932  24.390  1.00  0.00    -0.338 N 
ATOM     11  C   UNL A   1      30.349  25.313  24.360  1.00  0.00     0.264 C 
ATOM     12  O   UNL A   1      29.246  25.741  23.994  1.00  0.00    -0.268 OA
ATOM     13  H   UNL A   1      29.695  23.498  23.862  1.00  0.00     0.164 HD
BRANCH  11  14
ATOM     14  C   UNL A   1      31.482  26.217  24.618  1.00  0.00     0.115 A 
ATOM     15  C   UNL A   1      33.412  26.216  22.788  1.00  0.00     0.068 C 
ATOM     16  C   UNL A   1      32.666  26.632  24.001  1.00  0.00     0.062 A 
ATOM     17  N   UNL A   1      33.320  27.672  24.628  1.00  0.00    -0.241 NA
ATOM     18  C   UNL A   1      32.784  27.976  25.777  1.00  0.00     0.124 A 
ATOM     19  S   UNL A   1      31.376  27.107  26.152  1.00  0.00    -0.108 S 
BRANCH  18  20
ATOM     20  C   UNL A   1      33.410  28.974  26.637  1.00  0.00     0.010 A 
ATOM     21  C   UNL A   1      32.745  30.198  26.827  1.00  0.00     0.011 A 
ATOM     22  C   UNL A   1      34.742  28.852  27.048  1.00  0.00     0.011 A 
ATOM     23  C   UNL A   1      33.407  31.291  27.380  1.00  0.00     0.001 A 
ATOM     24  C   UNL A   1      35.407  29.953  27.597  1.00  0.00     0.001 A 
ATOM     25  C   UNL A   1      34.744  31.172  27.750  1.00  0.00     0.000 A 
ENDBRANCH  18  20
ENDBRANCH  11  14
ENDBRANCH   9  10
BRANCH   9  26
ATOM     26  C   UNL A   1      32.590  22.823  24.228  1.00  0.00     0.070 C 
BRANCH  26  27
ATOM     27  C   UNL A   1      32.540  21.579  23.401  1.00  0.00    -0.037 C 
ATOM     28  C   UNL A   1      32.807  20.336  23.795  1.00  0.00     0.001 A 
ATOM     29  C   UNL A   1      32.005  21.589  22.001  1.00  0.00     0.174 C 
ATOM     30  C   UNL A   1      33.270  19.740  25.006  1.00  0.00     0.010 A 
ATOM     31  C   UNL A   1      32.293  19.533  22.676  1.00  0.00     0.065 A 
ATOM     32  N   UNL A   1      31.859  20.164  21.628  1.00  0.00    -0.280 NA
ATOM     33  C   UNL A   1      33.188  18.408  25.139  1.00  0.00     0.001 A 
ATOM     34  C   UNL A   1      32.259  18.070  22.887  1.00  0.00     0.028 A 
ATOM     35  C   UNL A   1      32.667  17.574  24.069  1.00  0.00     0.002 A 
ENDBRANCH  26  27
ENDBRANCH   9  26
ENDBRANCH   7   9
ENDBRANCH   6   7
ENDBRANCH   5   6
ENDBRANCH   4   5
ENDBRANCH   3   4
ENDBRANCH   2   3
ENDBRANCH   1   2
BRANCH   1  36
ATOM     36  O   UNL A   1      38.472  22.018  26.127  1.00  0.00    -0.377 OA
BRANCH  36  37
ATOM     37  C   UNL A   1      39.664  21.259  25.983  1.00  0.00     0.188 C 
BRANCH  37  38
ATOM     38  C   UNL A   1      40.981  21.796  26.589  1.00  0.00     0.188 C 
BRANCH  38  39
ATOM     39  O   UNL A   1      42.159  21.128  26.166  1.00  0.00    -0.376 OA
BRANCH  39  40
ATOM     40  C   UNL A   1      43.427  21.693  26.460  1.00  0.00     0.202 C 
BRANCH  40  41
ATOM     41  C   UNL A   1      43.757  23.104  25.939  1.00  0.00     0.261 C 
BRANCH  41  42
ATOM     42  O   UNL A   1      43.184  24.212  26.653  1.00  0.00    -0.460 OA
BRANCH  42  43
ATOM     43  C   UNL A   1      42.643  25.223  25.948  1.00  0.00     0.338 C 
ATOM     44  O   UNL A   1      42.482  25.279  24.739  1.00  0.00    -0.246 OA
BRANCH  43  45
ATOM     45  C   UNL A   1      42.069  26.185  26.913  1.00  0.00     0.060 A 
ATOM     46  C   UNL A   1      42.450  27.531  26.839  1.00  0.00     0.016 A 
ATOM     47  C   UNL A   1      41.153  25.764  27.882  1.00  0.00     0.016 A 
ATOM     48  C   UNL A   1      41.947  28.455  27.754  1.00  0.00     0.010 A 
ATOM     49  C   UNL A   1      40.675  26.683  28.819  1.00  0.00     0.010 A 
ATOM     50  C   UNL A   1      41.099  28.024  28.781  1.00  0.00    -0.014 A 
BRANCH  50  51
ATOM     51  C   UNL A   1      40.843  28.918  29.936  1.00  0.00     0.031 A 
ATOM     52  C   UNL A   1      41.727  28.780  31.146  1.00  0.00     0.074 A 
ATOM     53  C   UNL A   1      39.878  29.851  29.907  1.00  0.00     0.049 A 
ATOM     54  N   UNL A   1      41.674  29.407  32.293  1.00  0.00    -0.248 NA
ATOM     55  C   UNL A   1      42.818  27.797  31.046  1.00  0.00     0.031 C 
ATOM     56  C   UNL A   1      38.994  30.122  28.775  1.00  0.00     0.029 A 
ATOM     57  N   UNL A   1      39.478  30.743  30.870  1.00  0.00    -0.354 N 
ATOM     58  C   UNL A   1      42.716  28.889  33.051  1.00  0.00     0.074 A 
ATOM     59  C   UNL A   1      43.362  27.873  32.250  1.00  0.00     0.031 C 
ATOM     60  C   UNL A   1      38.144  31.107  29.114  1.00  0.00     0.029 A 
ATOM     61  C   UNL A   1      38.402  31.510  30.496  1.00  0.00     0.049 A 
ATOM     62  H   UNL A   1      39.921  30.825  31.745  1.00  0.00     0.167 HD
ATOM     63  C   UNL A   1      43.106  29.233  34.302  1.00  0.00     0.037 A 
ATOM     64  C   UNL A   1      37.693  32.414  31.202  1.00  0.00     0.037 A 
ATOM     65  C   UNL A   1      42.455  30.238  35.100  1.00  0.00     0.049 A 
ATOM     66  C   UNL A   1      38.086  32.714  32.626  1.00  0.00     0.074 A 
ATOM     67  C   UNL A   1      42.779  30.669  36.374  1.00  0.00     0.029 A 
ATOM     68  N   UNL A   1      41.340  30.961  34.704  1.00  0.00    -0.354 N 
ATOM     69  N   UNL A   1      39.083  32.235  33.331  1.00  0.00    -0.248 NA
ATOM     70  C   UNL A   1      37.252  33.682  33.354  1.00  0.00     0.031 C 
ATOM     71  C   UNL A   1      41.821  31.606  36.773  1.00  0.00     0.029 A 
ATOM     72  C   UNL A   1      40.941  31.811  35.723  1.00  0.00     0.049 A 
ATOM     73  H   UNL A   1      40.896  30.882  33.828  1.00  0.00     0.167 HD
ATOM     74  C   UNL A   1      39.016  32.865  34.569  1.00  0.00     0.074 A 
ATOM     75  C   UNL A   1      37.888  33.771  34.514  1.00  0.00     0.031 C 
ATOM     76  C   UNL A   1      39.817  32.711  35.652  1.00  0.00     0.037 A 
BRANCH  63  77
ATOM     77  C   UNL A   1      44.266  28.485  34.892  1.00  0.00     0.057 A 
ATOM     78  C   UNL A   1      44.109  27.241  35.519  1.00  0.00     0.134 A 
ATOM     79  C   UNL A   1      45.562  29.011  34.820  1.00  0.00     0.134 A 
ATOM     80  F   UNL A   1      42.892  26.687  35.637  1.00  0.00    -0.206 F 
ATOM     81  C   UNL A   1      45.193  26.564  36.081  1.00  0.00     0.040 A 
ATOM     82  C   UNL A   1      46.658  28.330  35.349  1.00  0.00     0.040 A 
ATOM     83  F   UNL A   1      45.784  30.196  34.231  1.00  0.00    -0.206 F 
ATOM     84  C   UNL A   1      46.474  27.106  35.990  1.00  0.00     0.006 A 
ENDBRANCH  63  77
BRANCH  64  85
ATOM     85  C   UNL A   1      36.526  33.092  30.582  1.00  0.00     0.057 A 
ATOM     86  C   UNL A   1      36.695  34.073  29.598  1.00  0.00     0.134 A 
ATOM     87  C   UNL A   1      35.215  32.796  30.976  1.00  0.00     0.134 A 
ATOM     88  F   UNL A   1      37.926  34.422  29.196  1.00  0.00    -0.206 F 
ATOM     89  C   UNL A   1      35.605  34.746  29.039  1.00  0.00     0.040 A 
ATOM     90  C   UNL A   1      34.116  33.440  30.406  1.00  0.00     0.040 A 
ATOM     91  F   UNL A   1      34.984  31.870  31.918  1.00  0.00    -0.206 F 
ATOM     92  C   UNL A   1      34.310  34.424  29.440  1.00  0.00     0.006 A 
ENDBRANCH  64  85
BRANCH  76  93
ATOM     93  C   UNL A   1      39.531  33.567  36.855  1.00  0.00     0.057 A 
ATOM     94  C   UNL A   1      38.732  33.118  37.914  1.00  0.00     0.134 A 
ATOM     95  C   UNL A   1      40.101  34.842  36.974  1.00  0.00     0.134 A 
ATOM     96  F   UNL A   1      38.146  31.912  37.863  1.00  0.00    -0.206 F 
ATOM     97  C   UNL A   1      38.489  33.917  39.035  1.00  0.00     0.040 A 
ATOM     98  C   UNL A   1      39.893  35.635  38.103  1.00  0.00     0.040 A 
ATOM     99  F   UNL A   1      40.888  35.329  36.003  1.00  0.00    -0.206 F 
ATOM    100  C   UNL A   1      39.078  35.176  39.134  1.00  0.00     0.006 A 
ENDBRANCH  76  93
ENDBRANCH  50  51
ENDBRANCH  43  45
ENDBRANCH  42  43
ENDBRANCH  41  42
ENDBRANCH  40  41
ENDBRANCH  39  40
ENDBRANCH  38  39
ENDBRANCH  37  38
ENDBRANCH  36  37
ENDBRANCH   1  36
TORSDOF 25
ENDMDL
