MODEL 1
REMARK VINA RESULT:     -10.6      0.000      0.000
REMARK SMILES Cc1ccn(-c2cccc(NS(=O)(=O)c3cc(C(=O)OCCOCCOCCOCCOC(=O)c4ccc(-c5c6nc(c(-c7c(F)cccc7F)c7ccc([nH]7)c(-c7c(F)cccc7F)c7nc(c(-c8c(F)cccc8F)c8ccc5[nH]8)C=C7)C=C6)cc4)cc(F)c3C)c2)n1
REMARK SMILES IDX 25 1 24 2 23 3 22 4 21 5 20 6 18 7 19 8 17 9 15 10 16 11
REMARK SMILES IDX 92 12 90 13 93 14 89 15 91 16 12 17 13 18 14 19 11 20 10 22
REMARK SMILES IDX 6 23 7 24 94 25 8 26 9 27 5 28 1 29 2 30 3 31 95 32 4 33
REMARK SMILES IDX 26 34 27 35 28 36 29 37 30 38 31 39 32 40 33 41 34 42 35 43
REMARK SMILES IDX 36 44 88 45 37 46 87 47 38 48 39 49 40 50 81 51 41 52 86 53
REMARK SMILES IDX 80 54 82 55 42 56 85 57 79 58 78 59 43 61 69 62 52 63 68 64
REMARK SMILES IDX 53 65 56 66 67 67 83 68 54 69 55 70 66 72 84 73 57 74 44 75
REMARK SMILES IDX 45 76 50 77 46 78 47 79 49 80 51 81 48 82 70 83 71 84 76 85
REMARK SMILES IDX 72 86 73 87 75 88 77 89 74 90 58 91 59 92 64 93 60 94 61 95
REMARK SMILES IDX 63 96 65 97 62 98
REMARK H PARENT 11 21 82 60 56 71
REMARK Flexibility Score: inf
ROOT
ATOM      1  C   UNL A   1      34.434  34.466  31.391  1.00  0.00     0.188 C 
ENDROOT
BRANCH   1   2
ATOM      2  C   UNL A   1      34.060  34.249  29.907  1.00  0.00     0.188 C 
BRANCH   2   3
ATOM      3  O   UNL A   1      34.983  33.458  29.188  1.00  0.00    -0.376 OA
BRANCH   3   4
ATOM      4  C   UNL A   1      34.620  32.755  28.019  1.00  0.00     0.202 C 
BRANCH   4   5
ATOM      5  C   UNL A   1      34.242  31.264  27.953  1.00  0.00     0.261 C 
BRANCH   5   6
ATOM      6  O   UNL A   1      33.386  30.835  26.894  1.00  0.00    -0.460 OA
BRANCH   6   7
ATOM      7  C   UNL A   1      33.618  29.614  26.377  1.00  0.00     0.338 C 
ATOM      8  O   UNL A   1      34.460  28.801  26.727  1.00  0.00    -0.246 OA
BRANCH   7   9
ATOM      9  C   UNL A   1      32.509  29.309  25.452  1.00  0.00     0.064 A 
ATOM     10  C   UNL A   1      31.482  27.735  23.891  1.00  0.00     0.094 A 
ATOM     11  C   UNL A   1      32.493  28.061  24.820  1.00  0.00     0.038 A 
ATOM     12  C   UNL A   1      30.452  28.653  23.625  1.00  0.00     0.005 A 
ATOM     13  C   UNL A   1      30.457  29.862  24.345  1.00  0.00     0.128 A 
ATOM     14  C   UNL A   1      29.386  28.483  22.584  1.00  0.00     0.049 C 
ATOM     15  C   UNL A   1      31.466  30.203  25.244  1.00  0.00     0.055 A 
ATOM     16  F   UNL A   1      29.479  30.755  24.132  1.00  0.00    -0.207 F 
BRANCH  10  17
ATOM     17  S   UNL A   1      31.685  26.186  23.031  1.00  0.00     0.262 S 
ATOM     18  O   UNL A   1      31.692  26.479  21.613  1.00  0.00    -0.201 OA
ATOM     19  O   UNL A   1      30.696  25.269  23.559  1.00  0.00    -0.201 OA
BRANCH  17  20
ATOM     20  N   UNL A   1      33.202  25.548  23.390  1.00  0.00    -0.280 N 
ATOM     21  H   UNL A   1      33.915  25.743  22.741  1.00  0.00     0.180 HD
BRANCH  20  22
ATOM     22  C   UNL A   1      33.585  24.756  24.522  1.00  0.00     0.051 A 
ATOM     23  C   UNL A   1      35.266  23.374  25.572  1.00  0.00     0.067 A 
ATOM     24  C   UNL A   1      34.446  23.174  26.687  1.00  0.00     0.028 A 
ATOM     25  C   UNL A   1      34.886  24.237  24.533  1.00  0.00     0.055 A 
ATOM     26  C   UNL A   1      33.161  23.662  26.666  1.00  0.00     0.004 A 
ATOM     27  C   UNL A   1      32.721  24.336  25.533  1.00  0.00     0.027 A 
BRANCH  23  28
ATOM     28  N   UNL A   1      36.393  22.537  25.444  1.00  0.00    -0.241 N 
ATOM     29  C   UNL A   1      39.718  21.585  26.207  1.00  0.00     0.069 C 
ATOM     30  C   UNL A   1      38.343  21.741  25.682  1.00  0.00     0.060 A 
ATOM     31  C   UNL A   1      37.632  20.789  24.923  1.00  0.00     0.045 A 
ATOM     32  N   UNL A   1      37.625  22.855  25.900  1.00  0.00    -0.173 NA
ATOM     33  C   UNL A   1      36.382  21.326  24.788  1.00  0.00     0.115 A 
ENDBRANCH  23  28
ENDBRANCH  20  22
ENDBRANCH  17  20
ENDBRANCH  10  17
ENDBRANCH   7   9
ENDBRANCH   6   7
ENDBRANCH   5   6
ENDBRANCH   4   5
ENDBRANCH   3   4
ENDBRANCH   2   3
ENDBRANCH   1   2
BRANCH   1  34
ATOM     34  O   UNL A   1      35.616  33.824  31.832  1.00  0.00    -0.377 OA
BRANCH  34  35
ATOM     35  C   UNL A   1      36.428  34.479  32.806  1.00  0.00     0.188 C 
BRANCH  35  36
ATOM     36  C   UNL A   1      37.785  33.915  33.325  1.00  0.00     0.188 C 
BRANCH  36  37
ATOM     37  O   UNL A   1      38.464  33.012  32.467  1.00  0.00    -0.376 OA
BRANCH  37  38
ATOM     38  C   UNL A   1      38.612  31.633  32.744  1.00  0.00     0.202 C 
BRANCH  38  39
ATOM     39  C   UNL A   1      37.398  30.908  33.315  1.00  0.00     0.261 C 
BRANCH  39  40
ATOM     40  O   UNL A   1      37.091  29.726  32.605  1.00  0.00    -0.460 OA
BRANCH  40  41
ATOM     41  C   UNL A   1      36.784  29.925  31.316  1.00  0.00     0.338 C 
ATOM     42  O   UNL A   1      36.038  30.784  30.851  1.00  0.00    -0.246 OA
BRANCH  41  43
ATOM     43  C   UNL A   1      37.387  28.851  30.533  1.00  0.00     0.060 A 
ATOM     44  C   UNL A   1      38.119  27.934  31.283  1.00  0.00     0.016 A 
ATOM     45  C   UNL A   1      37.645  29.119  29.180  1.00  0.00     0.016 A 
ATOM     46  C   UNL A   1      39.348  27.589  30.797  1.00  0.00     0.010 A 
ATOM     47  C   UNL A   1      38.886  28.802  28.710  1.00  0.00     0.010 A 
ATOM     48  C   UNL A   1      39.750  28.144  29.577  1.00  0.00    -0.014 A 
BRANCH  48  49
ATOM     49  C   UNL A   1      41.118  27.945  29.184  1.00  0.00     0.031 A 
ATOM     50  C   UNL A   1      41.307  26.624  28.562  1.00  0.00     0.074 A 
ATOM     51  C   UNL A   1      42.039  28.915  29.315  1.00  0.00     0.049 A 
ATOM     52  N   UNL A   1      41.963  25.618  29.031  1.00  0.00    -0.248 NA
ATOM     53  C   UNL A   1      40.468  26.312  27.391  1.00  0.00     0.031 C 
ATOM     54  C   UNL A   1      41.839  30.324  29.669  1.00  0.00     0.029 A 
ATOM     55  N   UNL A   1      43.366  28.853  29.044  1.00  0.00    -0.354 N 
ATOM     56  C   UNL A   1      41.806  24.618  28.079  1.00  0.00     0.074 A 
ATOM     57  C   UNL A   1      40.704  25.011  27.247  1.00  0.00     0.031 C 
ATOM     58  C   UNL A   1      42.959  31.019  29.362  1.00  0.00     0.029 A 
ATOM     59  C   UNL A   1      43.979  30.090  28.910  1.00  0.00     0.049 A 
ATOM     60  H   UNL A   1      43.852  28.003  28.951  1.00  0.00     0.167 HD
ATOM     61  C   UNL A   1      42.804  23.725  27.858  1.00  0.00     0.037 A 
ATOM     62  C   UNL A   1      45.201  30.297  28.358  1.00  0.00     0.037 A 
ATOM     63  C   UNL A   1      43.676  23.635  29.006  1.00  0.00     0.049 A 
ATOM     64  C   UNL A   1      45.908  28.987  28.346  1.00  0.00     0.074 A 
ATOM     65  C   UNL A   1      43.489  23.317  30.339  1.00  0.00     0.029 A 
ATOM     66  N   UNL A   1      44.891  24.273  28.942  1.00  0.00    -0.354 N 
ATOM     67  N   UNL A   1      46.326  28.377  29.421  1.00  0.00    -0.248 NA
ATOM     68  C   UNL A   1      45.726  28.132  27.180  1.00  0.00     0.031 C 
ATOM     69  C   UNL A   1      44.367  24.182  31.056  1.00  0.00     0.029 A 
ATOM     70  C   UNL A   1      45.079  24.938  30.125  1.00  0.00     0.049 A 
ATOM     71  H   UNL A   1      45.514  24.256  28.181  1.00  0.00     0.167 HD
ATOM     72  C   UNL A   1      46.053  27.033  29.200  1.00  0.00     0.074 A 
ATOM     73  C   UNL A   1      45.759  26.935  27.772  1.00  0.00     0.031 C 
ATOM     74  C   UNL A   1      45.801  26.184  30.239  1.00  0.00     0.037 A 
BRANCH  61  75
ATOM     75  C   UNL A   1      43.232  23.313  26.466  1.00  0.00     0.057 A 
ATOM     76  C   UNL A   1      43.379  21.942  26.196  1.00  0.00     0.134 A 
ATOM     77  C   UNL A   1      43.791  24.173  25.494  1.00  0.00     0.134 A 
ATOM     78  F   UNL A   1      42.883  21.020  27.033  1.00  0.00    -0.206 F 
ATOM     79  C   UNL A   1      44.124  21.469  25.110  1.00  0.00     0.040 A 
ATOM     80  C   UNL A   1      44.495  23.709  24.381  1.00  0.00     0.040 A 
ATOM     81  F   UNL A   1      43.781  25.506  25.594  1.00  0.00    -0.206 F 
ATOM     82  C   UNL A   1      44.700  22.353  24.208  1.00  0.00     0.006 A 
ENDBRANCH  61  75
BRANCH  62  83
ATOM     83  C   UNL A   1      45.650  31.444  27.536  1.00  0.00     0.057 A 
ATOM     84  C   UNL A   1      44.817  31.998  26.555  1.00  0.00     0.134 A 
ATOM     85  C   UNL A   1      46.791  32.194  27.871  1.00  0.00     0.134 A 
ATOM     86  F   UNL A   1      43.681  31.379  26.198  1.00  0.00    -0.206 F 
ATOM     87  C   UNL A   1      45.091  33.235  25.956  1.00  0.00     0.040 A 
ATOM     88  C   UNL A   1      47.082  33.426  27.275  1.00  0.00     0.040 A 
ATOM     89  F   UNL A   1      47.617  31.805  28.852  1.00  0.00    -0.206 F 
ATOM     90  C   UNL A   1      46.222  33.958  26.322  1.00  0.00     0.006 A 
ENDBRANCH  62  83
BRANCH  74  91
ATOM     91  C   UNL A   1      46.072  26.684  31.631  1.00  0.00     0.057 A 
ATOM     92  C   UNL A   1      45.129  27.363  32.419  1.00  0.00     0.134 A 
ATOM     93  C   UNL A   1      47.276  26.332  32.249  1.00  0.00     0.134 A 
ATOM     94  F   UNL A   1      43.910  27.652  31.945  1.00  0.00    -0.206 F 
ATOM     95  C   UNL A   1      45.393  27.712  33.748  1.00  0.00     0.040 A 
ATOM     96  C   UNL A   1      47.539  26.645  33.585  1.00  0.00     0.040 A 
ATOM     97  F   UNL A   1      48.201  25.631  31.575  1.00  0.00    -0.206 F 
ATOM     98  C   UNL A   1      46.599  27.346  34.336  1.00  0.00     0.006 A 
ENDBRANCH  74  91
ENDBRANCH  48  49
ENDBRANCH  41  43
ENDBRANCH  40  41
ENDBRANCH  39  40
ENDBRANCH  38  39
ENDBRANCH  37  38
ENDBRANCH  36  37
ENDBRANCH  35  36
ENDBRANCH  34  35
ENDBRANCH   1  34
TORSDOF 24
ENDMDL
MODEL 2
REMARK VINA RESULT:      -9.9      2.143      5.697
REMARK SMILES Cc1ccn(-c2cccc(NS(=O)(=O)c3cc(C(=O)OCCOCCOCCOCCOC(=O)c4ccc(-c5c6nc(c(-c7c(F)cccc7F)c7ccc([nH]7)c(-c7c(F)cccc7F)c7nc(c(-c8c(F)cccc8F)c8ccc5[nH]8)C=C7)C=C6)cc4)cc(F)c3C)c2)n1
REMARK SMILES IDX 25 1 24 2 23 3 22 4 21 5 20 6 18 7 19 8 17 9 15 10 16 11
REMARK SMILES IDX 92 12 90 13 93 14 89 15 91 16 12 17 13 18 14 19 11 20 10 22
REMARK SMILES IDX 6 23 7 24 94 25 8 26 9 27 5 28 1 29 2 30 3 31 95 32 4 33
REMARK SMILES IDX 26 34 27 35 28 36 29 37 30 38 31 39 32 40 33 41 34 42 35 43
REMARK SMILES IDX 36 44 88 45 37 46 87 47 38 48 39 49 40 50 81 51 41 52 86 53
REMARK SMILES IDX 80 54 82 55 42 56 85 57 79 58 78 59 43 61 69 62 52 63 68 64
REMARK SMILES IDX 53 65 56 66 67 67 83 68 54 69 55 70 66 72 84 73 57 74 44 75
REMARK SMILES IDX 45 76 50 77 46 78 47 79 49 80 51 81 48 82 70 83 71 84 76 85
REMARK SMILES IDX 72 86 73 87 75 88 77 89 74 90 58 91 59 92 64 93 60 94 61 95
REMARK SMILES IDX 63 96 65 97 62 98
REMARK H PARENT 11 21 82 60 56 71
REMARK Flexibility Score: inf
ROOT
ATOM      1  C   UNL A   1      33.059  34.889  28.184  1.00  0.00     0.188 C 
ENDROOT
BRANCH   1   2
ATOM      2  C   UNL A   1      33.546  33.468  28.549  1.00  0.00     0.188 C 
BRANCH   2   3
ATOM      3  O   UNL A   1      34.689  33.047  27.835  1.00  0.00    -0.376 OA
BRANCH   3   4
ATOM      4  C   UNL A   1      35.381  31.859  28.156  1.00  0.00     0.202 C 
BRANCH   4   5
ATOM      5  C   UNL A   1      35.320  30.545  27.354  1.00  0.00     0.261 C 
BRANCH   5   6
ATOM      6  O   UNL A   1      34.048  30.111  26.875  1.00  0.00    -0.460 OA
BRANCH   6   7
ATOM      7  C   UNL A   1      33.956  28.837  26.451  1.00  0.00     0.338 C 
ATOM      8  O   UNL A   1      34.575  27.866  26.859  1.00  0.00    -0.246 OA
BRANCH   7   9
ATOM      9  C   UNL A   1      32.785  28.753  25.555  1.00  0.00     0.064 A 
ATOM     10  C   UNL A   1      31.458  27.423  23.994  1.00  0.00     0.094 A 
ATOM     11  C   UNL A   1      32.536  27.544  24.897  1.00  0.00     0.038 A 
ATOM     12  C   UNL A   1      30.596  28.511  23.781  1.00  0.00     0.005 A 
ATOM     13  C   UNL A   1      30.830  29.682  24.527  1.00  0.00     0.128 A 
ATOM     14  C   UNL A   1      29.488  28.556  22.771  1.00  0.00     0.049 C 
ATOM     15  C   UNL A   1      31.907  29.818  25.401  1.00  0.00     0.055 A 
ATOM     16  F   UNL A   1      30.015  30.735  24.366  1.00  0.00    -0.207 F 
BRANCH  10  17
ATOM     17  S   UNL A   1      31.366  25.886  23.094  1.00  0.00     0.262 S 
ATOM     18  O   UNL A   1      31.627  26.187  21.701  1.00  0.00    -0.201 OA
ATOM     19  O   UNL A   1      30.118  25.249  23.457  1.00  0.00    -0.201 OA
BRANCH  17  20
ATOM     20  N   UNL A   1      32.612  24.872  23.600  1.00  0.00    -0.280 N 
ATOM     21  H   UNL A   1      33.437  24.903  23.064  1.00  0.00     0.180 HD
BRANCH  20  22
ATOM     22  C   UNL A   1      32.622  23.968  24.713  1.00  0.00     0.051 A 
ATOM     23  C   UNL A   1      33.145  21.762  25.546  1.00  0.00     0.067 A 
ATOM     24  C   UNL A   1      32.688  22.104  26.822  1.00  0.00     0.028 A 
ATOM     25  C   UNL A   1      33.205  22.711  24.515  1.00  0.00     0.055 A 
ATOM     26  C   UNL A   1      32.093  23.329  27.012  1.00  0.00     0.004 A 
ATOM     27  C   UNL A   1      31.964  24.183  25.923  1.00  0.00     0.027 A 
BRANCH  23  28
ATOM     28  N   UNL A   1      33.362  20.393  25.286  1.00  0.00    -0.241 N 
ATOM     29  C   UNL A   1      32.336  17.005  25.161  1.00  0.00     0.069 C 
ATOM     30  C   UNL A   1      33.049  18.303  25.128  1.00  0.00     0.060 A 
ATOM     31  C   UNL A   1      34.301  18.547  24.529  1.00  0.00     0.045 A 
ATOM     32  N   UNL A   1      32.531  19.407  25.690  1.00  0.00    -0.173 NA
ATOM     33  C   UNL A   1      34.475  19.898  24.643  1.00  0.00     0.115 A 
ENDBRANCH  23  28
ENDBRANCH  20  22
ENDBRANCH  17  20
ENDBRANCH  10  17
ENDBRANCH   7   9
ENDBRANCH   6   7
ENDBRANCH   5   6
ENDBRANCH   4   5
ENDBRANCH   3   4
ENDBRANCH   2   3
ENDBRANCH   1   2
BRANCH   1  34
ATOM     34  O   UNL A   1      32.359  35.584  29.200  1.00  0.00    -0.377 OA
BRANCH  34  35
ATOM     35  C   UNL A   1      33.108  36.224  30.233  1.00  0.00     0.188 C 
BRANCH  35  36
ATOM     36  C   UNL A   1      33.207  35.686  31.692  1.00  0.00     0.188 C 
BRANCH  36  37
ATOM     37  O   UNL A   1      33.670  34.354  31.845  1.00  0.00    -0.376 OA
BRANCH  37  38
ATOM     38  C   UNL A   1      35.001  33.955  31.581  1.00  0.00     0.202 C 
BRANCH  38  39
ATOM     39  C   UNL A   1      35.528  32.750  32.353  1.00  0.00     0.261 C 
BRANCH  39  40
ATOM     40  O   UNL A   1      36.682  32.191  31.761  1.00  0.00    -0.460 OA
BRANCH  40  41
ATOM     41  C   UNL A   1      36.670  30.852  31.694  1.00  0.00     0.338 C 
ATOM     42  O   UNL A   1      36.123  30.072  32.471  1.00  0.00    -0.246 OA
BRANCH  41  43
ATOM     43  C   UNL A   1      37.538  30.443  30.595  1.00  0.00     0.060 A 
ATOM     44  C   UNL A   1      37.374  29.119  30.196  1.00  0.00     0.016 A 
ATOM     45  C   UNL A   1      38.737  31.153  30.433  1.00  0.00     0.016 A 
ATOM     46  C   UNL A   1      38.515  28.391  30.010  1.00  0.00     0.010 A 
ATOM     47  C   UNL A   1      39.877  30.419  30.280  1.00  0.00     0.010 A 
ATOM     48  C   UNL A   1      39.742  29.039  30.190  1.00  0.00    -0.014 A 
BRANCH  48  49
ATOM     49  C   UNL A   1      40.923  28.219  30.201  1.00  0.00     0.031 A 
ATOM     50  C   UNL A   1      41.537  28.187  31.538  1.00  0.00     0.074 A 
ATOM     51  C   UNL A   1      41.311  27.525  29.118  1.00  0.00     0.049 A 
ATOM     52  N   UNL A   1      42.663  28.699  31.900  1.00  0.00    -0.248 NA
ATOM     53  C   UNL A   1      40.685  27.739  32.654  1.00  0.00     0.031 C 
ATOM     54  C   UNL A   1      40.585  27.309  27.861  1.00  0.00     0.029 A 
ATOM     55  N   UNL A   1      42.421  26.763  28.963  1.00  0.00    -0.354 N 
ATOM     56  C   UNL A   1      42.760  28.419  33.258  1.00  0.00     0.074 A 
ATOM     57  C   UNL A   1      41.441  28.062  33.699  1.00  0.00     0.031 C 
ATOM     58  C   UNL A   1      41.168  26.293  27.184  1.00  0.00     0.029 A 
ATOM     59  C   UNL A   1      42.362  25.878  27.897  1.00  0.00     0.049 A 
ATOM     60  H   UNL A   1      43.203  26.833  29.558  1.00  0.00     0.167 HD
ATOM     61  C   UNL A   1      43.972  28.184  33.821  1.00  0.00     0.037 A 
ATOM     62  C   UNL A   1      43.197  24.824  27.714  1.00  0.00     0.037 A 
ATOM     63  C   UNL A   1      45.028  28.767  33.027  1.00  0.00     0.049 A 
ATOM     64  C   UNL A   1      44.395  25.055  28.568  1.00  0.00     0.074 A 
ATOM     65  C   UNL A   1      45.316  30.048  32.592  1.00  0.00     0.029 A 
ATOM     66  N   UNL A   1      45.775  27.928  32.235  1.00  0.00    -0.354 N 
ATOM     67  N   UNL A   1      45.277  25.991  28.345  1.00  0.00    -0.248 NA
ATOM     68  C   UNL A   1      44.355  24.554  29.935  1.00  0.00     0.031 C 
ATOM     69  C   UNL A   1      45.849  29.887  31.280  1.00  0.00     0.029 A 
ATOM     70  C   UNL A   1      45.910  28.520  31.006  1.00  0.00     0.049 A 
ATOM     71  H   UNL A   1      46.147  27.057  32.503  1.00  0.00     0.167 HD
ATOM     72  C   UNL A   1      45.595  26.488  29.603  1.00  0.00     0.074 A 
ATOM     73  C   UNL A   1      45.058  25.511  30.547  1.00  0.00     0.031 C 
ATOM     74  C   UNL A   1      45.998  27.783  29.767  1.00  0.00     0.037 A 
BRANCH  61  75
ATOM     75  C   UNL A   1      44.208  27.055  34.801  1.00  0.00     0.057 A 
ATOM     76  C   UNL A   1      43.897  25.747  34.393  1.00  0.00     0.134 A 
ATOM     77  C   UNL A   1      44.423  27.209  36.189  1.00  0.00     0.134 A 
ATOM     78  F   UNL A   1      43.681  25.463  33.100  1.00  0.00    -0.206 F 
ATOM     79  C   UNL A   1      43.701  24.705  35.305  1.00  0.00     0.040 A 
ATOM     80  C   UNL A   1      44.278  26.163  37.103  1.00  0.00     0.040 A 
ATOM     81  F   UNL A   1      44.695  28.382  36.769  1.00  0.00    -0.206 F 
ATOM     82  C   UNL A   1      43.874  24.914  36.667  1.00  0.00     0.006 A 
ENDBRANCH  61  75
BRANCH  62  83
ATOM     83  C   UNL A   1      42.880  23.496  27.141  1.00  0.00     0.057 A 
ATOM     84  C   UNL A   1      43.590  22.998  26.040  1.00  0.00     0.134 A 
ATOM     85  C   UNL A   1      42.064  22.572  27.818  1.00  0.00     0.134 A 
ATOM     86  F   UNL A   1      44.429  23.790  25.356  1.00  0.00    -0.206 F 
ATOM     87  C   UNL A   1      43.509  21.654  25.647  1.00  0.00     0.040 A 
ATOM     88  C   UNL A   1      41.967  21.232  27.431  1.00  0.00     0.040 A 
ATOM     89  F   UNL A   1      41.403  22.913  28.932  1.00  0.00    -0.206 F 
ATOM     90  C   UNL A   1      42.703  20.765  26.349  1.00  0.00     0.006 A 
ENDBRANCH  62  83
BRANCH  74  91
ATOM     91  C   UNL A   1      46.327  28.574  28.532  1.00  0.00     0.057 A 
ATOM     92  C   UNL A   1      45.382  29.305  27.793  1.00  0.00     0.134 A 
ATOM     93  C   UNL A   1      47.668  28.725  28.166  1.00  0.00     0.134 A 
ATOM     94  F   UNL A   1      44.087  29.304  28.133  1.00  0.00    -0.206 F 
ATOM     95  C   UNL A   1      45.755  30.114  26.714  1.00  0.00     0.040 A 
ATOM     96  C   UNL A   1      48.057  29.555  27.113  1.00  0.00     0.040 A 
ATOM     97  F   UNL A   1      48.631  28.103  28.863  1.00  0.00    -0.206 F 
ATOM     98  C   UNL A   1      47.098  30.246  26.376  1.00  0.00     0.006 A 
ENDBRANCH  74  91
ENDBRANCH  48  49
ENDBRANCH  41  43
ENDBRANCH  40  41
ENDBRANCH  39  40
ENDBRANCH  38  39
ENDBRANCH  37  38
ENDBRANCH  36  37
ENDBRANCH  35  36
ENDBRANCH  34  35
ENDBRANCH   1  34
TORSDOF 24
ENDMDL
MODEL 3
REMARK VINA RESULT:      -9.7      2.306      3.314
REMARK SMILES Cc1ccn(-c2cccc(NS(=O)(=O)c3cc(C(=O)OCCOCCOCCOCCOC(=O)c4ccc(-c5c6nc(c(-c7c(F)cccc7F)c7ccc([nH]7)c(-c7c(F)cccc7F)c7nc(c(-c8c(F)cccc8F)c8ccc5[nH]8)C=C7)C=C6)cc4)cc(F)c3C)c2)n1
REMARK SMILES IDX 25 1 24 2 23 3 22 4 21 5 20 6 18 7 19 8 17 9 15 10 16 11
REMARK SMILES IDX 92 12 90 13 93 14 89 15 91 16 12 17 13 18 14 19 11 20 10 22
REMARK SMILES IDX 6 23 7 24 94 25 8 26 9 27 5 28 1 29 2 30 3 31 95 32 4 33
REMARK SMILES IDX 26 34 27 35 28 36 29 37 30 38 31 39 32 40 33 41 34 42 35 43
REMARK SMILES IDX 36 44 88 45 37 46 87 47 38 48 39 49 40 50 81 51 41 52 86 53
REMARK SMILES IDX 80 54 82 55 42 56 85 57 79 58 78 59 43 61 69 62 52 63 68 64
REMARK SMILES IDX 53 65 56 66 67 67 83 68 54 69 55 70 66 72 84 73 57 74 44 75
REMARK SMILES IDX 45 76 50 77 46 78 47 79 49 80 51 81 48 82 70 83 71 84 76 85
REMARK SMILES IDX 72 86 73 87 75 88 77 89 74 90 58 91 59 92 64 93 60 94 61 95
REMARK SMILES IDX 63 96 65 97 62 98
REMARK H PARENT 11 21 82 60 56 71
REMARK Flexibility Score: inf
ROOT
ATOM      1  C   UNL A   1      33.933  36.205  32.036  1.00  0.00     0.188 C 
ENDROOT
BRANCH   1   2
ATOM      2  C   UNL A   1      32.526  36.064  31.411  1.00  0.00     0.188 C 
BRANCH   2   3
ATOM      3  O   UNL A   1      32.511  35.404  30.163  1.00  0.00    -0.376 OA
BRANCH   3   4
ATOM      4  C   UNL A   1      33.060  35.984  28.999  1.00  0.00     0.202 C 
BRANCH   4   5
ATOM      5  C   UNL A   1      34.409  35.603  28.362  1.00  0.00     0.261 C 
BRANCH   5   6
ATOM      6  O   UNL A   1      34.576  34.263  27.898  1.00  0.00    -0.460 OA
BRANCH   6   7
ATOM      7  C   UNL A   1      35.053  33.366  28.781  1.00  0.00     0.338 C 
ATOM      8  O   UNL A   1      35.375  33.558  29.944  1.00  0.00    -0.246 OA
BRANCH   7   9
ATOM      9  C   UNL A   1      34.895  32.027  28.178  1.00  0.00     0.064 A 
ATOM     10  C   UNL A   1      33.471  30.444  26.981  1.00  0.00     0.094 A 
ATOM     11  C   UNL A   1      33.691  31.724  27.534  1.00  0.00     0.038 A 
ATOM     12  C   UNL A   1      34.483  29.472  27.037  1.00  0.00     0.005 A 
ATOM     13  C   UNL A   1      35.710  29.844  27.618  1.00  0.00     0.128 A 
ATOM     14  C   UNL A   1      34.342  28.046  26.595  1.00  0.00     0.049 C 
ATOM     15  C   UNL A   1      35.927  31.097  28.189  1.00  0.00     0.055 A 
ATOM     16  F   UNL A   1      36.707  28.949  27.672  1.00  0.00    -0.207 F 
BRANCH  10  17
ATOM     17  S   UNL A   1      31.830  30.142  26.351  1.00  0.00     0.262 S 
ATOM     18  O   UNL A   1      31.230  31.431  26.078  1.00  0.00    -0.201 OA
ATOM     19  O   UNL A   1      31.175  29.239  27.274  1.00  0.00    -0.201 OA
BRANCH  17  20
ATOM     20  N   UNL A   1      31.943  29.349  24.869  1.00  0.00    -0.280 N 
ATOM     21  H   UNL A   1      32.601  29.714  24.235  1.00  0.00     0.180 HD
BRANCH  20  22
ATOM     22  C   UNL A   1      31.200  28.210  24.415  1.00  0.00     0.051 A 
ATOM     23  C   UNL A   1      31.198  25.851  23.894  1.00  0.00     0.067 A 
ATOM     24  C   UNL A   1      29.847  25.903  23.534  1.00  0.00     0.028 A 
ATOM     25  C   UNL A   1      31.855  26.971  24.424  1.00  0.00     0.055 A 
ATOM     26  C   UNL A   1      29.212  27.121  23.502  1.00  0.00     0.004 A 
ATOM     27  C   UNL A   1      29.939  28.261  23.825  1.00  0.00     0.027 A 
BRANCH  23  28
ATOM     28  N   UNL A   1      31.916  24.694  23.529  1.00  0.00    -0.241 N 
ATOM     29  C   UNL A   1      32.142  21.290  22.576  1.00  0.00     0.069 C 
ATOM     30  C   UNL A   1      32.366  22.699  22.974  1.00  0.00     0.060 A 
ATOM     31  C   UNL A   1      33.583  23.404  22.879  1.00  0.00     0.045 A 
ATOM     32  N   UNL A   1      31.379  23.456  23.480  1.00  0.00    -0.173 NA
ATOM     33  C   UNL A   1      33.263  24.684  23.238  1.00  0.00     0.115 A 
ENDBRANCH  23  28
ENDBRANCH  20  22
ENDBRANCH  17  20
ENDBRANCH  10  17
ENDBRANCH   7   9
ENDBRANCH   6   7
ENDBRANCH   5   6
ENDBRANCH   4   5
ENDBRANCH   3   4
ENDBRANCH   2   3
ENDBRANCH   1   2
BRANCH   1  34
ATOM     34  O   UNL A   1      34.301  35.203  32.966  1.00  0.00    -0.377 OA
BRANCH  34  35
ATOM     35  C   UNL A   1      35.636  35.194  33.470  1.00  0.00     0.188 C 
BRANCH  35  36
ATOM     36  C   UNL A   1      36.154  34.182  34.536  1.00  0.00     0.188 C 
BRANCH  36  37
ATOM     37  O   UNL A   1      35.778  32.825  34.355  1.00  0.00    -0.376 OA
BRANCH  37  38
ATOM     38  C   UNL A   1      35.999  32.107  33.157  1.00  0.00     0.202 C 
BRANCH  38  39
ATOM     39  C   UNL A   1      37.143  31.099  33.156  1.00  0.00     0.261 C 
BRANCH  39  40
ATOM     40  O   UNL A   1      37.232  30.383  31.942  1.00  0.00    -0.460 OA
BRANCH  40  41
ATOM     41  C   UNL A   1      38.086  30.912  31.055  1.00  0.00     0.338 C 
ATOM     42  O   UNL A   1      38.351  32.101  30.893  1.00  0.00    -0.246 OA
BRANCH  41  43
ATOM     43  C   UNL A   1      38.576  29.838  30.197  1.00  0.00     0.060 A 
ATOM     44  C   UNL A   1      39.010  28.707  30.884  1.00  0.00     0.016 A 
ATOM     45  C   UNL A   1      39.062  30.205  28.933  1.00  0.00     0.016 A 
ATOM     46  C   UNL A   1      40.206  28.175  30.491  1.00  0.00     0.010 A 
ATOM     47  C   UNL A   1      40.272  29.696  28.562  1.00  0.00     0.010 A 
ATOM     48  C   UNL A   1      40.869  28.776  29.416  1.00  0.00    -0.014 A 
BRANCH  48  49
ATOM     49  C   UNL A   1      42.215  28.346  29.151  1.00  0.00     0.031 A 
ATOM     50  C   UNL A   1      42.234  27.036  28.482  1.00  0.00     0.074 A 
ATOM     51  C   UNL A   1      43.272  29.129  29.424  1.00  0.00     0.049 A 
ATOM     52  N   UNL A   1      42.648  25.912  28.959  1.00  0.00    -0.248 NA
ATOM     53  C   UNL A   1      41.484  26.921  27.218  1.00  0.00     0.031 C 
ATOM     54  C   UNL A   1      43.287  30.538  29.831  1.00  0.00     0.029 A 
ATOM     55  N   UNL A   1      44.589  28.838  29.284  1.00  0.00    -0.354 N 
ATOM     56  C   UNL A   1      42.420  24.990  27.945  1.00  0.00     0.074 A 
ATOM     57  C   UNL A   1      41.502  25.605  27.029  1.00  0.00     0.031 C 
ATOM     58  C   UNL A   1      44.538  31.030  29.674  1.00  0.00     0.029 A 
ATOM     59  C   UNL A   1      45.421  29.948  29.278  1.00  0.00     0.049 A 
ATOM     60  H   UNL A   1      44.925  27.917  29.196  1.00  0.00     0.167 HD
ATOM     61  C   UNL A   1      43.264  23.940  27.777  1.00  0.00     0.037 A 
ATOM     62  C   UNL A   1      46.713  29.949  28.862  1.00  0.00     0.037 A 
ATOM     63  C   UNL A   1      43.977  23.655  29.000  1.00  0.00     0.049 A 
ATOM     64  C   UNL A   1      47.175  28.534  28.852  1.00  0.00     0.074 A 
ATOM     65  C   UNL A   1      43.595  23.330  30.289  1.00  0.00     0.029 A 
ATOM     66  N   UNL A   1      45.285  24.064  29.092  1.00  0.00    -0.354 N 
ATOM     67  N   UNL A   1      47.361  27.822  29.929  1.00  0.00    -0.248 NA
ATOM     68  C   UNL A   1      46.972  27.767  27.630  1.00  0.00     0.031 C 
ATOM     69  C   UNL A   1      44.529  23.996  31.136  1.00  0.00     0.029 A 
ATOM     70  C   UNL A   1      45.459  24.643  30.322  1.00  0.00     0.049 A 
ATOM     71  H   UNL A   1      45.974  23.960  28.397  1.00  0.00     0.167 HD
ATOM     72  C   UNL A   1      46.881  26.558  29.610  1.00  0.00     0.074 A 
ATOM     73  C   UNL A   1      46.730  26.564  28.157  1.00  0.00     0.031 C 
ATOM     74  C   UNL A   1      46.372  25.734  30.573  1.00  0.00     0.037 A 
BRANCH  61  75
ATOM     75  C   UNL A   1      43.760  23.505  26.415  1.00  0.00     0.057 A 
ATOM     76  C   UNL A   1      43.646  22.149  26.070  1.00  0.00     0.134 A 
ATOM     77  C   UNL A   1      44.601  24.265  25.571  1.00  0.00     0.134 A 
ATOM     78  F   UNL A   1      42.869  21.320  26.783  1.00  0.00    -0.206 F 
ATOM     79  C   UNL A   1      44.400  21.572  25.042  1.00  0.00     0.040 A 
ATOM     80  C   UNL A   1      45.320  23.708  24.511  1.00  0.00     0.040 A 
ATOM     81  F   UNL A   1      44.860  25.563  25.759  1.00  0.00    -0.206 F 
ATOM     82  C   UNL A   1      45.253  22.348  24.269  1.00  0.00     0.006 A 
ENDBRANCH  61  75
BRANCH  62  83
ATOM     83  C   UNL A   1      47.443  31.024  28.152  1.00  0.00     0.057 A 
ATOM     84  C   UNL A   1      46.888  31.650  27.027  1.00  0.00     0.134 A 
ATOM     85  C   UNL A   1      48.573  31.647  28.710  1.00  0.00     0.134 A 
ATOM     86  F   UNL A   1      45.783  31.157  26.449  1.00  0.00    -0.206 F 
ATOM     87  C   UNL A   1      47.414  32.838  26.500  1.00  0.00     0.040 A 
ATOM     88  C   UNL A   1      49.113  32.827  28.189  1.00  0.00     0.040 A 
ATOM     89  F   UNL A   1      49.139  31.186  29.833  1.00  0.00    -0.206 F 
ATOM     90  C   UNL A   1      48.525  33.436  27.088  1.00  0.00     0.006 A 
ENDBRANCH  62  83
BRANCH  74  91
ATOM     91  C   UNL A   1      46.576  26.128  32.009  1.00  0.00     0.057 A 
ATOM     92  C   UNL A   1      45.668  26.905  32.747  1.00  0.00     0.134 A 
ATOM     93  C   UNL A   1      47.652  25.576  32.713  1.00  0.00     0.134 A 
ATOM     94  F   UNL A   1      44.555  27.390  32.182  1.00  0.00    -0.206 F 
ATOM     95  C   UNL A   1      45.848  27.154  34.111  1.00  0.00     0.040 A 
ATOM     96  C   UNL A   1      47.825  25.789  34.082  1.00  0.00     0.040 A 
ATOM     97  F   UNL A   1      48.528  24.775  32.086  1.00  0.00    -0.206 F 
ATOM     98  C   UNL A   1      46.927  26.589  34.784  1.00  0.00     0.006 A 
ENDBRANCH  74  91
ENDBRANCH  48  49
ENDBRANCH  41  43
ENDBRANCH  40  41
ENDBRANCH  39  40
ENDBRANCH  38  39
ENDBRANCH  37  38
ENDBRANCH  36  37
ENDBRANCH  35  36
ENDBRANCH  34  35
ENDBRANCH   1  34
TORSDOF 24
ENDMDL
