MODEL 1
REMARK VINA RESULT:      -9.8      0.000      0.000
REMARK SMILES CCc1c(C)nc(Nc2cc(Cl)ccc2C)nc1OCC(=O)OCCOCCOCCOCCOC(=O)c1ccc(-c2c3nc(c(-c4c(F)cccc4F)c4ccc([nH]4)c(-c4c(F)cccc4F)c4nc(c(-c5c(F)cccc5F)c5ccc2[nH]5)C=C4)C=C3)cc1
REMARK SMILES IDX 28 1 27 2 26 3 25 4 24 5 23 6 21 7 22 8 20 9 19 10 18 11
REMARK SMILES IDX 3 12 4 13 5 14 6 15 17 16 7 17 2 18 1 19 8 20 9 22 10 23
REMARK SMILES IDX 15 24 11 25 14 26 16 27 12 28 13 29 29 30 30 31 31 32 32 33
REMARK SMILES IDX 33 34 34 35 35 36 36 37 37 38 38 39 39 40 91 41 40 42 90 43
REMARK SMILES IDX 41 44 42 45 43 46 84 47 44 48 89 49 83 50 85 51 45 52 88 53
REMARK SMILES IDX 82 54 81 55 46 57 72 58 55 59 71 60 56 61 59 62 70 63 86 64
REMARK SMILES IDX 57 65 58 66 69 68 87 69 60 70 47 71 48 72 53 73 49 74 50 75
REMARK SMILES IDX 52 76 54 77 51 78 73 79 74 80 79 81 75 82 76 83 78 84 80 85
REMARK SMILES IDX 77 86 61 87 62 88 67 89 63 90 64 91 66 92 68 93 65 94
REMARK H PARENT 8 21 85 56 59 67
REMARK Flexibility Score: inf
ROOT
ATOM      1  C   UNL A   1      34.151  25.298  24.923  1.00  0.00     0.188 C 
ENDROOT
BRANCH   1   2
ATOM      2  C   UNL A   1      33.978  26.636  24.166  1.00  0.00     0.188 C 
BRANCH   2   3
ATOM      3  O   UNL A   1      33.781  26.669  22.758  1.00  0.00    -0.376 OA
BRANCH   3   4
ATOM      4  C   UNL A   1      32.478  26.442  22.249  1.00  0.00     0.202 C 
BRANCH   4   5
ATOM      5  C   UNL A   1      32.330  25.489  21.048  1.00  0.00     0.261 C 
BRANCH   5   6
ATOM      6  O   UNL A   1      33.351  24.469  20.933  1.00  0.00    -0.461 OA
BRANCH   6   7
ATOM      7  C   UNL A   1      33.403  23.521  21.908  1.00  0.00     0.344 C 
ATOM      8  O   UNL A   1      34.446  23.081  22.379  1.00  0.00    -0.248 OA
BRANCH   7   9
ATOM      9  C   UNL A   1      32.001  22.997  22.340  1.00  0.00     0.353 C 
BRANCH   9  10
ATOM     10  O   UNL A   1      31.758  22.194  23.469  1.00  0.00    -0.465 OA
BRANCH  10  11
ATOM     11  C   UNL A   1      31.723  22.412  24.805  1.00  0.00     0.222 A 
ATOM     12  C   UNL A   1      32.426  21.830  25.856  1.00  0.00     0.035 A 
ATOM     13  C   UNL A   1      32.464  22.641  27.015  1.00  0.00     0.050 A 
ATOM     14  C   UNL A   1      33.343  22.364  28.210  1.00  0.00     0.067 C 
ATOM     15  N   UNL A   1      31.732  23.756  27.187  1.00  0.00    -0.218 NA
ATOM     16  N   UNL A   1      30.981  23.548  24.997  1.00  0.00    -0.177 NA
ATOM     17  C   UNL A   1      30.964  24.160  26.188  1.00  0.00     0.230 A 
BRANCH  12  18
ATOM     18  C   UNL A   1      33.207  20.545  25.981  1.00  0.00     0.040 C 
ATOM     19  C   UNL A   1      33.762  19.771  24.813  1.00  0.00     0.009 C 
ENDBRANCH  12  18
BRANCH  17  20
ATOM     20  N   UNL A   1      30.183  25.310  26.363  1.00  0.00    -0.324 N 
ATOM     21  H   UNL A   1      29.316  25.197  26.817  1.00  0.00     0.170 HD
BRANCH  20  22
ATOM     22  C   UNL A   1      30.522  26.613  25.951  1.00  0.00     0.045 A 
ATOM     23  C   UNL A   1      31.353  27.410  26.750  1.00  0.00     0.047 A 
ATOM     24  C   UNL A   1      30.064  27.148  24.733  1.00  0.00    -0.027 A 
ATOM     25  C   UNL A   1      31.767  28.673  26.314  1.00  0.00     0.043 A 
ATOM     26  C   UNL A   1      30.541  28.391  24.275  1.00  0.00     0.007 A 
ATOM     27  C   UNL A   1      29.003  26.473  23.925  1.00  0.00     0.046 C 
ATOM     28  Cl  UNL A   1      32.732  29.665  27.339  1.00  0.00    -0.084 Cl
ATOM     29  C   UNL A   1      31.399  29.149  25.061  1.00  0.00     0.021 A 
ENDBRANCH  20  22
ENDBRANCH  17  20
ENDBRANCH  10  11
ENDBRANCH   9  10
ENDBRANCH   7   9
ENDBRANCH   6   7
ENDBRANCH   5   6
ENDBRANCH   4   5
ENDBRANCH   3   4
ENDBRANCH   2   3
ENDBRANCH   1   2
BRANCH   1  30
ATOM     30  O   UNL A   1      35.501  24.895  25.081  1.00  0.00    -0.377 OA
BRANCH  30  31
ATOM     31  C   UNL A   1      35.643  23.557  25.517  1.00  0.00     0.188 C 
BRANCH  31  32
ATOM     32  C   UNL A   1      37.010  22.930  25.189  1.00  0.00     0.188 C 
BRANCH  32  33
ATOM     33  O   UNL A   1      36.889  21.644  24.593  1.00  0.00    -0.376 OA
BRANCH  33  34
ATOM     34  C   UNL A   1      37.772  20.599  24.954  1.00  0.00     0.202 C 
BRANCH  34  35
ATOM     35  C   UNL A   1      39.106  20.941  25.624  1.00  0.00     0.261 C 
BRANCH  35  36
ATOM     36  O   UNL A   1      39.808  19.831  26.189  1.00  0.00    -0.460 OA
BRANCH  36  37
ATOM     37  C   UNL A   1      41.155  19.786  26.053  1.00  0.00     0.338 C 
ATOM     38  O   UNL A   1      41.809  18.956  25.485  1.00  0.00    -0.246 OA
BRANCH  37  39
ATOM     39  C   UNL A   1      41.665  21.075  26.587  1.00  0.00     0.060 A 
ATOM     40  C   UNL A   1      41.579  21.287  27.965  1.00  0.00     0.016 A 
ATOM     41  C   UNL A   1      42.282  22.024  25.762  1.00  0.00     0.016 A 
ATOM     42  C   UNL A   1      42.083  22.461  28.516  1.00  0.00     0.010 A 
ATOM     43  C   UNL A   1      42.768  23.211  26.309  1.00  0.00     0.010 A 
ATOM     44  C   UNL A   1      42.632  23.446  27.684  1.00  0.00    -0.014 A 
BRANCH  44  45
ATOM     45  C   UNL A   1      42.820  24.805  28.229  1.00  0.00     0.031 A 
ATOM     46  C   UNL A   1      44.222  25.226  28.569  1.00  0.00     0.074 A 
ATOM     47  C   UNL A   1      41.789  25.655  28.351  1.00  0.00     0.049 A 
ATOM     48  N   UNL A   1      44.668  26.384  28.975  1.00  0.00    -0.248 NA
ATOM     49  C   UNL A   1      45.267  24.196  28.421  1.00  0.00     0.031 C 
ATOM     50  C   UNL A   1      40.396  25.348  28.026  1.00  0.00     0.029 A 
ATOM     51  N   UNL A   1      41.759  26.959  28.771  1.00  0.00    -0.354 N 
ATOM     52  C   UNL A   1      46.041  26.226  29.119  1.00  0.00     0.074 A 
ATOM     53  C   UNL A   1      46.352  24.852  28.800  1.00  0.00     0.031 C 
ATOM     54  C   UNL A   1      39.647  26.440  28.255  1.00  0.00     0.029 A 
ATOM     55  C   UNL A   1      40.504  27.512  28.757  1.00  0.00     0.049 A 
ATOM     56  H   UNL A   1      42.563  27.451  29.057  1.00  0.00     0.167 HD
ATOM     57  C   UNL A   1      46.961  27.152  29.471  1.00  0.00     0.037 A 
ATOM     58  C   UNL A   1      40.104  28.747  29.118  1.00  0.00     0.037 A 
ATOM     59  C   UNL A   1      46.634  28.510  29.803  1.00  0.00     0.049 A 
ATOM     60  C   UNL A   1      41.140  29.740  29.578  1.00  0.00     0.074 A 
ATOM     61  C   UNL A   1      47.482  29.539  30.167  1.00  0.00     0.029 A 
ATOM     62  N   UNL A   1      45.344  29.024  29.826  1.00  0.00    -0.354 N 
ATOM     63  N   UNL A   1      42.442  29.599  29.664  1.00  0.00    -0.248 NA
ATOM     64  C   UNL A   1      40.652  31.065  29.985  1.00  0.00     0.031 C 
ATOM     65  C   UNL A   1      46.700  30.660  30.463  1.00  0.00     0.029 A 
ATOM     66  C   UNL A   1      45.370  30.346  30.228  1.00  0.00     0.049 A 
ATOM     67  H   UNL A   1      44.531  28.519  29.591  1.00  0.00     0.167 HD
ATOM     68  C   UNL A   1      42.931  30.822  30.105  1.00  0.00     0.074 A 
ATOM     69  C   UNL A   1      41.785  31.697  30.256  1.00  0.00     0.031 C 
ATOM     70  C   UNL A   1      44.211  31.193  30.363  1.00  0.00     0.037 A 
BRANCH  57  71
ATOM     71  C   UNL A   1      48.392  26.705  29.548  1.00  0.00     0.057 A 
ATOM     72  C   UNL A   1      49.259  26.796  28.451  1.00  0.00     0.134 A 
ATOM     73  C   UNL A   1      48.909  26.175  30.735  1.00  0.00     0.134 A 
ATOM     74  F   UNL A   1      48.820  27.273  27.275  1.00  0.00    -0.206 F 
ATOM     75  C   UNL A   1      50.581  26.352  28.524  1.00  0.00     0.040 A 
ATOM     76  C   UNL A   1      50.237  25.753  30.831  1.00  0.00     0.040 A 
ATOM     77  F   UNL A   1      48.133  26.055  31.824  1.00  0.00    -0.206 F 
ATOM     78  C   UNL A   1      51.074  25.835  29.720  1.00  0.00     0.006 A 
ENDBRANCH  57  71
BRANCH  58  79
ATOM     79  C   UNL A   1      38.666  29.117  29.053  1.00  0.00     0.057 A 
ATOM     80  C   UNL A   1      38.082  29.574  27.865  1.00  0.00     0.134 A 
ATOM     81  C   UNL A   1      37.845  29.038  30.184  1.00  0.00     0.134 A 
ATOM     82  F   UNL A   1      38.820  29.691  26.752  1.00  0.00    -0.206 F 
ATOM     83  C   UNL A   1      36.740  29.957  27.809  1.00  0.00     0.040 A 
ATOM     84  C   UNL A   1      36.495  29.394  30.137  1.00  0.00     0.040 A 
ATOM     85  F   UNL A   1      38.340  28.608  31.354  1.00  0.00    -0.206 F 
ATOM     86  C   UNL A   1      35.941  29.863  28.947  1.00  0.00     0.006 A 
ENDBRANCH  58  79
BRANCH  70  87
ATOM     87  C   UNL A   1      44.439  32.612  30.797  1.00  0.00     0.057 A 
ATOM     88  C   UNL A   1      44.460  32.978  32.148  1.00  0.00     0.134 A 
ATOM     89  C   UNL A   1      44.689  33.612  29.850  1.00  0.00     0.134 A 
ATOM     90  F   UNL A   1      44.218  32.069  33.104  1.00  0.00    -0.206 F 
ATOM     91  C   UNL A   1      44.698  34.296  32.540  1.00  0.00     0.040 A 
ATOM     92  C   UNL A   1      44.958  34.927  30.231  1.00  0.00     0.040 A 
ATOM     93  F   UNL A   1      44.696  33.325  28.538  1.00  0.00    -0.206 F 
ATOM     94  C   UNL A   1      44.956  35.273  31.580  1.00  0.00     0.006 A 
ENDBRANCH  70  87
ENDBRANCH  44  45
ENDBRANCH  37  39
ENDBRANCH  36  37
ENDBRANCH  35  36
ENDBRANCH  34  35
ENDBRANCH  33  34
ENDBRANCH  32  33
ENDBRANCH  31  32
ENDBRANCH  30  31
ENDBRANCH   1  30
TORSDOF 25
ENDMDL
MODEL 2
REMARK VINA RESULT:      -8.8      1.755      6.124
REMARK SMILES CCc1c(C)nc(Nc2cc(Cl)ccc2C)nc1OCC(=O)OCCOCCOCCOCCOC(=O)c1ccc(-c2c3nc(c(-c4c(F)cccc4F)c4ccc([nH]4)c(-c4c(F)cccc4F)c4nc(c(-c5c(F)cccc5F)c5ccc2[nH]5)C=C4)C=C3)cc1
REMARK SMILES IDX 28 1 27 2 26 3 25 4 24 5 23 6 21 7 22 8 20 9 19 10 18 11
REMARK SMILES IDX 3 12 4 13 5 14 6 15 17 16 7 17 2 18 1 19 8 20 9 22 10 23
REMARK SMILES IDX 15 24 11 25 14 26 16 27 12 28 13 29 29 30 30 31 31 32 32 33
REMARK SMILES IDX 33 34 34 35 35 36 36 37 37 38 38 39 39 40 91 41 40 42 90 43
REMARK SMILES IDX 41 44 42 45 43 46 84 47 44 48 89 49 83 50 85 51 45 52 88 53
REMARK SMILES IDX 82 54 81 55 46 57 72 58 55 59 71 60 56 61 59 62 70 63 86 64
REMARK SMILES IDX 57 65 58 66 69 68 87 69 60 70 47 71 48 72 53 73 49 74 50 75
REMARK SMILES IDX 52 76 54 77 51 78 73 79 74 80 79 81 75 82 76 83 78 84 80 85
REMARK SMILES IDX 77 86 61 87 62 88 67 89 63 90 64 91 66 92 68 93 65 94
REMARK H PARENT 8 21 85 56 59 67
REMARK Flexibility Score: inf
ROOT
ATOM      1  C   UNL A   1      34.007  25.822  24.838  1.00  0.00     0.188 C 
ENDROOT
BRANCH   1   2
ATOM      2  C   UNL A   1      34.369  27.314  24.651  1.00  0.00     0.188 C 
BRANCH   2   3
ATOM      3  O   UNL A   1      34.255  27.948  23.383  1.00  0.00    -0.376 OA
BRANCH   3   4
ATOM      4  C   UNL A   1      33.165  27.601  22.546  1.00  0.00     0.202 C 
BRANCH   4   5
ATOM      5  C   UNL A   1      33.435  26.633  21.379  1.00  0.00     0.261 C 
BRANCH   5   6
ATOM      6  O   UNL A   1      32.518  25.519  21.269  1.00  0.00    -0.461 OA
BRANCH   6   7
ATOM      7  C   UNL A   1      32.870  24.353  21.878  1.00  0.00     0.344 C 
ATOM      8  O   UNL A   1      34.029  23.970  22.002  1.00  0.00    -0.248 OA
BRANCH   7   9
ATOM      9  C   UNL A   1      31.651  23.511  22.361  1.00  0.00     0.353 C 
BRANCH   9  10
ATOM     10  O   UNL A   1      31.665  22.640  23.465  1.00  0.00    -0.465 OA
BRANCH  10  11
ATOM     11  C   UNL A   1      31.658  22.804  24.809  1.00  0.00     0.222 A 
ATOM     12  C   UNL A   1      32.305  22.111  25.828  1.00  0.00     0.035 A 
ATOM     13  C   UNL A   1      32.428  22.864  27.020  1.00  0.00     0.050 A 
ATOM     14  C   UNL A   1      33.281  22.451  28.195  1.00  0.00     0.067 C 
ATOM     15  N   UNL A   1      31.813  24.038  27.244  1.00  0.00    -0.218 NA
ATOM     16  N   UNL A   1      31.035  23.999  25.054  1.00  0.00    -0.177 NA
ATOM     17  C   UNL A   1      31.085  24.558  26.270  1.00  0.00     0.230 A 
BRANCH  12  18
ATOM     18  C   UNL A   1      32.954  20.750  25.894  1.00  0.00     0.040 C 
ATOM     19  C   UNL A   1      33.001  19.776  24.744  1.00  0.00     0.009 C 
ENDBRANCH  12  18
BRANCH  17  20
ATOM     20  N   UNL A   1      30.423  25.773  26.500  1.00  0.00    -0.324 N 
ATOM     21  H   UNL A   1      29.735  25.781  27.205  1.00  0.00     0.170 HD
BRANCH  20  22
ATOM     22  C   UNL A   1      30.650  26.983  25.817  1.00  0.00     0.045 A 
ATOM     23  C   UNL A   1      30.104  27.185  24.542  1.00  0.00     0.047 A 
ATOM     24  C   UNL A   1      31.404  28.026  26.387  1.00  0.00    -0.027 A 
ATOM     25  C   UNL A   1      30.249  28.413  23.888  1.00  0.00     0.043 A 
ATOM     26  C   UNL A   1      31.485  29.278  25.749  1.00  0.00     0.007 A 
ATOM     27  C   UNL A   1      32.209  27.829  27.631  1.00  0.00     0.046 C 
ATOM     28  Cl  UNL A   1      29.630  28.618  22.295  1.00  0.00    -0.084 Cl
ATOM     29  C   UNL A   1      30.901  29.474  24.504  1.00  0.00     0.021 A 
ENDBRANCH  20  22
ENDBRANCH  17  20
ENDBRANCH  10  11
ENDBRANCH   9  10
ENDBRANCH   7   9
ENDBRANCH   6   7
ENDBRANCH   5   6
ENDBRANCH   4   5
ENDBRANCH   3   4
ENDBRANCH   2   3
ENDBRANCH   1   2
BRANCH   1  30
ATOM     30  O   UNL A   1      34.847  25.133  25.748  1.00  0.00    -0.377 OA
BRANCH  30  31
ATOM     31  C   UNL A   1      35.457  23.983  25.194  1.00  0.00     0.188 C 
BRANCH  31  32
ATOM     32  C   UNL A   1      36.486  23.308  26.120  1.00  0.00     0.188 C 
BRANCH  32  33
ATOM     33  O   UNL A   1      37.625  22.836  25.413  1.00  0.00    -0.376 OA
BRANCH  33  34
ATOM     34  C   UNL A   1      38.139  21.541  25.661  1.00  0.00     0.202 C 
BRANCH  34  35
ATOM     35  C   UNL A   1      39.604  21.383  26.080  1.00  0.00     0.261 C 
BRANCH  35  36
ATOM     36  O   UNL A   1      40.016  20.044  26.369  1.00  0.00    -0.460 OA
BRANCH  36  37
ATOM     37  C   UNL A   1      41.313  19.713  26.167  1.00  0.00     0.338 C 
ATOM     38  O   UNL A   1      41.753  18.665  25.783  1.00  0.00    -0.246 OA
BRANCH  37  39
ATOM     39  C   UNL A   1      42.089  20.969  26.334  1.00  0.00     0.060 A 
ATOM     40  C   UNL A   1      42.286  21.443  27.633  1.00  0.00     0.016 A 
ATOM     41  C   UNL A   1      42.673  21.627  25.244  1.00  0.00     0.016 A 
ATOM     42  C   UNL A   1      43.042  22.593  27.842  1.00  0.00     0.010 A 
ATOM     43  C   UNL A   1      43.413  22.792  25.449  1.00  0.00     0.010 A 
ATOM     44  C   UNL A   1      43.564  23.296  26.748  1.00  0.00    -0.014 A 
BRANCH  44  45
ATOM     45  C   UNL A   1      44.038  24.678  26.960  1.00  0.00     0.031 A 
ATOM     46  C   UNL A   1      43.023  25.699  27.392  1.00  0.00     0.074 A 
ATOM     47  C   UNL A   1      45.337  24.994  26.839  1.00  0.00     0.049 A 
ATOM     48  N   UNL A   1      43.192  26.949  27.728  1.00  0.00    -0.248 NA
ATOM     49  C   UNL A   1      41.624  25.240  27.461  1.00  0.00     0.031 C 
ATOM     50  C   UNL A   1      46.401  24.070  26.448  1.00  0.00     0.029 A 
ATOM     51  N   UNL A   1      45.982  26.185  27.047  1.00  0.00    -0.354 N 
ATOM     52  C   UNL A   1      41.927  27.421  28.058  1.00  0.00     0.074 A 
ATOM     53  C   UNL A   1      40.994  26.339  27.843  1.00  0.00     0.031 C 
ATOM     54  C   UNL A   1      47.571  24.731  26.451  1.00  0.00     0.029 A 
ATOM     55  C   UNL A   1      47.334  26.123  26.825  1.00  0.00     0.049 A 
ATOM     56  H   UNL A   1      45.518  27.007  27.329  1.00  0.00     0.167 HD
ATOM     57  C   UNL A   1      41.579  28.644  28.516  1.00  0.00     0.037 A 
ATOM     58  C   UNL A   1      48.266  27.092  26.914  1.00  0.00     0.037 A 
ATOM     59  C   UNL A   1      42.516  29.716  28.709  1.00  0.00     0.049 A 
ATOM     60  C   UNL A   1      47.842  28.469  27.356  1.00  0.00     0.074 A 
ATOM     61  C   UNL A   1      42.281  30.995  29.175  1.00  0.00     0.029 A 
ATOM     62  N   UNL A   1      43.873  29.631  28.426  1.00  0.00    -0.354 N 
ATOM     63  N   UNL A   1      46.653  28.894  27.714  1.00  0.00    -0.248 NA
ATOM     64  C   UNL A   1      48.889  29.498  27.412  1.00  0.00     0.031 C 
ATOM     65  C   UNL A   1      43.487  31.703  29.122  1.00  0.00     0.029 A 
ATOM     66  C   UNL A   1      44.483  30.846  28.679  1.00  0.00     0.049 A 
ATOM     67  H   UNL A   1      44.332  28.826  28.094  1.00  0.00     0.167 HD
ATOM     68  C   UNL A   1      46.814  30.228  28.066  1.00  0.00     0.074 A 
ATOM     69  C   UNL A   1      48.219  30.537  27.890  1.00  0.00     0.031 C 
ATOM     70  C   UNL A   1      45.887  31.121  28.498  1.00  0.00     0.037 A 
BRANCH  57  71
ATOM     71  C   UNL A   1      40.125  28.885  28.800  1.00  0.00     0.057 A 
ATOM     72  C   UNL A   1      39.593  28.783  30.091  1.00  0.00     0.134 A 
ATOM     73  C   UNL A   1      39.245  29.222  27.764  1.00  0.00     0.134 A 
ATOM     74  F   UNL A   1      40.377  28.440  31.125  1.00  0.00    -0.206 F 
ATOM     75  C   UNL A   1      38.233  28.982  30.339  1.00  0.00     0.040 A 
ATOM     76  C   UNL A   1      37.889  29.452  28.003  1.00  0.00     0.040 A 
ATOM     77  F   UNL A   1      39.687  29.333  26.502  1.00  0.00    -0.206 F 
ATOM     78  C   UNL A   1      37.378  29.324  29.294  1.00  0.00     0.006 A 
ENDBRANCH  57  71
BRANCH  58  79
ATOM     79  C   UNL A   1      49.685  26.799  26.585  1.00  0.00     0.057 A 
ATOM     80  C   UNL A   1      50.168  26.901  25.275  1.00  0.00     0.134 A 
ATOM     81  C   UNL A   1      50.590  26.391  27.572  1.00  0.00     0.134 A 
ATOM     82  F   UNL A   1      49.347  27.267  24.280  1.00  0.00    -0.206 F 
ATOM     83  C   UNL A   1      51.492  26.591  24.955  1.00  0.00     0.040 A 
ATOM     84  C   UNL A   1      51.923  26.102  27.272  1.00  0.00     0.040 A 
ATOM     85  F   UNL A   1      50.193  26.272  28.848  1.00  0.00    -0.206 F 
ATOM     86  C   UNL A   1      52.375  26.195  25.958  1.00  0.00     0.006 A 
ENDBRANCH  58  79
BRANCH  70  87
ATOM     87  C   UNL A   1      46.371  32.500  28.841  1.00  0.00     0.057 A 
ATOM     88  C   UNL A   1      46.841  32.822  30.120  1.00  0.00     0.134 A 
ATOM     89  C   UNL A   1      46.413  33.502  27.863  1.00  0.00     0.134 A 
ATOM     90  F   UNL A   1      46.818  31.910  31.104  1.00  0.00    -0.206 F 
ATOM     91  C   UNL A   1      47.311  34.101  30.421  1.00  0.00     0.040 A 
ATOM     92  C   UNL A   1      46.908  34.775  28.144  1.00  0.00     0.040 A 
ATOM     93  F   UNL A   1      45.989  33.254  26.614  1.00  0.00    -0.206 F 
ATOM     94  C   UNL A   1      47.353  35.079  29.429  1.00  0.00     0.006 A 
ENDBRANCH  70  87
ENDBRANCH  44  45
ENDBRANCH  37  39
ENDBRANCH  36  37
ENDBRANCH  35  36
ENDBRANCH  34  35
ENDBRANCH  33  34
ENDBRANCH  32  33
ENDBRANCH  31  32
ENDBRANCH  30  31
ENDBRANCH   1  30
TORSDOF 25
ENDMDL
MODEL 3
REMARK VINA RESULT:      -8.7      2.242      3.968
REMARK SMILES CCc1c(C)nc(Nc2cc(Cl)ccc2C)nc1OCC(=O)OCCOCCOCCOCCOC(=O)c1ccc(-c2c3nc(c(-c4c(F)cccc4F)c4ccc([nH]4)c(-c4c(F)cccc4F)c4nc(c(-c5c(F)cccc5F)c5ccc2[nH]5)C=C4)C=C3)cc1
REMARK SMILES IDX 28 1 27 2 26 3 25 4 24 5 23 6 21 7 22 8 20 9 19 10 18 11
REMARK SMILES IDX 3 12 4 13 5 14 6 15 17 16 7 17 2 18 1 19 8 20 9 22 10 23
REMARK SMILES IDX 15 24 11 25 14 26 16 27 12 28 13 29 29 30 30 31 31 32 32 33
REMARK SMILES IDX 33 34 34 35 35 36 36 37 37 38 38 39 39 40 91 41 40 42 90 43
REMARK SMILES IDX 41 44 42 45 43 46 84 47 44 48 89 49 83 50 85 51 45 52 88 53
REMARK SMILES IDX 82 54 81 55 46 57 72 58 55 59 71 60 56 61 59 62 70 63 86 64
REMARK SMILES IDX 57 65 58 66 69 68 87 69 60 70 47 71 48 72 53 73 49 74 50 75
REMARK SMILES IDX 52 76 54 77 51 78 73 79 74 80 79 81 75 82 76 83 78 84 80 85
REMARK SMILES IDX 77 86 61 87 62 88 67 89 63 90 64 91 66 92 68 93 65 94
REMARK H PARENT 8 21 85 56 59 67
REMARK Flexibility Score: inf
ROOT
ATOM      1  C   UNL A   1      33.977  26.034  24.733  1.00  0.00     0.188 C 
ENDROOT
BRANCH   1   2
ATOM      2  C   UNL A   1      34.268  27.553  24.702  1.00  0.00     0.188 C 
BRANCH   2   3
ATOM      3  O   UNL A   1      33.250  28.495  24.389  1.00  0.00    -0.376 OA
BRANCH   3   4
ATOM      4  C   UNL A   1      31.941  28.018  24.127  1.00  0.00     0.202 C 
BRANCH   4   5
ATOM      5  C   UNL A   1      31.486  27.939  22.658  1.00  0.00     0.261 C 
BRANCH   5   6
ATOM      6  O   UNL A   1      30.716  26.765  22.306  1.00  0.00    -0.461 OA
BRANCH   6   7
ATOM      7  C   UNL A   1      31.349  25.560  22.365  1.00  0.00     0.344 C 
ATOM      8  O   UNL A   1      32.428  25.328  21.831  1.00  0.00    -0.248 OA
BRANCH   7   9
ATOM      9  C   UNL A   1      30.541  24.472  23.133  1.00  0.00     0.353 C 
BRANCH   9  10
ATOM     10  O   UNL A   1      31.075  23.257  23.599  1.00  0.00    -0.465 OA
BRANCH  10  11
ATOM     11  C   UNL A   1      31.952  22.911  24.570  1.00  0.00     0.222 A 
ATOM     12  C   UNL A   1      31.991  23.206  25.930  1.00  0.00     0.035 A 
ATOM     13  C   UNL A   1      32.768  22.288  26.676  1.00  0.00     0.050 A 
ATOM     14  C   UNL A   1      32.792  22.234  28.184  1.00  0.00     0.067 C 
ATOM     15  N   UNL A   1      33.564  21.350  26.134  1.00  0.00    -0.218 NA
ATOM     16  N   UNL A   1      32.772  21.952  24.034  1.00  0.00    -0.177 NA
ATOM     17  C   UNL A   1      33.588  21.235  24.817  1.00  0.00     0.230 A 
BRANCH  12  18
ATOM     18  C   UNL A   1      31.322  24.267  26.770  1.00  0.00     0.040 C 
ATOM     19  C   UNL A   1      30.628  25.481  26.208  1.00  0.00     0.009 C 
ENDBRANCH  12  18
BRANCH  17  20
ATOM     20  N   UNL A   1      34.430  20.274  24.241  1.00  0.00    -0.324 N 
ATOM     21  H   UNL A   1      35.281  20.594  23.862  1.00  0.00     0.170 HD
BRANCH  20  22
ATOM     22  C   UNL A   1      34.172  18.892  24.153  1.00  0.00     0.045 A 
ATOM     23  C   UNL A   1      35.055  17.974  24.737  1.00  0.00     0.047 A 
ATOM     24  C   UNL A   1      33.028  18.391  23.506  1.00  0.00    -0.027 A 
ATOM     25  C   UNL A   1      34.769  16.604  24.732  1.00  0.00     0.043 A 
ATOM     26  C   UNL A   1      32.717  17.019  23.566  1.00  0.00     0.007 A 
ATOM     27  C   UNL A   1      32.152  19.263  22.666  1.00  0.00     0.046 C 
ATOM     28  Cl  UNL A   1      35.898  15.486  25.394  1.00  0.00    -0.084 Cl
ATOM     29  C   UNL A   1      33.583  16.127  24.186  1.00  0.00     0.021 A 
ENDBRANCH  20  22
ENDBRANCH  17  20
ENDBRANCH  10  11
ENDBRANCH   9  10
ENDBRANCH   7   9
ENDBRANCH   6   7
ENDBRANCH   5   6
ENDBRANCH   4   5
ENDBRANCH   3   4
ENDBRANCH   2   3
ENDBRANCH   1   2
BRANCH   1  30
ATOM     30  O   UNL A   1      34.816  25.302  25.609  1.00  0.00    -0.377 OA
BRANCH  30  31
ATOM     31  C   UNL A   1      35.509  24.245  24.975  1.00  0.00     0.188 C 
BRANCH  31  32
ATOM     32  C   UNL A   1      36.394  23.414  25.922  1.00  0.00     0.188 C 
BRANCH  32  33
ATOM     33  O   UNL A   1      37.556  22.910  25.277  1.00  0.00    -0.376 OA
BRANCH  33  34
ATOM     34  C   UNL A   1      37.888  21.537  25.363  1.00  0.00     0.202 C 
BRANCH  34  35
ATOM     35  C   UNL A   1      39.171  21.118  26.088  1.00  0.00     0.261 C 
BRANCH  35  36
ATOM     36  O   UNL A   1      39.658  19.814  25.764  1.00  0.00    -0.460 OA
BRANCH  36  37
ATOM     37  C   UNL A   1      40.962  19.538  26.001  1.00  0.00     0.338 C 
ATOM     38  O   UNL A   1      41.540  18.503  25.817  1.00  0.00    -0.246 OA
BRANCH  37  39
ATOM     39  C   UNL A   1      41.598  20.832  26.361  1.00  0.00     0.060 A 
ATOM     40  C   UNL A   1      41.800  21.101  27.716  1.00  0.00     0.016 A 
ATOM     41  C   UNL A   1      42.052  21.729  25.386  1.00  0.00     0.016 A 
ATOM     42  C   UNL A   1      42.430  22.282  28.101  1.00  0.00     0.010 A 
ATOM     43  C   UNL A   1      42.664  22.922  25.768  1.00  0.00     0.010 A 
ATOM     44  C   UNL A   1      42.817  23.215  27.130  1.00  0.00    -0.014 A 
BRANCH  44  45
ATOM     45  C   UNL A   1      43.141  24.589  27.564  1.00  0.00     0.031 A 
ATOM     46  C   UNL A   1      44.583  25.008  27.516  1.00  0.00     0.074 A 
ATOM     47  C   UNL A   1      42.176  25.452  27.921  1.00  0.00     0.049 A 
ATOM     48  N   UNL A   1      45.119  26.175  27.755  1.00  0.00    -0.248 NA
ATOM     49  C   UNL A   1      45.554  23.965  27.137  1.00  0.00     0.031 C 
ATOM     50  C   UNL A   1      40.747  25.148  27.978  1.00  0.00     0.029 A 
ATOM     51  N   UNL A   1      42.257  26.768  28.292  1.00  0.00    -0.354 N 
ATOM     52  C   UNL A   1      46.482  26.009  27.544  1.00  0.00     0.074 A 
ATOM     53  C   UNL A   1      46.700  24.623  27.200  1.00  0.00     0.031 C 
ATOM     54  C   UNL A   1      40.083  26.253  28.357  1.00  0.00     0.029 A 
ATOM     55  C   UNL A   1      41.041  27.332  28.586  1.00  0.00     0.049 A 
ATOM     56  H   UNL A   1      43.108  27.262  28.344  1.00  0.00     0.167 HD
ATOM     57  C   UNL A   1      47.463  26.936  27.616  1.00  0.00     0.037 A 
ATOM     58  C   UNL A   1      40.749  28.581  28.997  1.00  0.00     0.037 A 
ATOM     59  C   UNL A   1      47.234  28.308  27.978  1.00  0.00     0.049 A 
ATOM     60  C   UNL A   1      41.869  29.579  29.142  1.00  0.00     0.074 A 
ATOM     61  C   UNL A   1      48.148  29.340  28.076  1.00  0.00     0.029 A 
ATOM     62  N   UNL A   1      45.994  28.833  28.316  1.00  0.00    -0.354 N 
ATOM     63  N   UNL A   1      43.149  29.429  28.893  1.00  0.00    -0.248 NA
ATOM     64  C   UNL A   1      41.504  30.920  29.618  1.00  0.00     0.031 C 
ATOM     65  C   UNL A   1      47.470  30.476  28.529  1.00  0.00     0.029 A 
ATOM     66  C   UNL A   1      46.124  30.167  28.655  1.00  0.00     0.049 A 
ATOM     67  H   UNL A   1      45.148  28.329  28.317  1.00  0.00     0.167 HD
ATOM     68  C   UNL A   1      43.737  30.660  29.152  1.00  0.00     0.074 A 
ATOM     69  C   UNL A   1      42.669  31.550  29.566  1.00  0.00     0.031 C 
ATOM     70  C   UNL A   1      45.039  31.028  29.058  1.00  0.00     0.037 A 
BRANCH  57  71
ATOM     71  C   UNL A   1      48.865  26.480  27.334  1.00  0.00     0.057 A 
ATOM     72  C   UNL A   1      49.386  26.438  26.035  1.00  0.00     0.134 A 
ATOM     73  C   UNL A   1      49.705  26.074  28.379  1.00  0.00     0.134 A 
ATOM     74  F   UNL A   1      48.626  26.791  24.986  1.00  0.00    -0.206 F 
ATOM     75  C   UNL A   1      50.682  25.986  25.781  1.00  0.00     0.040 A 
ATOM     76  C   UNL A   1      51.012  25.646  28.142  1.00  0.00     0.040 A 
ATOM     77  F   UNL A   1      49.269  26.085  29.648  1.00  0.00    -0.206 F 
ATOM     78  C   UNL A   1      51.501  25.594  26.837  1.00  0.00     0.006 A 
ENDBRANCH  57  71
BRANCH  58  79
ATOM     79  C   UNL A   1      39.344  28.962  29.295  1.00  0.00     0.057 A 
ATOM     80  C   UNL A   1      38.797  28.795  30.573  1.00  0.00     0.134 A 
ATOM     81  C   UNL A   1      38.508  29.486  28.302  1.00  0.00     0.134 A 
ATOM     82  F   UNL A   1      39.540  28.278  31.562  1.00  0.00    -0.206 F 
ATOM     83  C   UNL A   1      37.466  29.117  30.848  1.00  0.00     0.040 A 
ATOM     84  C   UNL A   1      37.183  29.837  28.568  1.00  0.00     0.040 A 
ATOM     85  F   UNL A   1      38.968  29.672  27.056  1.00  0.00    -0.206 F 
ATOM     86  C   UNL A   1      36.656  29.645  29.844  1.00  0.00     0.006 A 
ENDBRANCH  58  79
BRANCH  70  87
ATOM     87  C   UNL A   1      45.373  32.457  29.372  1.00  0.00     0.057 A 
ATOM     88  C   UNL A   1      45.824  32.851  30.637  1.00  0.00     0.134 A 
ATOM     89  C   UNL A   1      45.287  33.441  28.379  1.00  0.00     0.134 A 
ATOM     90  F   UNL A   1      45.919  31.959  31.635  1.00  0.00    -0.206 F 
ATOM     91  C   UNL A   1      46.155  34.179  30.911  1.00  0.00     0.040 A 
ATOM     92  C   UNL A   1      45.644  34.766  28.632  1.00  0.00     0.040 A 
ATOM     93  F   UNL A   1      44.874  33.127  27.141  1.00  0.00    -0.206 F 
ATOM     94  C   UNL A   1      46.073  35.139  29.903  1.00  0.00     0.006 A 
ENDBRANCH  70  87
ENDBRANCH  44  45
ENDBRANCH  37  39
ENDBRANCH  36  37
ENDBRANCH  35  36
ENDBRANCH  34  35
ENDBRANCH  33  34
ENDBRANCH  32  33
ENDBRANCH  31  32
ENDBRANCH  30  31
ENDBRANCH   1  30
TORSDOF 25
ENDMDL
