MODEL 1
REMARK VINA RESULT:      -9.0      0.000      0.000
REMARK SMILES CC(C)(C)OC(=O)N1CC(Cc2ccc(C(=O)OCCOCCOCCOCCOC(=O)c3ccc(-c4c5nc(c(-c6c(F)cccc6F)c6ccc([nH]6)c(-c6c(F)cccc6F)c6nc(c(-c7c(F)cccc7F)c7ccc4[nH]7)C=C6)C=C5)cc3)cc2)C1
REMARK SMILES IDX 23 1 22 2 21 3 20 4 19 5 18 6 16 7 17 8 15 9 12 10 13 11
REMARK SMILES IDX 88 12 14 13 87 14 11 15 10 16 6 17 7 18 8 19 9 20 89 21 5 22
REMARK SMILES IDX 2 23 1 24 3 25 4 26 24 27 25 28 26 29 27 30 28 31 29 32
REMARK SMILES IDX 30 33 31 34 32 35 33 36 34 37 86 38 35 39 85 40 36 41 37 42
REMARK SMILES IDX 38 43 79 44 39 45 84 46 78 47 80 48 40 49 83 50 77 51 76 52
REMARK SMILES IDX 41 54 67 55 50 56 66 57 51 58 54 59 65 60 81 61 52 62 53 63
REMARK SMILES IDX 64 65 82 66 55 67 42 68 43 69 48 70 44 71 45 72 47 73 49 74
REMARK SMILES IDX 46 75 68 76 69 77 74 78 70 79 71 80 73 81 75 82 72 83 56 84
REMARK SMILES IDX 57 85 62 86 58 87 59 88 61 89 63 90 60 91
REMARK H PARENT 80 53 54 64
REMARK Flexibility Score: inf
ROOT
ATOM      1  C   UNL A   1      36.669  29.940  29.227  1.00  0.00     0.188 C 
ENDROOT
BRANCH   1   2
ATOM      2  C   UNL A   1      36.513  29.611  27.728  1.00  0.00     0.188 C 
BRANCH   2   3
ATOM      3  O   UNL A   1      35.320  30.108  27.139  1.00  0.00    -0.376 OA
BRANCH   3   4
ATOM      4  C   UNL A   1      34.135  29.348  27.311  1.00  0.00     0.202 C 
BRANCH   4   5
ATOM      5  C   UNL A   1      32.821  30.115  27.115  1.00  0.00     0.261 C 
BRANCH   5   6
ATOM      6  O   UNL A   1      31.767  29.355  26.513  1.00  0.00    -0.460 OA
BRANCH   6   7
ATOM      7  C   UNL A   1      31.510  28.148  27.062  1.00  0.00     0.338 C 
ATOM      8  O   UNL A   1      31.285  27.916  28.237  1.00  0.00    -0.246 OA
BRANCH   7   9
ATOM      9  C   UNL A   1      31.373  27.153  25.976  1.00  0.00     0.060 A 
ATOM     10  C   UNL A   1      31.156  25.165  24.026  1.00  0.00    -0.048 A 
ATOM     11  C   UNL A   1      30.364  25.104  25.179  1.00  0.00     0.004 A 
ATOM     12  C   UNL A   1      31.976  26.283  23.809  1.00  0.00     0.004 A 
ATOM     13  C   UNL A   1      30.476  26.093  26.155  1.00  0.00     0.016 A 
ATOM     14  C   UNL A   1      32.094  27.271  24.784  1.00  0.00     0.016 A 
BRANCH  10  15
ATOM     15  C   UNL A   1      31.224  23.988  23.085  1.00  0.00     0.042 C 
BRANCH  15  16
ATOM     16  C   UNL A   1      31.782  22.800  23.859  1.00  0.00     0.033 C 
ATOM     17  C   UNL A   1      33.935  20.686  25.011  1.00  0.00     0.410 C 
ATOM     18  O   UNL A   1      34.091  20.782  26.221  1.00  0.00    -0.224 OA
ATOM     19  N   UNL A   1      33.450  21.707  24.250  1.00  0.00    -0.307 N 
ATOM     20  C   UNL A   1      33.071  23.048  24.654  1.00  0.00     0.128 C 
ATOM     21  C   UNL A   1      32.570  21.699  23.094  1.00  0.00     0.128 C 
BRANCH  17  22
ATOM     22  O   UNL A   1      34.259  19.602  24.258  1.00  0.00    -0.444 OA
BRANCH  22  23
ATOM     23  C   UNL A   1      33.482  18.377  24.365  1.00  0.00     0.106 C 
ATOM     24  C   UNL A   1      34.516  17.243  24.456  1.00  0.00     0.056 C 
ATOM     25  C   UNL A   1      32.646  18.189  23.096  1.00  0.00     0.056 C 
ATOM     26  C   UNL A   1      32.612  18.312  25.631  1.00  0.00     0.056 C 
ENDBRANCH  22  23
ENDBRANCH  17  22
ENDBRANCH  15  16
ENDBRANCH  10  15
ENDBRANCH   7   9
ENDBRANCH   6   7
ENDBRANCH   5   6
ENDBRANCH   4   5
ENDBRANCH   3   4
ENDBRANCH   2   3
ENDBRANCH   1   2
BRANCH   1  27
ATOM     27  O   UNL A   1      35.858  30.953  29.807  1.00  0.00    -0.377 OA
BRANCH  27  28
ATOM     28  C   UNL A   1      36.024  32.309  29.406  1.00  0.00     0.188 C 
BRANCH  28  29
ATOM     29  C   UNL A   1      34.819  33.160  28.943  1.00  0.00     0.188 C 
BRANCH  29  30
ATOM     30  O   UNL A   1      35.069  34.555  28.890  1.00  0.00    -0.376 OA
BRANCH  30  31
ATOM     31  C   UNL A   1      33.979  35.383  28.522  1.00  0.00     0.202 C 
BRANCH  31  32
ATOM     32  C   UNL A   1      33.176  35.977  29.686  1.00  0.00     0.261 C 
BRANCH  32  33
ATOM     33  O   UNL A   1      32.725  35.039  30.679  1.00  0.00    -0.460 OA
BRANCH  33  34
ATOM     34  C   UNL A   1      32.870  35.374  31.981  1.00  0.00     0.338 C 
ATOM     35  O   UNL A   1      32.065  35.950  32.692  1.00  0.00    -0.246 OA
BRANCH  34  36
ATOM     36  C   UNL A   1      34.124  34.751  32.451  1.00  0.00     0.060 A 
ATOM     37  C   UNL A   1      34.130  33.401  32.826  1.00  0.00     0.016 A 
ATOM     38  C   UNL A   1      35.305  35.496  32.472  1.00  0.00     0.016 A 
ATOM     39  C   UNL A   1      35.324  32.790  33.221  1.00  0.00     0.010 A 
ATOM     40  C   UNL A   1      36.490  34.892  32.894  1.00  0.00     0.010 A 
ATOM     41  C   UNL A   1      36.506  33.540  33.283  1.00  0.00    -0.014 A 
BRANCH  41  42
ATOM     42  C   UNL A   1      37.736  32.976  33.888  1.00  0.00     0.031 A 
ATOM     43  C   UNL A   1      37.967  33.179  35.359  1.00  0.00     0.074 A 
ATOM     44  C   UNL A   1      38.653  32.333  33.140  1.00  0.00     0.049 A 
ATOM     45  N   UNL A   1      39.025  32.909  36.080  1.00  0.00    -0.248 NA
ATOM     46  C   UNL A   1      36.856  33.777  36.119  1.00  0.00     0.031 C 
ATOM     47  C   UNL A   1      38.528  32.036  31.715  1.00  0.00     0.029 A 
ATOM     48  N   UNL A   1      39.888  31.838  33.481  1.00  0.00    -0.354 N 
ATOM     49  C   UNL A   1      38.714  33.318  37.370  1.00  0.00     0.074 A 
ATOM     50  C   UNL A   1      37.375  33.863  37.334  1.00  0.00     0.031 C 
ATOM     51  C   UNL A   1      39.657  31.435  31.296  1.00  0.00     0.029 A 
ATOM     52  C   UNL A   1      40.598  31.346  32.412  1.00  0.00     0.049 A 
ATOM     53  H   UNL A   1      40.233  31.837  34.404  1.00  0.00     0.167 HD
ATOM     54  C   UNL A   1      39.481  33.249  38.482  1.00  0.00     0.037 A 
ATOM     55  C   UNL A   1      41.873  30.914  32.338  1.00  0.00     0.037 A 
ATOM     56  C   UNL A   1      40.811  32.700  38.516  1.00  0.00     0.049 A 
ATOM     57  C   UNL A   1      42.731  30.924  33.580  1.00  0.00     0.074 A 
ATOM     58  C   UNL A   1      41.650  32.548  39.607  1.00  0.00     0.029 A 
ATOM     59  N   UNL A   1      41.500  32.228  37.412  1.00  0.00    -0.354 N 
ATOM     60  N   UNL A   1      42.416  31.271  34.804  1.00  0.00    -0.248 NA
ATOM     61  C   UNL A   1      44.128  30.489  33.426  1.00  0.00     0.031 C 
ATOM     62  C   UNL A   1      42.869  32.039  39.152  1.00  0.00     0.029 A 
ATOM     63  C   UNL A   1      42.769  31.820  37.788  1.00  0.00     0.049 A 
ATOM     64  H   UNL A   1      41.141  32.189  36.495  1.00  0.00     0.167 HD
ATOM     65  C   UNL A   1      43.561  31.065  35.567  1.00  0.00     0.074 A 
ATOM     66  C   UNL A   1      44.572  30.547  34.673  1.00  0.00     0.031 C 
ATOM     67  C   UNL A   1      43.760  31.289  36.889  1.00  0.00     0.037 A 
BRANCH  54  68
ATOM     68  C   UNL A   1      38.922  33.806  39.756  1.00  0.00     0.057 A 
ATOM     69  C   UNL A   1      38.243  33.005  40.681  1.00  0.00     0.134 A 
ATOM     70  C   UNL A   1      39.139  35.147  40.096  1.00  0.00     0.134 A 
ATOM     71  F   UNL A   1      37.991  31.716  40.409  1.00  0.00    -0.206 F 
ATOM     72  C   UNL A   1      37.796  33.520  41.899  1.00  0.00     0.040 A 
ATOM     73  C   UNL A   1      38.719  35.668  41.319  1.00  0.00     0.040 A 
ATOM     74  F   UNL A   1      39.787  35.966  39.252  1.00  0.00    -0.206 F 
ATOM     75  C   UNL A   1      38.044  34.853  42.225  1.00  0.00     0.006 A 
ENDBRANCH  54  68
BRANCH  55  76
ATOM     76  C   UNL A   1      42.455  30.479  31.040  1.00  0.00     0.057 A 
ATOM     77  C   UNL A   1      42.476  29.130  30.669  1.00  0.00     0.134 A 
ATOM     78  C   UNL A   1      43.077  31.392  30.178  1.00  0.00     0.134 A 
ATOM     79  F   UNL A   1      41.926  28.201  31.465  1.00  0.00    -0.206 F 
ATOM     80  C   UNL A   1      43.124  28.698  29.508  1.00  0.00     0.040 A 
ATOM     81  C   UNL A   1      43.699  30.978  28.999  1.00  0.00     0.040 A 
ATOM     82  F   UNL A   1      43.098  32.699  30.475  1.00  0.00    -0.206 F 
ATOM     83  C   UNL A   1      43.736  29.626  28.668  1.00  0.00     0.006 A 
ENDBRANCH  55  76
BRANCH  67  84
ATOM     84  C   UNL A   1      45.103  30.934  37.460  1.00  0.00     0.057 A 
ATOM     85  C   UNL A   1      45.410  29.632  37.876  1.00  0.00     0.134 A 
ATOM     86  C   UNL A   1      46.117  31.896  37.549  1.00  0.00     0.134 A 
ATOM     87  F   UNL A   1      44.482  28.665  37.828  1.00  0.00    -0.206 F 
ATOM     88  C   UNL A   1      46.670  29.307  38.384  1.00  0.00     0.040 A 
ATOM     89  C   UNL A   1      47.389  31.578  38.026  1.00  0.00     0.040 A 
ATOM     90  F   UNL A   1      45.894  33.160  37.156  1.00  0.00    -0.206 F 
ATOM     91  C   UNL A   1      47.666  30.280  38.452  1.00  0.00     0.006 A 
ENDBRANCH  67  84
ENDBRANCH  41  42
ENDBRANCH  34  36
ENDBRANCH  33  34
ENDBRANCH  32  33
ENDBRANCH  31  32
ENDBRANCH  30  31
ENDBRANCH  29  30
ENDBRANCH  28  29
ENDBRANCH  27  28
ENDBRANCH   1  27
TORSDOF 24
ENDMDL
MODEL 2
REMARK VINA RESULT:      -8.8      2.729      6.352
REMARK SMILES CC(C)(C)OC(=O)N1CC(Cc2ccc(C(=O)OCCOCCOCCOCCOC(=O)c3ccc(-c4c5nc(c(-c6c(F)cccc6F)c6ccc([nH]6)c(-c6c(F)cccc6F)c6nc(c(-c7c(F)cccc7F)c7ccc4[nH]7)C=C6)C=C5)cc3)cc2)C1
REMARK SMILES IDX 23 1 22 2 21 3 20 4 19 5 18 6 16 7 17 8 15 9 12 10 13 11
REMARK SMILES IDX 88 12 14 13 87 14 11 15 10 16 6 17 7 18 8 19 9 20 89 21 5 22
REMARK SMILES IDX 2 23 1 24 3 25 4 26 24 27 25 28 26 29 27 30 28 31 29 32
REMARK SMILES IDX 30 33 31 34 32 35 33 36 34 37 86 38 35 39 85 40 36 41 37 42
REMARK SMILES IDX 38 43 79 44 39 45 84 46 78 47 80 48 40 49 83 50 77 51 76 52
REMARK SMILES IDX 41 54 67 55 50 56 66 57 51 58 54 59 65 60 81 61 52 62 53 63
REMARK SMILES IDX 64 65 82 66 55 67 42 68 43 69 48 70 44 71 45 72 47 73 49 74
REMARK SMILES IDX 46 75 68 76 69 77 74 78 70 79 71 80 73 81 75 82 72 83 56 84
REMARK SMILES IDX 57 85 62 86 58 87 59 88 61 89 63 90 60 91
REMARK H PARENT 80 53 54 64
REMARK Flexibility Score: inf
ROOT
ATOM      1  C   UNL A   1      35.911  30.406  29.029  1.00  0.00     0.188 C 
ENDROOT
BRANCH   1   2
ATOM      2  C   UNL A   1      36.197  29.825  27.628  1.00  0.00     0.188 C 
BRANCH   2   3
ATOM      3  O   UNL A   1      35.111  29.924  26.718  1.00  0.00    -0.376 OA
BRANCH   3   4
ATOM      4  C   UNL A   1      34.119  28.913  26.766  1.00  0.00     0.202 C 
BRANCH   4   5
ATOM      5  C   UNL A   1      32.881  29.157  25.895  1.00  0.00     0.261 C 
BRANCH   5   6
ATOM      6  O   UNL A   1      32.295  27.974  25.339  1.00  0.00    -0.460 OA
BRANCH   6   7
ATOM      7  C   UNL A   1      32.059  26.961  26.201  1.00  0.00     0.338 C 
ATOM      8  O   UNL A   1      31.355  27.000  27.195  1.00  0.00    -0.246 OA
BRANCH   7   9
ATOM      9  C   UNL A   1      32.660  25.725  25.653  1.00  0.00     0.060 A 
ATOM     10  C   UNL A   1      33.873  23.377  24.753  1.00  0.00    -0.048 A 
ATOM     11  C   UNL A   1      33.077  23.355  25.904  1.00  0.00     0.004 A 
ATOM     12  C   UNL A   1      33.970  24.557  24.000  1.00  0.00     0.004 A 
ATOM     13  C   UNL A   1      32.475  24.529  26.356  1.00  0.00     0.016 A 
ATOM     14  C   UNL A   1      33.374  25.732  24.452  1.00  0.00     0.016 A 
BRANCH  10  15
ATOM     15  C   UNL A   1      34.720  22.182  24.391  1.00  0.00     0.042 C 
BRANCH  15  16
ATOM     16  C   UNL A   1      35.948  22.185  25.294  1.00  0.00     0.033 C 
ATOM     17  C   UNL A   1      39.045  22.403  26.183  1.00  0.00     0.410 C 
ATOM     18  O   UNL A   1      39.268  23.381  26.882  1.00  0.00    -0.224 OA
ATOM     19  N   UNL A   1      37.974  22.328  25.344  1.00  0.00    -0.307 N 
ATOM     20  C   UNL A   1      36.953  23.324  25.076  1.00  0.00     0.128 C 
ATOM     21  C   UNL A   1      37.119  21.210  24.986  1.00  0.00     0.128 C 
BRANCH  17  22
ATOM     22  O   UNL A   1      39.832  21.298  26.099  1.00  0.00    -0.444 OA
BRANCH  22  23
ATOM     23  C   UNL A   1      41.198  21.332  26.596  1.00  0.00     0.106 C 
ATOM     24  C   UNL A   1      41.691  19.877  26.537  1.00  0.00     0.056 C 
ATOM     25  C   UNL A   1      41.202  21.802  28.053  1.00  0.00     0.056 C 
ATOM     26  C   UNL A   1      42.145  22.175  25.726  1.00  0.00     0.056 C 
ENDBRANCH  22  23
ENDBRANCH  17  22
ENDBRANCH  15  16
ENDBRANCH  10  15
ENDBRANCH   7   9
ENDBRANCH   6   7
ENDBRANCH   5   6
ENDBRANCH   4   5
ENDBRANCH   3   4
ENDBRANCH   2   3
ENDBRANCH   1   2
BRANCH   1  27
ATOM     27  O   UNL A   1      34.998  31.486  29.163  1.00  0.00    -0.377 OA
BRANCH  27  28
ATOM     28  C   UNL A   1      35.440  32.820  28.936  1.00  0.00     0.188 C 
BRANCH  28  29
ATOM     29  C   UNL A   1      34.631  33.791  28.045  1.00  0.00     0.188 C 
BRANCH  29  30
ATOM     30  O   UNL A   1      34.719  35.154  28.429  1.00  0.00    -0.376 OA
BRANCH  30  31
ATOM     31  C   UNL A   1      33.502  35.880  28.479  1.00  0.00     0.202 C 
BRANCH  31  32
ATOM     32  C   UNL A   1      32.906  36.076  29.879  1.00  0.00     0.261 C 
BRANCH  32  33
ATOM     33  O   UNL A   1      32.965  34.935  30.752  1.00  0.00    -0.460 OA
BRANCH  33  34
ATOM     34  C   UNL A   1      33.015  35.157  32.084  1.00  0.00     0.338 C 
ATOM     35  O   UNL A   1      32.120  35.568  32.801  1.00  0.00    -0.246 OA
BRANCH  34  36
ATOM     36  C   UNL A   1      34.312  34.634  32.561  1.00  0.00     0.060 A 
ATOM     37  C   UNL A   1      35.501  35.263  32.167  1.00  0.00     0.016 A 
ATOM     38  C   UNL A   1      34.344  33.550  33.441  1.00  0.00     0.016 A 
ATOM     39  C   UNL A   1      36.729  34.807  32.656  1.00  0.00     0.010 A 
ATOM     40  C   UNL A   1      35.573  33.080  33.906  1.00  0.00     0.010 A 
ATOM     41  C   UNL A   1      36.773  33.696  33.508  1.00  0.00    -0.014 A 
BRANCH  41  42
ATOM     42  C   UNL A   1      38.064  33.069  33.878  1.00  0.00     0.031 A 
ATOM     43  C   UNL A   1      38.569  31.924  33.044  1.00  0.00     0.074 A 
ATOM     44  C   UNL A   1      38.757  33.478  34.957  1.00  0.00     0.049 A 
ATOM     45  N   UNL A   1      39.587  31.130  33.252  1.00  0.00    -0.248 NA
ATOM     46  C   UNL A   1      37.816  31.631  31.813  1.00  0.00     0.031 C 
ATOM     47  C   UNL A   1      38.397  34.601  35.821  1.00  0.00     0.029 A 
ATOM     48  N   UNL A   1      39.901  32.970  35.524  1.00  0.00    -0.354 N 
ATOM     49  C   UNL A   1      39.586  30.234  32.191  1.00  0.00     0.074 A 
ATOM     50  C   UNL A   1      38.464  30.575  31.345  1.00  0.00     0.031 C 
ATOM     51  C   UNL A   1      39.288  34.678  36.827  1.00  0.00     0.029 A 
ATOM     52  C   UNL A   1      40.252  33.585  36.702  1.00  0.00     0.049 A 
ATOM     53  H   UNL A   1      40.419  32.234  35.125  1.00  0.00     0.167 HD
ATOM     54  C   UNL A   1      40.444  29.217  31.949  1.00  0.00     0.037 A 
ATOM     55  C   UNL A   1      41.214  33.273  37.594  1.00  0.00     0.037 A 
ATOM     56  C   UNL A   1      41.565  28.884  32.788  1.00  0.00     0.049 A 
ATOM     57  C   UNL A   1      42.105  32.082  37.336  1.00  0.00     0.074 A 
ATOM     58  C   UNL A   1      42.516  27.895  32.600  1.00  0.00     0.029 A 
ATOM     59  N   UNL A   1      41.876  29.519  33.978  1.00  0.00    -0.354 N 
ATOM     60  N   UNL A   1      42.125  31.268  36.309  1.00  0.00    -0.248 NA
ATOM     61  C   UNL A   1      43.102  31.763  38.370  1.00  0.00     0.031 C 
ATOM     62  C   UNL A   1      43.367  27.894  33.707  1.00  0.00     0.029 A 
ATOM     63  C   UNL A   1      42.982  28.919  34.556  1.00  0.00     0.049 A 
ATOM     64  H   UNL A   1      41.384  30.283  34.358  1.00  0.00     0.167 HD
ATOM     65  C   UNL A   1      43.154  30.365  36.558  1.00  0.00     0.074 A 
ATOM     66  C   UNL A   1      43.744  30.741  37.823  1.00  0.00     0.031 C 
ATOM     67  C   UNL A   1      43.571  29.315  35.808  1.00  0.00     0.037 A 
BRANCH  54  68
ATOM     68  C   UNL A   1      40.196  28.361  30.743  1.00  0.00     0.057 A 
ATOM     69  C   UNL A   1      39.224  27.354  30.736  1.00  0.00     0.134 A 
ATOM     70  C   UNL A   1      40.886  28.606  29.550  1.00  0.00     0.134 A 
ATOM     71  F   UNL A   1      38.539  27.061  31.851  1.00  0.00    -0.206 F 
ATOM     72  C   UNL A   1      38.950  26.616  29.583  1.00  0.00     0.040 A 
ATOM     73  C   UNL A   1      40.605  27.892  28.384  1.00  0.00     0.040 A 
ATOM     74  F   UNL A   1      41.828  29.560  29.491  1.00  0.00    -0.206 F 
ATOM     75  C   UNL A   1      39.634  26.893  28.399  1.00  0.00     0.006 A 
ENDBRANCH  54  68
BRANCH  55  76
ATOM     76  C   UNL A   1      41.370  34.057  38.848  1.00  0.00     0.057 A 
ATOM     77  C   UNL A   1      40.581  33.791  39.974  1.00  0.00     0.134 A 
ATOM     78  C   UNL A   1      42.252  35.142  38.926  1.00  0.00     0.134 A 
ATOM     79  F   UNL A   1      39.694  32.785  39.954  1.00  0.00    -0.206 F 
ATOM     80  C   UNL A   1      40.637  34.594  41.116  1.00  0.00     0.040 A 
ATOM     81  C   UNL A   1      42.342  35.933  40.072  1.00  0.00     0.040 A 
ATOM     82  F   UNL A   1      43.034  35.456  37.882  1.00  0.00    -0.206 F 
ATOM     83  C   UNL A   1      41.523  35.669  41.167  1.00  0.00     0.006 A 
ENDBRANCH  55  76
BRANCH  67  84
ATOM     84  C   UNL A   1      44.746  28.526  36.311  1.00  0.00     0.057 A 
ATOM     85  C   UNL A   1      44.586  27.384  37.105  1.00  0.00     0.134 A 
ATOM     86  C   UNL A   1      46.052  28.888  35.955  1.00  0.00     0.134 A 
ATOM     87  F   UNL A   1      43.364  26.989  37.492  1.00  0.00    -0.206 F 
ATOM     88  C   UNL A   1      45.685  26.644  37.548  1.00  0.00     0.040 A 
ATOM     89  C   UNL A   1      47.156  28.140  36.365  1.00  0.00     0.040 A 
ATOM     90  F   UNL A   1      46.275  29.964  35.185  1.00  0.00    -0.206 F 
ATOM     91  C   UNL A   1      46.974  27.018  37.171  1.00  0.00     0.006 A 
ENDBRANCH  67  84
ENDBRANCH  41  42
ENDBRANCH  34  36
ENDBRANCH  33  34
ENDBRANCH  32  33
ENDBRANCH  31  32
ENDBRANCH  30  31
ENDBRANCH  29  30
ENDBRANCH  28  29
ENDBRANCH  27  28
ENDBRANCH   1  27
TORSDOF 24
ENDMDL
MODEL 3
REMARK VINA RESULT:      -8.0      4.192      8.127
REMARK SMILES CC(C)(C)OC(=O)N1CC(Cc2ccc(C(=O)OCCOCCOCCOCCOC(=O)c3ccc(-c4c5nc(c(-c6c(F)cccc6F)c6ccc([nH]6)c(-c6c(F)cccc6F)c6nc(c(-c7c(F)cccc7F)c7ccc4[nH]7)C=C6)C=C5)cc3)cc2)C1
REMARK SMILES IDX 23 1 22 2 21 3 20 4 19 5 18 6 16 7 17 8 15 9 12 10 13 11
REMARK SMILES IDX 88 12 14 13 87 14 11 15 10 16 6 17 7 18 8 19 9 20 89 21 5 22
REMARK SMILES IDX 2 23 1 24 3 25 4 26 24 27 25 28 26 29 27 30 28 31 29 32
REMARK SMILES IDX 30 33 31 34 32 35 33 36 34 37 86 38 35 39 85 40 36 41 37 42
REMARK SMILES IDX 38 43 79 44 39 45 84 46 78 47 80 48 40 49 83 50 77 51 76 52
REMARK SMILES IDX 41 54 67 55 50 56 66 57 51 58 54 59 65 60 81 61 52 62 53 63
REMARK SMILES IDX 64 65 82 66 55 67 42 68 43 69 48 70 44 71 45 72 47 73 49 74
REMARK SMILES IDX 46 75 68 76 69 77 74 78 70 79 71 80 73 81 75 82 72 83 56 84
REMARK SMILES IDX 57 85 62 86 58 87 59 88 61 89 63 90 60 91
REMARK H PARENT 80 53 54 64
REMARK Flexibility Score: inf
ROOT
ATOM      1  C   UNL A   1      38.713  32.040  30.857  1.00  0.00     0.188 C 
ENDROOT
BRANCH   1   2
ATOM      2  C   UNL A   1      38.170  31.484  29.525  1.00  0.00     0.188 C 
BRANCH   2   3
ATOM      3  O   UNL A   1      36.820  31.046  29.577  1.00  0.00    -0.376 OA
BRANCH   3   4
ATOM      4  C   UNL A   1      35.999  31.564  30.610  1.00  0.00     0.202 C 
BRANCH   4   5
ATOM      5  C   UNL A   1      35.057  32.703  30.202  1.00  0.00     0.261 C 
BRANCH   5   6
ATOM      6  O   UNL A   1      34.001  32.318  29.313  1.00  0.00    -0.460 OA
BRANCH   6   7
ATOM      7  C   UNL A   1      34.327  32.212  28.007  1.00  0.00     0.338 C 
ATOM      8  O   UNL A   1      35.079  32.939  27.382  1.00  0.00    -0.246 OA
BRANCH   7   9
ATOM      9  C   UNL A   1      33.756  30.954  27.478  1.00  0.00     0.060 A 
ATOM     10  C   UNL A   1      32.556  28.599  26.576  1.00  0.00    -0.048 A 
ATOM     11  C   UNL A   1      31.894  29.823  26.425  1.00  0.00     0.004 A 
ATOM     12  C   UNL A   1      33.864  28.578  27.083  1.00  0.00     0.004 A 
ATOM     13  C   UNL A   1      32.490  30.998  26.881  1.00  0.00     0.016 A 
ATOM     14  C   UNL A   1      34.462  29.749  27.542  1.00  0.00     0.016 A 
BRANCH  10  15
ATOM     15  C   UNL A   1      31.830  27.303  26.313  1.00  0.00     0.042 C 
BRANCH  15  16
ATOM     16  C   UNL A   1      32.840  26.301  25.765  1.00  0.00     0.033 C 
ATOM     17  C   UNL A   1      34.008  23.784  24.113  1.00  0.00     0.410 C 
ATOM     18  O   UNL A   1      34.747  24.122  23.198  1.00  0.00    -0.224 OA
ATOM     19  N   UNL A   1      33.074  24.620  24.649  1.00  0.00    -0.307 N 
ATOM     20  C   UNL A   1      32.739  25.979  24.268  1.00  0.00     0.128 C 
ATOM     21  C   UNL A   1      32.616  24.783  26.018  1.00  0.00     0.128 C 
BRANCH  17  22
ATOM     22  O   UNL A   1      33.970  22.550  24.681  1.00  0.00    -0.444 OA
BRANCH  22  23
ATOM     23  C   UNL A   1      35.059  22.104  25.536  1.00  0.00     0.106 C 
ATOM     24  C   UNL A   1      34.399  21.713  26.868  1.00  0.00     0.056 C 
ATOM     25  C   UNL A   1      36.027  23.264  25.780  1.00  0.00     0.056 C 
ATOM     26  C   UNL A   1      35.788  20.861  25.000  1.00  0.00     0.056 C 
ENDBRANCH  22  23
ENDBRANCH  17  22
ENDBRANCH  15  16
ENDBRANCH  10  15
ENDBRANCH   7   9
ENDBRANCH   6   7
ENDBRANCH   5   6
ENDBRANCH   4   5
ENDBRANCH   3   4
ENDBRANCH   2   3
ENDBRANCH   1   2
BRANCH   1  27
ATOM     27  O   UNL A   1      39.192  33.377  30.912  1.00  0.00    -0.377 OA
BRANCH  27  28
ATOM     28  C   UNL A   1      38.322  34.424  31.326  1.00  0.00     0.188 C 
BRANCH  28  29
ATOM     29  C   UNL A   1      37.903  34.578  32.807  1.00  0.00     0.188 C 
BRANCH  29  30
ATOM     30  O   UNL A   1      36.530  34.325  33.060  1.00  0.00    -0.376 OA
BRANCH  30  31
ATOM     31  C   UNL A   1      36.230  33.212  33.885  1.00  0.00     0.202 C 
BRANCH  31  32
ATOM     32  C   UNL A   1      36.903  33.211  35.264  1.00  0.00     0.261 C 
BRANCH  32  33
ATOM     33  O   UNL A   1      37.407  31.942  35.714  1.00  0.00    -0.460 OA
BRANCH  33  34
ATOM     34  C   UNL A   1      38.581  31.927  36.384  1.00  0.00     0.338 C 
ATOM     35  O   UNL A   1      38.764  32.164  37.565  1.00  0.00    -0.246 OA
BRANCH  34  36
ATOM     36  C   UNL A   1      39.600  31.387  35.459  1.00  0.00     0.060 A 
ATOM     37  C   UNL A   1      40.947  31.730  35.636  1.00  0.00     0.016 A 
ATOM     38  C   UNL A   1      39.222  30.501  34.448  1.00  0.00     0.016 A 
ATOM     39  C   UNL A   1      41.923  31.181  34.798  1.00  0.00     0.010 A 
ATOM     40  C   UNL A   1      40.194  29.977  33.596  1.00  0.00     0.010 A 
ATOM     41  C   UNL A   1      41.548  30.322  33.756  1.00  0.00    -0.014 A 
BRANCH  41  42
ATOM     42  C   UNL A   1      42.531  29.890  32.734  1.00  0.00     0.031 A 
ATOM     43  C   UNL A   1      43.249  28.585  32.941  1.00  0.00     0.074 A 
ATOM     44  C   UNL A   1      42.813  30.657  31.665  1.00  0.00     0.049 A 
ATOM     45  N   UNL A   1      44.246  28.070  32.268  1.00  0.00    -0.248 NA
ATOM     46  C   UNL A   1      42.784  27.754  34.064  1.00  0.00     0.031 C 
ATOM     47  C   UNL A   1      42.159  31.920  31.330  1.00  0.00     0.029 A 
ATOM     48  N   UNL A   1      43.752  30.491  30.676  1.00  0.00    -0.354 N 
ATOM     49  C   UNL A   1      44.538  26.866  32.896  1.00  0.00     0.074 A 
ATOM     50  C   UNL A   1      43.622  26.729  34.006  1.00  0.00     0.031 C 
ATOM     51  C   UNL A   1      42.737  32.430  30.227  1.00  0.00     0.029 A 
ATOM     52  C   UNL A   1      43.829  31.553  29.806  1.00  0.00     0.049 A 
ATOM     53  H   UNL A   1      44.317  29.688  30.598  1.00  0.00     0.167 HD
ATOM     54  C   UNL A   1      45.490  25.960  32.575  1.00  0.00     0.037 A 
ATOM     55  C   UNL A   1      44.707  31.804  28.814  1.00  0.00     0.037 A 
ATOM     56  C   UNL A   1      46.396  26.094  31.465  1.00  0.00     0.049 A 
ATOM     57  C   UNL A   1      45.809  30.812  28.532  1.00  0.00     0.074 A 
ATOM     58  C   UNL A   1      47.366  25.204  31.035  1.00  0.00     0.029 A 
ATOM     59  N   UNL A   1      46.452  27.189  30.619  1.00  0.00    -0.354 N 
ATOM     60  N   UNL A   1      46.051  29.656  29.101  1.00  0.00    -0.248 NA
ATOM     61  C   UNL A   1      46.765  31.165  27.471  1.00  0.00     0.031 C 
ATOM     62  C   UNL A   1      48.051  25.790  29.966  1.00  0.00     0.029 A 
ATOM     63  C   UNL A   1      47.468  27.017  29.694  1.00  0.00     0.049 A 
ATOM     64  H   UNL A   1      45.860  27.974  30.670  1.00  0.00     0.167 HD
ATOM     65  C   UNL A   1      47.162  29.133  28.447  1.00  0.00     0.074 A 
ATOM     66  C   UNL A   1      47.536  30.089  27.428  1.00  0.00     0.031 C 
ATOM     67  C   UNL A   1      47.818  27.969  28.673  1.00  0.00     0.037 A 
BRANCH  54  68
ATOM     68  C   UNL A   1      45.630  24.750  33.448  1.00  0.00     0.057 A 
ATOM     69  C   UNL A   1      44.890  23.584  33.225  1.00  0.00     0.134 A 
ATOM     70  C   UNL A   1      46.580  24.728  34.477  1.00  0.00     0.134 A 
ATOM     71  F   UNL A   1      43.954  23.545  32.264  1.00  0.00    -0.206 F 
ATOM     72  C   UNL A   1      45.086  22.438  33.998  1.00  0.00     0.040 A 
ATOM     73  C   UNL A   1      46.803  23.582  35.241  1.00  0.00     0.040 A 
ATOM     74  F   UNL A   1      47.324  25.813  34.739  1.00  0.00    -0.206 F 
ATOM     75  C   UNL A   1      46.053  22.432  35.002  1.00  0.00     0.006 A 
ENDBRANCH  54  68
BRANCH  55  76
ATOM     76  C   UNL A   1      44.632  33.069  28.035  1.00  0.00     0.057 A 
ATOM     77  C   UNL A   1      44.149  33.086  26.721  1.00  0.00     0.134 A 
ATOM     78  C   UNL A   1      45.118  34.276  28.555  1.00  0.00     0.134 A 
ATOM     79  F   UNL A   1      43.698  31.957  26.153  1.00  0.00    -0.206 F 
ATOM     80  C   UNL A   1      44.184  34.244  25.941  1.00  0.00     0.040 A 
ATOM     81  C   UNL A   1      45.129  35.448  27.797  1.00  0.00     0.040 A 
ATOM     82  F   UNL A   1      45.600  34.330  29.805  1.00  0.00    -0.206 F 
ATOM     83  C   UNL A   1      44.674  35.432  26.481  1.00  0.00     0.006 A 
ENDBRANCH  55  76
BRANCH  67  84
ATOM     84  C   UNL A   1      48.977  27.639  27.776  1.00  0.00     0.057 A 
ATOM     85  C   UNL A   1      50.294  27.975  28.114  1.00  0.00     0.134 A 
ATOM     86  C   UNL A   1      48.776  26.935  26.582  1.00  0.00     0.134 A 
ATOM     87  F   UNL A   1      50.555  28.659  29.238  1.00  0.00    -0.206 F 
ATOM     88  C   UNL A   1      51.367  27.643  27.283  1.00  0.00     0.040 A 
ATOM     89  C   UNL A   1      49.842  26.571  25.759  1.00  0.00     0.040 A 
ATOM     90  F   UNL A   1      47.541  26.571  26.204  1.00  0.00    -0.206 F 
ATOM     91  C   UNL A   1      51.143  26.932  26.106  1.00  0.00     0.006 A 
ENDBRANCH  67  84
ENDBRANCH  41  42
ENDBRANCH  34  36
ENDBRANCH  33  34
ENDBRANCH  32  33
ENDBRANCH  31  32
ENDBRANCH  30  31
ENDBRANCH  29  30
ENDBRANCH  28  29
ENDBRANCH  27  28
ENDBRANCH   1  27
TORSDOF 24
ENDMDL
