MODEL 1
REMARK VINA RESULT:      -9.3      0.000      0.000
REMARK SMILES C[C@H](NC(=O)CCn1ccccc1=O)C(=O)OCCOCCOCCOCCOC(=O)c1ccc(-c2c3nc(c(-c4c(F)cccc4F)c4ccc([nH]4)c(-c4c(F)cccc4F)c4nc(c(-c5c(F)cccc5F)c5ccc2[nH]5)C=C4)C=C3)cc1
REMARK SMILES IDX 22 1 21 2 20 3 19 4 18 5 17 6 15 7 16 8 2 9 1 10 3 11 4 12
REMARK SMILES IDX 5 14 6 15 7 16 8 17 9 18 13 19 10 20 12 21 14 22 11 23 23 24
REMARK SMILES IDX 24 25 25 26 26 27 27 28 28 29 29 30 30 31 31 32 32 33 33 34
REMARK SMILES IDX 85 35 34 36 84 37 35 38 36 39 37 40 78 41 38 42 83 43 77 44
REMARK SMILES IDX 79 45 39 46 82 47 76 48 75 49 40 51 66 52 49 53 65 54 50 55
REMARK SMILES IDX 53 56 64 57 80 58 51 59 52 60 63 62 81 63 54 64 41 65 42 66
REMARK SMILES IDX 47 67 43 68 44 69 46 70 48 71 45 72 67 73 68 74 73 75 69 76
REMARK SMILES IDX 70 77 72 78 74 79 71 80 55 81 56 82 61 83 57 84 58 85 60 86
REMARK SMILES IDX 62 87 59 88
REMARK H PARENT 3 13 79 50 53 61
REMARK Flexibility Score: inf
ROOT
ATOM      1  C   UNL A   1      39.301  22.666  26.418  1.00  0.00     0.188 C 
ENDROOT
BRANCH   1   2
ATOM      2  C   UNL A   1      38.109  23.583  26.110  1.00  0.00     0.188 C 
BRANCH   2   3
ATOM      3  O   UNL A   1      36.827  22.976  26.189  1.00  0.00    -0.376 OA
BRANCH   3   4
ATOM      4  C   UNL A   1      36.718  21.660  25.668  1.00  0.00     0.202 C 
BRANCH   4   5
ATOM      5  C   UNL A   1      35.500  21.415  24.783  1.00  0.00     0.261 C 
BRANCH   5   6
ATOM      6  O   UNL A   1      34.331  22.231  24.949  1.00  0.00    -0.462 OA
BRANCH   6   7
ATOM      7  C   UNL A   1      33.346  22.036  25.863  1.00  0.00     0.328 C 
ATOM      8  O   UNL A   1      33.475  22.099  27.076  1.00  0.00    -0.250 OA
BRANCH   7   9
ATOM      9  C   UNL A   1      31.994  21.877  25.135  1.00  0.00     0.189 C 
ATOM     10  C   UNL A   1      31.878  22.570  23.790  1.00  0.00     0.043 C 
BRANCH   9  11
ATOM     11  N   UNL A   1      30.859  22.046  26.044  1.00  0.00    -0.343 N 
ATOM     12  C   UNL A   1      30.359  23.158  26.646  1.00  0.00     0.222 C 
ATOM     13  H   UNL A   1      30.377  21.213  26.256  1.00  0.00     0.164 HD
ATOM     14  O   UNL A   1      29.665  22.986  27.653  1.00  0.00    -0.275 OA
BRANCH  12  15
ATOM     15  C   UNL A   1      30.577  24.558  26.105  1.00  0.00     0.122 C 
BRANCH  15  16
ATOM     16  C   UNL A   1      31.845  25.305  26.549  1.00  0.00     0.135 C 
BRANCH  16  17
ATOM     17  N   UNL A   1      32.102  26.647  25.982  1.00  0.00    -0.315 N 
ATOM     18  C   UNL A   1      32.960  26.756  24.892  1.00  0.00     0.089 A 
ATOM     19  C   UNL A   1      31.679  27.808  26.634  1.00  0.00     0.250 A 
ATOM     20  C   UNL A   1      33.133  27.914  24.241  1.00  0.00     0.018 A 
ATOM     21  C   UNL A   1      31.740  29.061  25.828  1.00  0.00     0.072 A 
ATOM     22  O   UNL A   1      31.222  27.855  27.770  1.00  0.00    -0.269 OA
ATOM     23  C   UNL A   1      32.415  29.083  24.672  1.00  0.00     0.007 A 
ENDBRANCH  16  17
ENDBRANCH  15  16
ENDBRANCH  12  15
ENDBRANCH   9  11
ENDBRANCH   7   9
ENDBRANCH   6   7
ENDBRANCH   5   6
ENDBRANCH   4   5
ENDBRANCH   3   4
ENDBRANCH   2   3
ENDBRANCH   1   2
BRANCH   1  24
ATOM     24  O   UNL A   1      40.092  22.936  27.563  1.00  0.00    -0.377 OA
BRANCH  24  25
ATOM     25  C   UNL A   1      41.220  22.114  27.840  1.00  0.00     0.188 C 
BRANCH  25  26
ATOM     26  C   UNL A   1      41.191  20.633  27.451  1.00  0.00     0.188 C 
BRANCH  26  27
ATOM     27  O   UNL A   1      42.105  20.299  26.419  1.00  0.00    -0.376 OA
BRANCH  27  28
ATOM     28  C   UNL A   1      42.293  18.914  26.170  1.00  0.00     0.202 C 
BRANCH  28  29
ATOM     29  C   UNL A   1      43.534  18.524  25.358  1.00  0.00     0.261 C 
BRANCH  29  30
ATOM     30  O   UNL A   1      43.928  19.384  24.274  1.00  0.00    -0.460 OA
BRANCH  30  31
ATOM     31  C   UNL A   1      45.198  19.833  24.173  1.00  0.00     0.338 C 
ATOM     32  O   UNL A   1      46.127  19.299  23.596  1.00  0.00    -0.246 OA
BRANCH  31  33
ATOM     33  C   UNL A   1      45.209  21.212  24.727  1.00  0.00     0.060 A 
ATOM     34  C   UNL A   1      45.429  21.419  26.092  1.00  0.00     0.016 A 
ATOM     35  C   UNL A   1      44.905  22.299  23.894  1.00  0.00     0.016 A 
ATOM     36  C   UNL A   1      45.379  22.712  26.618  1.00  0.00     0.010 A 
ATOM     37  C   UNL A   1      44.837  23.594  24.427  1.00  0.00     0.010 A 
ATOM     38  C   UNL A   1      45.103  23.814  25.788  1.00  0.00    -0.014 A 
BRANCH  38  39
ATOM     39  C   UNL A   1      45.347  25.189  26.296  1.00  0.00     0.031 A 
ATOM     40  C   UNL A   1      46.695  25.843  26.300  1.00  0.00     0.074 A 
ATOM     41  C   UNL A   1      44.281  25.859  26.772  1.00  0.00     0.049 A 
ATOM     42  N   UNL A   1      47.010  27.070  26.636  1.00  0.00    -0.248 NA
ATOM     43  C   UNL A   1      47.837  25.018  25.891  1.00  0.00     0.031 C 
ATOM     44  C   UNL A   1      42.923  25.319  26.852  1.00  0.00     0.029 A 
ATOM     45  N   UNL A   1      44.168  27.130  27.274  1.00  0.00    -0.354 N 
ATOM     46  C   UNL A   1      48.382  27.181  26.458  1.00  0.00     0.074 A 
ATOM     47  C   UNL A   1      48.845  25.872  26.031  1.00  0.00     0.031 C 
ATOM     48  C   UNL A   1      42.109  26.255  27.359  1.00  0.00     0.029 A 
ATOM     49  C   UNL A   1      42.890  27.451  27.655  1.00  0.00     0.049 A 
ATOM     50  H   UNL A   1      44.928  27.750  27.353  1.00  0.00     0.167 HD
ATOM     51  C   UNL A   1      49.174  28.271  26.623  1.00  0.00     0.037 A 
ATOM     52  C   UNL A   1      42.393  28.583  28.185  1.00  0.00     0.037 A 
ATOM     53  C   UNL A   1      48.711  29.564  27.076  1.00  0.00     0.049 A 
ATOM     54  C   UNL A   1      43.298  29.758  28.402  1.00  0.00     0.074 A 
ATOM     55  C   UNL A   1      49.427  30.743  27.209  1.00  0.00     0.029 A 
ATOM     56  N   UNL A   1      47.418  29.843  27.498  1.00  0.00    -0.354 N 
ATOM     57  N   UNL A   1      44.575  29.879  28.132  1.00  0.00    -0.248 NA
ATOM     58  C   UNL A   1      42.686  30.958  28.987  1.00  0.00     0.031 C 
ATOM     59  C   UNL A   1      48.586  31.714  27.767  1.00  0.00     0.029 A 
ATOM     60  C   UNL A   1      47.329  31.159  27.933  1.00  0.00     0.049 A 
ATOM     61  H   UNL A   1      46.672  29.201  27.488  1.00  0.00     0.167 HD
ATOM     62  C   UNL A   1      44.919  31.170  28.507  1.00  0.00     0.074 A 
ATOM     63  C   UNL A   1      43.709  31.802  28.995  1.00  0.00     0.031 C 
ATOM     64  C   UNL A   1      46.131  31.775  28.452  1.00  0.00     0.037 A 
BRANCH  51  65
ATOM     65  C   UNL A   1      50.640  28.114  26.319  1.00  0.00     0.057 A 
ATOM     66  C   UNL A   1      51.578  27.970  27.349  1.00  0.00     0.134 A 
ATOM     67  C   UNL A   1      51.129  28.150  25.006  1.00  0.00     0.134 A 
ATOM     68  F   UNL A   1      51.185  27.947  28.632  1.00  0.00    -0.206 F 
ATOM     69  C   UNL A   1      52.945  27.855  27.085  1.00  0.00     0.040 A 
ATOM     70  C   UNL A   1      52.490  28.009  24.727  1.00  0.00     0.040 A 
ATOM     71  F   UNL A   1      50.287  28.291  23.971  1.00  0.00    -0.206 F 
ATOM     72  C   UNL A   1      53.404  27.865  25.769  1.00  0.00     0.006 A 
ENDBRANCH  51  65
BRANCH  52  73
ATOM     73  C   UNL A   1      40.953  28.654  28.526  1.00  0.00     0.057 A 
ATOM     74  C   UNL A   1      39.993  28.992  27.564  1.00  0.00     0.134 A 
ATOM     75  C   UNL A   1      40.508  28.411  29.830  1.00  0.00     0.134 A 
ATOM     76  F   UNL A   1      40.363  29.247  26.300  1.00  0.00    -0.206 F 
ATOM     77  C   UNL A   1      38.642  29.097  27.888  1.00  0.00     0.040 A 
ATOM     78  C   UNL A   1      39.156  28.487  30.163  1.00  0.00     0.040 A 
ATOM     79  F   UNL A   1      41.381  28.070  30.789  1.00  0.00    -0.206 F 
ATOM     80  C   UNL A   1      38.219  28.839  29.191  1.00  0.00     0.006 A 
ENDBRANCH  52  73
BRANCH  64  81
ATOM     81  C   UNL A   1      46.199  33.192  28.946  1.00  0.00     0.057 A 
ATOM     82  C   UNL A   1      46.445  33.476  30.296  1.00  0.00     0.134 A 
ATOM     83  C   UNL A   1      46.036  34.282  28.079  1.00  0.00     0.134 A 
ATOM     84  F   UNL A   1      46.608  32.484  31.182  1.00  0.00    -0.206 F 
ATOM     85  C   UNL A   1      46.531  34.789  30.763  1.00  0.00     0.040 A 
ATOM     86  C   UNL A   1      46.148  35.599  28.529  1.00  0.00     0.040 A 
ATOM     87  F   UNL A   1      45.818  34.083  26.770  1.00  0.00    -0.206 F 
ATOM     88  C   UNL A   1      46.393  35.857  29.876  1.00  0.00     0.006 A 
ENDBRANCH  64  81
ENDBRANCH  38  39
ENDBRANCH  31  33
ENDBRANCH  30  31
ENDBRANCH  29  30
ENDBRANCH  28  29
ENDBRANCH  27  28
ENDBRANCH  26  27
ENDBRANCH  25  26
ENDBRANCH  24  25
ENDBRANCH   1  24
TORSDOF 24
ENDMDL
MODEL 2
REMARK VINA RESULT:      -8.9      2.333      6.975
REMARK SMILES C[C@H](NC(=O)CCn1ccccc1=O)C(=O)OCCOCCOCCOCCOC(=O)c1ccc(-c2c3nc(c(-c4c(F)cccc4F)c4ccc([nH]4)c(-c4c(F)cccc4F)c4nc(c(-c5c(F)cccc5F)c5ccc2[nH]5)C=C4)C=C3)cc1
REMARK SMILES IDX 22 1 21 2 20 3 19 4 18 5 17 6 15 7 16 8 2 9 1 10 3 11 4 12
REMARK SMILES IDX 5 14 6 15 7 16 8 17 9 18 13 19 10 20 12 21 14 22 11 23 23 24
REMARK SMILES IDX 24 25 25 26 26 27 27 28 28 29 29 30 30 31 31 32 32 33 33 34
REMARK SMILES IDX 85 35 34 36 84 37 35 38 36 39 37 40 78 41 38 42 83 43 77 44
REMARK SMILES IDX 79 45 39 46 82 47 76 48 75 49 40 51 66 52 49 53 65 54 50 55
REMARK SMILES IDX 53 56 64 57 80 58 51 59 52 60 63 62 81 63 54 64 41 65 42 66
REMARK SMILES IDX 47 67 43 68 44 69 46 70 48 71 45 72 67 73 68 74 73 75 69 76
REMARK SMILES IDX 70 77 72 78 74 79 71 80 55 81 56 82 61 83 57 84 58 85 60 86
REMARK SMILES IDX 62 87 59 88
REMARK H PARENT 3 13 79 50 53 61
REMARK Flexibility Score: inf
ROOT
ATOM      1  C   UNL A   1      34.423  22.638  24.242  1.00  0.00     0.188 C 
ENDROOT
BRANCH   1   2
ATOM      2  C   UNL A   1      34.319  23.730  23.169  1.00  0.00     0.188 C 
BRANCH   2   3
ATOM      3  O   UNL A   1      33.004  24.035  22.724  1.00  0.00    -0.376 OA
BRANCH   3   4
ATOM      4  C   UNL A   1      32.902  24.856  21.570  1.00  0.00     0.202 C 
BRANCH   4   5
ATOM      5  C   UNL A   1      33.230  26.327  21.794  1.00  0.00     0.261 C 
BRANCH   5   6
ATOM      6  O   UNL A   1      33.618  26.774  23.101  1.00  0.00    -0.462 OA
BRANCH   6   7
ATOM      7  C   UNL A   1      34.028  28.028  23.427  1.00  0.00     0.328 C 
ATOM      8  O   UNL A   1      34.233  28.939  22.640  1.00  0.00    -0.250 OA
BRANCH   7   9
ATOM      9  C   UNL A   1      34.045  28.179  24.963  1.00  0.00     0.189 C 
ATOM     10  C   UNL A   1      34.027  26.887  25.759  1.00  0.00     0.043 C 
BRANCH   9  11
ATOM     11  N   UNL A   1      33.130  29.227  25.420  1.00  0.00    -0.343 N 
ATOM     12  C   UNL A   1      31.773  29.308  25.370  1.00  0.00     0.222 C 
ATOM     13  H   UNL A   1      33.572  30.005  25.833  1.00  0.00     0.164 HD
ATOM     14  O   UNL A   1      31.276  30.435  25.453  1.00  0.00    -0.275 OA
BRANCH  12  15
ATOM     15  C   UNL A   1      30.878  28.089  25.271  1.00  0.00     0.122 C 
BRANCH  15  16
ATOM     16  C   UNL A   1      30.369  27.688  23.876  1.00  0.00     0.135 C 
BRANCH  16  17
ATOM     17  N   UNL A   1      29.485  28.630  23.155  1.00  0.00    -0.315 N 
ATOM     18  C   UNL A   1      28.108  28.442  23.230  1.00  0.00     0.089 A 
ATOM     19  C   UNL A   1      29.997  29.560  22.246  1.00  0.00     0.250 A 
ATOM     20  C   UNL A   1      27.245  29.330  22.721  1.00  0.00     0.018 A 
ATOM     21  C   UNL A   1      29.051  30.630  21.814  1.00  0.00     0.072 A 
ATOM     22  O   UNL A   1      31.152  29.587  21.836  1.00  0.00    -0.269 OA
ATOM     23  C   UNL A   1      27.744  30.515  22.077  1.00  0.00     0.007 A 
ENDBRANCH  16  17
ENDBRANCH  15  16
ENDBRANCH  12  15
ENDBRANCH   9  11
ENDBRANCH   7   9
ENDBRANCH   6   7
ENDBRANCH   5   6
ENDBRANCH   4   5
ENDBRANCH   3   4
ENDBRANCH   2   3
ENDBRANCH   1   2
BRANCH   1  24
ATOM     24  O   UNL A   1      35.154  22.912  25.425  1.00  0.00    -0.377 OA
BRANCH  24  25
ATOM     25  C   UNL A   1      36.351  22.190  25.687  1.00  0.00     0.188 C 
BRANCH  25  26
ATOM     26  C   UNL A   1      37.065  21.466  24.540  1.00  0.00     0.188 C 
BRANCH  26  27
ATOM     27  O   UNL A   1      37.752  20.295  24.950  1.00  0.00    -0.376 OA
BRANCH  27  28
ATOM     28  C   UNL A   1      39.002  20.493  25.594  1.00  0.00     0.202 C 
BRANCH  28  29
ATOM     29  C   UNL A   1      39.835  19.237  25.880  1.00  0.00     0.261 C 
BRANCH  29  30
ATOM     30  O   UNL A   1      41.187  19.199  25.388  1.00  0.00    -0.460 OA
BRANCH  30  31
ATOM     31  C   UNL A   1      42.233  19.371  26.225  1.00  0.00     0.338 C 
ATOM     32  O   UNL A   1      43.035  18.532  26.589  1.00  0.00    -0.246 OA
BRANCH  31  33
ATOM     33  C   UNL A   1      42.350  20.833  26.466  1.00  0.00     0.060 A 
ATOM     34  C   UNL A   1      42.324  21.334  27.771  1.00  0.00     0.016 A 
ATOM     35  C   UNL A   1      42.393  21.716  25.377  1.00  0.00     0.016 A 
ATOM     36  C   UNL A   1      42.375  22.713  27.989  1.00  0.00     0.010 A 
ATOM     37  C   UNL A   1      42.425  23.100  25.597  1.00  0.00     0.010 A 
ATOM     38  C   UNL A   1      42.446  23.609  26.907  1.00  0.00    -0.014 A 
BRANCH  38  39
ATOM     39  C   UNL A   1      42.798  25.030  27.158  1.00  0.00     0.031 A 
ATOM     40  C   UNL A   1      41.858  26.021  27.772  1.00  0.00     0.074 A 
ATOM     41  C   UNL A   1      44.037  25.421  26.802  1.00  0.00     0.049 A 
ATOM     42  N   UNL A   1      42.089  27.264  28.119  1.00  0.00    -0.248 NA
ATOM     43  C   UNL A   1      40.483  25.571  28.017  1.00  0.00     0.031 C 
ATOM     44  C   UNL A   1      45.033  24.558  26.165  1.00  0.00     0.029 A 
ATOM     45  N   UNL A   1      44.669  26.631  26.925  1.00  0.00    -0.354 N 
ATOM     46  C   UNL A   1      40.899  27.746  28.648  1.00  0.00     0.074 A 
ATOM     47  C   UNL A   1      39.932  26.668  28.527  1.00  0.00     0.031 C 
ATOM     48  C   UNL A   1      46.156  25.261  25.964  1.00  0.00     0.029 A 
ATOM     49  C   UNL A   1      45.953  26.625  26.442  1.00  0.00     0.049 A 
ATOM     50  H   UNL A   1      44.244  27.425  27.320  1.00  0.00     0.167 HD
ATOM     51  C   UNL A   1      40.643  28.963  29.192  1.00  0.00     0.037 A 
ATOM     52  C   UNL A   1      46.872  27.605  26.387  1.00  0.00     0.037 A 
ATOM     53  C   UNL A   1      41.602  30.041  29.284  1.00  0.00     0.049 A 
ATOM     54  C   UNL A   1      46.550  28.955  26.952  1.00  0.00     0.074 A 
ATOM     55  C   UNL A   1      41.454  31.284  29.878  1.00  0.00     0.029 A 
ATOM     56  N   UNL A   1      42.880  30.017  28.743  1.00  0.00    -0.354 N 
ATOM     57  N   UNL A   1      45.452  29.364  27.541  1.00  0.00    -0.248 NA
ATOM     58  C   UNL A   1      47.600  29.977  26.853  1.00  0.00     0.031 C 
ATOM     59  C   UNL A   1      42.615  32.031  29.644  1.00  0.00     0.029 A 
ATOM     60  C   UNL A   1      43.511  31.238  28.950  1.00  0.00     0.049 A 
ATOM     61  H   UNL A   1      43.282  29.246  28.282  1.00  0.00     0.167 HD
ATOM     62  C   UNL A   1      45.682  30.687  27.891  1.00  0.00     0.074 A 
ATOM     63  C   UNL A   1      47.034  31.002  27.474  1.00  0.00     0.031 C 
ATOM     64  C   UNL A   1      44.845  31.561  28.502  1.00  0.00     0.037 A 
BRANCH  51  65
ATOM     65  C   UNL A   1      39.258  29.204  29.729  1.00  0.00     0.057 A 
ATOM     66  C   UNL A   1      38.940  28.912  31.061  1.00  0.00     0.134 A 
ATOM     67  C   UNL A   1      38.224  29.683  28.913  1.00  0.00     0.134 A 
ATOM     68  F   UNL A   1      39.874  28.431  31.896  1.00  0.00    -0.206 F 
ATOM     69  C   UNL A   1      37.650  29.100  31.566  1.00  0.00     0.040 A 
ATOM     70  C   UNL A   1      36.937  29.901  29.412  1.00  0.00     0.040 A 
ATOM     71  F   UNL A   1      38.455  29.978  27.625  1.00  0.00    -0.206 F 
ATOM     72  C   UNL A   1      36.646  29.605  30.742  1.00  0.00     0.006 A 
ENDBRANCH  51  65
BRANCH  52  73
ATOM     73  C   UNL A   1      48.197  27.325  25.784  1.00  0.00     0.057 A 
ATOM     74  C   UNL A   1      48.383  27.346  24.397  1.00  0.00     0.134 A 
ATOM     75  C   UNL A   1      49.299  27.004  26.583  1.00  0.00     0.134 A 
ATOM     76  F   UNL A   1      47.358  27.636  23.580  1.00  0.00    -0.206 F 
ATOM     77  C   UNL A   1      49.617  27.047  23.822  1.00  0.00     0.040 A 
ATOM     78  C   UNL A   1      50.546  26.727  26.023  1.00  0.00     0.040 A 
ATOM     79  F   UNL A   1      49.182  26.981  27.918  1.00  0.00    -0.206 F 
ATOM     80  C   UNL A   1      50.705  26.741  24.637  1.00  0.00     0.006 A 
ENDBRANCH  52  73
BRANCH  64  81
ATOM     81  C   UNL A   1      45.375  32.946  28.742  1.00  0.00     0.057 A 
ATOM     82  C   UNL A   1      46.152  33.236  29.871  1.00  0.00     0.134 A 
ATOM     83  C   UNL A   1      45.129  33.994  27.843  1.00  0.00     0.134 A 
ATOM     84  F   UNL A   1      46.425  32.284  30.774  1.00  0.00    -0.206 F 
ATOM     85  C   UNL A   1      46.668  34.515  30.094  1.00  0.00     0.040 A 
ATOM     86  C   UNL A   1      45.663  35.269  28.041  1.00  0.00     0.040 A 
ATOM     87  F   UNL A   1      44.410  33.781  26.730  1.00  0.00    -0.206 F 
ATOM     88  C   UNL A   1      46.433  35.534  29.172  1.00  0.00     0.006 A 
ENDBRANCH  64  81
ENDBRANCH  38  39
ENDBRANCH  31  33
ENDBRANCH  30  31
ENDBRANCH  29  30
ENDBRANCH  28  29
ENDBRANCH  27  28
ENDBRANCH  26  27
ENDBRANCH  25  26
ENDBRANCH  24  25
ENDBRANCH   1  24
TORSDOF 24
ENDMDL
MODEL 3
REMARK VINA RESULT:      -8.8      2.166      3.482
REMARK SMILES C[C@H](NC(=O)CCn1ccccc1=O)C(=O)OCCOCCOCCOCCOC(=O)c1ccc(-c2c3nc(c(-c4c(F)cccc4F)c4ccc([nH]4)c(-c4c(F)cccc4F)c4nc(c(-c5c(F)cccc5F)c5ccc2[nH]5)C=C4)C=C3)cc1
REMARK SMILES IDX 22 1 21 2 20 3 19 4 18 5 17 6 15 7 16 8 2 9 1 10 3 11 4 12
REMARK SMILES IDX 5 14 6 15 7 16 8 17 9 18 13 19 10 20 12 21 14 22 11 23 23 24
REMARK SMILES IDX 24 25 25 26 26 27 27 28 28 29 29 30 30 31 31 32 32 33 33 34
REMARK SMILES IDX 85 35 34 36 84 37 35 38 36 39 37 40 78 41 38 42 83 43 77 44
REMARK SMILES IDX 79 45 39 46 82 47 76 48 75 49 40 51 66 52 49 53 65 54 50 55
REMARK SMILES IDX 53 56 64 57 80 58 51 59 52 60 63 62 81 63 54 64 41 65 42 66
REMARK SMILES IDX 47 67 43 68 44 69 46 70 48 71 45 72 67 73 68 74 73 75 69 76
REMARK SMILES IDX 70 77 72 78 74 79 71 80 55 81 56 82 61 83 57 84 58 85 60 86
REMARK SMILES IDX 62 87 59 88
REMARK H PARENT 3 13 79 50 53 61
REMARK Flexibility Score: inf
ROOT
ATOM      1  C   UNL A   1      34.480  22.518  25.555  1.00  0.00     0.188 C 
ENDROOT
BRANCH   1   2
ATOM      2  C   UNL A   1      33.788  22.978  24.265  1.00  0.00     0.188 C 
BRANCH   2   3
ATOM      3  O   UNL A   1      34.444  24.015  23.549  1.00  0.00    -0.376 OA
BRANCH   3   4
ATOM      4  C   UNL A   1      33.640  24.778  22.661  1.00  0.00     0.202 C 
BRANCH   4   5
ATOM      5  C   UNL A   1      33.686  26.285  22.883  1.00  0.00     0.261 C 
BRANCH   5   6
ATOM      6  O   UNL A   1      32.489  27.061  22.724  1.00  0.00    -0.462 OA
BRANCH   6   7
ATOM      7  C   UNL A   1      31.360  26.661  22.084  1.00  0.00     0.328 C 
ATOM      8  O   UNL A   1      31.291  26.279  20.926  1.00  0.00    -0.250 OA
BRANCH   7   9
ATOM      9  C   UNL A   1      30.190  26.612  23.091  1.00  0.00     0.189 C 
ATOM     10  C   UNL A   1      30.086  27.785  24.047  1.00  0.00     0.043 C 
BRANCH   9  11
ATOM     11  N   UNL A   1      30.036  25.282  23.686  1.00  0.00    -0.343 N 
ATOM     12  C   UNL A   1      30.504  24.773  24.857  1.00  0.00     0.222 C 
ATOM     13  H   UNL A   1      29.505  24.652  23.147  1.00  0.00     0.164 HD
ATOM     14  O   UNL A   1      30.576  23.543  24.942  1.00  0.00    -0.275 OA
BRANCH  12  15
ATOM     15  C   UNL A   1      30.880  25.639  26.043  1.00  0.00     0.122 C 
BRANCH  15  16
ATOM     16  C   UNL A   1      32.366  25.986  26.231  1.00  0.00     0.135 C 
BRANCH  16  17
ATOM     17  N   UNL A   1      32.726  27.393  26.518  1.00  0.00    -0.315 N 
ATOM     18  C   UNL A   1      34.010  27.829  26.206  1.00  0.00     0.089 A 
ATOM     19  C   UNL A   1      31.891  28.219  27.275  1.00  0.00     0.250 A 
ATOM     20  C   UNL A   1      34.363  29.117  26.310  1.00  0.00     0.018 A 
ATOM     21  C   UNL A   1      32.221  29.673  27.246  1.00  0.00     0.072 A 
ATOM     22  O   UNL A   1      30.902  27.847  27.897  1.00  0.00    -0.269 OA
ATOM     23  C   UNL A   1      33.396  30.084  26.753  1.00  0.00     0.007 A 
ENDBRANCH  16  17
ENDBRANCH  15  16
ENDBRANCH  12  15
ENDBRANCH   9  11
ENDBRANCH   7   9
ENDBRANCH   6   7
ENDBRANCH   5   6
ENDBRANCH   4   5
ENDBRANCH   3   4
ENDBRANCH   2   3
ENDBRANCH   1   2
BRANCH   1  24
ATOM     24  O   UNL A   1      35.655  23.190  25.976  1.00  0.00    -0.377 OA
BRANCH  24  25
ATOM     25  C   UNL A   1      36.923  22.589  25.742  1.00  0.00     0.188 C 
BRANCH  25  26
ATOM     26  C   UNL A   1      37.122  21.696  24.513  1.00  0.00     0.188 C 
BRANCH  26  27
ATOM     27  O   UNL A   1      37.883  20.529  24.777  1.00  0.00    -0.376 OA
BRANCH  27  28
ATOM     28  C   UNL A   1      39.029  20.699  25.597  1.00  0.00     0.202 C 
BRANCH  28  29
ATOM     29  C   UNL A   1      39.825  19.433  25.940  1.00  0.00     0.261 C 
BRANCH  29  30
ATOM     30  O   UNL A   1      41.119  19.265  25.332  1.00  0.00    -0.460 OA
BRANCH  30  31
ATOM     31  C   UNL A   1      42.243  19.293  26.081  1.00  0.00     0.338 C 
ATOM     32  O   UNL A   1      43.046  18.393  26.243  1.00  0.00    -0.246 OA
BRANCH  31  33
ATOM     33  C   UNL A   1      42.432  20.701  26.516  1.00  0.00     0.060 A 
ATOM     34  C   UNL A   1      42.091  21.087  27.816  1.00  0.00     0.016 A 
ATOM     35  C   UNL A   1      42.865  21.663  25.591  1.00  0.00     0.016 A 
ATOM     36  C   UNL A   1      42.214  22.425  28.201  1.00  0.00     0.010 A 
ATOM     37  C   UNL A   1      42.971  23.007  25.974  1.00  0.00     0.010 A 
ATOM     38  C   UNL A   1      42.674  23.394  27.291  1.00  0.00    -0.014 A 
BRANCH  38  39
ATOM     39  C   UNL A   1      43.080  24.732  27.794  1.00  0.00     0.031 A 
ATOM     40  C   UNL A   1      44.507  25.149  27.979  1.00  0.00     0.074 A 
ATOM     41  C   UNL A   1      42.091  25.595  28.092  1.00  0.00     0.049 A 
ATOM     42  N   UNL A   1      44.980  26.321  28.327  1.00  0.00    -0.248 NA
ATOM     43  C   UNL A   1      45.534  24.123  27.763  1.00  0.00     0.031 C 
ATOM     44  C   UNL A   1      40.662  25.295  27.985  1.00  0.00     0.029 A 
ATOM     45  N   UNL A   1      42.131  26.890  28.539  1.00  0.00    -0.354 N 
ATOM     46  C   UNL A   1      46.362  26.190  28.349  1.00  0.00     0.074 A 
ATOM     47  C   UNL A   1      46.646  24.802  28.028  1.00  0.00     0.031 C 
ATOM     48  C   UNL A   1      39.960  26.379  28.343  1.00  0.00     0.029 A 
ATOM     49  C   UNL A   1      40.888  27.441  28.720  1.00  0.00     0.049 A 
ATOM     50  H   UNL A   1      42.969  27.376  28.713  1.00  0.00     0.167 HD
ATOM     51  C   UNL A   1      47.301  27.138  28.601  1.00  0.00     0.037 A 
ATOM     52  C   UNL A   1      40.526  28.665  29.142  1.00  0.00     0.037 A 
ATOM     53  C   UNL A   1      47.010  28.511  28.948  1.00  0.00     0.049 A 
ATOM     54  C   UNL A   1      41.581  29.681  29.460  1.00  0.00     0.074 A 
ATOM     55  C   UNL A   1      47.894  29.558  29.155  1.00  0.00     0.029 A 
ATOM     56  N   UNL A   1      45.739  29.025  29.168  1.00  0.00    -0.354 N 
ATOM     57  N   UNL A   1      42.885  29.571  29.378  1.00  0.00    -0.248 NA
ATOM     58  C   UNL A   1      41.112  30.994  29.919  1.00  0.00     0.031 C 
ATOM     59  C   UNL A   1      47.165  30.684  29.558  1.00  0.00     0.029 A 
ATOM     60  C   UNL A   1      45.820  30.357  29.552  1.00  0.00     0.049 A 
ATOM     61  H   UNL A   1      44.902  28.518  29.065  1.00  0.00     0.167 HD
ATOM     62  C   UNL A   1      43.393  30.803  29.766  1.00  0.00     0.074 A 
ATOM     63  C   UNL A   1      42.255  31.653  30.055  1.00  0.00     0.031 C 
ATOM     64  C   UNL A   1      44.687  31.191  29.874  1.00  0.00     0.037 A 
BRANCH  51  65
ATOM     65  C   UNL A   1      48.744  26.721  28.520  1.00  0.00     0.057 A 
ATOM     66  C   UNL A   1      49.446  26.786  27.309  1.00  0.00     0.134 A 
ATOM     67  C   UNL A   1      49.429  26.213  29.631  1.00  0.00     0.134 A 
ATOM     68  F   UNL A   1      48.849  27.243  26.198  1.00  0.00    -0.206 F 
ATOM     69  C   UNL A   1      50.777  26.372  27.210  1.00  0.00     0.040 A 
ATOM     70  C   UNL A   1      50.768  25.821  29.552  1.00  0.00     0.040 A 
ATOM     71  F   UNL A   1      48.817  26.118  30.822  1.00  0.00    -0.206 F 
ATOM     72  C   UNL A   1      51.445  25.897  28.337  1.00  0.00     0.006 A 
ENDBRANCH  51  65
BRANCH  52  73
ATOM     73  C   UNL A   1      39.086  28.995  29.267  1.00  0.00     0.057 A 
ATOM     74  C   UNL A   1      38.364  29.515  28.186  1.00  0.00     0.134 A 
ATOM     75  C   UNL A   1      38.409  28.821  30.478  1.00  0.00     0.134 A 
ATOM     76  F   UNL A   1      38.964  29.714  27.003  1.00  0.00    -0.206 F 
ATOM     77  C   UNL A   1      37.019  29.862  28.309  1.00  0.00     0.040 A 
ATOM     78  C   UNL A   1      37.058  29.140  30.608  1.00  0.00     0.040 A 
ATOM     79  F   UNL A   1      39.048  28.314  31.542  1.00  0.00    -0.206 F 
ATOM     80  C   UNL A   1      36.361  29.669  29.522  1.00  0.00     0.006 A 
ENDBRANCH  52  73
BRANCH  64  81
ATOM     81  C   UNL A   1      44.931  32.600  30.337  1.00  0.00     0.057 A 
ATOM     82  C   UNL A   1      44.970  33.663  29.425  1.00  0.00     0.134 A 
ATOM     83  C   UNL A   1      45.113  32.909  31.692  1.00  0.00     0.134 A 
ATOM     84  F   UNL A   1      44.806  33.442  28.113  1.00  0.00    -0.206 F 
ATOM     85  C   UNL A   1      45.175  34.979  29.845  1.00  0.00     0.040 A 
ATOM     86  C   UNL A   1      45.290  34.224  32.127  1.00  0.00     0.040 A 
ATOM     87  F   UNL A   1      45.067  31.941  32.622  1.00  0.00    -0.206 F 
ATOM     88  C   UNL A   1      45.326  35.264  31.201  1.00  0.00     0.006 A 
ENDBRANCH  64  81
ENDBRANCH  38  39
ENDBRANCH  31  33
ENDBRANCH  30  31
ENDBRANCH  29  30
ENDBRANCH  28  29
ENDBRANCH  27  28
ENDBRANCH  26  27
ENDBRANCH  25  26
ENDBRANCH  24  25
ENDBRANCH   1  24
TORSDOF 24
ENDMDL
