MODEL 1
REMARK VINA RESULT:      -8.5      0.000      0.000
REMARK SMILES Cc1ncc(C(=O)OCCOCCOCCOCCOC(=O)c2ccc(-c3c4nc(c(-c5c(F)cccc5F)c5ccc([nH]5)c(-c5c(F)cccc5F)c5nc(c(-c6c(F)cccc6F)c6ccc3[nH]6)C=C5)C=C4)cc2)cc1C#N
REMARK SMILES IDX 15 1 14 2 13 3 12 4 11 5 10 6 9 7 8 8 6 9 7 10 5 11 1 12
REMARK SMILES IDX 2 13 3 14 78 15 4 16 77 17 79 18 80 19 16 20 17 21 18 22
REMARK SMILES IDX 19 23 20 24 21 25 22 26 23 27 24 28 76 29 25 30 75 31 26 32
REMARK SMILES IDX 27 33 28 34 69 35 29 36 74 37 68 38 70 39 30 40 73 41 67 42
REMARK SMILES IDX 66 43 31 45 57 46 40 47 56 48 41 49 44 50 55 51 71 52 42 53
REMARK SMILES IDX 43 54 54 56 72 57 45 58 32 59 33 60 38 61 34 62 35 63 37 64
REMARK SMILES IDX 39 65 36 66 58 67 59 68 64 69 60 70 61 71 63 72 65 73 62 74
REMARK SMILES IDX 46 75 47 76 52 77 48 78 49 79 51 80 53 81 50 82
REMARK H PARENT 70 44 44 55
REMARK Flexibility Score: inf
ROOT
ATOM      1  C   UNL A   1      34.111  36.319  33.301  1.00  0.00     0.188 C 
ENDROOT
BRANCH   1   2
ATOM      2  O   UNL A   1      34.627  35.289  34.143  1.00  0.00    -0.377 OA
BRANCH   2   3
ATOM      3  C   UNL A   1      35.851  34.658  33.815  1.00  0.00     0.188 C 
BRANCH   3   4
ATOM      4  C   UNL A   1      35.876  33.115  33.838  1.00  0.00     0.188 C 
BRANCH   4   5
ATOM      5  O   UNL A   1      36.719  32.549  34.817  1.00  0.00    -0.376 OA
BRANCH   5   6
ATOM      6  C   UNL A   1      37.969  31.965  34.513  1.00  0.00     0.202 C 
BRANCH   6   7
ATOM      7  C   UNL A   1      38.165  30.633  33.767  1.00  0.00     0.261 C 
BRANCH   7   8
ATOM      8  O   UNL A   1      39.029  29.660  34.353  1.00  0.00    -0.460 OA
BRANCH   8   9
ATOM      9  C   UNL A   1      40.158  29.384  33.669  1.00  0.00     0.339 C 
ATOM     10  O   UNL A   1      40.473  29.810  32.573  1.00  0.00    -0.246 OA
BRANCH   9  11
ATOM     11  C   UNL A   1      41.073  28.643  34.552  1.00  0.00     0.079 A 
ATOM     12  C   UNL A   1      43.799  26.931  37.320  1.00  0.00     0.068 C 
ATOM     13  C   UNL A   1      42.763  27.431  36.354  1.00  0.00     0.055 A 
ATOM     14  N   UNL A   1      42.248  28.652  36.658  1.00  0.00    -0.259 NA
ATOM     15  C   UNL A   1      42.436  26.756  35.173  1.00  0.00     0.074 A 
ATOM     16  C   UNL A   1      41.429  29.235  35.753  1.00  0.00     0.127 A 
ATOM     17  C   UNL A   1      41.554  27.365  34.270  1.00  0.00     0.038 A 
BRANCH  15  18
ATOM     18  C   UNL A   1      43.002  25.478  34.850  1.00  0.00     0.101 C 
ATOM     19  N   UNL A   1      43.473  24.454  34.592  1.00  0.00    -0.192 NA
ENDBRANCH  15  18
ENDBRANCH   9  11
ENDBRANCH   8   9
ENDBRANCH   7   8
ENDBRANCH   6   7
ENDBRANCH   5   6
ENDBRANCH   4   5
ENDBRANCH   3   4
ENDBRANCH   2   3
ENDBRANCH   1   2
BRANCH   1  20
ATOM     20  C   UNL A   1      32.653  36.341  32.766  1.00  0.00     0.188 C 
BRANCH  20  21
ATOM     21  O   UNL A   1      32.437  37.187  31.659  1.00  0.00    -0.376 OA
BRANCH  21  22
ATOM     22  C   UNL A   1      33.326  37.175  30.564  1.00  0.00     0.202 C 
BRANCH  22  23
ATOM     23  C   UNL A   1      33.036  36.314  29.325  1.00  0.00     0.261 C 
BRANCH  23  24
ATOM     24  O   UNL A   1      32.669  34.946  29.544  1.00  0.00    -0.460 OA
BRANCH  24  25
ATOM     25  C   UNL A   1      32.950  34.055  28.567  1.00  0.00     0.338 C 
ATOM     26  O   UNL A   1      32.321  33.849  27.548  1.00  0.00    -0.246 OA
BRANCH  25  27
ATOM     27  C   UNL A   1      34.276  33.481  28.886  1.00  0.00     0.060 A 
ATOM     28  C   UNL A   1      34.441  32.717  30.050  1.00  0.00     0.016 A 
ATOM     29  C   UNL A   1      35.337  33.656  27.996  1.00  0.00     0.016 A 
ATOM     30  C   UNL A   1      35.668  32.107  30.316  1.00  0.00     0.010 A 
ATOM     31  C   UNL A   1      36.578  33.082  28.287  1.00  0.00     0.010 A 
ATOM     32  C   UNL A   1      36.751  32.318  29.455  1.00  0.00    -0.014 A 
BRANCH  32  33
ATOM     33  C   UNL A   1      38.110  31.924  29.892  1.00  0.00     0.031 A 
ATOM     34  C   UNL A   1      38.648  30.606  29.413  1.00  0.00     0.074 A 
ATOM     35  C   UNL A   1      38.864  32.724  30.665  1.00  0.00     0.049 A 
ATOM     36  N   UNL A   1      39.803  30.040  29.653  1.00  0.00    -0.248 NA
ATOM     37  C   UNL A   1      37.757  29.821  28.542  1.00  0.00     0.031 C 
ATOM     38  C   UNL A   1      38.473  34.042  31.159  1.00  0.00     0.029 A 
ATOM     39  N   UNL A   1      40.125  32.532  31.174  1.00  0.00    -0.354 N 
ATOM     40  C   UNL A   1      39.781  28.839  28.956  1.00  0.00     0.074 A 
ATOM     41  C   UNL A   1      38.483  28.736  28.325  1.00  0.00     0.031 C 
ATOM     42  C   UNL A   1      39.474  34.538  31.910  1.00  0.00     0.029 A 
ATOM     43  C   UNL A   1      40.560  33.562  31.970  1.00  0.00     0.049 A 
ATOM     44  H   UNL A   1      40.664  31.730  30.986  1.00  0.00     0.167 HD
ATOM     45  C   UNL A   1      40.758  27.909  28.840  1.00  0.00     0.037 A 
ATOM     46  C   UNL A   1      41.701  33.686  32.677  1.00  0.00     0.037 A 
ATOM     47  C   UNL A   1      42.032  27.992  29.502  1.00  0.00     0.049 A 
ATOM     48  C   UNL A   1      42.725  32.578  32.628  1.00  0.00     0.074 A 
ATOM     49  C   UNL A   1      43.088  27.100  29.457  1.00  0.00     0.029 A 
ATOM     50  N   UNL A   1      42.415  29.022  30.349  1.00  0.00    -0.354 N 
ATOM     51  N   UNL A   1      42.713  31.461  31.942  1.00  0.00    -0.248 NA
ATOM     52  C   UNL A   1      43.930  32.757  33.453  1.00  0.00     0.031 C 
ATOM     53  C   UNL A   1      44.080  27.553  30.333  1.00  0.00     0.029 A 
ATOM     54  C   UNL A   1      43.678  28.770  30.858  1.00  0.00     0.049 A 
ATOM     55  H   UNL A   1      41.869  29.814  30.558  1.00  0.00     0.167 HD
ATOM     56  C   UNL A   1      43.922  30.829  32.216  1.00  0.00     0.074 A 
ATOM     57  C   UNL A   1      44.647  31.695  33.121  1.00  0.00     0.031 C 
ATOM     58  C   UNL A   1      44.393  29.643  31.756  1.00  0.00     0.037 A 
BRANCH  45  59
ATOM     59  C   UNL A   1      40.458  26.705  27.995  1.00  0.00     0.057 A 
ATOM     60  C   UNL A   1      41.033  26.561  26.726  1.00  0.00     0.134 A 
ATOM     61  C   UNL A   1      39.601  25.685  28.434  1.00  0.00     0.134 A 
ATOM     62  F   UNL A   1      41.858  27.500  26.241  1.00  0.00    -0.206 F 
ATOM     63  C   UNL A   1      40.773  25.446  25.928  1.00  0.00     0.040 A 
ATOM     64  C   UNL A   1      39.362  24.548  27.660  1.00  0.00     0.040 A 
ATOM     65  F   UNL A   1      39.028  25.752  29.645  1.00  0.00    -0.206 F 
ATOM     66  C   UNL A   1      39.945  24.430  26.400  1.00  0.00     0.006 A 
ENDBRANCH  45  59
BRANCH  46  67
ATOM     67  C   UNL A   1      41.949  34.893  33.509  1.00  0.00     0.057 A 
ATOM     68  C   UNL A   1      41.503  34.973  34.834  1.00  0.00     0.134 A 
ATOM     69  C   UNL A   1      42.702  35.968  33.020  1.00  0.00     0.134 A 
ATOM     70  F   UNL A   1      40.776  33.979  35.366  1.00  0.00    -0.206 F 
ATOM     71  C   UNL A   1      41.800  36.073  35.642  1.00  0.00     0.040 A 
ATOM     72  C   UNL A   1      43.035  37.058  33.827  1.00  0.00     0.040 A 
ATOM     73  F   UNL A   1      43.179  35.943  31.767  1.00  0.00    -0.206 F 
ATOM     74  C   UNL A   1      42.581  37.113  35.143  1.00  0.00     0.006 A 
ENDBRANCH  46  67
BRANCH  58  75
ATOM     75  C   UNL A   1      45.784  29.243  32.172  1.00  0.00     0.057 A 
ATOM     76  C   UNL A   1      46.885  29.568  31.367  1.00  0.00     0.134 A 
ATOM     77  C   UNL A   1      46.040  28.528  33.351  1.00  0.00     0.134 A 
ATOM     78  F   UNL A   1      46.714  30.236  30.215  1.00  0.00    -0.206 F 
ATOM     79  C   UNL A   1      48.184  29.207  31.721  1.00  0.00     0.040 A 
ATOM     80  C   UNL A   1      47.341  28.196  33.736  1.00  0.00     0.040 A 
ATOM     81  F   UNL A   1      45.036  28.188  34.172  1.00  0.00    -0.206 F 
ATOM     82  C   UNL A   1      48.417  28.532  32.916  1.00  0.00     0.006 A 
ENDBRANCH  58  75
ENDBRANCH  32  33
ENDBRANCH  25  27
ENDBRANCH  24  25
ENDBRANCH  23  24
ENDBRANCH  22  23
ENDBRANCH  21  22
ENDBRANCH  20  21
ENDBRANCH   1  20
TORSDOF 21
ENDMDL
MODEL 2
REMARK VINA RESULT:      -8.5      0.363      6.370
REMARK SMILES Cc1ncc(C(=O)OCCOCCOCCOCCOC(=O)c2ccc(-c3c4nc(c(-c5c(F)cccc5F)c5ccc([nH]5)c(-c5c(F)cccc5F)c5nc(c(-c6c(F)cccc6F)c6ccc3[nH]6)C=C5)C=C4)cc2)cc1C#N
REMARK SMILES IDX 15 1 14 2 13 3 12 4 11 5 10 6 9 7 8 8 6 9 7 10 5 11 1 12
REMARK SMILES IDX 2 13 3 14 78 15 4 16 77 17 79 18 80 19 16 20 17 21 18 22
REMARK SMILES IDX 19 23 20 24 21 25 22 26 23 27 24 28 76 29 25 30 75 31 26 32
REMARK SMILES IDX 27 33 28 34 69 35 29 36 74 37 68 38 70 39 30 40 73 41 67 42
REMARK SMILES IDX 66 43 31 45 57 46 40 47 56 48 41 49 44 50 55 51 71 52 42 53
REMARK SMILES IDX 43 54 54 56 72 57 45 58 32 59 33 60 38 61 34 62 35 63 37 64
REMARK SMILES IDX 39 65 36 66 58 67 59 68 64 69 60 70 61 71 63 72 65 73 62 74
REMARK SMILES IDX 46 75 47 76 52 77 48 78 49 79 51 80 53 81 50 82
REMARK H PARENT 70 44 44 55
REMARK Flexibility Score: inf
ROOT
ATOM      1  C   UNL A   1      34.100  36.216  33.177  1.00  0.00     0.188 C 
ENDROOT
BRANCH   1   2
ATOM      2  O   UNL A   1      34.560  35.149  34.005  1.00  0.00    -0.377 OA
BRANCH   2   3
ATOM      3  C   UNL A   1      35.860  34.622  33.816  1.00  0.00     0.188 C 
BRANCH   3   4
ATOM      4  C   UNL A   1      36.030  33.096  33.980  1.00  0.00     0.188 C 
BRANCH   4   5
ATOM      5  O   UNL A   1      36.979  32.705  34.948  1.00  0.00    -0.376 OA
BRANCH   5   6
ATOM      6  C   UNL A   1      38.188  32.051  34.622  1.00  0.00     0.202 C 
BRANCH   6   7
ATOM      7  C   UNL A   1      38.293  30.683  33.924  1.00  0.00     0.261 C 
BRANCH   7   8
ATOM      8  O   UNL A   1      39.147  29.700  34.508  1.00  0.00    -0.460 OA
BRANCH   8   9
ATOM      9  C   UNL A   1      40.250  29.381  33.801  1.00  0.00     0.339 C 
ATOM     10  O   UNL A   1      40.562  29.800  32.701  1.00  0.00    -0.246 OA
BRANCH   9  11
ATOM     11  C   UNL A   1      41.149  28.596  34.663  1.00  0.00     0.079 A 
ATOM     12  C   UNL A   1      43.912  26.760  37.313  1.00  0.00     0.068 C 
ATOM     13  C   UNL A   1      42.851  27.318  36.406  1.00  0.00     0.055 A 
ATOM     14  N   UNL A   1      42.547  28.624  36.629  1.00  0.00    -0.259 NA
ATOM     15  C   UNL A   1      42.302  26.593  35.342  1.00  0.00     0.074 A 
ATOM     16  C   UNL A   1      41.718  29.236  35.753  1.00  0.00     0.127 A 
ATOM     17  C   UNL A   1      41.416  27.241  34.472  1.00  0.00     0.038 A 
BRANCH  15  18
ATOM     18  C   UNL A   1      42.648  25.222  35.103  1.00  0.00     0.101 C 
ATOM     19  N   UNL A   1      42.942  24.120  34.910  1.00  0.00    -0.192 NA
ENDBRANCH  15  18
ENDBRANCH   9  11
ENDBRANCH   8   9
ENDBRANCH   7   8
ENDBRANCH   6   7
ENDBRANCH   5   6
ENDBRANCH   4   5
ENDBRANCH   3   4
ENDBRANCH   2   3
ENDBRANCH   1   2
BRANCH   1  20
ATOM     20  C   UNL A   1      32.662  36.292  32.593  1.00  0.00     0.188 C 
BRANCH  20  21
ATOM     21  O   UNL A   1      32.506  37.177  31.506  1.00  0.00    -0.376 OA
BRANCH  21  22
ATOM     22  C   UNL A   1      33.384  37.120  30.404  1.00  0.00     0.202 C 
BRANCH  22  23
ATOM     23  C   UNL A   1      33.041  36.273  29.169  1.00  0.00     0.261 C 
BRANCH  23  24
ATOM     24  O   UNL A   1      32.601  34.928  29.393  1.00  0.00    -0.460 OA
BRANCH  24  25
ATOM     25  C   UNL A   1      32.964  33.989  28.491  1.00  0.00     0.338 C 
ATOM     26  O   UNL A   1      32.380  33.672  27.473  1.00  0.00    -0.246 OA
BRANCH  25  27
ATOM     27  C   UNL A   1      34.311  33.520  28.886  1.00  0.00     0.060 A 
ATOM     28  C   UNL A   1      35.400  33.729  28.027  1.00  0.00     0.016 A 
ATOM     29  C   UNL A   1      34.498  32.927  30.136  1.00  0.00     0.016 A 
ATOM     30  C   UNL A   1      36.685  33.361  28.427  1.00  0.00     0.010 A 
ATOM     31  C   UNL A   1      35.778  32.518  30.516  1.00  0.00     0.010 A 
ATOM     32  C   UNL A   1      36.874  32.720  29.658  1.00  0.00    -0.014 A 
BRANCH  32  33
ATOM     33  C   UNL A   1      38.173  32.069  29.944  1.00  0.00     0.031 A 
ATOM     34  C   UNL A   1      39.143  32.796  30.830  1.00  0.00     0.074 A 
ATOM     35  C   UNL A   1      38.477  30.853  29.459  1.00  0.00     0.049 A 
ATOM     36  N   UNL A   1      40.337  32.440  31.228  1.00  0.00    -0.248 NA
ATOM     37  C   UNL A   1      38.702  34.107  31.336  1.00  0.00     0.031 C 
ATOM     38  C   UNL A   1      37.605  30.030  28.625  1.00  0.00     0.029 A 
ATOM     39  N   UNL A   1      39.617  30.102  29.603  1.00  0.00    -0.354 N 
ATOM     40  C   UNL A   1      40.785  33.476  32.038  1.00  0.00     0.074 A 
ATOM     41  C   UNL A   1      39.756  34.493  32.036  1.00  0.00     0.031 C 
ATOM     42  C   UNL A   1      38.248  28.886  28.323  1.00  0.00     0.029 A 
ATOM     43  C   UNL A   1      39.583  28.912  28.918  1.00  0.00     0.049 A 
ATOM     44  H   UNL A   1      40.386  30.390  30.146  1.00  0.00     0.167 HD
ATOM     45  C   UNL A   1      41.943  33.568  32.733  1.00  0.00     0.037 A 
ATOM     46  C   UNL A   1      40.533  27.966  28.780  1.00  0.00     0.037 A 
ATOM     47  C   UNL A   1      42.983  32.575  32.700  1.00  0.00     0.049 A 
ATOM     48  C   UNL A   1      41.864  28.150  29.468  1.00  0.00     0.074 A 
ATOM     49  C   UNL A   1      44.198  32.576  33.361  1.00  0.00     0.029 A 
ATOM     50  N   UNL A   1      42.939  31.411  31.947  1.00  0.00    -0.354 N 
ATOM     51  N   UNL A   1      42.268  29.114  30.258  1.00  0.00    -0.248 NA
ATOM     52  C   UNL A   1      42.871  27.101  29.245  1.00  0.00     0.031 C 
ATOM     53  C   UNL A   1      44.919  31.449  32.952  1.00  0.00     0.029 A 
ATOM     54  C   UNL A   1      44.119  30.702  32.103  1.00  0.00     0.049 A 
ATOM     55  H   UNL A   1      42.181  31.130  31.385  1.00  0.00     0.167 HD
ATOM     56  C   UNL A   1      43.554  28.766  30.662  1.00  0.00     0.074 A 
ATOM     57  C   UNL A   1      43.855  27.496  30.038  1.00  0.00     0.031 C 
ATOM     58  C   UNL A   1      44.407  29.434  31.479  1.00  0.00     0.037 A 
BRANCH  45  59
ATOM     59  C   UNL A   1      42.152  34.810  33.550  1.00  0.00     0.057 A 
ATOM     60  C   UNL A   1      41.670  34.891  34.863  1.00  0.00     0.134 A 
ATOM     61  C   UNL A   1      42.832  35.927  33.043  1.00  0.00     0.134 A 
ATOM     62  F   UNL A   1      41.007  33.862  35.410  1.00  0.00    -0.206 F 
ATOM     63  C   UNL A   1      41.860  36.033  35.642  1.00  0.00     0.040 A 
ATOM     64  C   UNL A   1      43.059  37.061  33.825  1.00  0.00     0.040 A 
ATOM     65  F   UNL A   1      43.333  35.911  31.798  1.00  0.00    -0.206 F 
ATOM     66  C   UNL A   1      42.567  37.117  35.127  1.00  0.00     0.006 A 
ENDBRANCH  45  59
BRANCH  46  67
ATOM     67  C   UNL A   1      40.283  26.757  27.951  1.00  0.00     0.057 A 
ATOM     68  C   UNL A   1      40.841  26.619  26.674  1.00  0.00     0.134 A 
ATOM     69  C   UNL A   1      39.538  25.680  28.445  1.00  0.00     0.134 A 
ATOM     70  F   UNL A   1      41.566  27.613  26.139  1.00  0.00    -0.206 F 
ATOM     71  C   UNL A   1      40.673  25.453  25.923  1.00  0.00     0.040 A 
ATOM     72  C   UNL A   1      39.389  24.496  27.720  1.00  0.00     0.040 A 
ATOM     73  F   UNL A   1      38.996  25.740  29.671  1.00  0.00    -0.206 F 
ATOM     74  C   UNL A   1      39.957  24.382  26.453  1.00  0.00     0.006 A 
ENDBRANCH  46  67
BRANCH  58  75
ATOM     75  C   UNL A   1      45.720  28.772  31.798  1.00  0.00     0.057 A 
ATOM     76  C   UNL A   1      45.826  27.898  32.888  1.00  0.00     0.134 A 
ATOM     77  C   UNL A   1      46.881  29.002  31.046  1.00  0.00     0.134 A 
ATOM     78  F   UNL A   1      44.761  27.643  33.664  1.00  0.00    -0.206 F 
ATOM     79  C   UNL A   1      47.030  27.273  33.214  1.00  0.00     0.040 A 
ATOM     80  C   UNL A   1      48.082  28.352  31.338  1.00  0.00     0.040 A 
ATOM     81  F   UNL A   1      46.853  29.822  29.985  1.00  0.00    -0.206 F 
ATOM     82  C   UNL A   1      48.159  27.487  32.428  1.00  0.00     0.006 A 
ENDBRANCH  58  75
ENDBRANCH  32  33
ENDBRANCH  25  27
ENDBRANCH  24  25
ENDBRANCH  23  24
ENDBRANCH  22  23
ENDBRANCH  21  22
ENDBRANCH  20  21
ENDBRANCH   1  20
TORSDOF 21
ENDMDL
MODEL 3
REMARK VINA RESULT:      -8.4      4.987     11.230
REMARK SMILES Cc1ncc(C(=O)OCCOCCOCCOCCOC(=O)c2ccc(-c3c4nc(c(-c5c(F)cccc5F)c5ccc([nH]5)c(-c5c(F)cccc5F)c5nc(c(-c6c(F)cccc6F)c6ccc3[nH]6)C=C5)C=C4)cc2)cc1C#N
REMARK SMILES IDX 15 1 14 2 13 3 12 4 11 5 10 6 9 7 8 8 6 9 7 10 5 11 1 12
REMARK SMILES IDX 2 13 3 14 78 15 4 16 77 17 79 18 80 19 16 20 17 21 18 22
REMARK SMILES IDX 19 23 20 24 21 25 22 26 23 27 24 28 76 29 25 30 75 31 26 32
REMARK SMILES IDX 27 33 28 34 69 35 29 36 74 37 68 38 70 39 30 40 73 41 67 42
REMARK SMILES IDX 66 43 31 45 57 46 40 47 56 48 41 49 44 50 55 51 71 52 42 53
REMARK SMILES IDX 43 54 54 56 72 57 45 58 32 59 33 60 38 61 34 62 35 63 37 64
REMARK SMILES IDX 39 65 36 66 58 67 59 68 64 69 60 70 61 71 63 72 65 73 62 74
REMARK SMILES IDX 46 75 47 76 52 77 48 78 49 79 51 80 53 81 50 82
REMARK H PARENT 70 44 44 55
REMARK Flexibility Score: inf
ROOT
ATOM      1  C   UNL A   1      39.739  21.507  26.296  1.00  0.00     0.188 C 
ENDROOT
BRANCH   1   2
ATOM      2  O   UNL A   1      38.419  21.662  25.775  1.00  0.00    -0.377 OA
BRANCH   2   3
ATOM      3  C   UNL A   1      37.835  22.950  25.712  1.00  0.00     0.188 C 
BRANCH   3   4
ATOM      4  C   UNL A   1      36.295  23.027  25.789  1.00  0.00     0.188 C 
BRANCH   4   5
ATOM      5  O   UNL A   1      35.669  21.886  26.334  1.00  0.00    -0.376 OA
BRANCH   5   6
ATOM      6  C   UNL A   1      34.326  21.880  26.773  1.00  0.00     0.202 C 
BRANCH   6   7
ATOM      7  C   UNL A   1      33.142  22.499  26.008  1.00  0.00     0.261 C 
BRANCH   7   8
ATOM      8  O   UNL A   1      32.881  23.890  26.198  1.00  0.00    -0.460 OA
BRANCH   8   9
ATOM      9  C   UNL A   1      31.608  24.215  26.503  1.00  0.00     0.339 C 
ATOM     10  O   UNL A   1      30.921  23.734  27.386  1.00  0.00    -0.246 OA
BRANCH   9  11
ATOM     11  C   UNL A   1      31.232  25.413  25.734  1.00  0.00     0.079 A 
ATOM     12  C   UNL A   1      30.004  28.562  23.165  1.00  0.00     0.068 C 
ATOM     13  C   UNL A   1      30.392  27.515  24.172  1.00  0.00     0.055 A 
ATOM     14  N   UNL A   1      29.913  26.271  23.906  1.00  0.00    -0.259 NA
ATOM     15  C   UNL A   1      31.268  27.768  25.233  1.00  0.00     0.074 A 
ATOM     16  C   UNL A   1      30.349  25.250  24.679  1.00  0.00     0.127 A 
ATOM     17  C   UNL A   1      31.674  26.699  26.041  1.00  0.00     0.038 A 
BRANCH  15  18
ATOM     18  C   UNL A   1      31.785  29.081  25.490  1.00  0.00     0.101 C 
ATOM     19  N   UNL A   1      32.193  30.141  25.709  1.00  0.00    -0.192 NA
ENDBRANCH  15  18
ENDBRANCH   9  11
ENDBRANCH   8   9
ENDBRANCH   7   8
ENDBRANCH   6   7
ENDBRANCH   5   6
ENDBRANCH   4   5
ENDBRANCH   3   4
ENDBRANCH   2   3
ENDBRANCH   1   2
BRANCH   1  20
ATOM     20  C   UNL A   1      40.479  20.143  26.367  1.00  0.00     0.188 C 
BRANCH  20  21
ATOM     21  O   UNL A   1      41.730  20.109  25.718  1.00  0.00    -0.376 OA
BRANCH  21  22
ATOM     22  C   UNL A   1      42.786  20.935  26.155  1.00  0.00     0.202 C 
BRANCH  22  23
ATOM     23  C   UNL A   1      43.599  21.768  25.151  1.00  0.00     0.261 C 
BRANCH  23  24
ATOM     24  O   UNL A   1      43.137  23.095  24.869  1.00  0.00    -0.460 OA
BRANCH  24  25
ATOM     25  C   UNL A   1      43.998  24.117  25.073  1.00  0.00     0.338 C 
ATOM     26  O   UNL A   1      45.036  24.342  24.483  1.00  0.00    -0.246 OA
BRANCH  25  27
ATOM     27  C   UNL A   1      43.355  25.023  26.051  1.00  0.00     0.060 A 
ATOM     28  C   UNL A   1      43.828  26.334  26.201  1.00  0.00     0.016 A 
ATOM     29  C   UNL A   1      42.246  24.583  26.775  1.00  0.00     0.016 A 
ATOM     30  C   UNL A   1      43.177  27.217  27.063  1.00  0.00     0.010 A 
ATOM     31  C   UNL A   1      41.623  25.454  27.673  1.00  0.00     0.010 A 
ATOM     32  C   UNL A   1      42.095  26.769  27.830  1.00  0.00    -0.014 A 
BRANCH  32  33
ATOM     33  C   UNL A   1      41.605  27.607  28.949  1.00  0.00     0.031 A 
ATOM     34  C   UNL A   1      42.324  27.516  30.264  1.00  0.00     0.074 A 
ATOM     35  C   UNL A   1      40.570  28.451  28.799  1.00  0.00     0.049 A 
ATOM     36  N   UNL A   1      42.090  28.144  31.387  1.00  0.00    -0.248 NA
ATOM     37  C   UNL A   1      43.466  26.588  30.315  1.00  0.00     0.031 C 
ATOM     38  C   UNL A   1      39.817  28.661  27.564  1.00  0.00     0.029 A 
ATOM     39  N   UNL A   1      39.971  29.289  29.706  1.00  0.00    -0.354 N 
ATOM     40  C   UNL A   1      43.060  27.695  32.274  1.00  0.00     0.074 A 
ATOM     41  C   UNL A   1      43.853  26.708  31.574  1.00  0.00     0.031 C 
ATOM     42  C   UNL A   1      38.849  29.567  27.796  1.00  0.00     0.029 A 
ATOM     43  C   UNL A   1      38.897  29.976  29.198  1.00  0.00     0.049 A 
ATOM     44  H   UNL A   1      40.284  29.388  30.635  1.00  0.00     0.167 HD
ATOM     45  C   UNL A   1      43.280  28.078  33.554  1.00  0.00     0.037 A 
ATOM     46  C   UNL A   1      38.045  30.824  29.807  1.00  0.00     0.037 A 
ATOM     47  C   UNL A   1      42.465  29.028  34.262  1.00  0.00     0.049 A 
ATOM     48  C   UNL A   1      38.239  31.142  31.270  1.00  0.00     0.074 A 
ATOM     49  C   UNL A   1      42.598  29.478  35.563  1.00  0.00     0.029 A 
ATOM     50  N   UNL A   1      41.349  29.658  33.733  1.00  0.00    -0.354 N 
ATOM     51  N   UNL A   1      39.177  30.741  32.094  1.00  0.00    -0.248 NA
ATOM     52  C   UNL A   1      37.252  32.043  31.885  1.00  0.00     0.031 C 
ATOM     53  C   UNL A   1      41.521  30.325  35.844  1.00  0.00     0.029 A 
ATOM     54  C   UNL A   1      40.765  30.469  34.692  1.00  0.00     0.049 A 
ATOM     55  H   UNL A   1      41.019  29.545  32.812  1.00  0.00     0.167 HD
ATOM     56  C   UNL A   1      38.920  31.373  33.306  1.00  0.00     0.074 A 
ATOM     57  C   UNL A   1      37.745  32.195  33.105  1.00  0.00     0.031 C 
ATOM     58  C   UNL A   1      39.597  31.287  34.479  1.00  0.00     0.037 A 
BRANCH  45  59
ATOM     59  C   UNL A   1      44.428  27.429  34.273  1.00  0.00     0.057 A 
ATOM     60  C   UNL A   1      44.248  26.222  34.961  1.00  0.00     0.134 A 
ATOM     61  C   UNL A   1      45.712  27.993  34.285  1.00  0.00     0.134 A 
ATOM     62  F   UNL A   1      43.046  25.629  34.996  1.00  0.00    -0.206 F 
ATOM     63  C   UNL A   1      45.302  25.599  35.630  1.00  0.00     0.040 A 
ATOM     64  C   UNL A   1      46.782  27.361  34.920  1.00  0.00     0.040 A 
ATOM     65  F   UNL A   1      45.957  29.140  33.633  1.00  0.00    -0.206 F 
ATOM     66  C   UNL A   1      46.576  26.162  35.599  1.00  0.00     0.006 A 
ENDBRANCH  45  59
BRANCH  46  67
ATOM     67  C   UNL A   1      36.916  31.434  29.056  1.00  0.00     0.057 A 
ATOM     68  C   UNL A   1      35.741  30.718  28.793  1.00  0.00     0.134 A 
ATOM     69  C   UNL A   1      36.957  32.772  28.644  1.00  0.00     0.134 A 
ATOM     70  F   UNL A   1      35.634  29.432  29.159  1.00  0.00    -0.206 F 
ATOM     71  C   UNL A   1      34.649  31.311  28.155  1.00  0.00     0.040 A 
ATOM     72  C   UNL A   1      35.861  33.387  28.037  1.00  0.00     0.040 A 
ATOM     73  F   UNL A   1      38.045  33.519  28.887  1.00  0.00    -0.206 F 
ATOM     74  C   UNL A   1      34.702  32.654  27.788  1.00  0.00     0.006 A 
ENDBRANCH  46  67
BRANCH  58  75
ATOM     75  C   UNL A   1      39.123  32.153  35.616  1.00  0.00     0.057 A 
ATOM     76  C   UNL A   1      39.530  33.492  35.703  1.00  0.00     0.134 A 
ATOM     77  C   UNL A   1      38.283  31.671  36.629  1.00  0.00     0.134 A 
ATOM     78  F   UNL A   1      40.349  34.018  34.779  1.00  0.00    -0.206 F 
ATOM     79  C   UNL A   1      39.114  34.318  36.747  1.00  0.00     0.040 A 
ATOM     80  C   UNL A   1      37.827  32.500  37.657  1.00  0.00     0.040 A 
ATOM     81  F   UNL A   1      37.849  30.402  36.607  1.00  0.00    -0.206 F 
ATOM     82  C   UNL A   1      38.247  33.827  37.719  1.00  0.00     0.006 A 
ENDBRANCH  58  75
ENDBRANCH  32  33
ENDBRANCH  25  27
ENDBRANCH  24  25
ENDBRANCH  23  24
ENDBRANCH  22  23
ENDBRANCH  21  22
ENDBRANCH  20  21
ENDBRANCH   1  20
TORSDOF 21
ENDMDL
