MODEL 1
REMARK VINA RESULT:      -9.0      0.000      0.000
REMARK SMILES CC[C@@]1(C)NC(=O)N(/N=C/c2ccccc2C(=O)OCCOCCOCCOCCOC(=O)c2ccc(-c3c4nc(c(-c5c(F)cccc5F)c5ccc([nH]5)c(-c5c(F)cccc5F)c5nc(c(-c6c(F)cccc6F)c6ccc3[nH]6)C=C5)C=C4)cc2)C1=O
REMARK SMILES IDX 24 1 23 2 22 3 21 4 20 5 19 6 17 7 18 8 16 9 11 10 12 11
REMARK SMILES IDX 13 12 15 13 14 14 10 15 9 16 8 17 3 18 4 19 5 20 88 21 6 22
REMARK SMILES IDX 89 24 7 25 2 26 1 27 25 28 26 29 27 30 28 31 29 32 30 33
REMARK SMILES IDX 31 34 32 35 33 36 34 37 35 38 87 39 36 40 86 41 37 42 38 43
REMARK SMILES IDX 39 44 80 45 40 46 85 47 79 48 81 49 41 50 84 51 78 52 77 53
REMARK SMILES IDX 42 55 68 56 51 57 67 58 52 59 55 60 66 61 82 62 53 63 54 64
REMARK SMILES IDX 65 66 83 67 56 68 43 69 44 70 49 71 45 72 46 73 48 74 50 75
REMARK SMILES IDX 47 76 69 77 70 78 75 79 71 80 72 81 74 82 76 83 73 84 57 85
REMARK SMILES IDX 58 86 63 87 59 88 60 89 62 90 64 91 61 92
REMARK H PARENT 5 23 81 54 55 65
REMARK Flexibility Score: inf
ROOT
ATOM      1  C   UNL A   1      32.707  36.329  29.220  1.00  0.00     0.188 C 
ENDROOT
BRANCH   1   2
ATOM      2  C   UNL A   1      33.884  35.370  28.916  1.00  0.00     0.188 C 
BRANCH   2   3
ATOM      3  O   UNL A   1      33.551  33.996  29.001  1.00  0.00    -0.376 OA
BRANCH   3   4
ATOM      4  C   UNL A   1      34.575  33.019  28.942  1.00  0.00     0.202 C 
BRANCH   4   5
ATOM      5  C   UNL A   1      34.248  31.583  28.527  1.00  0.00     0.261 C 
BRANCH   5   6
ATOM      6  O   UNL A   1      33.878  31.428  27.156  1.00  0.00    -0.460 OA
BRANCH   6   7
ATOM      7  C   UNL A   1      32.735  30.777  26.870  1.00  0.00     0.338 C 
ATOM      8  O   UNL A   1      31.610  31.249  26.864  1.00  0.00    -0.246 OA
BRANCH   7   9
ATOM      9  C   UNL A   1      33.080  29.457  26.286  1.00  0.00     0.068 A 
ATOM     10  C   UNL A   1      32.345  28.798  25.290  1.00  0.00     0.009 A 
ATOM     11  C   UNL A   1      32.730  27.514  24.869  1.00  0.00     0.010 A 
ATOM     12  C   UNL A   1      33.811  26.867  25.466  1.00  0.00     0.001 A 
ATOM     13  C   UNL A   1      34.161  28.787  26.889  1.00  0.00     0.016 A 
ATOM     14  C   UNL A   1      34.512  27.494  26.492  1.00  0.00     0.001 A 
BRANCH  10  15
ATOM     15  C   UNL A   1      31.070  29.287  24.731  1.00  0.00     0.143 C 
ATOM     16  N   UNL A   1      30.842  29.382  23.464  1.00  0.00    -0.169 NA
BRANCH  16  17
ATOM     17  N   UNL A   1      29.672  29.980  23.076  1.00  0.00    -0.146 N 
ATOM     18  C   UNL A   1      27.861  31.438  22.692  1.00  0.00     0.120 C 
ATOM     19  C   UNL A   1      26.920  31.571  23.889  1.00  0.00     0.045 C 
ATOM     20  N   UNL A   1      27.676  30.141  22.085  1.00  0.00    -0.322 N 
ATOM     21  C   UNL A   1      29.297  31.301  23.227  1.00  0.00     0.276 C 
ATOM     22  C   UNL A   1      28.685  29.261  22.433  1.00  0.00     0.346 C 
ATOM     23  H   UNL A   1      26.923  29.910  21.496  1.00  0.00     0.166 HD
ATOM     24  O   UNL A   1      29.908  32.220  23.761  1.00  0.00    -0.270 OA
ATOM     25  O   UNL A   1      28.628  28.072  22.162  1.00  0.00    -0.246 OA
BRANCH  18  26
ATOM     26  C   UNL A   1      27.767  32.592  21.688  1.00  0.00     0.035 C 
ATOM     27  C   UNL A   1      27.975  32.139  20.256  1.00  0.00     0.007 C 
ENDBRANCH  18  26
ENDBRANCH  16  17
ENDBRANCH  10  15
ENDBRANCH   7   9
ENDBRANCH   6   7
ENDBRANCH   5   6
ENDBRANCH   4   5
ENDBRANCH   3   4
ENDBRANCH   2   3
ENDBRANCH   1   2
BRANCH   1  28
ATOM     28  O   UNL A   1      32.322  36.568  30.568  1.00  0.00    -0.377 OA
BRANCH  28  29
ATOM     29  C   UNL A   1      33.317  36.757  31.572  1.00  0.00     0.188 C 
BRANCH  29  30
ATOM     30  C   UNL A   1      33.611  35.691  32.654  1.00  0.00     0.188 C 
BRANCH  30  31
ATOM     31  O   UNL A   1      34.783  35.922  33.415  1.00  0.00    -0.376 OA
BRANCH  31  32
ATOM     32  C   UNL A   1      35.152  34.960  34.384  1.00  0.00     0.202 C 
BRANCH  32  33
ATOM     33  C   UNL A   1      35.242  33.500  33.916  1.00  0.00     0.261 C 
BRANCH  33  34
ATOM     34  O   UNL A   1      36.148  33.246  32.829  1.00  0.00    -0.460 OA
BRANCH  34  35
ATOM     35  C   UNL A   1      36.155  31.996  32.325  1.00  0.00     0.338 C 
ATOM     36  O   UNL A   1      35.200  31.235  32.230  1.00  0.00    -0.246 OA
BRANCH  35  37
ATOM     37  C   UNL A   1      37.475  31.744  31.717  1.00  0.00     0.060 A 
ATOM     38  C   UNL A   1      37.596  31.799  30.322  1.00  0.00     0.016 A 
ATOM     39  C   UNL A   1      38.583  31.436  32.508  1.00  0.00     0.016 A 
ATOM     40  C   UNL A   1      38.812  31.491  29.711  1.00  0.00     0.010 A 
ATOM     41  C   UNL A   1      39.799  31.119  31.894  1.00  0.00     0.010 A 
ATOM     42  C   UNL A   1      39.910  31.104  30.489  1.00  0.00    -0.014 A 
BRANCH  42  43
ATOM     43  C   UNL A   1      41.103  30.505  29.836  1.00  0.00     0.031 A 
ATOM     44  C   UNL A   1      42.255  31.404  29.468  1.00  0.00     0.074 A 
ATOM     45  C   UNL A   1      41.215  29.181  29.623  1.00  0.00     0.049 A 
ATOM     46  N   UNL A   1      43.374  31.110  28.856  1.00  0.00    -0.248 NA
ATOM     47  C   UNL A   1      42.144  32.814  29.876  1.00  0.00     0.031 C 
ATOM     48  C   UNL A   1      40.257  28.163  30.048  1.00  0.00     0.029 A 
ATOM     49  N   UNL A   1      42.183  28.471  28.952  1.00  0.00    -0.354 N 
ATOM     50  C   UNL A   1      44.121  32.281  28.857  1.00  0.00     0.074 A 
ATOM     51  C   UNL A   1      43.292  33.311  29.444  1.00  0.00     0.031 C 
ATOM     52  C   UNL A   1      40.642  26.972  29.554  1.00  0.00     0.029 A 
ATOM     53  C   UNL A   1      41.841  27.157  28.744  1.00  0.00     0.049 A 
ATOM     54  H   UNL A   1      43.033  28.865  28.651  1.00  0.00     0.167 HD
ATOM     55  C   UNL A   1      45.400  32.469  28.452  1.00  0.00     0.037 A 
ATOM     56  C   UNL A   1      42.396  26.229  27.944  1.00  0.00     0.037 A 
ATOM     57  C   UNL A   1      46.218  31.449  27.850  1.00  0.00     0.049 A 
ATOM     58  C   UNL A   1      43.700  26.520  27.267  1.00  0.00     0.074 A 
ATOM     59  C   UNL A   1      47.537  31.530  27.440  1.00  0.00     0.029 A 
ATOM     60  N   UNL A   1      45.786  30.165  27.548  1.00  0.00    -0.354 N 
ATOM     61  N   UNL A   1      44.412  27.617  27.292  1.00  0.00    -0.248 NA
ATOM     62  C   UNL A   1      44.308  25.420  26.507  1.00  0.00     0.031 C 
ATOM     63  C   UNL A   1      47.881  30.320  26.826  1.00  0.00     0.029 A 
ATOM     64  C   UNL A   1      46.798  29.460  26.917  1.00  0.00     0.049 A 
ATOM     65  H   UNL A   1      44.891  29.809  27.752  1.00  0.00     0.167 HD
ATOM     66  C   UNL A   1      45.594  27.316  26.629  1.00  0.00     0.074 A 
ATOM     67  C   UNL A   1      45.480  25.945  26.175  1.00  0.00     0.031 C 
ATOM     68  C   UNL A   1      46.690  28.095  26.461  1.00  0.00     0.037 A 
BRANCH  55  69
ATOM     69  C   UNL A   1      45.987  33.838  28.648  1.00  0.00     0.057 A 
ATOM     70  C   UNL A   1      46.574  34.226  29.861  1.00  0.00     0.134 A 
ATOM     71  C   UNL A   1      45.984  34.773  27.607  1.00  0.00     0.134 A 
ATOM     72  F   UNL A   1      46.600  33.382  30.905  1.00  0.00    -0.206 F 
ATOM     73  C   UNL A   1      47.107  35.503  30.040  1.00  0.00     0.040 A 
ATOM     74  C   UNL A   1      46.541  36.043  27.763  1.00  0.00     0.040 A 
ATOM     75  F   UNL A   1      45.443  34.467  26.417  1.00  0.00    -0.206 F 
ATOM     76  C   UNL A   1      47.097  36.414  28.987  1.00  0.00     0.006 A 
ENDBRANCH  55  69
BRANCH  56  77
ATOM     77  C   UNL A   1      41.703  24.939  27.713  1.00  0.00     0.057 A 
ATOM     78  C   UNL A   1      42.032  23.785  28.428  1.00  0.00     0.134 A 
ATOM     79  C   UNL A   1      40.703  24.836  26.738  1.00  0.00     0.134 A 
ATOM     80  F   UNL A   1      43.012  23.816  29.342  1.00  0.00    -0.206 F 
ATOM     81  C   UNL A   1      41.383  22.573  28.188  1.00  0.00     0.040 A 
ATOM     82  C   UNL A   1      40.031  23.637  26.501  1.00  0.00     0.040 A 
ATOM     83  F   UNL A   1      40.379  25.898  25.988  1.00  0.00    -0.206 F 
ATOM     84  C   UNL A   1      40.372  22.499  27.229  1.00  0.00     0.006 A 
ENDBRANCH  56  77
BRANCH  68  85
ATOM     85  C   UNL A   1      47.895  27.456  25.833  1.00  0.00     0.057 A 
ATOM     86  C   UNL A   1      48.906  26.849  26.589  1.00  0.00     0.134 A 
ATOM     87  C   UNL A   1      48.042  27.452  24.439  1.00  0.00     0.134 A 
ATOM     88  F   UNL A   1      48.838  26.835  27.929  1.00  0.00    -0.206 F 
ATOM     89  C   UNL A   1      50.032  26.290  25.983  1.00  0.00     0.040 A 
ATOM     90  C   UNL A   1      49.146  26.867  23.820  1.00  0.00     0.040 A 
ATOM     91  F   UNL A   1      47.109  28.013  23.653  1.00  0.00    -0.206 F 
ATOM     92  C   UNL A   1      50.151  26.293  24.594  1.00  0.00     0.006 A 
ENDBRANCH  68  85
ENDBRANCH  42  43
ENDBRANCH  35  37
ENDBRANCH  34  35
ENDBRANCH  33  34
ENDBRANCH  32  33
ENDBRANCH  31  32
ENDBRANCH  30  31
ENDBRANCH  29  30
ENDBRANCH  28  29
ENDBRANCH   1  28
TORSDOF 23
ENDMDL
MODEL 2
REMARK VINA RESULT:      -8.9      6.227     13.961
REMARK SMILES CC[C@@]1(C)NC(=O)N(/N=C/c2ccccc2C(=O)OCCOCCOCCOCCOC(=O)c2ccc(-c3c4nc(c(-c5c(F)cccc5F)c5ccc([nH]5)c(-c5c(F)cccc5F)c5nc(c(-c6c(F)cccc6F)c6ccc3[nH]6)C=C5)C=C4)cc2)C1=O
REMARK SMILES IDX 24 1 23 2 22 3 21 4 20 5 19 6 17 7 18 8 16 9 11 10 12 11
REMARK SMILES IDX 13 12 15 13 14 14 10 15 9 16 8 17 3 18 4 19 5 20 88 21 6 22
REMARK SMILES IDX 89 24 7 25 2 26 1 27 25 28 26 29 27 30 28 31 29 32 30 33
REMARK SMILES IDX 31 34 32 35 33 36 34 37 35 38 87 39 36 40 86 41 37 42 38 43
REMARK SMILES IDX 39 44 80 45 40 46 85 47 79 48 81 49 41 50 84 51 78 52 77 53
REMARK SMILES IDX 42 55 68 56 51 57 67 58 52 59 55 60 66 61 82 62 53 63 54 64
REMARK SMILES IDX 65 66 83 67 56 68 43 69 44 70 49 71 45 72 46 73 48 74 50 75
REMARK SMILES IDX 47 76 69 77 70 78 75 79 71 80 72 81 74 82 76 83 73 84 57 85
REMARK SMILES IDX 58 86 63 87 59 88 60 89 62 90 64 91 61 92
REMARK H PARENT 5 23 81 54 55 65
REMARK Flexibility Score: inf
ROOT
ATOM      1  C   UNL A   1      45.361  22.024  24.805  1.00  0.00     0.188 C 
ENDROOT
BRANCH   1   2
ATOM      2  C   UNL A   1      45.850  23.351  25.436  1.00  0.00     0.188 C 
BRANCH   2   3
ATOM      3  O   UNL A   1      45.745  24.474  24.581  1.00  0.00    -0.376 OA
BRANCH   3   4
ATOM      4  C   UNL A   1      45.353  25.728  25.111  1.00  0.00     0.202 C 
BRANCH   4   5
ATOM      5  C   UNL A   1      46.397  26.677  25.703  1.00  0.00     0.261 C 
BRANCH   5   6
ATOM      6  O   UNL A   1      47.345  27.182  24.761  1.00  0.00    -0.460 OA
BRANCH   6   7
ATOM      7  C   UNL A   1      48.237  26.327  24.228  1.00  0.00     0.338 C 
ATOM      8  O   UNL A   1      48.209  25.851  23.106  1.00  0.00    -0.246 OA
BRANCH   7   9
ATOM      9  C   UNL A   1      49.421  26.266  25.122  1.00  0.00     0.068 A 
ATOM     10  C   UNL A   1      50.689  26.784  24.818  1.00  0.00     0.009 A 
ATOM     11  C   UNL A   1      51.755  26.599  25.715  1.00  0.00     0.010 A 
ATOM     12  C   UNL A   1      51.575  25.865  26.887  1.00  0.00     0.001 A 
ATOM     13  C   UNL A   1      49.257  25.516  26.301  1.00  0.00     0.016 A 
ATOM     14  C   UNL A   1      50.333  25.303  27.168  1.00  0.00     0.001 A 
BRANCH  10  15
ATOM     15  C   UNL A   1      51.054  27.397  23.526  1.00  0.00     0.143 C 
ATOM     16  N   UNL A   1      51.416  26.711  22.494  1.00  0.00    -0.169 NA
BRANCH  16  17
ATOM     17  N   UNL A   1      51.862  27.405  21.400  1.00  0.00    -0.146 N 
ATOM     18  C   UNL A   1      52.095  28.722  19.460  1.00  0.00     0.120 C 
ATOM     19  C   UNL A   1      51.685  27.998  18.179  1.00  0.00     0.045 C 
ATOM     20  N   UNL A   1      53.350  28.185  19.928  1.00  0.00    -0.322 N 
ATOM     21  C   UNL A   1      51.151  28.267  20.587  1.00  0.00     0.276 C 
ATOM     22  C   UNL A   1      53.174  27.310  20.985  1.00  0.00     0.346 C 
ATOM     23  H   UNL A   1      54.226  28.412  19.541  1.00  0.00     0.166 HD
ATOM     24  O   UNL A   1      49.967  28.580  20.644  1.00  0.00    -0.270 OA
ATOM     25  O   UNL A   1      54.088  26.624  21.416  1.00  0.00    -0.246 OA
BRANCH  18  26
ATOM     26  C   UNL A   1      52.099  30.250  19.344  1.00  0.00     0.035 C 
ATOM     27  C   UNL A   1      52.256  30.937  20.687  1.00  0.00     0.007 C 
ENDBRANCH  18  26
ENDBRANCH  16  17
ENDBRANCH  10  15
ENDBRANCH   7   9
ENDBRANCH   6   7
ENDBRANCH   5   6
ENDBRANCH   4   5
ENDBRANCH   3   4
ENDBRANCH   2   3
ENDBRANCH   1   2
BRANCH   1  28
ATOM     28  O   UNL A   1      45.423  20.820  25.559  1.00  0.00    -0.377 OA
BRANCH  28  29
ATOM     29  C   UNL A   1      45.225  19.563  24.914  1.00  0.00     0.188 C 
BRANCH  29  30
ATOM     30  C   UNL A   1      43.895  18.779  25.025  1.00  0.00     0.188 C 
BRANCH  30  31
ATOM     31  O   UNL A   1      43.120  19.080  26.171  1.00  0.00    -0.376 OA
BRANCH  31  32
ATOM     32  C   UNL A   1      41.836  19.641  25.981  1.00  0.00     0.202 C 
BRANCH  32  33
ATOM     33  C   UNL A   1      41.500  20.901  26.793  1.00  0.00     0.261 C 
BRANCH  33  34
ATOM     34  O   UNL A   1      41.105  22.052  26.028  1.00  0.00    -0.460 OA
BRANCH  34  35
ATOM     35  C   UNL A   1      39.888  22.567  26.292  1.00  0.00     0.338 C 
ATOM     36  O   UNL A   1      38.816  21.974  26.272  1.00  0.00    -0.246 OA
BRANCH  35  37
ATOM     37  C   UNL A   1      40.063  23.940  26.806  1.00  0.00     0.060 A 
ATOM     38  C   UNL A   1      40.550  24.926  25.940  1.00  0.00     0.016 A 
ATOM     39  C   UNL A   1      39.770  24.251  28.136  1.00  0.00     0.016 A 
ATOM     40  C   UNL A   1      40.800  26.215  26.414  1.00  0.00     0.010 A 
ATOM     41  C   UNL A   1      40.028  25.541  28.611  1.00  0.00     0.010 A 
ATOM     42  C   UNL A   1      40.584  26.520  27.764  1.00  0.00    -0.014 A 
BRANCH  42  43
ATOM     43  C   UNL A   1      41.113  27.789  28.328  1.00  0.00     0.031 A 
ATOM     44  C   UNL A   1      40.141  28.878  28.698  1.00  0.00     0.074 A 
ATOM     45  C   UNL A   1      42.423  27.971  28.577  1.00  0.00     0.049 A 
ATOM     46  N   UNL A   1      40.377  30.077  29.165  1.00  0.00    -0.248 NA
ATOM     47  C   UNL A   1      38.711  28.557  28.558  1.00  0.00     0.031 C 
ATOM     48  C   UNL A   1      43.473  26.969  28.410  1.00  0.00     0.029 A 
ATOM     49  N   UNL A   1      43.097  29.095  28.994  1.00  0.00    -0.354 N 
ATOM     50  C   UNL A   1      39.130  30.631  29.426  1.00  0.00     0.074 A 
ATOM     51  C   UNL A   1      38.141  29.675  28.979  1.00  0.00     0.031 C 
ATOM     52  C   UNL A   1      44.666  27.547  28.639  1.00  0.00     0.029 A 
ATOM     53  C   UNL A   1      44.462  28.964  28.920  1.00  0.00     0.049 A 
ATOM     54  H   UNL A   1      42.646  29.910  29.312  1.00  0.00     0.167 HD
ATOM     55  C   UNL A   1      38.836  31.807  30.030  1.00  0.00     0.037 A 
ATOM     56  C   UNL A   1      45.433  29.892  29.008  1.00  0.00     0.037 A 
ATOM     57  C   UNL A   1      39.820  32.767  30.459  1.00  0.00     0.049 A 
ATOM     58  C   UNL A   1      45.086  31.287  29.427  1.00  0.00     0.074 A 
ATOM     59  C   UNL A   1      39.625  33.970  31.113  1.00  0.00     0.029 A 
ATOM     60  N   UNL A   1      41.186  32.644  30.251  1.00  0.00    -0.354 N 
ATOM     61  N   UNL A   1      43.910  31.797  29.696  1.00  0.00    -0.248 NA
ATOM     62  C   UNL A   1      46.207  32.216  29.620  1.00  0.00     0.031 C 
ATOM     63  C   UNL A   1      40.865  34.608  31.238  1.00  0.00     0.029 A 
ATOM     64  C   UNL A   1      41.842  33.770  30.725  1.00  0.00     0.049 A 
ATOM     65  H   UNL A   1      41.625  31.871  29.828  1.00  0.00     0.167 HD
ATOM     66  C   UNL A   1      44.155  33.077  30.176  1.00  0.00     0.074 A 
ATOM     67  C   UNL A   1      45.588  33.278  30.116  1.00  0.00     0.031 C 
ATOM     68  C   UNL A   1      43.268  33.977  30.666  1.00  0.00     0.037 A 
BRANCH  55  69
ATOM     69  C   UNL A   1      37.384  32.117  30.258  1.00  0.00     0.057 A 
ATOM     70  C   UNL A   1      36.623  32.833  29.322  1.00  0.00     0.134 A 
ATOM     71  C   UNL A   1      36.732  31.677  31.416  1.00  0.00     0.134 A 
ATOM     72  F   UNL A   1      37.188  33.294  28.196  1.00  0.00    -0.206 F 
ATOM     73  C   UNL A   1      35.277  33.128  29.546  1.00  0.00     0.040 A 
ATOM     74  C   UNL A   1      35.379  31.939  31.637  1.00  0.00     0.040 A 
ATOM     75  F   UNL A   1      37.398  30.982  32.351  1.00  0.00    -0.206 F 
ATOM     76  C   UNL A   1      34.650  32.674  30.704  1.00  0.00     0.006 A 
ENDBRANCH  55  69
BRANCH  56  77
ATOM     77  C   UNL A   1      46.829  29.538  28.662  1.00  0.00     0.057 A 
ATOM     78  C   UNL A   1      47.699  28.966  29.594  1.00  0.00     0.134 A 
ATOM     79  C   UNL A   1      47.330  29.798  27.381  1.00  0.00     0.134 A 
ATOM     80  F   UNL A   1      47.286  28.738  30.848  1.00  0.00    -0.206 F 
ATOM     81  C   UNL A   1      49.018  28.654  29.259  1.00  0.00     0.040 A 
ATOM     82  C   UNL A   1      48.639  29.473  27.025  1.00  0.00     0.040 A 
ATOM     83  F   UNL A   1      46.556  30.390  26.460  1.00  0.00    -0.206 F 
ATOM     84  C   UNL A   1      49.488  28.899  27.969  1.00  0.00     0.006 A 
ENDBRANCH  56  77
BRANCH  68  85
ATOM     85  C   UNL A   1      43.830  35.235  31.265  1.00  0.00     0.057 A 
ATOM     86  C   UNL A   1      44.284  35.302  32.588  1.00  0.00     0.134 A 
ATOM     87  C   UNL A   1      43.916  36.402  30.493  1.00  0.00     0.134 A 
ATOM     88  F   UNL A   1      44.213  34.226  33.387  1.00  0.00    -0.206 F 
ATOM     89  C   UNL A   1      44.772  36.492  33.131  1.00  0.00     0.040 A 
ATOM     90  C   UNL A   1      44.434  37.588  31.014  1.00  0.00     0.040 A 
ATOM     91  F   UNL A   1      43.503  36.408  29.217  1.00  0.00    -0.206 F 
ATOM     92  C   UNL A   1      44.854  37.637  32.341  1.00  0.00     0.006 A 
ENDBRANCH  68  85
ENDBRANCH  42  43
ENDBRANCH  35  37
ENDBRANCH  34  35
ENDBRANCH  33  34
ENDBRANCH  32  33
ENDBRANCH  31  32
ENDBRANCH  30  31
ENDBRANCH  29  30
ENDBRANCH  28  29
ENDBRANCH   1  28
TORSDOF 23
ENDMDL
MODEL 3
REMARK VINA RESULT:      -8.9      6.416     13.316
REMARK SMILES CC[C@@]1(C)NC(=O)N(/N=C/c2ccccc2C(=O)OCCOCCOCCOCCOC(=O)c2ccc(-c3c4nc(c(-c5c(F)cccc5F)c5ccc([nH]5)c(-c5c(F)cccc5F)c5nc(c(-c6c(F)cccc6F)c6ccc3[nH]6)C=C5)C=C4)cc2)C1=O
REMARK SMILES IDX 24 1 23 2 22 3 21 4 20 5 19 6 17 7 18 8 16 9 11 10 12 11
REMARK SMILES IDX 13 12 15 13 14 14 10 15 9 16 8 17 3 18 4 19 5 20 88 21 6 22
REMARK SMILES IDX 89 24 7 25 2 26 1 27 25 28 26 29 27 30 28 31 29 32 30 33
REMARK SMILES IDX 31 34 32 35 33 36 34 37 35 38 87 39 36 40 86 41 37 42 38 43
REMARK SMILES IDX 39 44 80 45 40 46 85 47 79 48 81 49 41 50 84 51 78 52 77 53
REMARK SMILES IDX 42 55 68 56 51 57 67 58 52 59 55 60 66 61 82 62 53 63 54 64
REMARK SMILES IDX 65 66 83 67 56 68 43 69 44 70 49 71 45 72 46 73 48 74 50 75
REMARK SMILES IDX 47 76 69 77 70 78 75 79 71 80 72 81 74 82 76 83 73 84 57 85
REMARK SMILES IDX 58 86 63 87 59 88 60 89 62 90 64 91 61 92
REMARK H PARENT 5 23 81 54 55 65
REMARK Flexibility Score: inf
ROOT
ATOM      1  C   UNL A   1      45.522  21.592  24.380  1.00  0.00     0.188 C 
ENDROOT
BRANCH   1   2
ATOM      2  C   UNL A   1      45.495  23.095  24.749  1.00  0.00     0.188 C 
BRANCH   2   3
ATOM      3  O   UNL A   1      44.729  23.395  25.902  1.00  0.00    -0.376 OA
BRANCH   3   4
ATOM      4  C   UNL A   1      45.372  23.541  27.155  1.00  0.00     0.202 C 
BRANCH   4   5
ATOM      5  C   UNL A   1      46.804  24.077  27.232  1.00  0.00     0.261 C 
BRANCH   5   6
ATOM      6  O   UNL A   1      47.031  25.024  28.277  1.00  0.00    -0.460 OA
BRANCH   6   7
ATOM      7  C   UNL A   1      47.482  26.248  27.945  1.00  0.00     0.338 C 
ATOM      8  O   UNL A   1      48.647  26.603  27.883  1.00  0.00    -0.246 OA
BRANCH   7   9
ATOM      9  C   UNL A   1      46.349  27.032  27.392  1.00  0.00     0.068 A 
ATOM     10  C   UNL A   1      46.202  27.398  26.046  1.00  0.00     0.009 A 
ATOM     11  C   UNL A   1      45.122  28.207  25.654  1.00  0.00     0.010 A 
ATOM     12  C   UNL A   1      44.218  28.689  26.601  1.00  0.00     0.001 A 
ATOM     13  C   UNL A   1      45.437  27.536  28.338  1.00  0.00     0.016 A 
ATOM     14  C   UNL A   1      44.389  28.373  27.945  1.00  0.00     0.001 A 
BRANCH  10  15
ATOM     15  C   UNL A   1      47.198  27.124  24.992  1.00  0.00     0.143 C 
ATOM     16  N   UNL A   1      47.783  28.052  24.312  1.00  0.00    -0.169 NA
BRANCH  16  17
ATOM     17  N   UNL A   1      48.581  27.663  23.270  1.00  0.00    -0.146 N 
ATOM     18  C   UNL A   1      49.511  27.112  21.176  1.00  0.00     0.120 C 
ATOM     19  C   UNL A   1      49.047  25.758  20.640  1.00  0.00     0.045 C 
ATOM     20  N   UNL A   1      50.428  26.900  22.270  1.00  0.00    -0.322 N 
ATOM     21  C   UNL A   1      48.328  27.762  21.915  1.00  0.00     0.276 C 
ATOM     22  C   UNL A   1      49.822  27.102  23.497  1.00  0.00     0.346 C 
ATOM     23  H   UNL A   1      51.371  26.642  22.157  1.00  0.00     0.166 HD
ATOM     24  O   UNL A   1      47.330  28.191  21.347  1.00  0.00    -0.270 OA
ATOM     25  O   UNL A   1      50.375  26.813  24.547  1.00  0.00    -0.246 OA
BRANCH  18  26
ATOM     26  C   UNL A   1      50.061  28.057  20.103  1.00  0.00     0.035 C 
ATOM     27  C   UNL A   1      51.451  27.668  19.639  1.00  0.00     0.007 C 
ENDBRANCH  18  26
ENDBRANCH  16  17
ENDBRANCH  10  15
ENDBRANCH   7   9
ENDBRANCH   6   7
ENDBRANCH   5   6
ENDBRANCH   4   5
ENDBRANCH   3   4
ENDBRANCH   2   3
ENDBRANCH   1   2
BRANCH   1  28
ATOM     28  O   UNL A   1      45.021  20.630  25.299  1.00  0.00    -0.377 OA
BRANCH  28  29
ATOM     29  C   UNL A   1      44.341  19.471  24.821  1.00  0.00     0.188 C 
BRANCH  29  30
ATOM     30  C   UNL A   1      43.412  18.627  25.726  1.00  0.00     0.188 C 
BRANCH  30  31
ATOM     31  O   UNL A   1      42.683  19.368  26.688  1.00  0.00    -0.376 OA
BRANCH  31  32
ATOM     32  C   UNL A   1      41.727  20.303  26.227  1.00  0.00     0.202 C 
BRANCH  32  33
ATOM     33  C   UNL A   1      41.654  21.646  26.967  1.00  0.00     0.261 C 
BRANCH  33  34
ATOM     34  O   UNL A   1      41.265  22.779  26.172  1.00  0.00    -0.460 OA
BRANCH  34  35
ATOM     35  C   UNL A   1      40.002  23.223  26.328  1.00  0.00     0.338 C 
ATOM     36  O   UNL A   1      38.970  22.620  26.061  1.00  0.00    -0.246 OA
BRANCH  35  37
ATOM     37  C   UNL A   1      40.044  24.503  27.062  1.00  0.00     0.060 A 
ATOM     38  C   UNL A   1      41.006  25.455  26.702  1.00  0.00     0.016 A 
ATOM     39  C   UNL A   1      39.159  24.758  28.112  1.00  0.00     0.016 A 
ATOM     40  C   UNL A   1      41.123  26.642  27.425  1.00  0.00     0.010 A 
ATOM     41  C   UNL A   1      39.283  25.945  28.841  1.00  0.00     0.010 A 
ATOM     42  C   UNL A   1      40.294  26.876  28.529  1.00  0.00    -0.014 A 
BRANCH  42  43
ATOM     43  C   UNL A   1      40.603  27.990  29.463  1.00  0.00     0.031 A 
ATOM     44  C   UNL A   1      39.681  29.180  29.501  1.00  0.00     0.074 A 
ATOM     45  C   UNL A   1      41.641  27.940  30.318  1.00  0.00     0.049 A 
ATOM     46  N   UNL A   1      39.775  30.280  30.204  1.00  0.00    -0.248 NA
ATOM     47  C   UNL A   1      38.473  29.102  28.664  1.00  0.00     0.031 C 
ATOM     48  C   UNL A   1      42.541  26.805  30.506  1.00  0.00     0.029 A 
ATOM     49  N   UNL A   1      42.134  28.902  31.168  1.00  0.00    -0.354 N 
ATOM     50  C   UNL A   1      38.616  30.998  29.936  1.00  0.00     0.074 A 
ATOM     51  C   UNL A   1      37.879  30.253  28.938  1.00  0.00     0.031 C 
ATOM     52  C   UNL A   1      43.524  27.165  31.351  1.00  0.00     0.029 A 
ATOM     53  C   UNL A   1      43.346  28.565  31.720  1.00  0.00     0.049 A 
ATOM     54  H   UNL A   1      41.665  29.746  31.362  1.00  0.00     0.167 HD
ATOM     55  C   UNL A   1      38.181  32.146  30.507  1.00  0.00     0.037 A 
ATOM     56  C   UNL A   1      44.237  29.317  32.391  1.00  0.00     0.037 A 
ATOM     57  C   UNL A   1      38.923  32.896  31.487  1.00  0.00     0.049 A 
ATOM     58  C   UNL A   1      43.866  30.706  32.810  1.00  0.00     0.074 A 
ATOM     59  C   UNL A   1      38.552  34.051  32.153  1.00  0.00     0.029 A 
ATOM     60  N   UNL A   1      40.201  32.579  31.924  1.00  0.00    -0.354 N 
ATOM     61  N   UNL A   1      42.761  31.368  32.576  1.00  0.00    -0.248 NA
ATOM     62  C   UNL A   1      44.838  31.426  33.644  1.00  0.00     0.031 C 
ATOM     63  C   UNL A   1      39.632  34.472  32.937  1.00  0.00     0.029 A 
ATOM     64  C   UNL A   1      40.651  33.540  32.815  1.00  0.00     0.049 A 
ATOM     65  H   UNL A   1      40.713  31.788  31.640  1.00  0.00     0.167 HD
ATOM     66  C   UNL A   1      42.864  32.545  33.306  1.00  0.00     0.074 A 
ATOM     67  C   UNL A   1      44.160  32.523  33.952  1.00  0.00     0.031 C 
ATOM     68  C   UNL A   1      41.941  33.525  33.460  1.00  0.00     0.037 A 
BRANCH  55  69
ATOM     69  C   UNL A   1      36.835  32.658  30.078  1.00  0.00     0.057 A 
ATOM     70  C   UNL A   1      35.653  32.262  30.721  1.00  0.00     0.134 A 
ATOM     71  C   UNL A   1      36.721  33.572  29.025  1.00  0.00     0.134 A 
ATOM     72  F   UNL A   1      35.690  31.379  31.731  1.00  0.00    -0.206 F 
ATOM     73  C   UNL A   1      34.405  32.733  30.309  1.00  0.00     0.040 A 
ATOM     74  C   UNL A   1      35.482  34.073  28.624  1.00  0.00     0.040 A 
ATOM     75  F   UNL A   1      37.812  33.997  28.370  1.00  0.00    -0.206 F 
ATOM     76  C   UNL A   1      34.317  33.646  29.262  1.00  0.00     0.006 A 
ENDBRANCH  55  69
BRANCH  56  77
ATOM     77  C   UNL A   1      45.587  28.781  32.685  1.00  0.00     0.057 A 
ATOM     78  C   UNL A   1      46.657  28.947  31.803  1.00  0.00     0.134 A 
ATOM     79  C   UNL A   1      45.822  28.059  33.862  1.00  0.00     0.134 A 
ATOM     80  F   UNL A   1      46.477  29.591  30.641  1.00  0.00    -0.206 F 
ATOM     81  C   UNL A   1      47.919  28.422  32.085  1.00  0.00     0.040 A 
ATOM     82  C   UNL A   1      47.082  27.545  34.168  1.00  0.00     0.040 A 
ATOM     83  F   UNL A   1      44.821  27.826  34.723  1.00  0.00    -0.206 F 
ATOM     84  C   UNL A   1      48.136  27.727  33.275  1.00  0.00     0.006 A 
ENDBRANCH  56  77
BRANCH  68  85
ATOM     85  C   UNL A   1      42.261  34.619  34.438  1.00  0.00     0.057 A 
ATOM     86  C   UNL A   1      42.836  35.835  34.046  1.00  0.00     0.134 A 
ATOM     87  C   UNL A   1      41.984  34.446  35.801  1.00  0.00     0.134 A 
ATOM     88  F   UNL A   1      43.144  36.058  32.760  1.00  0.00    -0.206 F 
ATOM     89  C   UNL A   1      43.153  36.824  34.979  1.00  0.00     0.040 A 
ATOM     90  C   UNL A   1      42.265  35.441  36.738  1.00  0.00     0.040 A 
ATOM     91  F   UNL A   1      41.429  33.308  36.246  1.00  0.00    -0.206 F 
ATOM     92  C   UNL A   1      42.862  36.630  36.328  1.00  0.00     0.006 A 
ENDBRANCH  68  85
ENDBRANCH  42  43
ENDBRANCH  35  37
ENDBRANCH  34  35
ENDBRANCH  33  34
ENDBRANCH  32  33
ENDBRANCH  31  32
ENDBRANCH  30  31
ENDBRANCH  29  30
ENDBRANCH  28  29
ENDBRANCH   1  28
TORSDOF 23
ENDMDL
