MODEL 1
REMARK VINA RESULT:      -9.1      0.000      0.000
REMARK SMILES C[C@@H](C(=O)OCCOCCOCCOCCOC(=O)c1ccc(-c2c3nc(c(-c4c(F)cccc4F)c4ccc([nH]4)c(-c4c(F)cccc4F)c4nc(c(-c5c(F)cccc5F)c5ccc2[nH]5)C=C4)C=C3)cc1)c1ccc(-c2cccc(OC(=O)NCCCc3ccccc3)c2)c(F)c1
REMARK SMILES IDX 8 1 7 2 6 3 5 4 3 5 4 6 2 7 1 8 74 9 75 10 99 11 76 12 97 13
REMARK SMILES IDX 77 14 98 15 78 16 79 17 96 18 80 19 82 20 81 21 83 22 84 23
REMARK SMILES IDX 85 24 86 25 87 27 88 28 89 29 90 30 91 31 95 32 92 33 94 34
REMARK SMILES IDX 93 35 9 36 10 37 11 38 12 39 13 40 14 41 15 42 16 43 17 44
REMARK SMILES IDX 18 45 19 46 20 47 21 48 73 49 22 50 72 51 23 52 24 53 25 54
REMARK SMILES IDX 66 55 26 56 71 57 65 58 67 59 27 60 70 61 64 62 63 63 28 65
REMARK SMILES IDX 54 66 37 67 53 68 38 69 41 70 52 71 68 72 39 73 40 74 51 76
REMARK SMILES IDX 69 77 42 78 29 79 30 80 35 81 31 82 32 83 34 84 36 85 33 86
REMARK SMILES IDX 55 87 56 88 61 89 57 90 58 91 60 92 62 93 59 94 43 95 44 96
REMARK SMILES IDX 49 97 45 98 46 99 48 100 50 101 47 102
REMARK H PARENT 86 26 67 64 41 75
REMARK Flexibility Score: inf
ROOT
ATOM      1  O   UNL A   1      33.517  26.451  21.580  1.00  0.00    -0.376 OA
ENDROOT
BRANCH   1   2
ATOM      2  C   UNL A   1      32.838  25.211  21.479  1.00  0.00     0.202 C 
BRANCH   2   3
ATOM      3  C   UNL A   1      33.022  24.089  22.523  1.00  0.00     0.261 C 
BRANCH   3   4
ATOM      4  O   UNL A   1      34.006  24.287  23.559  1.00  0.00    -0.463 OA
BRANCH   4   5
ATOM      5  C   UNL A   1      35.039  23.406  23.592  1.00  0.00     0.313 C 
ATOM      6  O   UNL A   1      35.881  23.319  22.704  1.00  0.00    -0.252 OA
BRANCH   5   7
ATOM      7  C   UNL A   1      35.073  22.508  24.847  1.00  0.00     0.126 C 
ATOM      8  C   UNL A   1      34.000  22.684  25.928  1.00  0.00     0.025 C 
BRANCH   7   9
ATOM      9  C   UNL A   1      36.482  22.483  25.436  1.00  0.00    -0.031 A 
ATOM     10  C   UNL A   1      37.310  21.378  25.219  1.00  0.00     0.005 A 
ATOM     11  C   UNL A   1      37.027  23.582  26.111  1.00  0.00     0.044 A 
ATOM     12  C   UNL A   1      38.648  21.390  25.630  1.00  0.00     0.012 A 
ATOM     13  C   UNL A   1      38.371  23.612  26.466  1.00  0.00     0.131 A 
ATOM     14  C   UNL A   1      39.212  22.518  26.247  1.00  0.00     0.018 A 
ATOM     15  F   UNL A   1      38.840  24.740  27.028  1.00  0.00    -0.206 F 
BRANCH  14  16
ATOM     16  C   UNL A   1      40.604  22.514  26.719  1.00  0.00    -0.012 A 
ATOM     17  C   UNL A   1      40.935  22.505  28.084  1.00  0.00     0.009 A 
ATOM     18  C   UNL A   1      41.650  22.558  25.784  1.00  0.00     0.056 A 
ATOM     19  C   UNL A   1      42.268  22.563  28.497  1.00  0.00     0.004 A 
ATOM     20  C   UNL A   1      42.974  22.619  26.194  1.00  0.00     0.133 A 
ATOM     21  C   UNL A   1      43.290  22.626  27.551  1.00  0.00     0.047 A 
BRANCH  20  22
ATOM     22  O   UNL A   1      44.070  22.673  25.305  1.00  0.00    -0.410 OA
BRANCH  22  23
ATOM     23  C   UNL A   1      45.390  22.336  25.603  1.00  0.00     0.412 C 
ATOM     24  O   UNL A   1      45.871  21.213  25.662  1.00  0.00    -0.224 OA
ATOM     25  N   UNL A   1      46.177  23.429  25.823  1.00  0.00    -0.321 N 
ATOM     26  H   UNL A   1      47.097  23.268  26.135  1.00  0.00     0.167 HD
BRANCH  25  27
ATOM     27  C   UNL A   1      45.774  24.801  25.637  1.00  0.00     0.120 C 
BRANCH  27  28
ATOM     28  C   UNL A   1      45.220  25.465  26.894  1.00  0.00     0.026 C 
BRANCH  28  29
ATOM     29  C   UNL A   1      46.215  25.948  27.959  1.00  0.00     0.037 C 
BRANCH  29  30
ATOM     30  C   UNL A   1      46.002  25.622  29.419  1.00  0.00    -0.048 A 
ATOM     31  C   UNL A   1      44.875  24.977  29.937  1.00  0.00     0.004 A 
ATOM     32  C   UNL A   1      46.982  26.060  30.328  1.00  0.00     0.004 A 
ATOM     33  C   UNL A   1      44.722  24.789  31.314  1.00  0.00     0.000 A 
ATOM     34  C   UNL A   1      46.838  25.860  31.703  1.00  0.00     0.000 A 
ATOM     35  C   UNL A   1      45.702  25.230  32.198  1.00  0.00     0.000 A 
ENDBRANCH  29  30
ENDBRANCH  28  29
ENDBRANCH  27  28
ENDBRANCH  25  27
ENDBRANCH  22  23
ENDBRANCH  20  22
ENDBRANCH  14  16
ENDBRANCH   7   9
ENDBRANCH   5   7
ENDBRANCH   4   5
ENDBRANCH   3   4
ENDBRANCH   2   3
ENDBRANCH   1   2
BRANCH   1  36
ATOM     36  C   UNL A   1      32.973  27.487  22.381  1.00  0.00     0.188 C 
BRANCH  36  37
ATOM     37  C   UNL A   1      33.645  27.869  23.717  1.00  0.00     0.188 C 
BRANCH  37  38
ATOM     38  O   UNL A   1      33.295  29.145  24.215  1.00  0.00    -0.377 OA
BRANCH  38  39
ATOM     39  C   UNL A   1      33.441  29.307  25.617  1.00  0.00     0.188 C 
BRANCH  39  40
ATOM     40  C   UNL A   1      32.211  28.979  26.484  1.00  0.00     0.188 C 
BRANCH  40  41
ATOM     41  O   UNL A   1      31.639  30.120  27.117  1.00  0.00    -0.376 OA
BRANCH  41  42
ATOM     42  C   UNL A   1      31.261  31.231  26.317  1.00  0.00     0.202 C 
BRANCH  42  43
ATOM     43  C   UNL A   1      31.673  32.626  26.815  1.00  0.00     0.261 C 
BRANCH  43  44
ATOM     44  O   UNL A   1      33.016  32.757  27.309  1.00  0.00    -0.460 OA
BRANCH  44  45
ATOM     45  C   UNL A   1      33.279  33.752  28.180  1.00  0.00     0.338 C 
ATOM     46  O   UNL A   1      32.556  34.688  28.475  1.00  0.00    -0.246 OA
BRANCH  45  47
ATOM     47  C   UNL A   1      34.520  33.397  28.901  1.00  0.00     0.060 A 
ATOM     48  C   UNL A   1      35.678  34.147  28.656  1.00  0.00     0.016 A 
ATOM     49  C   UNL A   1      34.537  32.354  29.830  1.00  0.00     0.016 A 
ATOM     50  C   UNL A   1      36.865  33.838  29.318  1.00  0.00     0.010 A 
ATOM     51  C   UNL A   1      35.735  32.024  30.469  1.00  0.00     0.010 A 
ATOM     52  C   UNL A   1      36.910  32.742  30.189  1.00  0.00    -0.014 A 
BRANCH  52  53
ATOM     53  C   UNL A   1      38.225  32.211  30.617  1.00  0.00     0.031 A 
ATOM     54  C   UNL A   1      38.811  32.735  31.899  1.00  0.00     0.074 A 
ATOM     55  C   UNL A   1      38.868  31.265  29.912  1.00  0.00     0.049 A 
ATOM     56  N   UNL A   1      39.959  32.463  32.463  1.00  0.00    -0.248 NA
ATOM     57  C   UNL A   1      37.987  33.701  32.645  1.00  0.00     0.031 C 
ATOM     58  C   UNL A   1      38.377  30.639  28.687  1.00  0.00     0.029 A 
ATOM     59  N   UNL A   1      40.087  30.671  30.131  1.00  0.00    -0.354 N 
ATOM     60  C   UNL A   1      39.998  33.231  33.621  1.00  0.00     0.074 A 
ATOM     61  C   UNL A   1      38.775  34.000  33.665  1.00  0.00     0.031 C 
ATOM     62  C   UNL A   1      39.292  29.752  28.256  1.00  0.00     0.029 A 
ATOM     63  C   UNL A   1      40.446  29.776  29.154  1.00  0.00     0.049 A 
ATOM     64  H   UNL A   1      40.648  30.866  30.916  1.00  0.00     0.167 HD
ATOM     65  C   UNL A   1      40.965  33.284  34.567  1.00  0.00     0.037 A 
ATOM     66  C   UNL A   1      41.588  29.079  28.995  1.00  0.00     0.037 A 
ATOM     67  C   UNL A   1      42.182  32.518  34.517  1.00  0.00     0.049 A 
ATOM     68  C   UNL A   1      42.689  29.223  30.015  1.00  0.00     0.074 A 
ATOM     69  C   UNL A   1      43.217  32.487  35.433  1.00  0.00     0.029 A 
ATOM     70  N   UNL A   1      42.530  31.656  33.487  1.00  0.00    -0.354 N 
ATOM     71  N   UNL A   1      42.711  29.932  31.119  1.00  0.00    -0.248 NA
ATOM     72  C   UNL A   1      43.926  28.467  29.767  1.00  0.00     0.031 C 
ATOM     73  C   UNL A   1      44.222  31.656  34.926  1.00  0.00     0.029 A 
ATOM     74  C   UNL A   1      43.781  31.114  33.729  1.00  0.00     0.049 A 
ATOM     75  H   UNL A   1      41.970  31.460  32.702  1.00  0.00     0.167 HD
ATOM     76  C   UNL A   1      43.943  29.680  31.712  1.00  0.00     0.074 A 
ATOM     77  C   UNL A   1      44.635  28.744  30.853  1.00  0.00     0.031 C 
ATOM     78  C   UNL A   1      44.454  30.175  32.867  1.00  0.00     0.037 A 
BRANCH  65  79
ATOM     79  C   UNL A   1      40.761  34.234  35.711  1.00  0.00     0.057 A 
ATOM     80  C   UNL A   1      41.204  35.562  35.668  1.00  0.00     0.134 A 
ATOM     81  C   UNL A   1      40.090  33.815  36.867  1.00  0.00     0.134 A 
ATOM     82  F   UNL A   1      41.871  36.022  34.597  1.00  0.00    -0.206 F 
ATOM     83  C   UNL A   1      41.009  36.432  36.742  1.00  0.00     0.040 A 
ATOM     84  C   UNL A   1      39.862  34.684  37.935  1.00  0.00     0.040 A 
ATOM     85  F   UNL A   1      39.638  32.556  36.976  1.00  0.00    -0.206 F 
ATOM     86  C   UNL A   1      40.329  35.995  37.877  1.00  0.00     0.006 A 
ENDBRANCH  65  79
BRANCH  66  87
ATOM     87  C   UNL A   1      41.767  28.191  27.815  1.00  0.00     0.057 A 
ATOM     88  C   UNL A   1      42.208  28.695  26.587  1.00  0.00     0.134 A 
ATOM     89  C   UNL A   1      41.467  26.825  27.879  1.00  0.00     0.134 A 
ATOM     90  F   UNL A   1      42.486  30.000  26.453  1.00  0.00    -0.206 F 
ATOM     91  C   UNL A   1      42.324  27.879  25.458  1.00  0.00     0.040 A 
ATOM     92  C   UNL A   1      41.607  25.991  26.767  1.00  0.00     0.040 A 
ATOM     93  F   UNL A   1      41.037  26.277  29.026  1.00  0.00    -0.206 F 
ATOM     94  C   UNL A   1      42.027  26.521  25.550  1.00  0.00     0.006 A 
ENDBRANCH  66  87
BRANCH  78  95
ATOM     95  C   UNL A   1      45.806  29.680  33.297  1.00  0.00     0.057 A 
ATOM     96  C   UNL A   1      45.959  28.636  34.218  1.00  0.00     0.134 A 
ATOM     97  C   UNL A   1      46.972  30.229  32.745  1.00  0.00     0.134 A 
ATOM     98  F   UNL A   1      44.886  28.072  34.792  1.00  0.00    -0.206 F 
ATOM     99  C   UNL A   1      47.221  28.173  34.593  1.00  0.00     0.040 A 
ATOM    100  C   UNL A   1      48.237  29.752  33.087  1.00  0.00     0.040 A 
ATOM    101  F   UNL A   1      46.898  31.223  31.847  1.00  0.00    -0.206 F 
ATOM    102  C   UNL A   1      48.365  28.726  34.019  1.00  0.00     0.006 A 
ENDBRANCH  78  95
ENDBRANCH  52  53
ENDBRANCH  45  47
ENDBRANCH  44  45
ENDBRANCH  43  44
ENDBRANCH  42  43
ENDBRANCH  41  42
ENDBRANCH  40  41
ENDBRANCH  39  40
ENDBRANCH  38  39
ENDBRANCH  37  38
ENDBRANCH  36  37
ENDBRANCH   1  36
TORSDOF 28
ENDMDL
MODEL 2
REMARK VINA RESULT:      -7.9      1.553      5.928
REMARK SMILES C[C@@H](C(=O)OCCOCCOCCOCCOC(=O)c1ccc(-c2c3nc(c(-c4c(F)cccc4F)c4ccc([nH]4)c(-c4c(F)cccc4F)c4nc(c(-c5c(F)cccc5F)c5ccc2[nH]5)C=C4)C=C3)cc1)c1ccc(-c2cccc(OC(=O)NCCCc3ccccc3)c2)c(F)c1
REMARK SMILES IDX 8 1 7 2 6 3 5 4 3 5 4 6 2 7 1 8 74 9 75 10 99 11 76 12 97 13
REMARK SMILES IDX 77 14 98 15 78 16 79 17 96 18 80 19 82 20 81 21 83 22 84 23
REMARK SMILES IDX 85 24 86 25 87 27 88 28 89 29 90 30 91 31 95 32 92 33 94 34
REMARK SMILES IDX 93 35 9 36 10 37 11 38 12 39 13 40 14 41 15 42 16 43 17 44
REMARK SMILES IDX 18 45 19 46 20 47 21 48 73 49 22 50 72 51 23 52 24 53 25 54
REMARK SMILES IDX 66 55 26 56 71 57 65 58 67 59 27 60 70 61 64 62 63 63 28 65
REMARK SMILES IDX 54 66 37 67 53 68 38 69 41 70 52 71 68 72 39 73 40 74 51 76
REMARK SMILES IDX 69 77 42 78 29 79 30 80 35 81 31 82 32 83 34 84 36 85 33 86
REMARK SMILES IDX 55 87 56 88 61 89 57 90 58 91 60 92 62 93 59 94 43 95 44 96
REMARK SMILES IDX 49 97 45 98 46 99 48 100 50 101 47 102
REMARK H PARENT 86 26 67 64 41 75
REMARK Flexibility Score: inf
ROOT
ATOM      1  O   UNL A   1      33.615  27.309  22.739  1.00  0.00    -0.376 OA
ENDROOT
BRANCH   1   2
ATOM      2  C   UNL A   1      33.211  25.957  22.880  1.00  0.00     0.202 C 
BRANCH   2   3
ATOM      3  C   UNL A   1      33.456  25.160  24.179  1.00  0.00     0.261 C 
BRANCH   3   4
ATOM      4  O   UNL A   1      34.631  24.325  24.246  1.00  0.00    -0.463 OA
BRANCH   4   5
ATOM      5  C   UNL A   1      34.546  23.109  23.649  1.00  0.00     0.313 C 
ATOM      6  O   UNL A   1      34.464  22.956  22.434  1.00  0.00    -0.252 OA
BRANCH   5   7
ATOM      7  C   UNL A   1      34.559  21.915  24.628  1.00  0.00     0.126 C 
ATOM      8  C   UNL A   1      33.572  21.894  25.802  1.00  0.00     0.025 C 
BRANCH   7   9
ATOM      9  C   UNL A   1      35.988  21.617  25.074  1.00  0.00    -0.031 A 
ATOM     10  C   UNL A   1      36.587  20.401  24.732  1.00  0.00     0.005 A 
ATOM     11  C   UNL A   1      36.776  22.567  25.735  1.00  0.00     0.044 A 
ATOM     12  C   UNL A   1      37.937  20.161  25.010  1.00  0.00     0.012 A 
ATOM     13  C   UNL A   1      38.131  22.347  25.958  1.00  0.00     0.131 A 
ATOM     14  C   UNL A   1      38.744  21.139  25.613  1.00  0.00     0.018 A 
ATOM     15  F   UNL A   1      38.839  23.345  26.514  1.00  0.00    -0.206 F 
BRANCH  14  16
ATOM     16  C   UNL A   1      40.150  20.871  25.945  1.00  0.00    -0.012 A 
ATOM     17  C   UNL A   1      40.635  19.572  26.172  1.00  0.00     0.009 A 
ATOM     18  C   UNL A   1      41.044  21.944  26.081  1.00  0.00     0.056 A 
ATOM     19  C   UNL A   1      41.964  19.359  26.545  1.00  0.00     0.004 A 
ATOM     20  C   UNL A   1      42.364  21.733  26.454  1.00  0.00     0.133 A 
ATOM     21  C   UNL A   1      42.830  20.442  26.693  1.00  0.00     0.047 A 
BRANCH  20  22
ATOM     22  O   UNL A   1      43.310  22.771  26.614  1.00  0.00    -0.410 OA
BRANCH  22  23
ATOM     23  C   UNL A   1      43.935  23.480  25.589  1.00  0.00     0.412 C 
ATOM     24  O   UNL A   1      43.967  23.190  24.402  1.00  0.00    -0.224 OA
ATOM     25  N   UNL A   1      44.538  24.623  26.030  1.00  0.00    -0.321 N 
ATOM     26  H   UNL A   1      45.082  25.125  25.381  1.00  0.00     0.167 HD
BRANCH  25  27
ATOM     27  C   UNL A   1      44.445  25.155  27.366  1.00  0.00     0.120 C 
BRANCH  27  28
ATOM     28  C   UNL A   1      45.628  24.802  28.263  1.00  0.00     0.026 C 
BRANCH  28  29
ATOM     29  C   UNL A   1      46.464  25.949  28.849  1.00  0.00     0.037 C 
BRANCH  29  30
ATOM     30  C   UNL A   1      47.008  25.867  30.256  1.00  0.00    -0.048 A 
ATOM     31  C   UNL A   1      46.257  25.528  31.385  1.00  0.00     0.004 A 
ATOM     32  C   UNL A   1      48.356  26.223  30.448  1.00  0.00     0.004 A 
ATOM     33  C   UNL A   1      46.824  25.557  32.663  1.00  0.00     0.000 A 
ATOM     34  C   UNL A   1      48.927  26.239  31.723  1.00  0.00     0.000 A 
ATOM     35  C   UNL A   1      48.157  25.913  32.833  1.00  0.00     0.000 A 
ENDBRANCH  29  30
ENDBRANCH  28  29
ENDBRANCH  27  28
ENDBRANCH  25  27
ENDBRANCH  22  23
ENDBRANCH  20  22
ENDBRANCH  14  16
ENDBRANCH   7   9
ENDBRANCH   5   7
ENDBRANCH   4   5
ENDBRANCH   3   4
ENDBRANCH   2   3
ENDBRANCH   1   2
BRANCH   1  36
ATOM     36  C   UNL A   1      32.639  28.313  22.518  1.00  0.00     0.188 C 
BRANCH  36  37
ATOM     37  C   UNL A   1      31.140  27.991  22.693  1.00  0.00     0.188 C 
BRANCH  37  38
ATOM     38  O   UNL A   1      30.479  28.752  23.685  1.00  0.00    -0.377 OA
BRANCH  38  39
ATOM     39  C   UNL A   1      31.224  29.842  24.206  1.00  0.00     0.188 C 
BRANCH  39  40
ATOM     40  C   UNL A   1      31.894  29.630  25.577  1.00  0.00     0.188 C 
BRANCH  40  41
ATOM     41  O   UNL A   1      31.321  30.417  26.618  1.00  0.00    -0.376 OA
BRANCH  41  42
ATOM     42  C   UNL A   1      31.425  31.831  26.544  1.00  0.00     0.202 C 
BRANCH  42  43
ATOM     43  C   UNL A   1      32.286  32.528  27.612  1.00  0.00     0.261 C 
BRANCH  43  44
ATOM     44  O   UNL A   1      32.516  33.934  27.428  1.00  0.00    -0.460 OA
BRANCH  44  45
ATOM     45  C   UNL A   1      33.081  34.623  28.440  1.00  0.00     0.338 C 
ATOM     46  O   UNL A   1      32.619  35.586  29.028  1.00  0.00    -0.246 OA
BRANCH  45  47
ATOM     47  C   UNL A   1      34.275  33.871  28.880  1.00  0.00     0.060 A 
ATOM     48  C   UNL A   1      34.093  32.653  29.550  1.00  0.00     0.016 A 
ATOM     49  C   UNL A   1      35.561  34.344  28.611  1.00  0.00     0.016 A 
ATOM     50  C   UNL A   1      35.197  31.919  29.980  1.00  0.00     0.010 A 
ATOM     51  C   UNL A   1      36.667  33.625  29.069  1.00  0.00     0.010 A 
ATOM     52  C   UNL A   1      36.488  32.428  29.786  1.00  0.00    -0.014 A 
BRANCH  52  53
ATOM     53  C   UNL A   1      37.621  31.832  30.532  1.00  0.00     0.031 A 
ATOM     54  C   UNL A   1      38.471  30.814  29.824  1.00  0.00     0.074 A 
ATOM     55  C   UNL A   1      37.914  32.207  31.789  1.00  0.00     0.049 A 
ATOM     56  N   UNL A   1      39.485  30.120  30.270  1.00  0.00    -0.248 NA
ATOM     57  C   UNL A   1      38.124  30.539  28.420  1.00  0.00     0.031 C 
ATOM     58  C   UNL A   1      37.201  33.223  32.558  1.00  0.00     0.029 A 
ATOM     59  N   UNL A   1      38.895  31.762  32.640  1.00  0.00    -0.354 N 
ATOM     60  C   UNL A   1      39.890  29.322  29.206  1.00  0.00     0.074 A 
ATOM     61  C   UNL A   1      38.994  29.594  28.104  1.00  0.00     0.031 C 
ATOM     62  C   UNL A   1      37.764  33.318  33.777  1.00  0.00     0.029 A 
ATOM     63  C   UNL A   1      38.851  32.346  33.883  1.00  0.00     0.049 A 
ATOM     64  H   UNL A   1      39.567  31.090  32.384  1.00  0.00     0.167 HD
ATOM     65  C   UNL A   1      40.919  28.445  29.151  1.00  0.00     0.037 A 
ATOM     66  C   UNL A   1      39.589  32.100  34.982  1.00  0.00     0.037 A 
ATOM     67  C   UNL A   1      41.806  28.177  30.252  1.00  0.00     0.049 A 
ATOM     68  C   UNL A   1      40.674  31.054  34.923  1.00  0.00     0.074 A 
ATOM     69  C   UNL A   1      42.890  27.319  30.294  1.00  0.00     0.029 A 
ATOM     70  N   UNL A   1      41.701  28.754  31.508  1.00  0.00    -0.354 N 
ATOM     71  N   UNL A   1      41.066  30.319  33.909  1.00  0.00    -0.248 NA
ATOM     72  C   UNL A   1      41.420  30.802  36.165  1.00  0.00     0.031 C 
ATOM     73  C   UNL A   1      43.402  27.329  31.595  1.00  0.00     0.029 A 
ATOM     74  C   UNL A   1      42.681  28.246  32.344  1.00  0.00     0.049 A 
ATOM     75  H   UNL A   1      41.029  29.426  31.767  1.00  0.00     0.167 HD
ATOM     76  C   UNL A   1      42.124  29.549  34.379  1.00  0.00     0.074 A 
ATOM     77  C   UNL A   1      42.320  29.914  35.766  1.00  0.00     0.031 C 
ATOM     78  C   UNL A   1      42.869  28.626  33.721  1.00  0.00     0.037 A 
BRANCH  65  79
ATOM     79  C   UNL A   1      41.113  27.685  27.871  1.00  0.00     0.057 A 
ATOM     80  C   UNL A   1      41.847  28.205  26.798  1.00  0.00     0.134 A 
ATOM     81  C   UNL A   1      40.573  26.402  27.722  1.00  0.00     0.134 A 
ATOM     82  F   UNL A   1      42.376  29.437  26.868  1.00  0.00    -0.206 F 
ATOM     83  C   UNL A   1      42.015  27.486  25.612  1.00  0.00     0.040 A 
ATOM     84  C   UNL A   1      40.759  25.661  26.554  1.00  0.00     0.040 A 
ATOM     85  F   UNL A   1      39.859  25.842  28.711  1.00  0.00    -0.206 F 
ATOM     86  C   UNL A   1      41.477  26.207  25.492  1.00  0.00     0.006 A 
ENDBRANCH  65  79
BRANCH  66  87
ATOM     87  C   UNL A   1      39.325  32.840  36.244  1.00  0.00     0.057 A 
ATOM     88  C   UNL A   1      38.457  32.331  37.216  1.00  0.00     0.134 A 
ATOM     89  C   UNL A   1      39.907  34.089  36.492  1.00  0.00     0.134 A 
ATOM     90  F   UNL A   1      37.847  31.152  37.026  1.00  0.00    -0.206 F 
ATOM     91  C   UNL A   1      38.158  33.046  38.379  1.00  0.00     0.040 A 
ATOM     92  C   UNL A   1      39.642  34.801  37.664  1.00  0.00     0.040 A 
ATOM     93  F   UNL A   1      40.747  34.636  35.601  1.00  0.00    -0.206 F 
ATOM     94  C   UNL A   1      38.757  34.284  38.607  1.00  0.00     0.006 A 
ENDBRANCH  66  87
BRANCH  78  95
ATOM     95  C   UNL A   1      43.998  27.979  34.475  1.00  0.00     0.057 A 
ATOM     96  C   UNL A   1      45.250  28.591  34.611  1.00  0.00     0.134 A 
ATOM     97  C   UNL A   1      43.810  26.745  35.112  1.00  0.00     0.134 A 
ATOM     98  F   UNL A   1      45.500  29.768  34.018  1.00  0.00    -0.206 F 
ATOM     99  C   UNL A   1      46.283  27.987  35.330  1.00  0.00     0.040 A 
ATOM    100  C   UNL A   1      44.824  26.148  35.861  1.00  0.00     0.040 A 
ATOM    101  F   UNL A   1      42.631  26.110  35.034  1.00  0.00    -0.206 F 
ATOM    102  C   UNL A   1      46.068  26.766  35.966  1.00  0.00     0.006 A 
ENDBRANCH  78  95
ENDBRANCH  52  53
ENDBRANCH  45  47
ENDBRANCH  44  45
ENDBRANCH  43  44
ENDBRANCH  42  43
ENDBRANCH  41  42
ENDBRANCH  40  41
ENDBRANCH  39  40
ENDBRANCH  38  39
ENDBRANCH  37  38
ENDBRANCH  36  37
ENDBRANCH   1  36
TORSDOF 28
ENDMDL
MODEL 3
REMARK VINA RESULT:      -7.6      5.405     11.327
REMARK SMILES C[C@@H](C(=O)OCCOCCOCCOCCOC(=O)c1ccc(-c2c3nc(c(-c4c(F)cccc4F)c4ccc([nH]4)c(-c4c(F)cccc4F)c4nc(c(-c5c(F)cccc5F)c5ccc2[nH]5)C=C4)C=C3)cc1)c1ccc(-c2cccc(OC(=O)NCCCc3ccccc3)c2)c(F)c1
REMARK SMILES IDX 8 1 7 2 6 3 5 4 3 5 4 6 2 7 1 8 74 9 75 10 99 11 76 12 97 13
REMARK SMILES IDX 77 14 98 15 78 16 79 17 96 18 80 19 82 20 81 21 83 22 84 23
REMARK SMILES IDX 85 24 86 25 87 27 88 28 89 29 90 30 91 31 95 32 92 33 94 34
REMARK SMILES IDX 93 35 9 36 10 37 11 38 12 39 13 40 14 41 15 42 16 43 17 44
REMARK SMILES IDX 18 45 19 46 20 47 21 48 73 49 22 50 72 51 23 52 24 53 25 54
REMARK SMILES IDX 66 55 26 56 71 57 65 58 67 59 27 60 70 61 64 62 63 63 28 65
REMARK SMILES IDX 54 66 37 67 53 68 38 69 41 70 52 71 68 72 39 73 40 74 51 76
REMARK SMILES IDX 69 77 42 78 29 79 30 80 35 81 31 82 32 83 34 84 36 85 33 86
REMARK SMILES IDX 55 87 56 88 61 89 57 90 58 91 60 92 62 93 59 94 43 95 44 96
REMARK SMILES IDX 49 97 45 98 46 99 48 100 50 101 47 102
REMARK H PARENT 86 26 67 64 41 75
REMARK Flexibility Score: inf
ROOT
ATOM      1  O   UNL A   1      36.474  31.465  30.698  1.00  0.00    -0.376 OA
ENDROOT
BRANCH   1   2
ATOM      2  C   UNL A   1      36.118  32.428  29.720  1.00  0.00     0.202 C 
BRANCH   2   3
ATOM      3  C   UNL A   1      34.660  32.620  29.251  1.00  0.00     0.261 C 
BRANCH   3   4
ATOM      4  O   UNL A   1      33.965  31.469  28.726  1.00  0.00    -0.463 OA
BRANCH   4   5
ATOM      5  C   UNL A   1      34.406  30.984  27.537  1.00  0.00     0.313 C 
ATOM      6  O   UNL A   1      35.594  30.838  27.265  1.00  0.00    -0.252 OA
BRANCH   5   7
ATOM      7  C   UNL A   1      33.285  30.627  26.537  1.00  0.00     0.126 C 
ATOM      8  C   UNL A   1      31.820  30.741  26.977  1.00  0.00     0.025 C 
BRANCH   7   9
ATOM      9  C   UNL A   1      33.581  29.284  25.874  1.00  0.00    -0.031 A 
ATOM     10  C   UNL A   1      33.826  28.156  26.662  1.00  0.00     0.005 A 
ATOM     11  C   UNL A   1      33.516  29.107  24.487  1.00  0.00     0.044 A 
ATOM     12  C   UNL A   1      33.964  26.889  26.082  1.00  0.00     0.012 A 
ATOM     13  C   UNL A   1      33.596  27.840  23.919  1.00  0.00     0.131 A 
ATOM     14  C   UNL A   1      33.833  26.703  24.696  1.00  0.00     0.018 A 
ATOM     15  F   UNL A   1      33.432  27.744  22.589  1.00  0.00    -0.206 F 
BRANCH  14  16
ATOM     16  C   UNL A   1      34.021  25.381  24.083  1.00  0.00    -0.012 A 
ATOM     17  C   UNL A   1      33.615  25.098  22.768  1.00  0.00     0.009 A 
ATOM     18  C   UNL A   1      34.592  24.344  24.837  1.00  0.00     0.056 A 
ATOM     19  C   UNL A   1      33.754  23.813  22.237  1.00  0.00     0.004 A 
ATOM     20  C   UNL A   1      34.728  23.068  24.310  1.00  0.00     0.133 A 
ATOM     21  C   UNL A   1      34.306  22.794  23.011  1.00  0.00     0.047 A 
BRANCH  20  22
ATOM     22  O   UNL A   1      35.287  21.981  25.020  1.00  0.00    -0.410 OA
BRANCH  22  23
ATOM     23  C   UNL A   1      34.653  20.773  25.310  1.00  0.00     0.412 C 
ATOM     24  O   UNL A   1      34.738  19.725  24.687  1.00  0.00    -0.224 OA
ATOM     25  N   UNL A   1      33.886  20.838  26.438  1.00  0.00    -0.321 N 
ATOM     26  H   UNL A   1      33.331  20.053  26.651  1.00  0.00     0.167 HD
BRANCH  25  27
ATOM     27  C   UNL A   1      33.821  21.959  27.342  1.00  0.00     0.120 C 
BRANCH  27  28
ATOM     28  C   UNL A   1      32.447  22.617  27.423  1.00  0.00     0.026 C 
BRANCH  28  29
ATOM     29  C   UNL A   1      31.493  22.458  26.232  1.00  0.00     0.037 C 
BRANCH  29  30
ATOM     30  C   UNL A   1      30.973  23.668  25.492  1.00  0.00    -0.048 A 
ATOM     31  C   UNL A   1      30.677  23.704  24.126  1.00  0.00     0.004 A 
ATOM     32  C   UNL A   1      30.841  24.864  26.222  1.00  0.00     0.004 A 
ATOM     33  C   UNL A   1      30.277  24.892  23.506  1.00  0.00     0.000 A 
ATOM     34  C   UNL A   1      30.430  26.049  25.607  1.00  0.00     0.000 A 
ATOM     35  C   UNL A   1      30.155  26.064  24.244  1.00  0.00     0.000 A 
ENDBRANCH  29  30
ENDBRANCH  28  29
ENDBRANCH  27  28
ENDBRANCH  25  27
ENDBRANCH  22  23
ENDBRANCH  20  22
ENDBRANCH  14  16
ENDBRANCH   7   9
ENDBRANCH   5   7
ENDBRANCH   4   5
ENDBRANCH   3   4
ENDBRANCH   2   3
ENDBRANCH   1   2
BRANCH   1  36
ATOM     36  C   UNL A   1      37.701  31.594  31.396  1.00  0.00     0.188 C 
BRANCH  36  37
ATOM     37  C   UNL A   1      38.277  30.397  32.182  1.00  0.00     0.188 C 
BRANCH  37  38
ATOM     38  O   UNL A   1      39.676  30.434  32.384  1.00  0.00    -0.377 OA
BRANCH  38  39
ATOM     39  C   UNL A   1      40.254  29.218  32.830  1.00  0.00     0.188 C 
BRANCH  39  40
ATOM     40  C   UNL A   1      41.666  28.891  32.309  1.00  0.00     0.188 C 
BRANCH  40  41
ATOM     41  O   UNL A   1      41.714  28.649  30.906  1.00  0.00    -0.376 OA
BRANCH  41  42
ATOM     42  C   UNL A   1      42.574  29.445  30.102  1.00  0.00     0.202 C 
BRANCH  42  43
ATOM     43  C   UNL A   1      42.938  28.898  28.711  1.00  0.00     0.261 C 
BRANCH  43  44
ATOM     44  O   UNL A   1      43.994  29.578  28.014  1.00  0.00    -0.460 OA
BRANCH  44  45
ATOM     45  C   UNL A   1      44.944  28.832  27.415  1.00  0.00     0.338 C 
ATOM     46  O   UNL A   1      45.285  28.869  26.245  1.00  0.00    -0.246 OA
BRANCH  45  47
ATOM     47  C   UNL A   1      45.674  28.105  28.474  1.00  0.00     0.060 A 
ATOM     48  C   UNL A   1      45.740  26.706  28.407  1.00  0.00     0.016 A 
ATOM     49  C   UNL A   1      46.313  28.794  29.509  1.00  0.00     0.016 A 
ATOM     50  C   UNL A   1      46.419  25.989  29.391  1.00  0.00     0.010 A 
ATOM     51  C   UNL A   1      46.966  28.073  30.512  1.00  0.00     0.010 A 
ATOM     52  C   UNL A   1      46.991  26.668  30.475  1.00  0.00    -0.014 A 
BRANCH  52  53
ATOM     53  C   UNL A   1      47.403  25.900  31.673  1.00  0.00     0.031 A 
ATOM     54  C   UNL A   1      46.369  25.646  32.734  1.00  0.00     0.074 A 
ATOM     55  C   UNL A   1      48.648  25.410  31.804  1.00  0.00     0.049 A 
ATOM     56  N   UNL A   1      46.490  25.042  33.888  1.00  0.00    -0.248 NA
ATOM     57  C   UNL A   1      45.013  26.145  32.455  1.00  0.00     0.031 C 
ATOM     58  C   UNL A   1      49.719  25.541  30.820  1.00  0.00     0.029 A 
ATOM     59  N   UNL A   1      49.218  24.703  32.834  1.00  0.00    -0.354 N 
ATOM     60  C   UNL A   1      45.231  25.098  34.474  1.00  0.00     0.074 A 
ATOM     61  C   UNL A   1      44.369  25.820  33.564  1.00  0.00     0.031 C 
ATOM     62  C   UNL A   1      50.824  24.941  31.299  1.00  0.00     0.029 A 
ATOM     63  C   UNL A   1      50.546  24.417  32.636  1.00  0.00     0.049 A 
ATOM     64  H   UNL A   1      48.721  24.426  33.638  1.00  0.00     0.167 HD
ATOM     65  C   UNL A   1      44.828  24.588  35.661  1.00  0.00     0.037 A 
ATOM     66  C   UNL A   1      51.435  23.823  33.454  1.00  0.00     0.037 A 
ATOM     67  C   UNL A   1      45.690  23.873  36.563  1.00  0.00     0.049 A 
ATOM     68  C   UNL A   1      50.984  23.342  34.811  1.00  0.00     0.074 A 
ATOM     69  C   UNL A   1      45.376  23.302  37.783  1.00  0.00     0.029 A 
ATOM     70  N   UNL A   1      47.041  23.643  36.347  1.00  0.00    -0.354 N 
ATOM     71  N   UNL A   1      49.788  23.377  35.349  1.00  0.00    -0.248 NA
ATOM     72  C   UNL A   1      52.009  22.737  35.674  1.00  0.00     0.031 C 
ATOM     73  C   UNL A   1      46.551  22.782  38.335  1.00  0.00     0.029 A 
ATOM     74  C   UNL A   1      47.582  22.967  37.428  1.00  0.00     0.049 A 
ATOM     75  H   UNL A   1      47.540  23.920  35.545  1.00  0.00     0.167 HD
ATOM     76  C   UNL A   1      49.909  22.770  36.594  1.00  0.00     0.074 A 
ATOM     77  C   UNL A   1      51.292  22.363  36.726  1.00  0.00     0.031 C 
ATOM     78  C   UNL A   1      48.961  22.562  37.540  1.00  0.00     0.037 A 
BRANCH  65  79
ATOM     79  C   UNL A   1      43.402  24.824  36.066  1.00  0.00     0.057 A 
ATOM     80  C   UNL A   1      43.045  25.799  37.007  1.00  0.00     0.134 A 
ATOM     81  C   UNL A   1      42.369  24.077  35.487  1.00  0.00     0.134 A 
ATOM     82  F   UNL A   1      43.987  26.537  37.614  1.00  0.00    -0.206 F 
ATOM     83  C   UNL A   1      41.713  26.004  37.376  1.00  0.00     0.040 A 
ATOM     84  C   UNL A   1      41.032  24.294  35.825  1.00  0.00     0.040 A 
ATOM     85  F   UNL A   1      42.639  23.128  34.578  1.00  0.00    -0.206 F 
ATOM     86  C   UNL A   1      40.702  25.255  36.778  1.00  0.00     0.006 A 
ENDBRANCH  65  79
BRANCH  66  87
ATOM     87  C   UNL A   1      52.852  23.659  33.031  1.00  0.00     0.057 A 
ATOM     88  C   UNL A   1      53.769  24.710  33.141  1.00  0.00     0.134 A 
ATOM     89  C   UNL A   1      53.312  22.460  32.473  1.00  0.00     0.134 A 
ATOM     90  F   UNL A   1      53.383  25.893  33.642  1.00  0.00    -0.206 F 
ATOM     91  C   UNL A   1      55.086  24.584  32.693  1.00  0.00     0.040 A 
ATOM     92  C   UNL A   1      54.634  22.309  32.049  1.00  0.00     0.040 A 
ATOM     93  F   UNL A   1      52.484  21.413  32.337  1.00  0.00    -0.206 F 
ATOM     94  C   UNL A   1      55.522  23.377  32.149  1.00  0.00     0.006 A 
ENDBRANCH  66  87
BRANCH  78  95
ATOM     95  C   UNL A   1      49.370  21.821  38.783  1.00  0.00     0.057 A 
ATOM     96  C   UNL A   1      49.329  20.424  38.865  1.00  0.00     0.134 A 
ATOM     97  C   UNL A   1      49.855  22.519  39.897  1.00  0.00     0.134 A 
ATOM     98  F   UNL A   1      48.865  19.695  37.838  1.00  0.00    -0.206 F 
ATOM     99  C   UNL A   1      49.730  19.749  40.019  1.00  0.00     0.040 A 
ATOM    100  C   UNL A   1      50.291  21.853  41.043  1.00  0.00     0.040 A 
ATOM    101  F   UNL A   1      49.934  23.858  39.882  1.00  0.00    -0.206 F 
ATOM    102  C   UNL A   1      50.222  20.464  41.109  1.00  0.00     0.006 A 
ENDBRANCH  78  95
ENDBRANCH  52  53
ENDBRANCH  45  47
ENDBRANCH  44  45
ENDBRANCH  43  44
ENDBRANCH  42  43
ENDBRANCH  41  42
ENDBRANCH  40  41
ENDBRANCH  39  40
ENDBRANCH  38  39
ENDBRANCH  37  38
ENDBRANCH  36  37
ENDBRANCH   1  36
TORSDOF 28
ENDMDL
