MODEL 1
REMARK VINA RESULT:      -9.7      0.000      0.000
REMARK SMILES C[C@@H](C(=O)OCCOCCOCCOCCOC(=O)c1ccc(-c2c3nc(c(-c4c(F)cccc4F)c4ccc([nH]4)c(-c4c(F)cccc4F)c4nc(c(-c5c(F)cccc5F)c5ccc2[nH]5)C=C4)C=C3)cc1)c1ccc(-c2cccc(OC(=O)NCCC3CCCCC3)c2)c(F)c1
REMARK SMILES IDX 9 1 8 2 7 3 6 4 5 5 3 6 4 7 2 8 1 9 74 10 75 11 98 12 76 13
REMARK SMILES IDX 96 14 77 15 97 16 78 17 79 18 95 19 80 20 82 21 81 22 83 23
REMARK SMILES IDX 84 24 85 25 86 26 87 28 88 29 89 30 90 31 94 32 91 33 93 34
REMARK SMILES IDX 92 35 10 36 11 37 12 38 13 39 14 40 15 41 16 42 17 43 18 44
REMARK SMILES IDX 19 45 20 46 21 47 73 48 22 49 72 50 23 51 24 52 25 53 66 54
REMARK SMILES IDX 26 55 71 56 65 57 67 58 27 59 70 60 64 61 63 62 28 64 54 65
REMARK SMILES IDX 37 66 53 67 38 68 41 69 52 70 68 71 39 72 40 73 51 75 69 76
REMARK SMILES IDX 42 77 29 78 30 79 35 80 31 81 32 82 34 83 36 84 33 85 55 86
REMARK SMILES IDX 56 87 61 88 57 89 58 90 60 91 62 92 59 93 43 94 44 95 49 96
REMARK SMILES IDX 45 97 46 98 48 99 50 100 47 101
REMARK H PARENT 86 27 67 63 41 74
REMARK Flexibility Score: inf
ROOT
ATOM      1  C   UNL A   1      33.659  21.460  25.533  1.00  0.00     0.188 C 
ENDROOT
BRANCH   1   2
ATOM      2  O   UNL A   1      32.908  22.572  25.992  1.00  0.00    -0.376 OA
BRANCH   2   3
ATOM      3  C   UNL A   1      32.010  23.235  25.114  1.00  0.00     0.202 C 
BRANCH   3   4
ATOM      4  C   UNL A   1      31.655  22.688  23.714  1.00  0.00     0.261 C 
BRANCH   4   5
ATOM      5  O   UNL A   1      32.633  22.842  22.666  1.00  0.00    -0.463 OA
BRANCH   5   6
ATOM      6  C   UNL A   1      33.279  24.034  22.607  1.00  0.00     0.313 C 
ATOM      7  O   UNL A   1      34.469  24.171  22.873  1.00  0.00    -0.252 OA
BRANCH   6   8
ATOM      8  C   UNL A   1      32.392  25.220  22.166  1.00  0.00     0.126 C 
ATOM      9  C   UNL A   1      32.486  25.731  20.723  1.00  0.00     0.025 C 
BRANCH   8  10
ATOM     10  C   UNL A   1      32.431  26.341  23.207  1.00  0.00    -0.031 A 
ATOM     11  C   UNL A   1      31.612  26.384  24.349  1.00  0.00     0.005 A 
ATOM     12  C   UNL A   1      33.249  27.444  22.955  1.00  0.00     0.044 A 
ATOM     13  C   UNL A   1      31.550  27.527  25.162  1.00  0.00     0.012 A 
ATOM     14  C   UNL A   1      33.210  28.561  23.784  1.00  0.00     0.131 A 
ATOM     15  C   UNL A   1      32.336  28.650  24.879  1.00  0.00     0.018 A 
ATOM     16  F   UNL A   1      34.022  29.586  23.480  1.00  0.00    -0.206 F 
BRANCH  15  17
ATOM     17  C   UNL A   1      32.190  29.909  25.630  1.00  0.00    -0.012 A 
ATOM     18  C   UNL A   1      31.109  30.784  25.450  1.00  0.00     0.009 A 
ATOM     19  C   UNL A   1      33.179  30.263  26.565  1.00  0.00     0.056 A 
ATOM     20  C   UNL A   1      31.008  31.959  26.206  1.00  0.00     0.004 A 
ATOM     21  C   UNL A   1      33.092  31.438  27.305  1.00  0.00     0.133 A 
ATOM     22  C   UNL A   1      31.997  32.284  27.139  1.00  0.00     0.047 A 
BRANCH  21  23
ATOM     23  O   UNL A   1      34.056  31.840  28.262  1.00  0.00    -0.410 OA
BRANCH  23  24
ATOM     24  C   UNL A   1      35.214  32.554  27.959  1.00  0.00     0.412 C 
ATOM     25  O   UNL A   1      35.281  33.707  27.541  1.00  0.00    -0.224 OA
ATOM     26  N   UNL A   1      36.367  31.869  28.189  1.00  0.00    -0.321 N 
ATOM     27  H   UNL A   1      37.202  32.358  28.010  1.00  0.00     0.167 HD
BRANCH  26  28
ATOM     28  C   UNL A   1      36.519  30.512  28.665  1.00  0.00     0.119 C 
BRANCH  28  29
ATOM     29  C   UNL A   1      37.290  29.655  27.660  1.00  0.00     0.025 C 
BRANCH  29  30
ATOM     30  C   UNL A   1      38.341  28.715  28.291  1.00  0.00    -0.009 C 
ATOM     31  C   UNL A   1      39.778  29.135  27.938  1.00  0.00     0.003 C 
ATOM     32  C   UNL A   1      38.148  28.665  29.816  1.00  0.00     0.003 C 
ATOM     33  C   UNL A   1      40.821  28.266  28.638  1.00  0.00     0.000 C 
ATOM     34  C   UNL A   1      39.192  27.779  30.492  1.00  0.00     0.000 C 
ATOM     35  C   UNL A   1      40.607  28.227  30.146  1.00  0.00     0.000 C 
ENDBRANCH  29  30
ENDBRANCH  28  29
ENDBRANCH  26  28
ENDBRANCH  23  24
ENDBRANCH  21  23
ENDBRANCH  15  17
ENDBRANCH   8  10
ENDBRANCH   6   8
ENDBRANCH   5   6
ENDBRANCH   4   5
ENDBRANCH   3   4
ENDBRANCH   2   3
ENDBRANCH   1   2
BRANCH   1  36
ATOM     36  C   UNL A   1      35.190  21.576  25.397  1.00  0.00     0.188 C 
BRANCH  36  37
ATOM     37  O   UNL A   1      35.729  22.818  25.795  1.00  0.00    -0.377 OA
BRANCH  37  38
ATOM     38  C   UNL A   1      37.081  23.057  25.440  1.00  0.00     0.188 C 
BRANCH  38  39
ATOM     39  C   UNL A   1      38.041  21.853  25.381  1.00  0.00     0.188 C 
BRANCH  39  40
ATOM     40  O   UNL A   1      38.986  21.811  26.445  1.00  0.00    -0.376 OA
BRANCH  40  41
ATOM     41  C   UNL A   1      40.308  21.372  26.174  1.00  0.00     0.202 C 
BRANCH  41  42
ATOM     42  C   UNL A   1      41.447  22.386  26.376  1.00  0.00     0.261 C 
BRANCH  42  43
ATOM     43  O   UNL A   1      41.174  23.486  27.257  1.00  0.00    -0.460 OA
BRANCH  43  44
ATOM     44  C   UNL A   1      40.934  24.694  26.699  1.00  0.00     0.338 C 
ATOM     45  O   UNL A   1      39.854  25.187  26.450  1.00  0.00    -0.246 OA
BRANCH  44  46
ATOM     46  C   UNL A   1      42.225  25.415  26.630  1.00  0.00     0.060 A 
ATOM     47  C   UNL A   1      42.934  25.644  27.818  1.00  0.00     0.016 A 
ATOM     48  C   UNL A   1      42.743  25.842  25.405  1.00  0.00     0.016 A 
ATOM     49  C   UNL A   1      44.147  26.332  27.787  1.00  0.00     0.010 A 
ATOM     50  C   UNL A   1      43.943  26.556  25.379  1.00  0.00     0.010 A 
ATOM     51  C   UNL A   1      44.632  26.834  26.573  1.00  0.00    -0.014 A 
BRANCH  51  52
ATOM     52  C   UNL A   1      45.729  27.831  26.582  1.00  0.00     0.031 A 
ATOM     53  C   UNL A   1      45.361  29.285  26.705  1.00  0.00     0.074 A 
ATOM     54  C   UNL A   1      47.020  27.464  26.510  1.00  0.00     0.049 A 
ATOM     55  N   UNL A   1      46.127  30.343  26.684  1.00  0.00    -0.248 NA
ATOM     56  C   UNL A   1      43.927  29.581  26.871  1.00  0.00     0.031 C 
ATOM     57  C   UNL A   1      47.507  26.088  26.441  1.00  0.00     0.029 A 
ATOM     58  N   UNL A   1      48.160  28.228  26.476  1.00  0.00    -0.354 N 
ATOM     59  C   UNL A   1      45.271  31.429  26.823  1.00  0.00     0.074 A 
ATOM     60  C   UNL A   1      43.926  30.904  26.897  1.00  0.00     0.031 C 
ATOM     61  C   UNL A   1      48.850  26.106  26.360  1.00  0.00     0.029 A 
ATOM     62  C   UNL A   1      49.311  27.493  26.336  1.00  0.00     0.049 A 
ATOM     63  H   UNL A   1      48.152  29.210  26.546  1.00  0.00     0.167 HD
ATOM     64  C   UNL A   1      45.579  32.746  26.890  1.00  0.00     0.037 A 
ATOM     65  C   UNL A   1      50.587  27.900  26.180  1.00  0.00     0.037 A 
ATOM     66  C   UNL A   1      46.919  33.264  26.814  1.00  0.00     0.049 A 
ATOM     67  C   UNL A   1      50.895  29.376  26.171  1.00  0.00     0.074 A 
ATOM     68  C   UNL A   1      47.338  34.581  26.890  1.00  0.00     0.029 A 
ATOM     69  N   UNL A   1      48.055  32.490  26.632  1.00  0.00    -0.354 N 
ATOM     70  N   UNL A   1      50.085  30.395  26.328  1.00  0.00    -0.248 NA
ATOM     71  C   UNL A   1      52.301  29.759  25.962  1.00  0.00     0.031 C 
ATOM     72  C   UNL A   1      48.722  34.608  26.690  1.00  0.00     0.029 A 
ATOM     73  C   UNL A   1      49.173  33.305  26.560  1.00  0.00     0.049 A 
ATOM     74  H   UNL A   1      48.065  31.508  26.565  1.00  0.00     0.167 HD
ATOM     75  C   UNL A   1      50.883  31.532  26.275  1.00  0.00     0.074 A 
ATOM     76  C   UNL A   1      52.244  31.077  26.082  1.00  0.00     0.031 C 
ATOM     77  C   UNL A   1      50.524  32.836  26.379  1.00  0.00     0.037 A 
BRANCH  64  78
ATOM     78  C   UNL A   1      44.442  33.717  27.014  1.00  0.00     0.057 A 
ATOM     79  C   UNL A   1      43.939  34.123  28.258  1.00  0.00     0.134 A 
ATOM     80  C   UNL A   1      43.859  34.277  25.870  1.00  0.00     0.134 A 
ATOM     81  F   UNL A   1      44.439  33.612  29.394  1.00  0.00    -0.206 F 
ATOM     82  C   UNL A   1      42.881  35.029  28.357  1.00  0.00     0.040 A 
ATOM     83  C   UNL A   1      42.823  35.207  25.957  1.00  0.00     0.040 A 
ATOM     84  F   UNL A   1      44.293  33.934  24.647  1.00  0.00    -0.206 F 
ATOM     85  C   UNL A   1      42.326  35.581  27.204  1.00  0.00     0.006 A 
ENDBRANCH  64  78
BRANCH  65  86
ATOM     86  C   UNL A   1      51.675  26.903  26.003  1.00  0.00     0.057 A 
ATOM     87  C   UNL A   1      52.431  26.450  27.091  1.00  0.00     0.134 A 
ATOM     88  C   UNL A   1      52.014  26.410  24.736  1.00  0.00     0.134 A 
ATOM     89  F   UNL A   1      52.175  26.905  28.326  1.00  0.00    -0.206 F 
ATOM     90  C   UNL A   1      53.496  25.562  26.925  1.00  0.00     0.040 A 
ATOM     91  C   UNL A   1      53.056  25.498  24.560  1.00  0.00     0.040 A 
ATOM     92  F   UNL A   1      51.332  26.804  23.651  1.00  0.00    -0.206 F 
ATOM     93  C   UNL A   1      53.807  25.078  25.655  1.00  0.00     0.006 A 
ENDBRANCH  65  86
BRANCH  77  94
ATOM     94  C   UNL A   1      51.620  33.864  26.339  1.00  0.00     0.057 A 
ATOM     95  C   UNL A   1      52.287  34.289  27.494  1.00  0.00     0.134 A 
ATOM     96  C   UNL A   1      52.045  34.401  25.115  1.00  0.00     0.134 A 
ATOM     97  F   UNL A   1      51.925  33.823  28.699  1.00  0.00    -0.206 F 
ATOM     98  C   UNL A   1      53.317  35.231  27.438  1.00  0.00     0.040 A 
ATOM     99  C   UNL A   1      53.094  35.317  25.042  1.00  0.00     0.040 A 
ATOM    100  F   UNL A   1      51.459  34.029  23.967  1.00  0.00    -0.206 F 
ATOM    101  C   UNL A   1      53.728  35.741  26.208  1.00  0.00     0.006 A 
ENDBRANCH  77  94
ENDBRANCH  51  52
ENDBRANCH  44  46
ENDBRANCH  43  44
ENDBRANCH  42  43
ENDBRANCH  41  42
ENDBRANCH  40  41
ENDBRANCH  39  40
ENDBRANCH  38  39
ENDBRANCH  37  38
ENDBRANCH  36  37
ENDBRANCH   1  36
TORSDOF 27
ENDMDL
MODEL 2
REMARK VINA RESULT:      -9.7      7.351     10.930
REMARK SMILES C[C@@H](C(=O)OCCOCCOCCOCCOC(=O)c1ccc(-c2c3nc(c(-c4c(F)cccc4F)c4ccc([nH]4)c(-c4c(F)cccc4F)c4nc(c(-c5c(F)cccc5F)c5ccc2[nH]5)C=C4)C=C3)cc1)c1ccc(-c2cccc(OC(=O)NCCC3CCCCC3)c2)c(F)c1
REMARK SMILES IDX 9 1 8 2 7 3 6 4 5 5 3 6 4 7 2 8 1 9 74 10 75 11 98 12 76 13
REMARK SMILES IDX 96 14 77 15 97 16 78 17 79 18 95 19 80 20 82 21 81 22 83 23
REMARK SMILES IDX 84 24 85 25 86 26 87 28 88 29 89 30 90 31 94 32 91 33 93 34
REMARK SMILES IDX 92 35 10 36 11 37 12 38 13 39 14 40 15 41 16 42 17 43 18 44
REMARK SMILES IDX 19 45 20 46 21 47 73 48 22 49 72 50 23 51 24 52 25 53 66 54
REMARK SMILES IDX 26 55 71 56 65 57 67 58 27 59 70 60 64 61 63 62 28 64 54 65
REMARK SMILES IDX 37 66 53 67 38 68 41 69 52 70 68 71 39 72 40 73 51 75 69 76
REMARK SMILES IDX 42 77 29 78 30 79 35 80 31 81 32 82 34 83 36 84 33 85 55 86
REMARK SMILES IDX 56 87 61 88 57 89 58 90 60 91 62 92 59 93 43 94 44 95 49 96
REMARK SMILES IDX 45 97 46 98 48 99 50 100 47 101
REMARK H PARENT 86 27 67 63 41 74
REMARK Flexibility Score: inf
ROOT
ATOM      1  C   UNL A   1      30.809  29.329  24.159  1.00  0.00     0.188 C 
ENDROOT
BRANCH   1   2
ATOM      2  O   UNL A   1      30.292  28.372  23.248  1.00  0.00    -0.376 OA
BRANCH   2   3
ATOM      3  C   UNL A   1      31.155  27.407  22.665  1.00  0.00     0.202 C 
BRANCH   3   4
ATOM      4  C   UNL A   1      31.592  26.123  23.405  1.00  0.00     0.261 C 
BRANCH   4   5
ATOM      5  O   UNL A   1      32.885  25.572  23.085  1.00  0.00    -0.463 OA
BRANCH   5   6
ATOM      6  C   UNL A   1      32.942  24.723  22.027  1.00  0.00     0.313 C 
ATOM      7  O   UNL A   1      32.962  25.100  20.860  1.00  0.00    -0.252 OA
BRANCH   6   8
ATOM      8  C   UNL A   1      32.985  23.227  22.411  1.00  0.00     0.126 C 
ATOM      9  C   UNL A   1      31.733  22.569  23.005  1.00  0.00     0.025 C 
BRANCH   8  10
ATOM     10  C   UNL A   1      34.262  22.906  23.190  1.00  0.00    -0.031 A 
ATOM     11  C   UNL A   1      35.545  23.335  22.809  1.00  0.00     0.005 A 
ATOM     12  C   UNL A   1      34.166  22.042  24.283  1.00  0.00     0.044 A 
ATOM     13  C   UNL A   1      36.698  22.849  23.446  1.00  0.00     0.012 A 
ATOM     14  C   UNL A   1      35.311  21.590  24.933  1.00  0.00     0.131 A 
ATOM     15  C   UNL A   1      36.601  21.946  24.511  1.00  0.00     0.018 A 
ATOM     16  F   UNL A   1      35.143  20.760  25.974  1.00  0.00    -0.206 F 
BRANCH  15  17
ATOM     17  C   UNL A   1      37.792  21.314  25.105  1.00  0.00    -0.012 A 
ATOM     18  C   UNL A   1      38.068  19.944  24.986  1.00  0.00     0.009 A 
ATOM     19  C   UNL A   1      38.694  22.110  25.832  1.00  0.00     0.056 A 
ATOM     20  C   UNL A   1      39.227  19.398  25.554  1.00  0.00     0.004 A 
ATOM     21  C   UNL A   1      39.837  21.569  26.413  1.00  0.00     0.133 A 
ATOM     22  C   UNL A   1      40.115  20.211  26.262  1.00  0.00     0.047 A 
BRANCH  21  23
ATOM     23  O   UNL A   1      40.780  22.324  27.151  1.00  0.00    -0.410 OA
BRANCH  23  24
ATOM     24  C   UNL A   1      41.543  23.363  26.620  1.00  0.00     0.412 C 
ATOM     25  O   UNL A   1      42.444  23.267  25.791  1.00  0.00    -0.224 OA
ATOM     26  N   UNL A   1      41.200  24.597  27.080  1.00  0.00    -0.321 N 
ATOM     27  H   UNL A   1      41.703  25.353  26.701  1.00  0.00     0.167 HD
BRANCH  26  28
ATOM     28  C   UNL A   1      40.187  24.937  28.054  1.00  0.00     0.119 C 
BRANCH  28  29
ATOM     29  C   UNL A   1      40.476  26.291  28.705  1.00  0.00     0.025 C 
BRANCH  29  30
ATOM     30  C   UNL A   1      39.269  27.254  28.747  1.00  0.00    -0.009 C 
ATOM     31  C   UNL A   1      38.946  27.713  30.179  1.00  0.00     0.003 C 
ATOM     32  C   UNL A   1      39.534  28.463  27.834  1.00  0.00     0.003 C 
ATOM     33  C   UNL A   1      37.815  28.739  30.214  1.00  0.00     0.000 C 
ATOM     34  C   UNL A   1      38.384  29.467  27.874  1.00  0.00     0.000 C 
ATOM     35  C   UNL A   1      38.096  29.925  29.299  1.00  0.00     0.000 C 
ENDBRANCH  29  30
ENDBRANCH  28  29
ENDBRANCH  26  28
ENDBRANCH  23  24
ENDBRANCH  21  23
ENDBRANCH  15  17
ENDBRANCH   8  10
ENDBRANCH   6   8
ENDBRANCH   5   6
ENDBRANCH   4   5
ENDBRANCH   3   4
ENDBRANCH   2   3
ENDBRANCH   1   2
BRANCH   1  36
ATOM     36  C   UNL A   1      31.850  28.899  25.210  1.00  0.00     0.188 C 
BRANCH  36  37
ATOM     37  O   UNL A   1      32.797  29.889  25.549  1.00  0.00    -0.377 OA
BRANCH  37  38
ATOM     38  C   UNL A   1      32.965  30.148  26.932  1.00  0.00     0.188 C 
BRANCH  38  39
ATOM     39  C   UNL A   1      34.330  30.678  27.413  1.00  0.00     0.188 C 
BRANCH  39  40
ATOM     40  O   UNL A   1      34.285  31.995  27.952  1.00  0.00    -0.376 OA
BRANCH  40  41
ATOM     41  C   UNL A   1      35.495  32.726  28.083  1.00  0.00     0.202 C 
BRANCH  41  42
ATOM     42  C   UNL A   1      35.488  33.947  29.018  1.00  0.00     0.261 C 
BRANCH  42  43
ATOM     43  O   UNL A   1      36.211  33.812  30.250  1.00  0.00    -0.460 OA
BRANCH  43  44
ATOM     44  C   UNL A   1      35.704  32.982  31.189  1.00  0.00     0.338 C 
ATOM     45  O   UNL A   1      34.545  32.648  31.326  1.00  0.00    -0.246 OA
BRANCH  44  46
ATOM     46  C   UNL A   1      36.847  32.374  31.907  1.00  0.00     0.060 A 
ATOM     47  C   UNL A   1      36.587  31.441  32.920  1.00  0.00     0.016 A 
ATOM     48  C   UNL A   1      38.161  32.704  31.571  1.00  0.00     0.016 A 
ATOM     49  C   UNL A   1      37.642  30.860  33.623  1.00  0.00     0.010 A 
ATOM     50  C   UNL A   1      39.216  32.143  32.295  1.00  0.00     0.010 A 
ATOM     51  C   UNL A   1      38.959  31.246  33.347  1.00  0.00    -0.014 A 
BRANCH  51  52
ATOM     52  C   UNL A   1      40.039  30.888  34.297  1.00  0.00     0.031 A 
ATOM     53  C   UNL A   1      40.443  31.909  35.325  1.00  0.00     0.074 A 
ATOM     54  C   UNL A   1      40.632  29.681  34.272  1.00  0.00     0.049 A 
ATOM     55  N   UNL A   1      41.388  31.856  36.226  1.00  0.00    -0.248 NA
ATOM     56  C   UNL A   1      39.673  33.165  35.332  1.00  0.00     0.031 C 
ATOM     57  C   UNL A   1      40.294  28.590  33.361  1.00  0.00     0.029 A 
ATOM     58  N   UNL A   1      41.654  29.179  35.038  1.00  0.00    -0.354 N 
ATOM     59  C   UNL A   1      41.335  33.071  36.899  1.00  0.00     0.074 A 
ATOM     60  C   UNL A   1      40.285  33.852  36.284  1.00  0.00     0.031 C 
ATOM     61  C   UNL A   1      41.106  27.547  33.614  1.00  0.00     0.029 A 
ATOM     62  C   UNL A   1      42.040  27.911  34.677  1.00  0.00     0.049 A 
ATOM     63  H   UNL A   1      42.070  29.679  35.776  1.00  0.00     0.167 HD
ATOM     64  C   UNL A   1      42.089  33.494  37.940  1.00  0.00     0.037 A 
ATOM     65  C   UNL A   1      43.051  27.147  35.138  1.00  0.00     0.037 A 
ATOM     66  C   UNL A   1      43.133  32.715  38.548  1.00  0.00     0.049 A 
ATOM     67  C   UNL A   1      43.932  27.677  36.242  1.00  0.00     0.074 A 
ATOM     68  C   UNL A   1      43.943  33.047  39.621  1.00  0.00     0.029 A 
ATOM     69  N   UNL A   1      43.521  31.451  38.128  1.00  0.00    -0.354 N 
ATOM     70  N   UNL A   1      43.860  28.815  36.889  1.00  0.00    -0.248 NA
ATOM     71  C   UNL A   1      45.039  26.812  36.679  1.00  0.00     0.031 C 
ATOM     72  C   UNL A   1      44.862  32.011  39.808  1.00  0.00     0.029 A 
ATOM     73  C   UNL A   1      44.581  31.003  38.900  1.00  0.00     0.049 A 
ATOM     74  H   UNL A   1      43.105  30.948  37.392  1.00  0.00     0.167 HD
ATOM     75  C   UNL A   1      44.882  28.786  37.830  1.00  0.00     0.074 A 
ATOM     76  C   UNL A   1      45.554  27.514  37.677  1.00  0.00     0.031 C 
ATOM     77  C   UNL A   1      45.234  29.727  38.742  1.00  0.00     0.037 A 
BRANCH  64  78
ATOM     78  C   UNL A   1      41.833  34.879  38.461  1.00  0.00     0.057 A 
ATOM     79  C   UNL A   1      40.894  35.137  39.469  1.00  0.00     0.134 A 
ATOM     80  C   UNL A   1      42.561  35.969  37.964  1.00  0.00     0.134 A 
ATOM     81  F   UNL A   1      40.150  34.142  39.976  1.00  0.00    -0.206 F 
ATOM     82  C   UNL A   1      40.670  36.431  39.943  1.00  0.00     0.040 A 
ATOM     83  C   UNL A   1      42.368  37.261  38.452  1.00  0.00     0.040 A 
ATOM     84  F   UNL A   1      43.477  35.793  37.000  1.00  0.00    -0.206 F 
ATOM     85  C   UNL A   1      41.414  37.496  39.441  1.00  0.00     0.006 A 
ENDBRANCH  64  78
BRANCH  65  86
ATOM     86  C   UNL A   1      43.303  25.804  34.554  1.00  0.00     0.057 A 
ATOM     87  C   UNL A   1      42.721  24.652  35.099  1.00  0.00     0.134 A 
ATOM     88  C   UNL A   1      44.162  25.633  33.461  1.00  0.00     0.134 A 
ATOM     89  F   UNL A   1      41.910  24.746  36.162  1.00  0.00    -0.206 F 
ATOM     90  C   UNL A   1      43.001  23.381  34.595  1.00  0.00     0.040 A 
ATOM     91  C   UNL A   1      44.427  24.371  32.928  1.00  0.00     0.040 A 
ATOM     92  F   UNL A   1      44.754  26.694  32.892  1.00  0.00    -0.206 F 
ATOM     93  C   UNL A   1      43.853  23.238  33.501  1.00  0.00     0.006 A 
ENDBRANCH  65  86
BRANCH  77  94
ATOM     94  C   UNL A   1      46.361  29.400  39.681  1.00  0.00     0.057 A 
ATOM     95  C   UNL A   1      47.687  29.758  39.408  1.00  0.00     0.134 A 
ATOM     96  C   UNL A   1      46.105  28.756  40.900  1.00  0.00     0.134 A 
ATOM     97  F   UNL A   1      48.003  30.368  38.256  1.00  0.00    -0.206 F 
ATOM     98  C   UNL A   1      48.720  29.464  40.301  1.00  0.00     0.040 A 
ATOM     99  C   UNL A   1      47.123  28.486  41.814  1.00  0.00     0.040 A 
ATOM    100  F   UNL A   1      44.855  28.396  41.232  1.00  0.00    -0.206 F 
ATOM    101  C   UNL A   1      48.438  28.834  41.511  1.00  0.00     0.006 A 
ENDBRANCH  77  94
ENDBRANCH  51  52
ENDBRANCH  44  46
ENDBRANCH  43  44
ENDBRANCH  42  43
ENDBRANCH  41  42
ENDBRANCH  40  41
ENDBRANCH  39  40
ENDBRANCH  38  39
ENDBRANCH  37  38
ENDBRANCH  36  37
ENDBRANCH   1  36
TORSDOF 27
ENDMDL
MODEL 3
REMARK VINA RESULT:      -9.6      1.140      5.895
REMARK SMILES C[C@@H](C(=O)OCCOCCOCCOCCOC(=O)c1ccc(-c2c3nc(c(-c4c(F)cccc4F)c4ccc([nH]4)c(-c4c(F)cccc4F)c4nc(c(-c5c(F)cccc5F)c5ccc2[nH]5)C=C4)C=C3)cc1)c1ccc(-c2cccc(OC(=O)NCCC3CCCCC3)c2)c(F)c1
REMARK SMILES IDX 9 1 8 2 7 3 6 4 5 5 3 6 4 7 2 8 1 9 74 10 75 11 98 12 76 13
REMARK SMILES IDX 96 14 77 15 97 16 78 17 79 18 95 19 80 20 82 21 81 22 83 23
REMARK SMILES IDX 84 24 85 25 86 26 87 28 88 29 89 30 90 31 94 32 91 33 93 34
REMARK SMILES IDX 92 35 10 36 11 37 12 38 13 39 14 40 15 41 16 42 17 43 18 44
REMARK SMILES IDX 19 45 20 46 21 47 73 48 22 49 72 50 23 51 24 52 25 53 66 54
REMARK SMILES IDX 26 55 71 56 65 57 67 58 27 59 70 60 64 61 63 62 28 64 54 65
REMARK SMILES IDX 37 66 53 67 38 68 41 69 52 70 68 71 39 72 40 73 51 75 69 76
REMARK SMILES IDX 42 77 29 78 30 79 35 80 31 81 32 82 34 83 36 84 33 85 55 86
REMARK SMILES IDX 56 87 61 88 57 89 58 90 60 91 62 92 59 93 43 94 44 95 49 96
REMARK SMILES IDX 45 97 46 98 48 99 50 100 47 101
REMARK H PARENT 86 27 67 63 41 74
REMARK Flexibility Score: inf
ROOT
ATOM      1  C   UNL A   1      34.901  21.068  24.902  1.00  0.00     0.188 C 
ENDROOT
BRANCH   1   2
ATOM      2  O   UNL A   1      34.701  21.001  26.304  1.00  0.00    -0.376 OA
BRANCH   2   3
ATOM      3  C   UNL A   1      33.612  21.691  26.901  1.00  0.00     0.202 C 
BRANCH   3   4
ATOM      4  C   UNL A   1      33.380  23.206  26.712  1.00  0.00     0.261 C 
BRANCH   4   5
ATOM      5  O   UNL A   1      32.068  23.637  26.299  1.00  0.00    -0.463 OA
BRANCH   5   6
ATOM      6  C   UNL A   1      31.953  24.115  25.035  1.00  0.00     0.313 C 
ATOM      7  O   UNL A   1      32.600  23.681  24.087  1.00  0.00    -0.252 OA
BRANCH   6   8
ATOM      8  C   UNL A   1      30.927  25.259  24.876  1.00  0.00     0.126 C 
ATOM      9  C   UNL A   1      30.245  25.472  23.519  1.00  0.00     0.025 C 
BRANCH   8  10
ATOM     10  C   UNL A   1      31.460  26.554  25.493  1.00  0.00    -0.031 A 
ATOM     11  C   UNL A   1      31.239  26.940  26.827  1.00  0.00     0.005 A 
ATOM     12  C   UNL A   1      32.113  27.461  24.656  1.00  0.00     0.044 A 
ATOM     13  C   UNL A   1      31.581  28.223  27.283  1.00  0.00     0.012 A 
ATOM     14  C   UNL A   1      32.481  28.720  25.123  1.00  0.00     0.131 A 
ATOM     15  C   UNL A   1      32.191  29.148  26.428  1.00  0.00     0.018 A 
ATOM     16  F   UNL A   1      33.102  29.541  24.263  1.00  0.00    -0.206 F 
BRANCH  15  17
ATOM     17  C   UNL A   1      32.434  30.542  26.837  1.00  0.00    -0.012 A 
ATOM     18  C   UNL A   1      31.568  31.596  26.509  1.00  0.00     0.009 A 
ATOM     19  C   UNL A   1      33.586  30.842  27.585  1.00  0.00     0.056 A 
ATOM     20  C   UNL A   1      31.836  32.900  26.942  1.00  0.00     0.004 A 
ATOM     21  C   UNL A   1      33.866  32.139  28.001  1.00  0.00     0.133 A 
ATOM     22  C   UNL A   1      32.981  33.173  27.694  1.00  0.00     0.047 A 
BRANCH  21  23
ATOM     23  O   UNL A   1      35.008  32.496  28.759  1.00  0.00    -0.410 OA
BRANCH  23  24
ATOM     24  C   UNL A   1      35.129  32.308  30.134  1.00  0.00     0.412 C 
ATOM     25  O   UNL A   1      34.389  32.754  31.007  1.00  0.00    -0.224 OA
ATOM     26  N   UNL A   1      36.177  31.520  30.498  1.00  0.00    -0.321 N 
ATOM     27  H   UNL A   1      36.271  31.346  31.463  1.00  0.00     0.167 HD
BRANCH  26  28
ATOM     28  C   UNL A   1      37.169  30.904  29.646  1.00  0.00     0.119 C 
BRANCH  28  29
ATOM     29  C   UNL A   1      36.989  29.385  29.593  1.00  0.00     0.025 C 
BRANCH  29  30
ATOM     30  C   UNL A   1      38.036  28.644  28.732  1.00  0.00    -0.009 C 
ATOM     31  C   UNL A   1      38.910  29.617  27.922  1.00  0.00     0.003 C 
ATOM     32  C   UNL A   1      38.907  27.747  29.628  1.00  0.00     0.003 C 
ATOM     33  C   UNL A   1      40.008  28.893  27.144  1.00  0.00     0.000 C 
ATOM     34  C   UNL A   1      39.986  27.023  28.827  1.00  0.00     0.000 C 
ATOM     35  C   UNL A   1      40.854  28.007  28.050  1.00  0.00     0.000 C 
ENDBRANCH  29  30
ENDBRANCH  28  29
ENDBRANCH  26  28
ENDBRANCH  23  24
ENDBRANCH  21  23
ENDBRANCH  15  17
ENDBRANCH   8  10
ENDBRANCH   6   8
ENDBRANCH   5   6
ENDBRANCH   4   5
ENDBRANCH   3   4
ENDBRANCH   2   3
ENDBRANCH   1   2
BRANCH   1  36
ATOM     36  C   UNL A   1      36.147  21.780  24.342  1.00  0.00     0.188 C 
BRANCH  36  37
ATOM     37  O   UNL A   1      35.975  23.155  24.072  1.00  0.00    -0.377 OA
BRANCH  37  38
ATOM     38  C   UNL A   1      36.447  24.052  25.062  1.00  0.00     0.188 C 
BRANCH  38  39
ATOM     39  C   UNL A   1      37.205  23.470  26.271  1.00  0.00     0.188 C 
BRANCH  39  40
ATOM     40  O   UNL A   1      38.622  23.553  26.163  1.00  0.00    -0.376 OA
BRANCH  40  41
ATOM     41  C   UNL A   1      39.414  22.493  26.676  1.00  0.00     0.202 C 
BRANCH  41  42
ATOM     42  C   UNL A   1      40.867  22.817  27.064  1.00  0.00     0.261 C 
BRANCH  42  43
ATOM     43  O   UNL A   1      41.817  22.873  25.990  1.00  0.00    -0.460 OA
BRANCH  43  44
ATOM     44  C   UNL A   1      43.122  22.696  26.295  1.00  0.00     0.338 C 
ATOM     45  O   UNL A   1      43.731  21.647  26.338  1.00  0.00    -0.246 OA
BRANCH  44  46
ATOM     46  C   UNL A   1      43.746  24.036  26.369  1.00  0.00     0.060 A 
ATOM     47  C   UNL A   1      43.848  24.798  25.197  1.00  0.00     0.016 A 
ATOM     48  C   UNL A   1      44.207  24.546  27.585  1.00  0.00     0.016 A 
ATOM     49  C   UNL A   1      44.443  26.059  25.232  1.00  0.00     0.010 A 
ATOM     50  C   UNL A   1      44.828  25.797  27.614  1.00  0.00     0.010 A 
ATOM     51  C   UNL A   1      44.980  26.543  26.431  1.00  0.00    -0.014 A 
BRANCH  51  52
ATOM     52  C   UNL A   1      45.889  27.713  26.404  1.00  0.00     0.031 A 
ATOM     53  C   UNL A   1      47.362  27.460  26.230  1.00  0.00     0.074 A 
ATOM     54  C   UNL A   1      45.426  28.971  26.504  1.00  0.00     0.049 A 
ATOM     55  N   UNL A   1      48.359  28.306  26.226  1.00  0.00    -0.248 NA
ATOM     56  C   UNL A   1      47.762  26.056  26.036  1.00  0.00     0.031 C 
ATOM     57  C   UNL A   1      44.020  29.350  26.624  1.00  0.00     0.029 A 
ATOM     58  N   UNL A   1      46.101  30.166  26.528  1.00  0.00    -0.354 N 
ATOM     59  C   UNL A   1      49.502  27.537  26.041  1.00  0.00     0.074 A 
ATOM     60  C   UNL A   1      49.079  26.157  25.967  1.00  0.00     0.031 C 
ATOM     61  C   UNL A   1      43.938  30.689  26.721  1.00  0.00     0.029 A 
ATOM     62  C   UNL A   1      45.285  31.256  26.706  1.00  0.00     0.049 A 
ATOM     63  H   UNL A   1      47.078  30.236  26.427  1.00  0.00     0.167 HD
ATOM     64  C   UNL A   1      50.788  27.948  25.936  1.00  0.00     0.037 A 
ATOM     65  C   UNL A   1      45.597  32.558  26.865  1.00  0.00     0.037 A 
ATOM     66  C   UNL A   1      51.203  29.322  26.012  1.00  0.00     0.049 A 
ATOM     67  C   UNL A   1      47.045  32.979  26.831  1.00  0.00     0.074 A 
ATOM     68  C   UNL A   1      52.481  29.843  25.899  1.00  0.00     0.029 A 
ATOM     69  N   UNL A   1      50.351  30.393  26.233  1.00  0.00    -0.354 N 
ATOM     70  N   UNL A   1      48.118  32.251  26.630  1.00  0.00    -0.248 NA
ATOM     71  C   UNL A   1      47.325  34.408  27.045  1.00  0.00     0.031 C 
ATOM     72  C   UNL A   1      52.408  31.222  26.115  1.00  0.00     0.029 A 
ATOM     73  C   UNL A   1      51.080  31.570  26.293  1.00  0.00     0.049 A 
ATOM     74  H   UNL A   1      49.374  30.327  26.333  1.00  0.00     0.167 HD
ATOM     75  C   UNL A   1      49.191  33.135  26.657  1.00  0.00     0.074 A 
ATOM     76  C   UNL A   1      48.639  34.454  26.882  1.00  0.00     0.031 C 
ATOM     77  C   UNL A   1      50.514  32.879  26.507  1.00  0.00     0.037 A 
BRANCH  64  78
ATOM     78  C   UNL A   1      51.839  26.890  25.766  1.00  0.00     0.057 A 
ATOM     79  C   UNL A   1      52.249  26.440  24.503  1.00  0.00     0.134 A 
ATOM     80  C   UNL A   1      52.471  26.332  26.885  1.00  0.00     0.134 A 
ATOM     81  F   UNL A   1      51.672  26.919  23.390  1.00  0.00    -0.206 F 
ATOM     82  C   UNL A   1      53.230  25.457  24.362  1.00  0.00     0.040 A 
ATOM     83  C   UNL A   1      53.475  25.371  26.755  1.00  0.00     0.040 A 
ATOM     84  F   UNL A   1      52.129  26.718  28.123  1.00  0.00    -0.206 F 
ATOM     85  C   UNL A   1      53.852  24.926  25.489  1.00  0.00     0.006 A 
ENDBRANCH  64  78
BRANCH  65  86
ATOM     86  C   UNL A   1      44.526  33.564  27.089  1.00  0.00     0.057 A 
ATOM     87  C   UNL A   1      43.950  34.263  26.020  1.00  0.00     0.134 A 
ATOM     88  C   UNL A   1      44.080  33.881  28.378  1.00  0.00     0.134 A 
ATOM     89  F   UNL A   1      44.354  34.026  24.764  1.00  0.00    -0.206 F 
ATOM     90  C   UNL A   1      42.989  35.255  26.226  1.00  0.00     0.040 A 
ATOM     91  C   UNL A   1      43.097  34.848  28.596  1.00  0.00     0.040 A 
ATOM     92  F   UNL A   1      44.590  33.251  29.446  1.00  0.00    -0.206 F 
ATOM     93  C   UNL A   1      42.555  35.545  27.518  1.00  0.00     0.006 A 
ENDBRANCH  65  86
BRANCH  77  94
ATOM     94  C   UNL A   1      51.456  34.051  26.527  1.00  0.00     0.057 A 
ATOM     95  C   UNL A   1      52.056  34.505  27.708  1.00  0.00     0.134 A 
ATOM     96  C   UNL A   1      51.802  34.703  25.336  1.00  0.00     0.134 A 
ATOM     97  F   UNL A   1      51.761  33.932  28.885  1.00  0.00    -0.206 F 
ATOM     98  C   UNL A   1      52.944  35.583  27.707  1.00  0.00     0.040 A 
ATOM     99  C   UNL A   1      52.713  35.760  25.317  1.00  0.00     0.040 A 
ATOM    100  F   UNL A   1      51.275  34.312  24.165  1.00  0.00    -0.206 F 
ATOM    101  C   UNL A   1      53.281  36.207  26.508  1.00  0.00     0.006 A 
ENDBRANCH  77  94
ENDBRANCH  51  52
ENDBRANCH  44  46
ENDBRANCH  43  44
ENDBRANCH  42  43
ENDBRANCH  41  42
ENDBRANCH  40  41
ENDBRANCH  39  40
ENDBRANCH  38  39
ENDBRANCH  37  38
ENDBRANCH  36  37
ENDBRANCH   1  36
TORSDOF 27
ENDMDL
