MODEL 1
REMARK VINA RESULT:     -11.3      0.000      0.000
REMARK SMILES Cc1cc(/C=C2/C(=O)NC(=S)N=C2OCCOCCOCCOCCOC(=O)c2ccc(-c3c4nc(c(-c5c(F)cccc5F)c5ccc([nH]5)c(-c5c(F)cccc5F)c5nc(c(-c6c(F)cccc6F)c6ccc3[nH]6)C=C5)C=C4)cc2)c(C)n1-c1cccc(C(=O)[O-])c1
REMARK SMILES IDX 20 1 19 2 18 3 17 4 16 5 15 6 14 7 13 8 5 9 6 10 7 11 8 12
REMARK SMILES IDX 9 13 12 14 10 15 11 17 4 18 1 19 2 20 3 21 85 22 83 23 84 24
REMARK SMILES IDX 86 25 87 26 94 27 88 28 90 29 89 30 91 31 92 32 93 33 21 34
REMARK SMILES IDX 22 35 23 36 24 37 25 38 26 39 27 40 28 41 29 42 30 43 82 44
REMARK SMILES IDX 31 45 81 46 32 47 33 48 34 49 75 50 35 51 80 52 74 53 76 54
REMARK SMILES IDX 36 55 79 56 73 57 72 58 37 60 63 61 46 62 62 63 47 64 50 65
REMARK SMILES IDX 61 66 77 67 48 68 49 69 60 71 78 72 51 73 38 74 39 75 44 76
REMARK SMILES IDX 40 77 41 78 43 79 45 80 42 81 64 82 65 83 70 84 66 85 67 86
REMARK SMILES IDX 69 87 71 88 68 89 52 90 53 91 58 92 54 93 55 94 57 95 59 96
REMARK SMILES IDX 56 97
REMARK H PARENT 9 16 76 59 50 70
REMARK Flexibility Score: inf
ROOT
ATOM      1  O   UNL A   1      39.899  20.286  25.827  1.00  0.00    -0.377 OA
ENDROOT
BRANCH   1   2
ATOM      2  C   UNL A   1      39.086  21.432  25.998  1.00  0.00     0.188 C 
BRANCH   2   3
ATOM      3  C   UNL A   1      37.780  21.662  25.198  1.00  0.00     0.188 C 
BRANCH   3   4
ATOM      4  O   UNL A   1      36.506  21.896  25.772  1.00  0.00    -0.376 OA
BRANCH   4   5
ATOM      5  C   UNL A   1      35.294  21.198  25.518  1.00  0.00     0.201 C 
BRANCH   5   6
ATOM      6  C   UNL A   1      34.118  21.082  26.518  1.00  0.00     0.260 C 
BRANCH   6   7
ATOM      7  O   UNL A   1      32.838  20.754  25.919  1.00  0.00    -0.475 OA
BRANCH   7   8
ATOM      8  C   UNL A   1      32.798  19.665  25.141  1.00  0.00     0.229 C 
ATOM      9  C   UNL A   1      32.482  21.018  22.900  1.00  0.00     0.029 C 
ATOM     10  C   UNL A   1      32.594  19.917  23.690  1.00  0.00     0.103 C 
ATOM     11  C   UNL A   1      32.371  18.625  22.935  1.00  0.00     0.262 C 
ATOM     12  O   UNL A   1      32.156  18.555  21.729  1.00  0.00    -0.269 OA
ATOM     13  N   UNL A   1      32.361  17.483  23.687  1.00  0.00    -0.297 N 
ATOM     14  N   UNL A   1      32.845  18.515  25.717  1.00  0.00    -0.184 NA
ATOM     15  C   UNL A   1      32.592  17.382  25.025  1.00  0.00     0.203 C 
ATOM     16  H   UNL A   1      32.166  16.644  23.210  1.00  0.00     0.172 HD
ATOM     17  S   UNL A   1      32.468  15.879  25.751  1.00  0.00    -0.038 S 
BRANCH   9  18
ATOM     18  C   UNL A   1      32.469  22.463  23.019  1.00  0.00    -0.003 A 
ATOM     19  C   UNL A   1      33.013  25.866  21.503  1.00  0.00     0.065 C 
ATOM     20  C   UNL A   1      32.699  24.642  22.286  1.00  0.00     0.020 A 
ATOM     21  C   UNL A   1      32.995  23.318  21.992  1.00  0.00     0.031 A 
ATOM     22  N   UNL A   1      32.102  24.647  23.524  1.00  0.00    -0.318 N 
ATOM     23  C   UNL A   1      31.833  23.329  23.885  1.00  0.00     0.027 A 
ATOM     24  C   UNL A   1      30.860  23.121  24.969  1.00  0.00     0.065 C 
BRANCH  22  25
ATOM     25  C   UNL A   1      31.623  25.746  24.297  1.00  0.00     0.046 A 
ATOM     26  C   UNL A   1      30.472  26.402  23.823  1.00  0.00     0.026 A 
ATOM     27  C   UNL A   1      32.488  26.387  25.196  1.00  0.00     0.036 A 
ATOM     28  C   UNL A   1      30.213  27.718  24.190  1.00  0.00     0.003 A 
ATOM     29  C   UNL A   1      32.212  27.712  25.573  1.00  0.00    -0.001 A 
ATOM     30  C   UNL A   1      31.087  28.374  25.052  1.00  0.00     0.010 A 
BRANCH  29  31
ATOM     31  C   UNL A   1      33.116  28.491  26.442  1.00  0.00     0.072 C 
ATOM     32  O   UNL A   1      34.256  28.144  26.776  1.00  0.00    -0.545 OA
ATOM     33  O   UNL A   1      32.606  29.649  26.868  1.00  0.00    -0.545 OA
ENDBRANCH  29  31
ENDBRANCH  22  25
ENDBRANCH   9  18
ENDBRANCH   7   8
ENDBRANCH   6   7
ENDBRANCH   5   6
ENDBRANCH   4   5
ENDBRANCH   3   4
ENDBRANCH   2   3
ENDBRANCH   1   2
BRANCH   1  34
ATOM     34  C   UNL A   1      40.849  19.964  26.814  1.00  0.00     0.188 C 
BRANCH  34  35
ATOM     35  C   UNL A   1      42.275  20.341  26.400  1.00  0.00     0.188 C 
BRANCH  35  36
ATOM     36  O   UNL A   1      42.785  19.748  25.217  1.00  0.00    -0.376 OA
BRANCH  36  37
ATOM     37  C   UNL A   1      44.198  19.781  24.991  1.00  0.00     0.202 C 
BRANCH  37  38
ATOM     38  C   UNL A   1      44.881  21.078  24.458  1.00  0.00     0.261 C 
BRANCH  38  39
ATOM     39  O   UNL A   1      44.143  22.314  24.129  1.00  0.00    -0.460 OA
BRANCH  39  40
ATOM     40  C   UNL A   1      44.416  23.402  24.935  1.00  0.00     0.338 C 
ATOM     41  O   UNL A   1      45.557  23.816  25.114  1.00  0.00    -0.246 OA
BRANCH  40  42
ATOM     42  C   UNL A   1      43.249  24.136  25.629  1.00  0.00     0.060 A 
ATOM     43  C   UNL A   1      42.701  25.246  25.004  1.00  0.00     0.016 A 
ATOM     44  C   UNL A   1      42.897  24.024  26.998  1.00  0.00     0.016 A 
ATOM     45  C   UNL A   1      41.831  26.159  25.707  1.00  0.00     0.010 A 
ATOM     46  C   UNL A   1      42.057  25.013  27.731  1.00  0.00     0.010 A 
ATOM     47  C   UNL A   1      41.503  26.153  27.121  1.00  0.00    -0.014 A 
BRANCH  47  48
ATOM     48  C   UNL A   1      40.901  27.566  27.777  1.00  0.00     0.031 A 
ATOM     49  C   UNL A   1      42.099  28.453  27.769  1.00  0.00     0.074 A 
ATOM     50  C   UNL A   1      39.827  28.214  28.424  1.00  0.00     0.049 A 
ATOM     51  N   UNL A   1      43.186  28.066  28.373  1.00  0.00    -0.248 NA
ATOM     52  C   UNL A   1      42.278  29.555  26.823  1.00  0.00     0.031 C 
ATOM     53  C   UNL A   1      38.527  27.660  28.849  1.00  0.00     0.029 A 
ATOM     54  N   UNL A   1      39.638  29.581  28.887  1.00  0.00    -0.354 N 
ATOM     55  C   UNL A   1      44.114  29.042  28.138  1.00  0.00     0.074 A 
ATOM     56  C   UNL A   1      43.580  29.799  27.016  1.00  0.00     0.031 C 
ATOM     57  C   UNL A   1      37.685  28.621  29.346  1.00  0.00     0.029 A 
ATOM     58  C   UNL A   1      38.324  29.939  29.388  1.00  0.00     0.049 A 
ATOM     59  H   UNL A   1      40.374  30.236  28.861  1.00  0.00     0.167 HD
ATOM     60  C   UNL A   1      44.818  29.468  29.224  1.00  0.00     0.037 A 
ATOM     61  C   UNL A   1      37.793  31.142  29.880  1.00  0.00     0.037 A 
ATOM     62  C   UNL A   1      44.428  30.786  29.635  1.00  0.00     0.049 A 
ATOM     63  C   UNL A   1      38.916  31.945  30.378  1.00  0.00     0.074 A 
ATOM     64  C   UNL A   1      44.120  31.942  28.946  1.00  0.00     0.029 A 
ATOM     65  N   UNL A   1      43.835  30.897  30.873  1.00  0.00    -0.354 N 
ATOM     66  N   UNL A   1      39.440  31.698  31.538  1.00  0.00    -0.248 NA
ATOM     67  C   UNL A   1      39.382  33.170  29.734  1.00  0.00     0.031 C 
ATOM     68  C   UNL A   1      42.932  32.405  29.555  1.00  0.00     0.029 A 
ATOM     69  C   UNL A   1      42.766  31.757  30.773  1.00  0.00     0.049 A 
ATOM     70  H   UNL A   1      44.127  30.439  31.694  1.00  0.00     0.167 HD
ATOM     71  C   UNL A   1      40.601  32.391  31.513  1.00  0.00     0.074 A 
ATOM     72  C   UNL A   1      40.386  33.467  30.564  1.00  0.00     0.031 C 
ATOM     73  C   UNL A   1      41.709  31.650  31.746  1.00  0.00     0.037 A 
BRANCH  60  74
ATOM     74  C   UNL A   1      45.191  28.355  30.165  1.00  0.00     0.057 A 
ATOM     75  C   UNL A   1      46.496  27.864  30.157  1.00  0.00     0.134 A 
ATOM     76  C   UNL A   1      44.244  27.646  30.930  1.00  0.00     0.134 A 
ATOM     77  F   UNL A   1      47.461  28.517  29.491  1.00  0.00    -0.206 F 
ATOM     78  C   UNL A   1      46.830  26.678  30.816  1.00  0.00     0.040 A 
ATOM     79  C   UNL A   1      44.551  26.431  31.542  1.00  0.00     0.040 A 
ATOM     80  F   UNL A   1      42.989  28.105  31.069  1.00  0.00    -0.206 F 
ATOM     81  C   UNL A   1      45.848  25.938  31.474  1.00  0.00     0.006 A 
ENDBRANCH  60  74
BRANCH  61  82
ATOM     82  C   UNL A   1      36.483  31.895  30.316  1.00  0.00     0.057 A 
ATOM     83  C   UNL A   1      35.983  31.824  31.668  1.00  0.00     0.134 A 
ATOM     84  C   UNL A   1      35.969  32.993  29.619  1.00  0.00     0.134 A 
ATOM     85  F   UNL A   1      36.300  30.814  32.489  1.00  0.00    -0.206 F 
ATOM     86  C   UNL A   1      35.183  32.806  32.291  1.00  0.00     0.040 A 
ATOM     87  C   UNL A   1      35.119  33.967  30.225  1.00  0.00     0.040 A 
ATOM     88  F   UNL A   1      36.336  33.216  28.351  1.00  0.00    -0.206 F 
ATOM     89  C   UNL A   1      34.759  33.901  31.571  1.00  0.00     0.006 A 
ENDBRANCH  61  82
BRANCH  73  90
ATOM     90  C   UNL A   1      41.618  30.615  32.861  1.00  0.00     0.057 A 
ATOM     91  C   UNL A   1      40.969  29.358  32.817  1.00  0.00     0.134 A 
ATOM     92  C   UNL A   1      42.162  30.961  34.103  1.00  0.00     0.134 A 
ATOM     93  F   UNL A   1      40.507  28.821  31.679  1.00  0.00    -0.206 F 
ATOM     94  C   UNL A   1      40.785  28.566  33.958  1.00  0.00     0.040 A 
ATOM     95  C   UNL A   1      42.040  30.149  35.235  1.00  0.00     0.040 A 
ATOM     96  F   UNL A   1      42.846  32.109  34.239  1.00  0.00    -0.206 F 
ATOM     97  C   UNL A   1      41.322  28.960  35.174  1.00  0.00     0.006 A 
ENDBRANCH  73  90
ENDBRANCH  47  48
ENDBRANCH  40  42
ENDBRANCH  39  40
ENDBRANCH  38  39
ENDBRANCH  37  38
ENDBRANCH  36  37
ENDBRANCH  35  36
ENDBRANCH  34  35
ENDBRANCH   1  34
TORSDOF 22
ENDMDL
MODEL 2
REMARK VINA RESULT:     -10.9      1.087      2.141
REMARK SMILES Cc1cc(/C=C2/C(=O)NC(=S)N=C2OCCOCCOCCOCCOC(=O)c2ccc(-c3c4nc(c(-c5c(F)cccc5F)c5ccc([nH]5)c(-c5c(F)cccc5F)c5nc(c(-c6c(F)cccc6F)c6ccc3[nH]6)C=C5)C=C4)cc2)c(C)n1-c1cccc(C(=O)[O-])c1
REMARK SMILES IDX 20 1 19 2 18 3 17 4 16 5 15 6 14 7 13 8 5 9 6 10 7 11 8 12
REMARK SMILES IDX 9 13 12 14 10 15 11 17 4 18 1 19 2 20 3 21 85 22 83 23 84 24
REMARK SMILES IDX 86 25 87 26 94 27 88 28 90 29 89 30 91 31 92 32 93 33 21 34
REMARK SMILES IDX 22 35 23 36 24 37 25 38 26 39 27 40 28 41 29 42 30 43 82 44
REMARK SMILES IDX 31 45 81 46 32 47 33 48 34 49 75 50 35 51 80 52 74 53 76 54
REMARK SMILES IDX 36 55 79 56 73 57 72 58 37 60 63 61 46 62 62 63 47 64 50 65
REMARK SMILES IDX 61 66 77 67 48 68 49 69 60 71 78 72 51 73 38 74 39 75 44 76
REMARK SMILES IDX 40 77 41 78 43 79 45 80 42 81 64 82 65 83 70 84 66 85 67 86
REMARK SMILES IDX 69 87 71 88 68 89 52 90 53 91 58 92 54 93 55 94 57 95 59 96
REMARK SMILES IDX 56 97
REMARK H PARENT 9 16 76 59 50 70
REMARK Flexibility Score: inf
ROOT
ATOM      1  O   UNL A   1      35.771  23.907  23.814  1.00  0.00    -0.377 OA
ENDROOT
BRANCH   1   2
ATOM      2  C   UNL A   1      35.830  24.269  25.180  1.00  0.00     0.188 C 
BRANCH   2   3
ATOM      3  C   UNL A   1      34.636  24.086  26.150  1.00  0.00     0.188 C 
BRANCH   3   4
ATOM      4  O   UNL A   1      34.622  23.209  27.264  1.00  0.00    -0.376 OA
BRANCH   4   5
ATOM      5  C   UNL A   1      33.951  21.961  27.382  1.00  0.00     0.201 C 
BRANCH   5   6
ATOM      6  C   UNL A   1      34.015  20.824  26.334  1.00  0.00     0.260 C 
BRANCH   6   7
ATOM      7  O   UNL A   1      32.733  20.235  25.996  1.00  0.00    -0.475 OA
BRANCH   7   8
ATOM      8  C   UNL A   1      32.755  19.157  25.201  1.00  0.00     0.229 C 
ATOM      9  C   UNL A   1      32.510  20.536  22.968  1.00  0.00     0.029 C 
ATOM     10  C   UNL A   1      32.612  19.427  23.747  1.00  0.00     0.103 C 
ATOM     11  C   UNL A   1      32.456  18.142  22.964  1.00  0.00     0.262 C 
ATOM     12  O   UNL A   1      32.299  18.085  21.748  1.00  0.00    -0.269 OA
ATOM     13  N   UNL A   1      32.441  16.988  23.698  1.00  0.00    -0.297 N 
ATOM     14  N   UNL A   1      32.805  18.000  25.763  1.00  0.00    -0.184 NA
ATOM     15  C   UNL A   1      32.612  16.871  25.044  1.00  0.00     0.203 C 
ATOM     16  H   UNL A   1      32.289  16.151  23.200  1.00  0.00     0.172 HD
ATOM     17  S   UNL A   1      32.492  15.355  25.741  1.00  0.00    -0.038 S 
BRANCH   9  18
ATOM     18  C   UNL A   1      32.456  21.978  23.107  1.00  0.00    -0.003 A 
ATOM     19  C   UNL A   1      32.957  25.417  21.657  1.00  0.00     0.065 C 
ATOM     20  C   UNL A   1      32.651  24.174  22.412  1.00  0.00     0.020 A 
ATOM     21  C   UNL A   1      32.991  22.862  22.109  1.00  0.00     0.031 A 
ATOM     22  N   UNL A   1      32.015  24.145  23.631  1.00  0.00    -0.318 N 
ATOM     23  C   UNL A   1      31.770  22.816  23.965  1.00  0.00     0.027 A 
ATOM     24  C   UNL A   1      30.769  22.566  25.014  1.00  0.00     0.065 C 
BRANCH  22  25
ATOM     25  C   UNL A   1      31.484  25.220  24.404  1.00  0.00     0.046 A 
ATOM     26  C   UNL A   1      30.322  25.841  23.913  1.00  0.00     0.026 A 
ATOM     27  C   UNL A   1      32.309  25.880  25.327  1.00  0.00     0.036 A 
ATOM     28  C   UNL A   1      30.010  27.144  24.286  1.00  0.00     0.003 A 
ATOM     29  C   UNL A   1      31.981  27.192  25.710  1.00  0.00    -0.001 A 
ATOM     30  C   UNL A   1      30.844  27.821  25.172  1.00  0.00     0.010 A 
BRANCH  29  31
ATOM     31  C   UNL A   1      32.840  27.992  26.604  1.00  0.00     0.072 C 
ATOM     32  O   UNL A   1      32.436  28.842  27.407  1.00  0.00    -0.545 OA
ATOM     33  O   UNL A   1      34.145  27.731  26.489  1.00  0.00    -0.545 OA
ENDBRANCH  29  31
ENDBRANCH  22  25
ENDBRANCH   9  18
ENDBRANCH   7   8
ENDBRANCH   6   7
ENDBRANCH   5   6
ENDBRANCH   4   5
ENDBRANCH   3   4
ENDBRANCH   2   3
ENDBRANCH   1   2
BRANCH   1  34
ATOM     34  C   UNL A   1      36.650  22.922  23.325  1.00  0.00     0.188 C 
BRANCH  34  35
ATOM     35  C   UNL A   1      36.829  21.758  24.304  1.00  0.00     0.188 C 
BRANCH  35  36
ATOM     36  O   UNL A   1      38.155  21.421  24.676  1.00  0.00    -0.376 OA
BRANCH  36  37
ATOM     37  C   UNL A   1      38.517  21.499  26.058  1.00  0.00     0.202 C 
BRANCH  37  38
ATOM     38  C   UNL A   1      39.855  22.178  26.486  1.00  0.00     0.261 C 
BRANCH  38  39
ATOM     39  O   UNL A   1      41.163  21.493  26.464  1.00  0.00    -0.460 OA
BRANCH  39  40
ATOM     40  C   UNL A   1      42.187  22.186  25.850  1.00  0.00     0.338 C 
ATOM     41  O   UNL A   1      42.897  21.679  24.986  1.00  0.00    -0.246 OA
BRANCH  40  42
ATOM     42  C   UNL A   1      42.448  23.654  26.249  1.00  0.00     0.060 A 
ATOM     43  C   UNL A   1      42.418  23.990  27.593  1.00  0.00     0.016 A 
ATOM     44  C   UNL A   1      42.370  24.774  25.383  1.00  0.00     0.016 A 
ATOM     45  C   UNL A   1      42.348  25.363  28.031  1.00  0.00     0.010 A 
ATOM     46  C   UNL A   1      42.223  26.184  25.846  1.00  0.00     0.010 A 
ATOM     47  C   UNL A   1      42.176  26.545  27.205  1.00  0.00    -0.014 A 
BRANCH  47  48
ATOM     48  C   UNL A   1      41.628  27.934  27.953  1.00  0.00     0.031 A 
ATOM     49  C   UNL A   1      42.879  28.732  28.091  1.00  0.00     0.074 A 
ATOM     50  C   UNL A   1      40.561  28.597  28.596  1.00  0.00     0.049 A 
ATOM     51  N   UNL A   1      43.900  28.219  28.715  1.00  0.00    -0.248 NA
ATOM     52  C   UNL A   1      43.187  29.898  27.260  1.00  0.00     0.031 C 
ATOM     53  C   UNL A   1      39.205  28.100  28.897  1.00  0.00     0.029 A 
ATOM     54  N   UNL A   1      40.434  29.928  29.170  1.00  0.00    -0.354 N 
ATOM     55  C   UNL A   1      44.902  29.144  28.622  1.00  0.00     0.074 A 
ATOM     56  C   UNL A   1      44.487  30.032  27.545  1.00  0.00     0.031 C 
ATOM     57  C   UNL A   1      38.398  29.071  29.433  1.00  0.00     0.029 A 
ATOM     58  C   UNL A   1      39.117  30.332  29.629  1.00  0.00     0.049 A 
ATOM     59  H   UNL A   1      41.210  30.530  29.244  1.00  0.00     0.167 HD
ATOM     60  C   UNL A   1      45.565  29.425  29.778  1.00  0.00     0.037 A 
ATOM     61  C   UNL A   1      38.636  31.523  30.198  1.00  0.00     0.037 A 
ATOM     62  C   UNL A   1      45.237  30.726  30.285  1.00  0.00     0.049 A 
ATOM     63  C   UNL A   1      39.777  32.199  30.828  1.00  0.00     0.074 A 
ATOM     64  C   UNL A   1      45.047  31.956  29.688  1.00  0.00     0.029 A 
ATOM     65  N   UNL A   1      44.578  30.770  31.494  1.00  0.00    -0.354 N 
ATOM     66  N   UNL A   1      40.213  31.815  31.988  1.00  0.00    -0.248 NA
ATOM     67  C   UNL A   1      40.360  33.440  30.324  1.00  0.00     0.031 C 
ATOM     68  C   UNL A   1      43.857  32.447  30.271  1.00  0.00     0.029 A 
ATOM     69  C   UNL A   1      43.576  31.708  31.414  1.00  0.00     0.049 A 
ATOM     70  H   UNL A   1      44.790  30.223  32.285  1.00  0.00     0.167 HD
ATOM     71  C   UNL A   1      41.416  32.425  32.089  1.00  0.00     0.074 A 
ATOM     72  C   UNL A   1      41.328  33.592  31.232  1.00  0.00     0.031 C 
ATOM     73  C   UNL A   1      42.456  31.591  32.314  1.00  0.00     0.037 A 
BRANCH  60  74
ATOM     74  C   UNL A   1      45.807  28.211  30.633  1.00  0.00     0.057 A 
ATOM     75  C   UNL A   1      47.076  27.633  30.653  1.00  0.00     0.134 A 
ATOM     76  C   UNL A   1      44.771  27.505  31.277  1.00  0.00     0.134 A 
ATOM     77  F   UNL A   1      48.120  28.273  30.104  1.00  0.00    -0.206 F 
ATOM     78  C   UNL A   1      47.293  26.373  31.219  1.00  0.00     0.040 A 
ATOM     79  C   UNL A   1      44.962  26.223  31.791  1.00  0.00     0.040 A 
ATOM     80  F   UNL A   1      43.543  28.036  31.387  1.00  0.00    -0.206 F 
ATOM     81  C   UNL A   1      46.227  25.649  31.752  1.00  0.00     0.006 A 
ENDBRANCH  60  74
BRANCH  61  82
ATOM     82  C   UNL A   1      37.354  32.324  30.629  1.00  0.00     0.057 A 
ATOM     83  C   UNL A   1      36.677  33.217  29.719  1.00  0.00     0.134 A 
ATOM     84  C   UNL A   1      36.535  31.933  31.693  1.00  0.00     0.134 A 
ATOM     85  F   UNL A   1      37.300  33.760  28.665  1.00  0.00    -0.206 F 
ATOM     86  C   UNL A   1      35.310  33.562  29.786  1.00  0.00     0.040 A 
ATOM     87  C   UNL A   1      35.163  32.316  31.797  1.00  0.00     0.040 A 
ATOM     88  F   UNL A   1      37.002  31.096  32.628  1.00  0.00    -0.206 F 
ATOM     89  C   UNL A   1      34.536  33.094  30.825  1.00  0.00     0.006 A 
ENDBRANCH  61  82
BRANCH  73  90
ATOM     90  C   UNL A   1      42.231  30.472  33.324  1.00  0.00     0.057 A 
ATOM     91  C   UNL A   1      41.490  29.281  33.136  1.00  0.00     0.134 A 
ATOM     92  C   UNL A   1      42.738  30.661  34.614  1.00  0.00     0.134 A 
ATOM     93  F   UNL A   1      41.045  28.886  31.935  1.00  0.00    -0.206 F 
ATOM     94  C   UNL A   1      41.190  28.408  34.191  1.00  0.00     0.040 A 
ATOM     95  C   UNL A   1      42.498  29.764  35.660  1.00  0.00     0.040 A 
ATOM     96  F   UNL A   1      43.501  31.733  34.884  1.00  0.00    -0.206 F 
ATOM     97  C   UNL A   1      41.695  28.647  35.460  1.00  0.00     0.006 A 
ENDBRANCH  73  90
ENDBRANCH  47  48
ENDBRANCH  40  42
ENDBRANCH  39  40
ENDBRANCH  38  39
ENDBRANCH  37  38
ENDBRANCH  36  37
ENDBRANCH  35  36
ENDBRANCH  34  35
ENDBRANCH   1  34
TORSDOF 22
ENDMDL
MODEL 3
REMARK VINA RESULT:     -10.7      2.043      4.806
REMARK SMILES Cc1cc(/C=C2/C(=O)NC(=S)N=C2OCCOCCOCCOCCOC(=O)c2ccc(-c3c4nc(c(-c5c(F)cccc5F)c5ccc([nH]5)c(-c5c(F)cccc5F)c5nc(c(-c6c(F)cccc6F)c6ccc3[nH]6)C=C5)C=C4)cc2)c(C)n1-c1cccc(C(=O)[O-])c1
REMARK SMILES IDX 20 1 19 2 18 3 17 4 16 5 15 6 14 7 13 8 5 9 6 10 7 11 8 12
REMARK SMILES IDX 9 13 12 14 10 15 11 17 4 18 1 19 2 20 3 21 85 22 83 23 84 24
REMARK SMILES IDX 86 25 87 26 94 27 88 28 90 29 89 30 91 31 92 32 93 33 21 34
REMARK SMILES IDX 22 35 23 36 24 37 25 38 26 39 27 40 28 41 29 42 30 43 82 44
REMARK SMILES IDX 31 45 81 46 32 47 33 48 34 49 75 50 35 51 80 52 74 53 76 54
REMARK SMILES IDX 36 55 79 56 73 57 72 58 37 60 63 61 46 62 62 63 47 64 50 65
REMARK SMILES IDX 61 66 77 67 48 68 49 69 60 71 78 72 51 73 38 74 39 75 44 76
REMARK SMILES IDX 40 77 41 78 43 79 45 80 42 81 64 82 65 83 70 84 66 85 67 86
REMARK SMILES IDX 69 87 71 88 68 89 52 90 53 91 58 92 54 93 55 94 57 95 59 96
REMARK SMILES IDX 56 97
REMARK H PARENT 9 16 76 59 50 70
REMARK Flexibility Score: inf
ROOT
ATOM      1  O   UNL A   1      39.713  20.691  25.952  1.00  0.00    -0.377 OA
ENDROOT
BRANCH   1   2
ATOM      2  C   UNL A   1      39.072  21.941  26.122  1.00  0.00     0.188 C 
BRANCH   2   3
ATOM      3  C   UNL A   1      37.828  22.366  25.302  1.00  0.00     0.188 C 
BRANCH   3   4
ATOM      4  O   UNL A   1      36.759  23.153  25.797  1.00  0.00    -0.376 OA
BRANCH   4   5
ATOM      5  C   UNL A   1      35.679  23.715  25.064  1.00  0.00     0.201 C 
BRANCH   5   6
ATOM      6  C   UNL A   1      35.611  23.801  23.521  1.00  0.00     0.260 C 
BRANCH   6   7
ATOM      7  O   UNL A   1      34.297  24.096  22.983  1.00  0.00    -0.475 OA
BRANCH   7   8
ATOM      8  C   UNL A   1      33.582  25.035  23.616  1.00  0.00     0.229 C 
ATOM      9  C   UNL A   1      31.947  23.317  24.768  1.00  0.00     0.029 C 
ATOM     10  C   UNL A   1      32.446  24.537  24.435  1.00  0.00     0.103 C 
ATOM     11  C   UNL A   1      31.596  25.679  24.946  1.00  0.00     0.262 C 
ATOM     12  O   UNL A   1      30.585  25.541  25.628  1.00  0.00    -0.269 OA
ATOM     13  N   UNL A   1      31.978  26.934  24.557  1.00  0.00    -0.297 N 
ATOM     14  N   UNL A   1      33.879  26.266  23.390  1.00  0.00    -0.184 NA
ATOM     15  C   UNL A   1      33.072  27.264  23.816  1.00  0.00     0.203 C 
ATOM     16  H   UNL A   1      31.401  27.678  24.843  1.00  0.00     0.172 HD
ATOM     17  S   UNL A   1      33.311  28.869  23.407  1.00  0.00    -0.038 S 
BRANCH   9  18
ATOM     18  C   UNL A   1      32.203  21.914  24.507  1.00  0.00    -0.003 A 
ATOM     19  C   UNL A   1      32.306  19.006  22.116  1.00  0.00     0.065 C 
ATOM     20  C   UNL A   1      32.376  20.006  23.214  1.00  0.00     0.020 A 
ATOM     21  C   UNL A   1      31.869  21.298  23.253  1.00  0.00     0.031 A 
ATOM     22  N   UNL A   1      32.920  19.758  24.453  1.00  0.00    -0.318 N 
ATOM     23  C   UNL A   1      32.946  20.954  25.165  1.00  0.00     0.027 A 
ATOM     24  C   UNL A   1      33.829  21.010  26.341  1.00  0.00     0.065 C 
BRANCH  22  25
ATOM     25  C   UNL A   1      33.552  18.579  24.949  1.00  0.00     0.046 A 
ATOM     26  C   UNL A   1      34.915  18.413  24.645  1.00  0.00     0.026 A 
ATOM     27  C   UNL A   1      32.765  17.477  25.316  1.00  0.00     0.036 A 
ATOM     28  C   UNL A   1      35.485  17.145  24.642  1.00  0.00     0.003 A 
ATOM     29  C   UNL A   1      33.351  16.200  25.324  1.00  0.00    -0.001 A 
ATOM     30  C   UNL A   1      34.702  16.041  24.969  1.00  0.00     0.010 A 
BRANCH  29  31
ATOM     31  C   UNL A   1      32.575  14.977  25.609  1.00  0.00     0.072 C 
ATOM     32  O   UNL A   1      31.361  14.943  25.845  1.00  0.00    -0.545 OA
ATOM     33  O   UNL A   1      33.298  13.854  25.599  1.00  0.00    -0.545 OA
ENDBRANCH  29  31
ENDBRANCH  22  25
ENDBRANCH   9  18
ENDBRANCH   7   8
ENDBRANCH   6   7
ENDBRANCH   5   6
ENDBRANCH   4   5
ENDBRANCH   3   4
ENDBRANCH   2   3
ENDBRANCH   1   2
BRANCH   1  34
ATOM     34  C   UNL A   1      40.876  20.408  26.693  1.00  0.00     0.188 C 
BRANCH  34  35
ATOM     35  C   UNL A   1      41.726  19.309  26.050  1.00  0.00     0.188 C 
BRANCH  35  36
ATOM     36  O   UNL A   1      43.136  19.454  26.120  1.00  0.00    -0.376 OA
BRANCH  36  37
ATOM     37  C   UNL A   1      43.758  20.466  25.323  1.00  0.00     0.202 C 
BRANCH  37  38
ATOM     38  C   UNL A   1      45.065  21.164  25.812  1.00  0.00     0.261 C 
BRANCH  38  39
ATOM     39  O   UNL A   1      45.282  22.623  25.757  1.00  0.00    -0.460 OA
BRANCH  39  40
ATOM     40  C   UNL A   1      44.413  23.323  24.942  1.00  0.00     0.338 C 
ATOM     41  O   UNL A   1      44.496  23.296  23.718  1.00  0.00    -0.246 OA
BRANCH  40  42
ATOM     42  C   UNL A   1      43.289  24.162  25.586  1.00  0.00     0.060 A 
ATOM     43  C   UNL A   1      42.972  25.387  25.021  1.00  0.00     0.016 A 
ATOM     44  C   UNL A   1      42.774  23.991  26.896  1.00  0.00     0.016 A 
ATOM     45  C   UNL A   1      42.164  26.358  25.720  1.00  0.00     0.010 A 
ATOM     46  C   UNL A   1      42.002  25.030  27.636  1.00  0.00     0.010 A 
ATOM     47  C   UNL A   1      41.682  26.285  27.088  1.00  0.00    -0.014 A 
BRANCH  47  48
ATOM     48  C   UNL A   1      41.212  27.713  27.816  1.00  0.00     0.031 A 
ATOM     49  C   UNL A   1      42.490  28.479  27.863  1.00  0.00     0.074 A 
ATOM     50  C   UNL A   1      40.198  28.426  28.490  1.00  0.00     0.049 A 
ATOM     51  N   UNL A   1      43.528  27.957  28.451  1.00  0.00    -0.248 NA
ATOM     52  C   UNL A   1      42.785  29.607  26.979  1.00  0.00     0.031 C 
ATOM     53  C   UNL A   1      38.846  27.979  28.877  1.00  0.00     0.029 A 
ATOM     54  N   UNL A   1      40.137  29.778  29.025  1.00  0.00    -0.354 N 
ATOM     55  C   UNL A   1      44.548  28.849  28.276  1.00  0.00     0.074 A 
ATOM     56  C   UNL A   1      44.102  29.713  27.193  1.00  0.00     0.031 C 
ATOM     57  C   UNL A   1      38.095  28.989  29.420  1.00  0.00     0.029 A 
ATOM     58  C   UNL A   1      38.858  30.235  29.536  1.00  0.00     0.049 A 
ATOM     59  H   UNL A   1      40.932  30.359  29.039  1.00  0.00     0.167 HD
ATOM     60  C   UNL A   1      45.277  29.147  29.387  1.00  0.00     0.037 A 
ATOM     61  C   UNL A   1      38.440  31.456  30.090  1.00  0.00     0.037 A 
ATOM     62  C   UNL A   1      45.012  30.472  29.866  1.00  0.00     0.049 A 
ATOM     63  C   UNL A   1      39.629  32.119  30.637  1.00  0.00     0.074 A 
ATOM     64  C   UNL A   1      44.824  31.688  29.239  1.00  0.00     0.029 A 
ATOM     65  N   UNL A   1      44.418  30.575  31.105  1.00  0.00    -0.354 N 
ATOM     66  N   UNL A   1      40.114  31.760  31.785  1.00  0.00    -0.248 NA
ATOM     67  C   UNL A   1      40.219  33.326  30.063  1.00  0.00     0.031 C 
ATOM     68  C   UNL A   1      43.680  32.231  29.865  1.00  0.00     0.029 A 
ATOM     69  C   UNL A   1      43.439  31.538  31.045  1.00  0.00     0.049 A 
ATOM     70  H   UNL A   1      44.656  30.047  31.901  1.00  0.00     0.167 HD
ATOM     71  C   UNL A   1      41.337  32.338  31.805  1.00  0.00     0.074 A 
ATOM     72  C   UNL A   1      41.237  33.479  30.914  1.00  0.00     0.031 C 
ATOM     73  C   UNL A   1      42.365  31.482  32.004  1.00  0.00     0.037 A 
BRANCH  60  74
ATOM     74  C   UNL A   1      45.531  27.954  30.268  1.00  0.00     0.057 A 
ATOM     75  C   UNL A   1      46.777  27.331  30.230  1.00  0.00     0.134 A 
ATOM     76  C   UNL A   1      44.514  27.310  31.000  1.00  0.00     0.134 A 
ATOM     77  F   UNL A   1      47.806  27.912  29.594  1.00  0.00    -0.206 F 
ATOM     78  C   UNL A   1      46.985  26.084  30.826  1.00  0.00     0.040 A 
ATOM     79  C   UNL A   1      44.691  26.040  31.548  1.00  0.00     0.040 A 
ATOM     80  F   UNL A   1      43.314  27.890  31.167  1.00  0.00    -0.206 F 
ATOM     81  C   UNL A   1      45.931  25.418  31.451  1.00  0.00     0.006 A 
ENDBRANCH  60  74
BRANCH  61  82
ATOM     82  C   UNL A   1      37.203  32.308  30.558  1.00  0.00     0.057 A 
ATOM     83  C   UNL A   1      36.618  33.322  29.714  1.00  0.00     0.134 A 
ATOM     84  C   UNL A   1      36.328  31.887  31.564  1.00  0.00     0.134 A 
ATOM     85  F   UNL A   1      37.309  33.907  28.728  1.00  0.00    -0.206 F 
ATOM     86  C   UNL A   1      35.277  33.757  29.779  1.00  0.00     0.040 A 
ATOM     87  C   UNL A   1      34.984  32.357  31.669  1.00  0.00     0.040 A 
ATOM     88  F   UNL A   1      36.707  30.941  32.433  1.00  0.00    -0.206 F 
ATOM     89  C   UNL A   1      34.442  33.258  30.753  1.00  0.00     0.006 A 
ENDBRANCH  61  82
BRANCH  73  90
ATOM     90  C   UNL A   1      42.162  30.403  33.061  1.00  0.00     0.057 A 
ATOM     91  C   UNL A   1      41.378  29.230  32.953  1.00  0.00     0.134 A 
ATOM     92  C   UNL A   1      42.744  30.617  34.316  1.00  0.00     0.134 A 
ATOM     93  F   UNL A   1      40.857  28.811  31.791  1.00  0.00    -0.206 F 
ATOM     94  C   UNL A   1      41.110  28.400  34.050  1.00  0.00     0.040 A 
ATOM     95  C   UNL A   1      42.535  29.761  35.402  1.00  0.00     0.040 A 
ATOM     96  F   UNL A   1      43.551  31.673  34.509  1.00  0.00    -0.206 F 
ATOM     97  C   UNL A   1      41.689  28.664  35.282  1.00  0.00     0.006 A 
ENDBRANCH  73  90
ENDBRANCH  47  48
ENDBRANCH  40  42
ENDBRANCH  39  40
ENDBRANCH  38  39
ENDBRANCH  37  38
ENDBRANCH  36  37
ENDBRANCH  35  36
ENDBRANCH  34  35
ENDBRANCH   1  34
TORSDOF 22
ENDMDL
