MODEL 1
REMARK VINA RESULT:     -10.6      0.000      0.000
REMARK SMILES CCCc1cc(S(F)(F)(F)(F)F)cc2c1O[C@@H](C(F)(F)F)C(C(=O)OCCOCCOCCOCCOC(=O)c1ccc(-c3c4nc(c(-c5c(F)cccc5F)c5ccc([nH]5)c(-c5c(F)cccc5F)c5nc(c(-c6c(F)cccc6F)c6ccc3[nH]6)C=C5)C=C4)cc1)=C2
REMARK SMILES IDX 31 1 30 2 29 3 28 4 27 5 26 6 25 7 23 8 24 9 22 10 4 11 5 12
REMARK SMILES IDX 15 13 6 14 14 15 16 16 13 17 94 18 17 19 3 20 2 21 1 22 7 23
REMARK SMILES IDX 8 24 9 25 10 26 11 27 12 28 18 29 19 30 20 31 21 32 32 33
REMARK SMILES IDX 33 34 34 35 35 36 36 37 37 38 38 39 39 40 40 41 41 42 93 43
REMARK SMILES IDX 42 44 92 45 43 46 44 47 45 48 86 49 46 50 91 51 85 52 87 53
REMARK SMILES IDX 47 54 90 55 84 56 83 57 48 59 74 60 57 61 73 62 58 63 61 64
REMARK SMILES IDX 72 65 88 66 59 67 60 68 71 70 89 71 62 72 49 73 50 74 55 75
REMARK SMILES IDX 51 76 52 77 54 78 56 79 53 80 75 81 76 82 81 83 77 84 78 85
REMARK SMILES IDX 80 86 82 87 79 88 63 89 64 90 69 91 65 92 66 93 68 94 70 95
REMARK SMILES IDX 67 96
REMARK H PARENT 87 58 61 69
REMARK Flexibility Score: inf
ROOT
ATOM      1  O   UNL A   1      33.523  32.509  27.817  1.00  0.00    -0.377 OA
ENDROOT
BRANCH   1   2
ATOM      2  C   UNL A   1      34.600  31.594  27.672  1.00  0.00     0.188 C 
BRANCH   2   3
ATOM      3  C   UNL A   1      34.081  30.292  27.082  1.00  0.00     0.188 C 
BRANCH   3   4
ATOM      4  O   UNL A   1      32.669  30.358  26.958  1.00  0.00    -0.376 OA
BRANCH   4   5
ATOM      5  C   UNL A   1      32.088  29.190  27.520  1.00  0.00     0.202 C 
BRANCH   5   6
ATOM      6  C   UNL A   1      32.028  28.097  26.466  1.00  0.00     0.261 C 
BRANCH   6   7
ATOM      7  O   UNL A   1      31.636  28.659  25.222  1.00  0.00    -0.460 OA
BRANCH   7   8
ATOM      8  C   UNL A   1      32.186  28.158  24.012  1.00  0.00     0.338 C 
ATOM      9  O   UNL A   1      32.424  28.949  23.047  1.00  0.00    -0.246 OA
BRANCH   8  10
ATOM     10  C   UNL A   1      32.490  26.675  23.873  1.00  0.00     0.087 C 
ATOM     11  C   UNL A   1      33.057  22.537  23.928  1.00  0.00    -0.004 A 
ATOM     12  C   UNL A   1      34.323  22.017  24.127  1.00  0.00     0.032 A 
ATOM     13  C   UNL A   1      32.890  23.900  23.968  1.00  0.00     0.131 A 
ATOM     14  C   UNL A   1      35.393  22.839  24.365  1.00  0.00     0.108 A 
ATOM     15  C   UNL A   1      33.950  24.761  24.187  1.00  0.00     0.019 A 
ATOM     16  O   UNL A   1      31.612  24.395  23.880  1.00  0.00    -0.475 OA
ATOM     17  C   UNL A   1      35.208  24.206  24.388  1.00  0.00     0.036 A 
ATOM     18  C   UNL A   1      33.663  26.185  24.250  1.00  0.00     0.027 C 
ATOM     19  C   UNL A   1      31.452  25.719  23.299  1.00  0.00     0.316 C 
BRANCH  11  20
ATOM     20  C   UNL A   1      31.870  21.603  23.762  1.00  0.00     0.039 C 
BRANCH  20  21
ATOM     21  C   UNL A   1      31.893  20.996  22.369  1.00  0.00     0.001 C 
ATOM     22  C   UNL A   1      32.196  19.510  22.468  1.00  0.00     0.004 C 
ENDBRANCH  20  21
ENDBRANCH  11  20
BRANCH  14  23
ATOM     23  S   UNL A   1      37.037  22.137  24.648  1.00  0.00     0.310 S 
ATOM     24  F   UNL A   1      36.472  20.656  24.588  1.00  0.00    -0.094 F 
ATOM     25  F   UNL A   1      36.711  22.124  26.190  1.00  0.00    -0.094 F 
ATOM     26  F   UNL A   1      38.442  21.525  24.912  1.00  0.00    -0.094 F 
ATOM     27  F   UNL A   1      37.289  22.026  23.093  1.00  0.00    -0.094 F 
ATOM     28  F   UNL A   1      35.571  22.653  24.359  1.00  0.00    -0.094 F 
ENDBRANCH  14  23
BRANCH  19  29
ATOM     29  C   UNL A   1      30.062  26.241  23.627  1.00  0.00     0.430 C 
ATOM     30  F   UNL A   1      29.951  26.412  24.941  1.00  0.00    -0.167 F 
ATOM     31  F   UNL A   1      29.867  27.403  23.010  1.00  0.00    -0.167 F 
ATOM     32  F   UNL A   1      29.151  25.362  23.216  1.00  0.00    -0.167 F 
ENDBRANCH  19  29
ENDBRANCH   8  10
ENDBRANCH   7   8
ENDBRANCH   6   7
ENDBRANCH   5   6
ENDBRANCH   4   5
ENDBRANCH   3   4
ENDBRANCH   2   3
ENDBRANCH   1   2
BRANCH   1  33
ATOM     33  C   UNL A   1      34.038  33.814  28.039  1.00  0.00     0.188 C 
BRANCH  33  34
ATOM     34  C   UNL A   1      34.714  33.867  29.399  1.00  0.00     0.188 C 
BRANCH  34  35
ATOM     35  O   UNL A   1      33.734  34.058  30.409  1.00  0.00    -0.376 OA
BRANCH  35  36
ATOM     36  C   UNL A   1      34.362  34.517  31.597  1.00  0.00     0.202 C 
BRANCH  36  37
ATOM     37  C   UNL A   1      34.179  33.486  32.698  1.00  0.00     0.261 C 
BRANCH  37  38
ATOM     38  O   UNL A   1      35.009  32.363  32.438  1.00  0.00    -0.460 OA
BRANCH  38  39
ATOM     39  C   UNL A   1      36.272  32.250  33.078  1.00  0.00     0.338 C 
ATOM     40  O   UNL A   1      36.388  32.536  34.310  1.00  0.00    -0.246 OA
BRANCH  39  41
ATOM     41  C   UNL A   1      37.484  31.784  32.288  1.00  0.00     0.060 A 
ATOM     42  C   UNL A   1      37.573  32.025  30.927  1.00  0.00     0.016 A 
ATOM     43  C   UNL A   1      38.439  31.124  32.934  1.00  0.00     0.016 A 
ATOM     44  C   UNL A   1      38.579  31.273  30.275  1.00  0.00     0.010 A 
ATOM     45  C   UNL A   1      39.466  30.528  32.245  1.00  0.00     0.010 A 
ATOM     46  C   UNL A   1      39.583  30.675  30.890  1.00  0.00    -0.014 A 
BRANCH  46  47
ATOM     47  C   UNL A   1      40.805  30.178  30.134  1.00  0.00     0.031 A 
ATOM     48  C   UNL A   1      40.819  28.848  29.711  1.00  0.00     0.074 A 
ATOM     49  C   UNL A   1      41.807  31.091  29.853  1.00  0.00     0.049 A 
ATOM     50  N   UNL A   1      41.742  28.242  28.962  1.00  0.00    -0.248 NA
ATOM     51  C   UNL A   1      39.772  27.868  30.036  1.00  0.00     0.031 C 
ATOM     52  C   UNL A   1      41.795  32.437  30.268  1.00  0.00     0.029 A 
ATOM     53  N   UNL A   1      42.968  30.879  29.144  1.00  0.00    -0.354 N 
ATOM     54  C   UNL A   1      41.401  26.970  28.750  1.00  0.00     0.074 A 
ATOM     55  C   UNL A   1      40.132  26.709  29.442  1.00  0.00     0.031 C 
ATOM     56  C   UNL A   1      42.937  33.025  29.826  1.00  0.00     0.029 A 
ATOM     57  C   UNL A   1      43.683  32.057  29.126  1.00  0.00     0.049 A 
ATOM     58  H   UNL A   1      43.240  30.033  28.722  1.00  0.00     0.167 HD
ATOM     59  C   UNL A   1      42.097  26.018  28.004  1.00  0.00     0.037 A 
ATOM     60  C   UNL A   1      44.916  32.292  28.540  1.00  0.00     0.037 A 
ATOM     61  C   UNL A   1      43.310  26.265  27.381  1.00  0.00     0.049 A 
ATOM     62  C   UNL A   1      45.640  31.323  27.843  1.00  0.00     0.074 A 
ATOM     63  C   UNL A   1      44.021  25.319  26.619  1.00  0.00     0.029 A 
ATOM     64  N   UNL A   1      44.036  27.436  27.384  1.00  0.00    -0.354 N 
ATOM     65  N   UNL A   1      45.280  30.063  27.596  1.00  0.00    -0.248 NA
ATOM     66  C   UNL A   1      46.963  31.552  27.245  1.00  0.00     0.031 C 
ATOM     67  C   UNL A   1      45.164  25.908  26.176  1.00  0.00     0.029 A 
ATOM     68  C   UNL A   1      45.186  27.231  26.655  1.00  0.00     0.049 A 
ATOM     69  H   UNL A   1      43.777  28.275  27.830  1.00  0.00     0.167 HD
ATOM     70  C   UNL A   1      46.224  29.446  26.884  1.00  0.00     0.074 A 
ATOM     71  C   UNL A   1      47.324  30.393  26.653  1.00  0.00     0.031 C 
ATOM     72  C   UNL A   1      46.211  28.132  26.411  1.00  0.00     0.037 A 
BRANCH  59  73
ATOM     73  C   UNL A   1      41.491  24.631  27.866  1.00  0.00     0.057 A 
ATOM     74  C   UNL A   1      41.973  23.597  28.652  1.00  0.00     0.134 A 
ATOM     75  C   UNL A   1      40.509  24.433  26.994  1.00  0.00     0.134 A 
ATOM     76  F   UNL A   1      42.764  23.793  29.703  1.00  0.00    -0.206 F 
ATOM     77  C   UNL A   1      41.546  22.314  28.237  1.00  0.00     0.040 A 
ATOM     78  C   UNL A   1      40.048  23.165  26.737  1.00  0.00     0.040 A 
ATOM     79  F   UNL A   1      39.967  25.472  26.365  1.00  0.00    -0.206 F 
ATOM     80  C   UNL A   1      40.522  22.089  27.434  1.00  0.00     0.006 A 
ENDBRANCH  59  73
BRANCH  60  81
ATOM     81  C   UNL A   1      45.514  33.685  28.664  1.00  0.00     0.057 A 
ATOM     82  C   UNL A   1      45.214  34.640  27.706  1.00  0.00     0.134 A 
ATOM     83  C   UNL A   1      46.314  33.961  29.687  1.00  0.00     0.134 A 
ATOM     84  F   UNL A   1      44.236  34.494  26.817  1.00  0.00    -0.206 F 
ATOM     85  C   UNL A   1      46.045  35.784  27.759  1.00  0.00     0.040 A 
ATOM     86  C   UNL A   1      46.989  35.157  29.742  1.00  0.00     0.040 A 
ATOM     87  F   UNL A   1      46.462  33.075  30.666  1.00  0.00    -0.206 F 
ATOM     88  C   UNL A   1      46.787  36.123  28.797  1.00  0.00     0.006 A 
ENDBRANCH  60  81
BRANCH  72  89
ATOM     89  C   UNL A   1      47.392  27.661  25.579  1.00  0.00     0.057 A 
ATOM     90  C   UNL A   1      47.350  27.721  24.195  1.00  0.00     0.134 A 
ATOM     91  C   UNL A   1      48.439  27.145  26.213  1.00  0.00     0.134 A 
ATOM     92  F   UNL A   1      46.456  28.446  23.528  1.00  0.00    -0.206 F 
ATOM     93  C   UNL A   1      48.344  26.944  23.555  1.00  0.00     0.040 A 
ATOM     94  C   UNL A   1      49.442  26.518  25.513  1.00  0.00     0.040 A 
ATOM     95  F   UNL A   1      48.517  27.237  27.538  1.00  0.00    -0.206 F 
ATOM     96  C   UNL A   1      49.433  26.489  24.147  1.00  0.00     0.006 A 
ENDBRANCH  72  89
ENDBRANCH  46  47
ENDBRANCH  39  41
ENDBRANCH  38  39
ENDBRANCH  37  38
ENDBRANCH  36  37
ENDBRANCH  35  36
ENDBRANCH  34  35
ENDBRANCH  33  34
ENDBRANCH   1  33
TORSDOF 24
ENDMDL
MODEL 2
REMARK VINA RESULT:     -10.1      2.046      6.307
REMARK SMILES CCCc1cc(S(F)(F)(F)(F)F)cc2c1O[C@@H](C(F)(F)F)C(C(=O)OCCOCCOCCOCCOC(=O)c1ccc(-c3c4nc(c(-c5c(F)cccc5F)c5ccc([nH]5)c(-c5c(F)cccc5F)c5nc(c(-c6c(F)cccc6F)c6ccc3[nH]6)C=C5)C=C4)cc1)=C2
REMARK SMILES IDX 31 1 30 2 29 3 28 4 27 5 26 6 25 7 23 8 24 9 22 10 4 11 5 12
REMARK SMILES IDX 15 13 6 14 14 15 16 16 13 17 94 18 17 19 3 20 2 21 1 22 7 23
REMARK SMILES IDX 8 24 9 25 10 26 11 27 12 28 18 29 19 30 20 31 21 32 32 33
REMARK SMILES IDX 33 34 34 35 35 36 36 37 37 38 38 39 39 40 40 41 41 42 93 43
REMARK SMILES IDX 42 44 92 45 43 46 44 47 45 48 86 49 46 50 91 51 85 52 87 53
REMARK SMILES IDX 47 54 90 55 84 56 83 57 48 59 74 60 57 61 73 62 58 63 61 64
REMARK SMILES IDX 72 65 88 66 59 67 60 68 71 70 89 71 62 72 49 73 50 74 55 75
REMARK SMILES IDX 51 76 52 77 54 78 56 79 53 80 75 81 76 82 81 83 77 84 78 85
REMARK SMILES IDX 80 86 82 87 79 88 63 89 64 90 69 91 65 92 66 93 68 94 70 95
REMARK SMILES IDX 67 96
REMARK H PARENT 87 58 61 69
REMARK Flexibility Score: inf
ROOT
ATOM      1  O   UNL A   1      33.503  31.739  27.956  1.00  0.00    -0.377 OA
ENDROOT
BRANCH   1   2
ATOM      2  C   UNL A   1      34.511  30.908  27.396  1.00  0.00     0.188 C 
BRANCH   2   3
ATOM      3  C   UNL A   1      33.886  29.610  26.911  1.00  0.00     0.188 C 
BRANCH   3   4
ATOM      4  O   UNL A   1      32.766  29.902  26.090  1.00  0.00    -0.376 OA
BRANCH   4   5
ATOM      5  C   UNL A   1      31.603  29.303  26.645  1.00  0.00     0.202 C 
BRANCH   5   6
ATOM      6  C   UNL A   1      31.412  27.919  26.046  1.00  0.00     0.261 C 
BRANCH   6   7
ATOM      7  O   UNL A   1      30.633  28.018  24.862  1.00  0.00    -0.460 OA
BRANCH   7   8
ATOM      8  C   UNL A   1      30.921  27.182  23.751  1.00  0.00     0.338 C 
ATOM      9  O   UNL A   1      30.328  27.370  22.643  1.00  0.00    -0.246 OA
BRANCH   8  10
ATOM     10  C   UNL A   1      31.939  26.061  23.887  1.00  0.00     0.087 C 
ATOM     11  C   UNL A   1      34.753  22.977  23.746  1.00  0.00    -0.004 A 
ATOM     12  C   UNL A   1      34.407  21.708  24.175  1.00  0.00     0.032 A 
ATOM     13  C   UNL A   1      33.793  23.960  23.753  1.00  0.00     0.131 A 
ATOM     14  C   UNL A   1      33.134  21.429  24.596  1.00  0.00     0.108 A 
ATOM     15  C   UNL A   1      32.502  23.719  24.188  1.00  0.00     0.019 A 
ATOM     16  O   UNL A   1      34.119  25.183  23.220  1.00  0.00    -0.475 OA
ATOM     17  C   UNL A   1      32.187  22.432  24.608  1.00  0.00     0.036 A 
ATOM     18  C   UNL A   1      31.549  24.815  24.120  1.00  0.00     0.027 C 
ATOM     19  C   UNL A   1      33.430  26.346  23.757  1.00  0.00     0.316 C 
BRANCH  11  20
ATOM     20  C   UNL A   1      36.144  23.240  23.193  1.00  0.00     0.039 C 
BRANCH  20  21
ATOM     21  C   UNL A   1      37.185  22.766  24.194  1.00  0.00     0.001 C 
ATOM     22  C   UNL A   1      37.035  23.546  25.490  1.00  0.00     0.004 C 
ENDBRANCH  20  21
ENDBRANCH  11  20
BRANCH  14  23
ATOM     23  S   UNL A   1      32.697  19.756  25.130  1.00  0.00     0.310 S 
ATOM     24  F   UNL A   1      33.964  19.137  24.404  1.00  0.00    -0.094 F 
ATOM     25  F   UNL A   1      31.918  19.580  23.771  1.00  0.00    -0.094 F 
ATOM     26  F   UNL A   1      32.317  18.312  25.566  1.00  0.00    -0.094 F 
ATOM     27  F   UNL A   1      33.596  19.901  26.419  1.00  0.00    -0.094 F 
ATOM     28  F   UNL A   1      33.182  21.181  24.649  1.00  0.00    -0.094 F 
ENDBRANCH  14  23
BRANCH  19  29
ATOM     29  C   UNL A   1      33.630  27.521  22.815  1.00  0.00     0.430 C 
ATOM     30  F   UNL A   1      34.926  27.806  22.729  1.00  0.00    -0.167 F 
ATOM     31  F   UNL A   1      33.165  27.207  21.609  1.00  0.00    -0.167 F 
ATOM     32  F   UNL A   1      32.974  28.580  23.281  1.00  0.00    -0.167 F 
ENDBRANCH  19  29
ENDBRANCH   8  10
ENDBRANCH   7   8
ENDBRANCH   6   7
ENDBRANCH   5   6
ENDBRANCH   4   5
ENDBRANCH   3   4
ENDBRANCH   2   3
ENDBRANCH   1   2
BRANCH   1  33
ATOM     33  C   UNL A   1      34.006  33.058  28.106  1.00  0.00     0.188 C 
BRANCH  33  34
ATOM     34  C   UNL A   1      34.990  33.096  29.265  1.00  0.00     0.188 C 
BRANCH  34  35
ATOM     35  O   UNL A   1      34.283  32.975  30.491  1.00  0.00    -0.376 OA
BRANCH  35  36
ATOM     36  C   UNL A   1      35.105  33.425  31.558  1.00  0.00     0.202 C 
BRANCH  36  37
ATOM     37  C   UNL A   1      35.567  32.233  32.379  1.00  0.00     0.261 C 
BRANCH  37  38
ATOM     38  O   UNL A   1      36.813  31.767  31.879  1.00  0.00    -0.460 OA
BRANCH  38  39
ATOM     39  C   UNL A   1      36.915  30.461  31.330  1.00  0.00     0.338 C 
ATOM     40  O   UNL A   1      35.896  29.702  31.305  1.00  0.00    -0.246 OA
BRANCH  39  41
ATOM     41  C   UNL A   1      38.241  29.973  30.773  1.00  0.00     0.060 A 
ATOM     42  C   UNL A   1      39.109  29.239  31.563  1.00  0.00     0.016 A 
ATOM     43  C   UNL A   1      38.550  30.289  29.520  1.00  0.00     0.016 A 
ATOM     44  C   UNL A   1      40.416  29.128  31.031  1.00  0.00     0.010 A 
ATOM     45  C   UNL A   1      39.803  30.029  29.022  1.00  0.00     0.010 A 
ATOM     46  C   UNL A   1      40.733  29.359  29.770  1.00  0.00    -0.014 A 
BRANCH  46  47
ATOM     47  C   UNL A   1      42.057  28.904  29.179  1.00  0.00     0.031 A 
ATOM     48  C   UNL A   1      43.116  29.813  29.161  1.00  0.00     0.074 A 
ATOM     49  C   UNL A   1      42.157  27.592  28.749  1.00  0.00     0.049 A 
ATOM     50  N   UNL A   1      44.373  29.591  28.776  1.00  0.00    -0.248 NA
ATOM     51  C   UNL A   1      43.004  31.218  29.586  1.00  0.00     0.031 C 
ATOM     52  C   UNL A   1      41.096  26.665  28.773  1.00  0.00     0.029 A 
ATOM     53  N   UNL A   1      43.262  26.954  28.233  1.00  0.00    -0.354 N 
ATOM     54  C   UNL A   1      45.102  30.700  28.919  1.00  0.00     0.074 A 
ATOM     55  C   UNL A   1      44.230  31.763  29.436  1.00  0.00     0.031 C 
ATOM     56  C   UNL A   1      41.552  25.490  28.268  1.00  0.00     0.029 A 
ATOM     57  C   UNL A   1      42.906  25.660  27.921  1.00  0.00     0.049 A 
ATOM     58  H   UNL A   1      44.154  27.352  28.109  1.00  0.00     0.167 HD
ATOM     59  C   UNL A   1      46.459  30.865  28.641  1.00  0.00     0.037 A 
ATOM     60  C   UNL A   1      43.701  24.672  27.362  1.00  0.00     0.037 A 
ATOM     61  C   UNL A   1      47.266  29.864  28.123  1.00  0.00     0.049 A 
ATOM     62  C   UNL A   1      45.044  24.854  27.029  1.00  0.00     0.074 A 
ATOM     63  C   UNL A   1      48.638  30.012  27.843  1.00  0.00     0.029 A 
ATOM     64  N   UNL A   1      46.902  28.578  27.787  1.00  0.00    -0.354 N 
ATOM     65  N   UNL A   1      45.783  25.951  27.210  1.00  0.00    -0.248 NA
ATOM     66  C   UNL A   1      45.888  23.825  26.408  1.00  0.00     0.031 C 
ATOM     67  C   UNL A   1      49.094  28.834  27.338  1.00  0.00     0.029 A 
ATOM     68  C   UNL A   1      48.014  27.933  27.292  1.00  0.00     0.049 A 
ATOM     69  H   UNL A   1      46.004  28.188  27.884  1.00  0.00     0.167 HD
ATOM     70  C   UNL A   1      47.030  25.740  26.784  1.00  0.00     0.074 A 
ATOM     71  C   UNL A   1      47.114  24.371  26.256  1.00  0.00     0.031 C 
ATOM     72  C   UNL A   1      48.103  26.632  26.821  1.00  0.00     0.037 A 
BRANCH  59  73
ATOM     73  C   UNL A   1      47.090  32.219  28.922  1.00  0.00     0.057 A 
ATOM     74  C   UNL A   1      47.617  32.476  30.177  1.00  0.00     0.134 A 
ATOM     75  C   UNL A   1      47.125  33.134  27.959  1.00  0.00     0.134 A 
ATOM     76  F   UNL A   1      47.834  31.526  31.081  1.00  0.00    -0.206 F 
ATOM     77  C   UNL A   1      47.904  33.842  30.409  1.00  0.00     0.040 A 
ATOM     78  C   UNL A   1      47.546  34.414  28.227  1.00  0.00     0.040 A 
ATOM     79  F   UNL A   1      46.749  32.807  26.726  1.00  0.00    -0.206 F 
ATOM     80  C   UNL A   1      48.024  34.755  29.461  1.00  0.00     0.006 A 
ENDBRANCH  59  73
BRANCH  60  81
ATOM     81  C   UNL A   1      43.074  23.313  27.097  1.00  0.00     0.057 A 
ATOM     82  C   UNL A   1      42.652  22.997  25.816  1.00  0.00     0.134 A 
ATOM     83  C   UNL A   1      42.940  22.451  28.099  1.00  0.00     0.134 A 
ATOM     84  F   UNL A   1      42.987  23.711  24.746  1.00  0.00    -0.206 F 
ATOM     85  C   UNL A   1      41.830  21.846  25.751  1.00  0.00     0.040 A 
ATOM     86  C   UNL A   1      42.240  21.281  27.926  1.00  0.00     0.040 A 
ATOM     87  F   UNL A   1      43.488  22.723  29.280  1.00  0.00    -0.206 F 
ATOM     88  C   UNL A   1      41.744  20.933  26.701  1.00  0.00     0.006 A 
ENDBRANCH  60  81
BRANCH  72  89
ATOM     89  C   UNL A   1      49.451  26.149  26.312  1.00  0.00     0.057 A 
ATOM     90  C   UNL A   1      50.279  25.387  27.122  1.00  0.00     0.134 A 
ATOM     91  C   UNL A   1      49.831  26.519  25.095  1.00  0.00     0.134 A 
ATOM     92  F   UNL A   1      49.856  24.784  28.229  1.00  0.00    -0.206 F 
ATOM     93  C   UNL A   1      51.615  25.307  26.663  1.00  0.00     0.040 A 
ATOM     94  C   UNL A   1      51.114  26.288  24.661  1.00  0.00     0.040 A 
ATOM     95  F   UNL A   1      48.960  27.119  24.288  1.00  0.00    -0.206 F 
ATOM     96  C   UNL A   1      52.002  25.593  25.433  1.00  0.00     0.006 A 
ENDBRANCH  72  89
ENDBRANCH  46  47
ENDBRANCH  39  41
ENDBRANCH  38  39
ENDBRANCH  37  38
ENDBRANCH  36  37
ENDBRANCH  35  36
ENDBRANCH  34  35
ENDBRANCH  33  34
ENDBRANCH   1  33
TORSDOF 24
ENDMDL
MODEL 3
REMARK VINA RESULT:     -10.1      2.041      3.018
REMARK SMILES CCCc1cc(S(F)(F)(F)(F)F)cc2c1O[C@@H](C(F)(F)F)C(C(=O)OCCOCCOCCOCCOC(=O)c1ccc(-c3c4nc(c(-c5c(F)cccc5F)c5ccc([nH]5)c(-c5c(F)cccc5F)c5nc(c(-c6c(F)cccc6F)c6ccc3[nH]6)C=C5)C=C4)cc1)=C2
REMARK SMILES IDX 31 1 30 2 29 3 28 4 27 5 26 6 25 7 23 8 24 9 22 10 4 11 5 12
REMARK SMILES IDX 15 13 6 14 14 15 16 16 13 17 94 18 17 19 3 20 2 21 1 22 7 23
REMARK SMILES IDX 8 24 9 25 10 26 11 27 12 28 18 29 19 30 20 31 21 32 32 33
REMARK SMILES IDX 33 34 34 35 35 36 36 37 37 38 38 39 39 40 40 41 41 42 93 43
REMARK SMILES IDX 42 44 92 45 43 46 44 47 45 48 86 49 46 50 91 51 85 52 87 53
REMARK SMILES IDX 47 54 90 55 84 56 83 57 48 59 74 60 57 61 73 62 58 63 61 64
REMARK SMILES IDX 72 65 88 66 59 67 60 68 71 70 89 71 62 72 49 73 50 74 55 75
REMARK SMILES IDX 51 76 52 77 54 78 56 79 53 80 75 81 76 82 81 83 77 84 78 85
REMARK SMILES IDX 80 86 82 87 79 88 63 89 64 90 69 91 65 92 66 93 68 94 70 95
REMARK SMILES IDX 67 96
REMARK H PARENT 87 58 61 69
REMARK Flexibility Score: inf
ROOT
ATOM      1  O   UNL A   1      33.244  32.705  28.234  1.00  0.00    -0.377 OA
ENDROOT
BRANCH   1   2
ATOM      2  C   UNL A   1      34.192  31.866  27.589  1.00  0.00     0.188 C 
BRANCH   2   3
ATOM      3  C   UNL A   1      33.730  30.420  27.678  1.00  0.00     0.188 C 
BRANCH   3   4
ATOM      4  O   UNL A   1      33.264  29.993  26.408  1.00  0.00    -0.376 OA
BRANCH   4   5
ATOM      5  C   UNL A   1      31.844  29.942  26.416  1.00  0.00     0.202 C 
BRANCH   5   6
ATOM      6  C   UNL A   1      31.385  28.562  25.973  1.00  0.00     0.261 C 
BRANCH   6   7
ATOM      7  O   UNL A   1      30.972  28.614  24.615  1.00  0.00    -0.460 OA
BRANCH   7   8
ATOM      8  C   UNL A   1      30.842  27.414  23.866  1.00  0.00     0.338 C 
ATOM      9  O   UNL A   1      29.867  27.267  23.066  1.00  0.00    -0.246 OA
BRANCH   8  10
ATOM     10  C   UNL A   1      31.872  26.306  24.023  1.00  0.00     0.087 C 
ATOM     11  C   UNL A   1      34.720  23.252  23.938  1.00  0.00    -0.004 A 
ATOM     12  C   UNL A   1      34.385  21.983  24.376  1.00  0.00     0.032 A 
ATOM     13  C   UNL A   1      33.749  24.224  23.926  1.00  0.00     0.131 A 
ATOM     14  C   UNL A   1      33.111  21.694  24.787  1.00  0.00     0.108 A 
ATOM     15  C   UNL A   1      32.457  23.973  24.351  1.00  0.00     0.019 A 
ATOM     16  O   UNL A   1      34.067  25.445  23.385  1.00  0.00    -0.475 OA
ATOM     17  C   UNL A   1      32.152  22.687  24.780  1.00  0.00     0.036 A 
ATOM     18  C   UNL A   1      31.493  25.057  24.264  1.00  0.00     0.027 C 
ATOM     19  C   UNL A   1      33.361  26.606  23.905  1.00  0.00     0.316 C 
BRANCH  11  20
ATOM     20  C   UNL A   1      36.114  23.525  23.396  1.00  0.00     0.039 C 
BRANCH  20  21
ATOM     21  C   UNL A   1      37.125  22.671  24.144  1.00  0.00     0.001 C 
ATOM     22  C   UNL A   1      37.719  23.474  25.289  1.00  0.00     0.004 C 
ENDBRANCH  20  21
ENDBRANCH  11  20
BRANCH  14  23
ATOM     23  S   UNL A   1      32.686  20.021  25.333  1.00  0.00     0.310 S 
ATOM     24  F   UNL A   1      34.089  19.454  24.856  1.00  0.00    -0.094 F 
ATOM     25  F   UNL A   1      32.155  19.735  23.877  1.00  0.00    -0.094 F 
ATOM     26  F   UNL A   1      32.323  18.576  25.779  1.00  0.00    -0.094 F 
ATOM     27  F   UNL A   1      33.351  20.281  26.741  1.00  0.00    -0.094 F 
ATOM     28  F   UNL A   1      33.163  21.452  24.860  1.00  0.00    -0.094 F 
ENDBRANCH  14  23
BRANCH  19  29
ATOM     29  C   UNL A   1      33.557  27.774  22.953  1.00  0.00     0.430 C 
ATOM     30  F   UNL A   1      32.532  27.836  22.108  1.00  0.00    -0.167 F 
ATOM     31  F   UNL A   1      33.628  28.906  23.648  1.00  0.00    -0.167 F 
ATOM     32  F   UNL A   1      34.685  27.604  22.268  1.00  0.00    -0.167 F 
ENDBRANCH  19  29
ENDBRANCH   8  10
ENDBRANCH   7   8
ENDBRANCH   6   7
ENDBRANCH   5   6
ENDBRANCH   4   5
ENDBRANCH   3   4
ENDBRANCH   2   3
ENDBRANCH   1   2
BRANCH   1  33
ATOM     33  C   UNL A   1      33.611  34.065  28.046  1.00  0.00     0.188 C 
BRANCH  33  34
ATOM     34  C   UNL A   1      34.783  34.403  28.953  1.00  0.00     0.188 C 
BRANCH  34  35
ATOM     35  O   UNL A   1      34.311  34.636  30.271  1.00  0.00    -0.376 OA
BRANCH  35  36
ATOM     36  C   UNL A   1      35.231  34.093  31.207  1.00  0.00     0.202 C 
BRANCH  36  37
ATOM     37  C   UNL A   1      35.096  32.580  31.230  1.00  0.00     0.261 C 
BRANCH  37  38
ATOM     38  O   UNL A   1      36.388  31.988  31.208  1.00  0.00    -0.460 OA
BRANCH  38  39
ATOM     39  C   UNL A   1      36.560  30.675  30.697  1.00  0.00     0.338 C 
ATOM     40  O   UNL A   1      35.563  29.893  30.606  1.00  0.00    -0.246 OA
BRANCH  39  41
ATOM     41  C   UNL A   1      37.937  30.206  30.257  1.00  0.00     0.060 A 
ATOM     42  C   UNL A   1      38.348  30.363  28.944  1.00  0.00     0.016 A 
ATOM     43  C   UNL A   1      38.719  29.624  31.158  1.00  0.00     0.016 A 
ATOM     44  C   UNL A   1      39.497  29.608  28.608  1.00  0.00     0.010 A 
ATOM     45  C   UNL A   1      39.895  29.023  30.780  1.00  0.00     0.010 A 
ATOM     46  C   UNL A   1      40.334  29.088  29.486  1.00  0.00    -0.014 A 
BRANCH  46  47
ATOM     47  C   UNL A   1      41.712  28.589  29.083  1.00  0.00     0.031 A 
ATOM     48  C   UNL A   1      41.836  27.262  28.670  1.00  0.00     0.074 A 
ATOM     49  C   UNL A   1      42.756  29.499  29.088  1.00  0.00     0.049 A 
ATOM     50  N   UNL A   1      42.924  26.656  28.193  1.00  0.00    -0.248 NA
ATOM     51  C   UNL A   1      40.737  26.285  28.696  1.00  0.00     0.031 C 
ATOM     52  C   UNL A   1      42.637  30.843  29.494  1.00  0.00     0.029 A 
ATOM     53  N   UNL A   1      44.064  29.285  28.716  1.00  0.00    -0.354 N 
ATOM     54  C   UNL A   1      42.649  25.386  27.889  1.00  0.00     0.074 A 
ATOM     55  C   UNL A   1      41.239  25.128  28.213  1.00  0.00     0.031 C 
ATOM     56  C   UNL A   1      43.858  31.427  29.379  1.00  0.00     0.029 A 
ATOM     57  C   UNL A   1      44.761  30.460  28.898  1.00  0.00     0.049 A 
ATOM     58  H   UNL A   1      44.437  28.440  28.377  1.00  0.00     0.167 HD
ATOM     59  C   UNL A   1      43.516  24.435  27.351  1.00  0.00     0.037 A 
ATOM     60  C   UNL A   1      46.107  30.692  28.667  1.00  0.00     0.037 A 
ATOM     61  C   UNL A   1      44.853  24.680  27.078  1.00  0.00     0.049 A 
ATOM     62  C   UNL A   1      46.989  29.724  28.184  1.00  0.00     0.074 A 
ATOM     63  C   UNL A   1      45.740  23.735  26.529  1.00  0.00     0.029 A 
ATOM     64  N   UNL A   1      45.555  25.847  27.285  1.00  0.00    -0.354 N 
ATOM     65  N   UNL A   1      46.705  28.466  27.841  1.00  0.00    -0.248 NA
ATOM     66  C   UNL A   1      48.424  29.950  27.965  1.00  0.00     0.031 C 
ATOM     67  C   UNL A   1      46.962  24.320  26.414  1.00  0.00     0.029 A 
ATOM     68  C   UNL A   1      46.858  25.640  26.891  1.00  0.00     0.049 A 
ATOM     69  H   UNL A   1      45.189  26.685  27.650  1.00  0.00     0.167 HD
ATOM     70  C   UNL A   1      47.804  27.849  27.404  1.00  0.00     0.074 A 
ATOM     71  C   UNL A   1      48.927  28.792  27.484  1.00  0.00     0.031 C 
ATOM     72  C   UNL A   1      47.914  26.538  26.937  1.00  0.00     0.037 A 
BRANCH  59  73
ATOM     73  C   UNL A   1      42.965  23.052  27.046  1.00  0.00     0.057 A 
ATOM     74  C   UNL A   1      42.599  22.737  25.748  1.00  0.00     0.134 A 
ATOM     75  C   UNL A   1      42.843  22.167  28.030  1.00  0.00     0.134 A 
ATOM     76  F   UNL A   1      42.932  23.483  24.699  1.00  0.00    -0.206 F 
ATOM     77  C   UNL A   1      41.838  21.549  25.638  1.00  0.00     0.040 A 
ATOM     78  C   UNL A   1      42.208  20.968  27.817  1.00  0.00     0.040 A 
ATOM     79  F   UNL A   1      43.341  22.446  29.231  1.00  0.00    -0.206 F 
ATOM     80  C   UNL A   1      41.766  20.617  26.572  1.00  0.00     0.006 A 
ENDBRANCH  59  73
BRANCH  60  81
ATOM     81  C   UNL A   1      46.654  32.081  28.956  1.00  0.00     0.057 A 
ATOM     82  C   UNL A   1      46.606  33.050  27.967  1.00  0.00     0.134 A 
ATOM     83  C   UNL A   1      47.170  32.342  30.152  1.00  0.00     0.134 A 
ATOM     84  F   UNL A   1      45.884  32.918  26.858  1.00  0.00    -0.206 F 
ATOM     85  C   UNL A   1      47.397  34.191  28.243  1.00  0.00     0.040 A 
ATOM     86  C   UNL A   1      47.809  33.534  30.392  1.00  0.00     0.040 A 
ATOM     87  F   UNL A   1      47.066  31.442  31.125  1.00  0.00    -0.206 F 
ATOM     88  C   UNL A   1      47.852  34.514  29.439  1.00  0.00     0.006 A 
ENDBRANCH  60  81
BRANCH  72  89
ATOM     89  C   UNL A   1      49.274  26.065  26.450  1.00  0.00     0.057 A 
ATOM     90  C   UNL A   1      50.105  25.330  27.280  1.00  0.00     0.134 A 
ATOM     91  C   UNL A   1      49.659  26.420  25.230  1.00  0.00     0.134 A 
ATOM     92  F   UNL A   1      49.679  24.741  28.394  1.00  0.00    -0.206 F 
ATOM     93  C   UNL A   1      51.446  25.262  26.835  1.00  0.00     0.040 A 
ATOM     94  C   UNL A   1      50.950  26.200  24.812  1.00  0.00     0.040 A 
ATOM     95  F   UNL A   1      48.788  26.993  24.404  1.00  0.00    -0.206 F 
ATOM     96  C   UNL A   1      51.841  25.532  25.605  1.00  0.00     0.006 A 
ENDBRANCH  72  89
ENDBRANCH  46  47
ENDBRANCH  39  41
ENDBRANCH  38  39
ENDBRANCH  37  38
ENDBRANCH  36  37
ENDBRANCH  35  36
ENDBRANCH  34  35
ENDBRANCH  33  34
ENDBRANCH   1  33
TORSDOF 24
ENDMDL
