MODEL 1
REMARK VINA RESULT:     -10.6      0.000      0.000
REMARK SMILES CC(=O)Nc1ccc(/C(=C\c2ccc(S(C)(=O)=O)cc2)C(=O)OCCOCCOCCOCCOC(=O)c2ccc(-c3c4nc(c(-c5c(F)cccc5F)c5ccc([nH]5)c(-c5c(F)cccc5F)c5nc(c(-c6c(F)cccc6F)c6ccc3[nH]6)C=C5)C=C4)cc2)cc1
REMARK SMILES IDX 29 1 28 2 27 3 26 4 25 5 24 6 23 7 21 8 22 9 9 10 10 11 8 12
REMARK SMILES IDX 5 13 6 14 93 15 7 16 92 17 4 18 1 19 2 20 3 21 11 23 12 24
REMARK SMILES IDX 20 25 13 26 19 27 14 28 15 29 16 30 17 31 18 32 30 33 31 34
REMARK SMILES IDX 32 35 33 36 34 37 35 38 36 39 37 40 38 41 39 42 91 43 40 44
REMARK SMILES IDX 90 45 41 46 42 47 43 48 84 49 44 50 89 51 83 52 85 53 45 54
REMARK SMILES IDX 88 55 82 56 81 57 46 59 72 60 55 61 71 62 56 63 59 64 70 65
REMARK SMILES IDX 86 66 57 67 58 68 69 70 87 71 60 72 47 73 48 74 53 75 49 76
REMARK SMILES IDX 50 77 52 78 54 79 51 80 73 81 74 82 79 83 75 84 76 85 78 86
REMARK SMILES IDX 80 87 77 88 61 89 62 90 67 91 63 92 64 93 66 94 68 95 65 96
REMARK H PARENT 4 22 85 58 59 69
REMARK Flexibility Score: inf
ROOT
ATOM      1  O   UNL A   1      29.386  26.103  24.115  1.00  0.00    -0.377 OA
ENDROOT
BRANCH   1   2
ATOM      2  C   UNL A   1      29.013  25.637  25.402  1.00  0.00     0.188 C 
BRANCH   2   3
ATOM      3  C   UNL A   1      30.119  25.295  26.419  1.00  0.00     0.188 C 
BRANCH   3   4
ATOM      4  O   UNL A   1      31.164  26.247  26.501  1.00  0.00    -0.376 OA
BRANCH   4   5
ATOM      5  C   UNL A   1      32.462  25.841  26.103  1.00  0.00     0.202 C 
BRANCH   5   6
ATOM      6  C   UNL A   1      32.897  26.146  24.662  1.00  0.00     0.261 C 
BRANCH   6   7
ATOM      7  O   UNL A   1      32.311  25.314  23.650  1.00  0.00    -0.460 OA
BRANCH   7   8
ATOM      8  C   UNL A   1      33.139  24.647  22.804  1.00  0.00     0.338 C 
ATOM      9  O   UNL A   1      33.662  25.126  21.810  1.00  0.00    -0.246 OA
BRANCH   8  10
ATOM     10  C   UNL A   1      33.456  23.280  23.371  1.00  0.00     0.067 C 
ATOM     11  C   UNL A   1      32.462  22.367  23.219  1.00  0.00     0.024 C 
BRANCH  10  12
ATOM     12  C   UNL A   1      34.742  23.069  24.120  1.00  0.00    -0.011 A 
ATOM     13  C   UNL A   1      37.320  23.100  25.357  1.00  0.00     0.041 A 
ATOM     14  C   UNL A   1      36.163  23.359  26.093  1.00  0.00     0.027 A 
ATOM     15  C   UNL A   1      37.175  22.701  24.038  1.00  0.00     0.027 A 
ATOM     16  C   UNL A   1      34.895  23.329  25.486  1.00  0.00     0.011 A 
ATOM     17  C   UNL A   1      35.904  22.660  23.445  1.00  0.00     0.011 A 
BRANCH  13  18
ATOM     18  N   UNL A   1      38.550  23.174  26.030  1.00  0.00    -0.326 N 
ATOM     19  C   UNL A   1      39.404  20.836  25.828  1.00  0.00     0.114 C 
ATOM     20  C   UNL A   1      39.452  22.223  26.409  1.00  0.00     0.221 C 
ATOM     21  O   UNL A   1      40.355  22.541  27.187  1.00  0.00    -0.275 OA
ATOM     22  H   UNL A   1      38.814  24.091  26.275  1.00  0.00     0.169 HD
ENDBRANCH  13  18
ENDBRANCH  10  12
BRANCH  11  23
ATOM     23  C   UNL A   1      32.464  20.945  23.596  1.00  0.00    -0.025 A 
ATOM     24  C   UNL A   1      32.232  20.024  22.565  1.00  0.00     0.009 A 
ATOM     25  C   UNL A   1      32.818  20.483  24.872  1.00  0.00     0.009 A 
ATOM     26  C   UNL A   1      32.505  18.672  22.755  1.00  0.00     0.021 A 
ATOM     27  C   UNL A   1      33.105  19.127  25.066  1.00  0.00     0.021 A 
ATOM     28  C   UNL A   1      32.986  18.239  23.992  1.00  0.00     0.067 A 
BRANCH  28  29
ATOM     29  S   UNL A   1      33.645  16.592  24.110  1.00  0.00     0.175 S 
ATOM     30  C   UNL A   1      35.071  16.761  25.144  1.00  0.00     0.163 C 
ATOM     31  O   UNL A   1      32.659  15.803  24.826  1.00  0.00    -0.224 OA
ATOM     32  O   UNL A   1      34.089  16.198  22.787  1.00  0.00    -0.224 OA
ENDBRANCH  28  29
ENDBRANCH  11  23
ENDBRANCH   8  10
ENDBRANCH   7   8
ENDBRANCH   6   7
ENDBRANCH   5   6
ENDBRANCH   4   5
ENDBRANCH   3   4
ENDBRANCH   2   3
ENDBRANCH   1   2
BRANCH   1  33
ATOM     33  C   UNL A   1      28.656  27.178  23.526  1.00  0.00     0.188 C 
BRANCH  33  34
ATOM     34  C   UNL A   1      29.357  28.499  23.116  1.00  0.00     0.188 C 
BRANCH  34  35
ATOM     35  O   UNL A   1      30.693  28.634  23.571  1.00  0.00    -0.376 OA
BRANCH  35  36
ATOM     36  C   UNL A   1      31.032  29.782  24.327  1.00  0.00     0.202 C 
BRANCH  36  37
ATOM     37  C   UNL A   1      31.585  29.559  25.741  1.00  0.00     0.261 C 
BRANCH  37  38
ATOM     38  O   UNL A   1      32.937  29.989  25.966  1.00  0.00    -0.460 OA
BRANCH  38  39
ATOM     39  C   UNL A   1      33.132  30.936  26.905  1.00  0.00     0.338 C 
ATOM     40  O   UNL A   1      32.297  31.692  27.379  1.00  0.00    -0.246 OA
BRANCH  39  41
ATOM     41  C   UNL A   1      34.508  30.784  27.415  1.00  0.00     0.060 A 
ATOM     42  C   UNL A   1      35.035  29.496  27.589  1.00  0.00     0.016 A 
ATOM     43  C   UNL A   1      35.276  31.912  27.712  1.00  0.00     0.016 A 
ATOM     44  C   UNL A   1      36.315  29.333  28.112  1.00  0.00     0.010 A 
ATOM     45  C   UNL A   1      36.549  31.747  28.260  1.00  0.00     0.010 A 
ATOM     46  C   UNL A   1      37.052  30.457  28.506  1.00  0.00    -0.014 A 
BRANCH  46  47
ATOM     47  C   UNL A   1      38.214  30.282  29.407  1.00  0.00     0.031 A 
ATOM     48  C   UNL A   1      39.386  29.489  28.893  1.00  0.00     0.074 A 
ATOM     49  C   UNL A   1      38.253  30.832  30.633  1.00  0.00     0.049 A 
ATOM     50  N   UNL A   1      40.496  29.153  29.495  1.00  0.00    -0.248 NA
ATOM     51  C   UNL A   1      39.283  29.004  27.506  1.00  0.00     0.031 C 
ATOM     52  C   UNL A   1      37.205  31.659  31.225  1.00  0.00     0.029 A 
ATOM     53  N   UNL A   1      39.220  30.764  31.603  1.00  0.00    -0.354 N 
ATOM     54  C   UNL A   1      41.216  28.412  28.566  1.00  0.00     0.074 A 
ATOM     55  C   UNL A   1      40.402  28.313  27.375  1.00  0.00     0.031 C 
ATOM     56  C   UNL A   1      37.582  32.013  32.467  1.00  0.00     0.029 A 
ATOM     57  C   UNL A   1      38.881  31.411  32.765  1.00  0.00     0.049 A 
ATOM     58  H   UNL A   1      40.078  30.295  31.478  1.00  0.00     0.167 HD
ATOM     59  C   UNL A   1      42.450  27.868  28.689  1.00  0.00     0.037 A 
ATOM     60  C   UNL A   1      39.538  31.488  33.939  1.00  0.00     0.037 A 
ATOM     61  C   UNL A   1      43.254  27.964  29.878  1.00  0.00     0.049 A 
ATOM     62  C   UNL A   1      40.879  30.811  34.080  1.00  0.00     0.074 A 
ATOM     63  C   UNL A   1      44.520  27.455  30.106  1.00  0.00     0.029 A 
ATOM     64  N   UNL A   1      42.863  28.608  31.043  1.00  0.00    -0.354 N 
ATOM     65  N   UNL A   1      41.561  30.125  33.194  1.00  0.00    -0.248 NA
ATOM     66  C   UNL A   1      41.546  30.930  35.385  1.00  0.00     0.031 C 
ATOM     67  C   UNL A   1      44.871  27.739  31.429  1.00  0.00     0.029 A 
ATOM     68  C   UNL A   1      43.856  28.489  32.002  1.00  0.00     0.049 A 
ATOM     69  H   UNL A   1      42.008  29.078  31.171  1.00  0.00     0.167 HD
ATOM     70  C   UNL A   1      42.752  29.769  33.817  1.00  0.00     0.074 A 
ATOM     71  C   UNL A   1      42.701  30.321  35.154  1.00  0.00     0.031 C 
ATOM     72  C   UNL A   1      43.797  29.059  33.326  1.00  0.00     0.037 A 
BRANCH  59  73
ATOM     73  C   UNL A   1      42.982  27.093  27.519  1.00  0.00     0.057 A 
ATOM     74  C   UNL A   1      42.781  25.713  27.385  1.00  0.00     0.134 A 
ATOM     75  C   UNL A   1      43.700  27.741  26.505  1.00  0.00     0.134 A 
ATOM     76  F   UNL A   1      42.118  25.027  28.328  1.00  0.00    -0.206 F 
ATOM     77  C   UNL A   1      43.299  25.001  26.301  1.00  0.00     0.040 A 
ATOM     78  C   UNL A   1      44.195  27.047  25.401  1.00  0.00     0.040 A 
ATOM     79  F   UNL A   1      43.929  29.061  26.570  1.00  0.00    -0.206 F 
ATOM     80  C   UNL A   1      44.003  25.670  25.301  1.00  0.00     0.006 A 
ENDBRANCH  59  73
BRANCH  60  81
ATOM     81  C   UNL A   1      38.942  32.226  35.082  1.00  0.00     0.057 A 
ATOM     82  C   UNL A   1      39.066  33.616  35.195  1.00  0.00     0.134 A 
ATOM     83  C   UNL A   1      38.261  31.556  36.106  1.00  0.00     0.134 A 
ATOM     84  F   UNL A   1      39.727  34.312  34.259  1.00  0.00    -0.206 F 
ATOM     85  C   UNL A   1      38.557  34.310  36.293  1.00  0.00     0.040 A 
ATOM     86  C   UNL A   1      37.722  32.241  37.197  1.00  0.00     0.040 A 
ATOM     87  F   UNL A   1      38.106  30.225  36.060  1.00  0.00    -0.206 F 
ATOM     88  C   UNL A   1      37.877  33.622  37.297  1.00  0.00     0.006 A 
ENDBRANCH  60  81
BRANCH  72  89
ATOM     89  C   UNL A   1      45.003  28.894  34.209  1.00  0.00     0.057 A 
ATOM     90  C   UNL A   1      45.160  27.800  35.069  1.00  0.00     0.134 A 
ATOM     91  C   UNL A   1      46.040  29.837  34.168  1.00  0.00     0.134 A 
ATOM     92  F   UNL A   1      44.203  26.865  35.164  1.00  0.00    -0.206 F 
ATOM     93  C   UNL A   1      46.289  27.666  35.879  1.00  0.00     0.040 A 
ATOM     94  C   UNL A   1      47.189  29.696  34.949  1.00  0.00     0.040 A 
ATOM     95  F   UNL A   1      45.962  30.903  33.358  1.00  0.00    -0.206 F 
ATOM     96  C   UNL A   1      47.311  28.612  35.815  1.00  0.00     0.006 A 
ENDBRANCH  72  89
ENDBRANCH  46  47
ENDBRANCH  39  41
ENDBRANCH  38  39
ENDBRANCH  37  38
ENDBRANCH  36  37
ENDBRANCH  35  36
ENDBRANCH  34  35
ENDBRANCH  33  34
ENDBRANCH   1  33
TORSDOF 24
ENDMDL
MODEL 2
REMARK VINA RESULT:      -8.5      6.752     12.590
REMARK SMILES CC(=O)Nc1ccc(/C(=C\c2ccc(S(C)(=O)=O)cc2)C(=O)OCCOCCOCCOCCOC(=O)c2ccc(-c3c4nc(c(-c5c(F)cccc5F)c5ccc([nH]5)c(-c5c(F)cccc5F)c5nc(c(-c6c(F)cccc6F)c6ccc3[nH]6)C=C5)C=C4)cc2)cc1
REMARK SMILES IDX 29 1 28 2 27 3 26 4 25 5 24 6 23 7 21 8 22 9 9 10 10 11 8 12
REMARK SMILES IDX 5 13 6 14 93 15 7 16 92 17 4 18 1 19 2 20 3 21 11 23 12 24
REMARK SMILES IDX 20 25 13 26 19 27 14 28 15 29 16 30 17 31 18 32 30 33 31 34
REMARK SMILES IDX 32 35 33 36 34 37 35 38 36 39 37 40 38 41 39 42 91 43 40 44
REMARK SMILES IDX 90 45 41 46 42 47 43 48 84 49 44 50 89 51 83 52 85 53 45 54
REMARK SMILES IDX 88 55 82 56 81 57 46 59 72 60 55 61 71 62 56 63 59 64 70 65
REMARK SMILES IDX 86 66 57 67 58 68 69 70 87 71 60 72 47 73 48 74 53 75 49 76
REMARK SMILES IDX 50 77 52 78 54 79 51 80 73 81 74 82 79 83 75 84 76 85 78 86
REMARK SMILES IDX 80 87 77 88 61 89 62 90 67 91 63 92 64 93 66 94 68 95 65 96
REMARK H PARENT 4 22 85 58 59 69
REMARK Flexibility Score: inf
ROOT
ATOM      1  O   UNL A   1      50.677  23.687  35.896  1.00  0.00    -0.377 OA
ENDROOT
BRANCH   1   2
ATOM      2  C   UNL A   1      49.502  23.215  35.256  1.00  0.00     0.188 C 
BRANCH   2   3
ATOM      3  C   UNL A   1      49.272  21.695  35.150  1.00  0.00     0.188 C 
BRANCH   3   4
ATOM      4  O   UNL A   1      48.236  21.194  35.976  1.00  0.00    -0.376 OA
BRANCH   4   5
ATOM      5  C   UNL A   1      47.213  20.427  35.364  1.00  0.00     0.202 C 
BRANCH   5   6
ATOM      6  C   UNL A   1      45.798  20.522  35.952  1.00  0.00     0.261 C 
BRANCH   6   7
ATOM      7  O   UNL A   1      44.879  21.348  35.221  1.00  0.00    -0.460 OA
BRANCH   7   8
ATOM      8  C   UNL A   1      44.701  22.632  35.628  1.00  0.00     0.338 C 
ATOM      9  O   UNL A   1      44.972  23.061  36.738  1.00  0.00    -0.246 OA
BRANCH   8  10
ATOM     10  C   UNL A   1      44.285  23.488  34.451  1.00  0.00     0.067 C 
ATOM     11  C   UNL A   1      44.811  23.097  33.261  1.00  0.00     0.024 C 
BRANCH  10  12
ATOM     12  C   UNL A   1      43.447  24.713  34.686  1.00  0.00    -0.011 A 
ATOM     13  C   UNL A   1      41.947  26.967  35.607  1.00  0.00     0.041 A 
ATOM     14  C   UNL A   1      43.196  27.128  35.006  1.00  0.00     0.027 A 
ATOM     15  C   UNL A   1      41.396  25.696  35.629  1.00  0.00     0.027 A 
ATOM     16  C   UNL A   1      43.925  26.019  34.541  1.00  0.00     0.011 A 
ATOM     17  C   UNL A   1      42.126  24.598  35.149  1.00  0.00     0.011 A 
BRANCH  13  18
ATOM     18  N   UNL A   1      41.293  28.121  36.068  1.00  0.00    -0.326 N 
ATOM     19  C   UNL A   1      41.318  29.586  34.045  1.00  0.00     0.114 C 
ATOM     20  C   UNL A   1      41.101  29.354  35.516  1.00  0.00     0.221 C 
ATOM     21  O   UNL A   1      40.674  30.262  36.233  1.00  0.00    -0.275 OA
ATOM     22  H   UNL A   1      40.895  28.020  36.964  1.00  0.00     0.169 HD
ENDBRANCH  13  18
ENDBRANCH  10  12
BRANCH  11  23
ATOM     23  C   UNL A   1      44.567  23.663  31.925  1.00  0.00    -0.025 A 
ATOM     24  C   UNL A   1      45.262  24.838  31.608  1.00  0.00     0.009 A 
ATOM     25  C   UNL A   1      43.804  23.021  30.939  1.00  0.00     0.009 A 
ATOM     26  C   UNL A   1      45.330  25.280  30.290  1.00  0.00     0.021 A 
ATOM     27  C   UNL A   1      43.878  23.454  29.611  1.00  0.00     0.021 A 
ATOM     28  C   UNL A   1      44.677  24.557  29.291  1.00  0.00     0.067 A 
BRANCH  28  29
ATOM     29  S   UNL A   1      45.051  24.935  27.595  1.00  0.00     0.175 S 
ATOM     30  C   UNL A   1      43.527  24.665  26.737  1.00  0.00     0.163 C 
ATOM     31  O   UNL A   1      45.354  26.353  27.544  1.00  0.00    -0.224 OA
ATOM     32  O   UNL A   1      46.013  23.955  27.126  1.00  0.00    -0.224 OA
ENDBRANCH  28  29
ENDBRANCH  11  23
ENDBRANCH   8  10
ENDBRANCH   7   8
ENDBRANCH   6   7
ENDBRANCH   5   6
ENDBRANCH   4   5
ENDBRANCH   3   4
ENDBRANCH   2   3
ENDBRANCH   1   2
BRANCH   1  33
ATOM     33  C   UNL A   1      51.552  24.561  35.185  1.00  0.00     0.188 C 
BRANCH  33  34
ATOM     34  C   UNL A   1      52.268  24.104  33.888  1.00  0.00     0.188 C 
BRANCH  34  35
ATOM     35  O   UNL A   1      52.685  25.156  33.032  1.00  0.00    -0.376 OA
BRANCH  35  36
ATOM     36  C   UNL A   1      51.956  25.380  31.841  1.00  0.00     0.202 C 
BRANCH  36  37
ATOM     37  C   UNL A   1      50.432  25.524  31.961  1.00  0.00     0.261 C 
BRANCH  37  38
ATOM     38  O   UNL A   1      49.918  26.864  31.913  1.00  0.00    -0.460 OA
BRANCH  38  39
ATOM     39  C   UNL A   1      49.410  27.285  30.737  1.00  0.00     0.338 C 
ATOM     40  O   UNL A   1      49.742  26.928  29.617  1.00  0.00    -0.246 OA
BRANCH  39  41
ATOM     41  C   UNL A   1      48.233  28.124  31.034  1.00  0.00     0.060 A 
ATOM     42  C   UNL A   1      47.385  27.764  32.091  1.00  0.00     0.016 A 
ATOM     43  C   UNL A   1      47.975  29.267  30.274  1.00  0.00     0.016 A 
ATOM     44  C   UNL A   1      46.245  28.520  32.356  1.00  0.00     0.010 A 
ATOM     45  C   UNL A   1      46.820  30.008  30.524  1.00  0.00     0.010 A 
ATOM     46  C   UNL A   1      45.927  29.608  31.534  1.00  0.00    -0.014 A 
BRANCH  46  47
ATOM     47  C   UNL A   1      44.551  30.157  31.558  1.00  0.00     0.031 A 
ATOM     48  C   UNL A   1      43.495  29.431  30.768  1.00  0.00     0.074 A 
ATOM     49  C   UNL A   1      44.232  31.245  32.278  1.00  0.00     0.049 A 
ATOM     50  N   UNL A   1      42.236  29.729  30.586  1.00  0.00    -0.248 NA
ATOM     51  C   UNL A   1      43.927  28.199  30.085  1.00  0.00     0.031 C 
ATOM     52  C   UNL A   1      45.152  32.005  33.119  1.00  0.00     0.029 A 
ATOM     53  N   UNL A   1      43.034  31.902  32.405  1.00  0.00    -0.354 N 
ATOM     54  C   UNL A   1      41.730  28.731  29.762  1.00  0.00     0.074 A 
ATOM     55  C   UNL A   1      42.825  27.841  29.448  1.00  0.00     0.031 C 
ATOM     56  C   UNL A   1      44.486  33.037  33.669  1.00  0.00     0.029 A 
ATOM     57  C   UNL A   1      43.103  33.025  33.192  1.00  0.00     0.049 A 
ATOM     58  H   UNL A   1      42.203  31.596  31.974  1.00  0.00     0.167 HD
ATOM     59  C   UNL A   1      40.463  28.564  29.314  1.00  0.00     0.037 A 
ATOM     60  C   UNL A   1      42.161  33.946  33.473  1.00  0.00     0.037 A 
ATOM     61  C   UNL A   1      39.378  29.455  29.625  1.00  0.00     0.049 A 
ATOM     62  C   UNL A   1      40.774  33.781  32.902  1.00  0.00     0.074 A 
ATOM     63  C   UNL A   1      38.055  29.375  29.228  1.00  0.00     0.029 A 
ATOM     64  N   UNL A   1      39.495  30.597  30.405  1.00  0.00    -0.354 N 
ATOM     65  N   UNL A   1      40.298  32.828  32.136  1.00  0.00    -0.248 NA
ATOM     66  C   UNL A   1      39.790  34.819  33.244  1.00  0.00     0.031 C 
ATOM     67  C   UNL A   1      37.384  30.499  29.718  1.00  0.00     0.029 A 
ATOM     68  C   UNL A   1      38.271  31.241  30.482  1.00  0.00     0.049 A 
ATOM     69  H   UNL A   1      40.323  30.904  30.839  1.00  0.00     0.167 HD
ATOM     70  C   UNL A   1      38.954  33.126  31.943  1.00  0.00     0.074 A 
ATOM     71  C   UNL A   1      38.690  34.346  32.676  1.00  0.00     0.031 C 
ATOM     72  C   UNL A   1      38.020  32.448  31.231  1.00  0.00     0.037 A 
BRANCH  59  73
ATOM     73  C   UNL A   1      40.200  27.394  28.412  1.00  0.00     0.057 A 
ATOM     74  C   UNL A   1      40.634  27.366  27.080  1.00  0.00     0.134 A 
ATOM     75  C   UNL A   1      39.508  26.272  28.887  1.00  0.00     0.134 A 
ATOM     76  F   UNL A   1      41.286  28.414  26.555  1.00  0.00    -0.206 F 
ATOM     77  C   UNL A   1      40.364  26.279  26.246  1.00  0.00     0.040 A 
ATOM     78  C   UNL A   1      39.260  25.166  28.073  1.00  0.00     0.040 A 
ATOM     79  F   UNL A   1      39.064  26.231  30.152  1.00  0.00    -0.206 F 
ATOM     80  C   UNL A   1      39.681  25.172  26.745  1.00  0.00     0.006 A 
ENDBRANCH  59  73
BRANCH  60  81
ATOM     81  C   UNL A   1      42.490  35.113  34.331  1.00  0.00     0.057 A 
ATOM     82  C   UNL A   1      43.028  36.287  33.788  1.00  0.00     0.134 A 
ATOM     83  C   UNL A   1      42.304  35.073  35.718  1.00  0.00     0.134 A 
ATOM     84  F   UNL A   1      43.251  36.379  32.469  1.00  0.00    -0.206 F 
ATOM     85  C   UNL A   1      43.390  37.367  34.593  1.00  0.00     0.040 A 
ATOM     86  C   UNL A   1      42.636  36.157  36.533  1.00  0.00     0.040 A 
ATOM     87  F   UNL A   1      41.793  33.980  36.302  1.00  0.00    -0.206 F 
ATOM     88  C   UNL A   1      43.190  37.306  35.971  1.00  0.00     0.006 A 
ENDBRANCH  60  81
BRANCH  72  89
ATOM     89  C   UNL A   1      36.609  32.967  31.264  1.00  0.00     0.057 A 
ATOM     90  C   UNL A   1      36.090  33.796  30.262  1.00  0.00     0.134 A 
ATOM     91  C   UNL A   1      35.746  32.595  32.306  1.00  0.00     0.134 A 
ATOM     92  F   UNL A   1      36.862  34.196  29.242  1.00  0.00    -0.206 F 
ATOM     93  C   UNL A   1      34.775  34.264  30.313  1.00  0.00     0.040 A 
ATOM     94  C   UNL A   1      34.420  33.029  32.348  1.00  0.00     0.040 A 
ATOM     95  F   UNL A   1      36.173  31.792  33.291  1.00  0.00    -0.206 F 
ATOM     96  C   UNL A   1      33.935  33.875  31.354  1.00  0.00     0.006 A 
ENDBRANCH  72  89
ENDBRANCH  46  47
ENDBRANCH  39  41
ENDBRANCH  38  39
ENDBRANCH  37  38
ENDBRANCH  36  37
ENDBRANCH  35  36
ENDBRANCH  34  35
ENDBRANCH  33  34
ENDBRANCH   1  33
TORSDOF 24
ENDMDL
MODEL 3
REMARK VINA RESULT:      -8.4      6.336     11.670
REMARK SMILES CC(=O)Nc1ccc(/C(=C\c2ccc(S(C)(=O)=O)cc2)C(=O)OCCOCCOCCOCCOC(=O)c2ccc(-c3c4nc(c(-c5c(F)cccc5F)c5ccc([nH]5)c(-c5c(F)cccc5F)c5nc(c(-c6c(F)cccc6F)c6ccc3[nH]6)C=C5)C=C4)cc2)cc1
REMARK SMILES IDX 29 1 28 2 27 3 26 4 25 5 24 6 23 7 21 8 22 9 9 10 10 11 8 12
REMARK SMILES IDX 5 13 6 14 93 15 7 16 92 17 4 18 1 19 2 20 3 21 11 23 12 24
REMARK SMILES IDX 20 25 13 26 19 27 14 28 15 29 16 30 17 31 18 32 30 33 31 34
REMARK SMILES IDX 32 35 33 36 34 37 35 38 36 39 37 40 38 41 39 42 91 43 40 44
REMARK SMILES IDX 90 45 41 46 42 47 43 48 84 49 44 50 89 51 83 52 85 53 45 54
REMARK SMILES IDX 88 55 82 56 81 57 46 59 72 60 55 61 71 62 56 63 59 64 70 65
REMARK SMILES IDX 86 66 57 67 58 68 69 70 87 71 60 72 47 73 48 74 53 75 49 76
REMARK SMILES IDX 50 77 52 78 54 79 51 80 73 81 74 82 79 83 75 84 76 85 78 86
REMARK SMILES IDX 80 87 77 88 61 89 62 90 67 91 63 92 64 93 66 94 68 95 65 96
REMARK H PARENT 4 22 85 58 59 69
REMARK Flexibility Score: inf
ROOT
ATOM      1  O   UNL A   1      49.728  28.159  28.833  1.00  0.00    -0.377 OA
ENDROOT
BRANCH   1   2
ATOM      2  C   UNL A   1      49.522  29.225  27.918  1.00  0.00     0.188 C 
BRANCH   2   3
ATOM      3  C   UNL A   1      48.092  29.514  27.423  1.00  0.00     0.188 C 
BRANCH   3   4
ATOM      4  O   UNL A   1      47.369  30.444  28.211  1.00  0.00    -0.376 OA
BRANCH   4   5
ATOM      5  C   UNL A   1      46.259  29.963  28.950  1.00  0.00     0.202 C 
BRANCH   5   6
ATOM      6  C   UNL A   1      44.930  29.775  28.204  1.00  0.00     0.261 C 
BRANCH   6   7
ATOM      7  O   UNL A   1      44.979  28.904  27.063  1.00  0.00    -0.460 OA
BRANCH   7   8
ATOM      8  C   UNL A   1      44.944  27.562  27.274  1.00  0.00     0.338 C 
ATOM      9  O   UNL A   1      44.367  27.011  28.197  1.00  0.00    -0.246 OA
BRANCH   8  10
ATOM     10  C   UNL A   1      45.577  26.845  26.101  1.00  0.00     0.067 C 
ATOM     11  C   UNL A   1      46.462  27.597  25.396  1.00  0.00     0.024 C 
BRANCH  10  12
ATOM     12  C   UNL A   1      45.125  25.455  25.751  1.00  0.00    -0.011 A 
ATOM     13  C   UNL A   1      44.062  22.809  25.533  1.00  0.00     0.041 A 
ATOM     14  C   UNL A   1      43.469  23.883  24.866  1.00  0.00     0.027 A 
ATOM     15  C   UNL A   1      45.254  23.038  26.201  1.00  0.00     0.027 A 
ATOM     16  C   UNL A   1      44.002  25.180  24.964  1.00  0.00     0.011 A 
ATOM     17  C   UNL A   1      45.786  24.334  26.280  1.00  0.00     0.011 A 
BRANCH  13  18
ATOM     18  N   UNL A   1      43.456  21.549  25.406  1.00  0.00    -0.326 N 
ATOM     19  C   UNL A   1      41.414  21.801  26.824  1.00  0.00     0.114 C 
ATOM     20  C   UNL A   1      42.391  20.971  26.035  1.00  0.00     0.221 C 
ATOM     21  O   UNL A   1      42.202  19.761  25.886  1.00  0.00    -0.275 OA
ATOM     22  H   UNL A   1      43.880  20.970  24.732  1.00  0.00     0.169 HD
ENDBRANCH  13  18
ENDBRANCH  10  12
BRANCH  11  23
ATOM     23  C   UNL A   1      47.290  27.195  24.248  1.00  0.00    -0.025 A 
ATOM     24  C   UNL A   1      47.243  28.028  23.122  1.00  0.00     0.009 A 
ATOM     25  C   UNL A   1      48.200  26.130  24.286  1.00  0.00     0.009 A 
ATOM     26  C   UNL A   1      48.198  27.904  22.116  1.00  0.00     0.021 A 
ATOM     27  C   UNL A   1      49.169  26.007  23.284  1.00  0.00     0.021 A 
ATOM     28  C   UNL A   1      49.185  26.923  22.227  1.00  0.00     0.067 A 
BRANCH  28  29
ATOM     29  S   UNL A   1      50.577  27.000  21.124  1.00  0.00     0.175 S 
ATOM     30  C   UNL A   1      50.478  28.613  20.402  1.00  0.00     0.163 C 
ATOM     31  O   UNL A   1      51.766  26.948  21.953  1.00  0.00    -0.224 OA
ATOM     32  O   UNL A   1      50.363  26.021  20.075  1.00  0.00    -0.224 OA
ENDBRANCH  28  29
ENDBRANCH  11  23
ENDBRANCH   8  10
ENDBRANCH   7   8
ENDBRANCH   6   7
ENDBRANCH   5   6
ENDBRANCH   4   5
ENDBRANCH   3   4
ENDBRANCH   2   3
ENDBRANCH   1   2
BRANCH   1  33
ATOM     33  C   UNL A   1      48.755  27.120  28.919  1.00  0.00     0.188 C 
BRANCH  33  34
ATOM     34  C   UNL A   1      47.587  27.192  29.936  1.00  0.00     0.188 C 
BRANCH  34  35
ATOM     35  O   UNL A   1      47.960  27.007  31.291  1.00  0.00    -0.376 OA
BRANCH  35  36
ATOM     36  C   UNL A   1      48.520  25.763  31.668  1.00  0.00     0.202 C 
BRANCH  36  37
ATOM     37  C   UNL A   1      48.504  25.404  33.161  1.00  0.00     0.261 C 
BRANCH  37  38
ATOM     38  O   UNL A   1      47.210  25.198  33.747  1.00  0.00    -0.460 OA
BRANCH  38  39
ATOM     39  C   UNL A   1      46.983  25.761  34.950  1.00  0.00     0.338 C 
ATOM     40  O   UNL A   1      47.651  25.633  35.966  1.00  0.00    -0.246 OA
BRANCH  39  41
ATOM     41  C   UNL A   1      45.882  26.730  34.791  1.00  0.00     0.060 A 
ATOM     42  C   UNL A   1      44.589  26.369  35.199  1.00  0.00     0.016 A 
ATOM     43  C   UNL A   1      46.128  27.992  34.248  1.00  0.00     0.016 A 
ATOM     44  C   UNL A   1      43.529  27.253  35.014  1.00  0.00     0.010 A 
ATOM     45  C   UNL A   1      45.062  28.868  34.040  1.00  0.00     0.010 A 
ATOM     46  C   UNL A   1      43.753  28.481  34.378  1.00  0.00    -0.014 A 
BRANCH  46  47
ATOM     47  C   UNL A   1      42.600  29.234  33.831  1.00  0.00     0.031 A 
ATOM     48  C   UNL A   1      42.062  28.812  32.490  1.00  0.00     0.074 A 
ATOM     49  C   UNL A   1      42.023  30.241  34.508  1.00  0.00     0.049 A 
ATOM     50  N   UNL A   1      41.099  29.333  31.775  1.00  0.00    -0.248 NA
ATOM     51  C   UNL A   1      42.706  27.642  31.870  1.00  0.00     0.031 C 
ATOM     52  C   UNL A   1      42.421  30.710  35.832  1.00  0.00     0.029 A 
ATOM     53  N   UNL A   1      40.976  31.056  34.160  1.00  0.00    -0.354 N 
ATOM     54  C   UNL A   1      41.031  28.562  30.621  1.00  0.00     0.074 A 
ATOM     55  C   UNL A   1      42.073  27.564  30.712  1.00  0.00     0.031 C 
ATOM     56  C   UNL A   1      41.633  31.743  36.181  1.00  0.00     0.029 A 
ATOM     57  C   UNL A   1      40.698  32.024  35.092  1.00  0.00     0.049 A 
ATOM     58  H   UNL A   1      40.470  30.955  33.320  1.00  0.00     0.167 HD
ATOM     59  C   UNL A   1      40.171  28.669  29.581  1.00  0.00     0.037 A 
ATOM     60  C   UNL A   1      39.806  33.033  35.055  1.00  0.00     0.037 A 
ATOM     61  C   UNL A   1      39.139  29.668  29.492  1.00  0.00     0.049 A 
ATOM     62  C   UNL A   1      38.907  33.180  33.852  1.00  0.00     0.074 A 
ATOM     63  C   UNL A   1      38.210  29.861  28.486  1.00  0.00     0.029 A 
ATOM     64  N   UNL A   1      38.907  30.647  30.447  1.00  0.00    -0.354 N 
ATOM     65  N   UNL A   1      38.837  32.439  32.772  1.00  0.00    -0.248 NA
ATOM     66  C   UNL A   1      37.955  34.300  33.871  1.00  0.00     0.031 C 
ATOM     67  C   UNL A   1      37.454  30.994  28.802  1.00  0.00     0.029 A 
ATOM     68  C   UNL A   1      37.863  31.462  30.041  1.00  0.00     0.049 A 
ATOM     69  H   UNL A   1      39.409  30.750  31.287  1.00  0.00     0.167 HD
ATOM     70  C   UNL A   1      37.808  32.975  32.005  1.00  0.00     0.074 A 
ATOM     71  C   UNL A   1      37.280  34.100  32.748  1.00  0.00     0.031 C 
ATOM     72  C   UNL A   1      37.337  32.569  30.800  1.00  0.00     0.037 A 
BRANCH  59  73
ATOM     73  C   UNL A   1      40.340  27.703  28.445  1.00  0.00     0.057 A 
ATOM     74  C   UNL A   1      39.779  26.419  28.468  1.00  0.00     0.134 A 
ATOM     75  C   UNL A   1      41.069  28.067  27.306  1.00  0.00     0.134 A 
ATOM     76  F   UNL A   1      39.084  25.999  29.536  1.00  0.00    -0.206 F 
ATOM     77  C   UNL A   1      39.961  25.523  27.412  1.00  0.00     0.040 A 
ATOM     78  C   UNL A   1      41.231  27.192  26.230  1.00  0.00     0.040 A 
ATOM     79  F   UNL A   1      41.634  29.281  27.217  1.00  0.00    -0.206 F 
ATOM     80  C   UNL A   1      40.683  25.913  26.286  1.00  0.00     0.006 A 
ENDBRANCH  59  73
BRANCH  60  81
ATOM     81  C   UNL A   1      39.716  33.993  36.186  1.00  0.00     0.057 A 
ATOM     82  C   UNL A   1      38.929  33.718  37.312  1.00  0.00     0.134 A 
ATOM     83  C   UNL A   1      40.387  35.220  36.155  1.00  0.00     0.134 A 
ATOM     84  F   UNL A   1      38.242  32.569  37.391  1.00  0.00    -0.206 F 
ATOM     85  C   UNL A   1      38.796  34.638  38.353  1.00  0.00     0.040 A 
ATOM     86  C   UNL A   1      40.285  36.138  37.202  1.00  0.00     0.040 A 
ATOM     87  F   UNL A   1      41.157  35.546  35.106  1.00  0.00    -0.206 F 
ATOM     88  C   UNL A   1      39.480  35.851  38.302  1.00  0.00     0.006 A 
ENDBRANCH  60  81
BRANCH  72  89
ATOM     89  C   UNL A   1      36.147  33.297  30.238  1.00  0.00     0.057 A 
ATOM     90  C   UNL A   1      34.863  33.170  30.782  1.00  0.00     0.134 A 
ATOM     91  C   UNL A   1      36.304  34.171  29.152  1.00  0.00     0.134 A 
ATOM     92  F   UNL A   1      34.641  32.345  31.817  1.00  0.00    -0.206 F 
ATOM     93  C   UNL A   1      33.772  33.857  30.246  1.00  0.00     0.040 A 
ATOM     94  C   UNL A   1      35.227  34.889  28.629  1.00  0.00     0.040 A 
ATOM     95  F   UNL A   1      37.508  34.351  28.590  1.00  0.00    -0.206 F 
ATOM     96  C   UNL A   1      33.955  34.725  29.171  1.00  0.00     0.006 A 
ENDBRANCH  72  89
ENDBRANCH  46  47
ENDBRANCH  39  41
ENDBRANCH  38  39
ENDBRANCH  37  38
ENDBRANCH  36  37
ENDBRANCH  35  36
ENDBRANCH  34  35
ENDBRANCH  33  34
ENDBRANCH   1  33
TORSDOF 24
ENDMDL
