MODEL 1
REMARK VINA RESULT:      -9.1      0.000      0.000
REMARK SMILES Cc1ccc(Cl)c(Nc2ccccc2C(=O)N[C@@H](C)C(=O)OCCOCCOCCOCCOC(=O)c2ccc(-c3c4nc(c(-c5c(F)cccc5F)c5ccc([nH]5)c(-c5c(F)cccc5F)c5nc(c(-c6c(F)cccc6F)c6ccc3[nH]6)C=C5)C=C4)cc2)c1Cl
REMARK SMILES IDX 27 1 26 2 25 3 24 4 23 5 22 6 20 7 21 8 18 9 19 10 17 11
REMARK SMILES IDX 15 12 16 13 14 15 9 16 10 17 11 18 13 19 12 20 8 21 7 23
REMARK SMILES IDX 1 24 2 25 3 26 91 27 4 28 92 29 5 30 6 31 28 32 29 33 30 34
REMARK SMILES IDX 31 35 32 36 33 37 34 38 35 39 36 40 37 41 38 42 90 43 39 44
REMARK SMILES IDX 89 45 40 46 41 47 42 48 83 49 43 50 88 51 82 52 84 53 44 54
REMARK SMILES IDX 87 55 81 56 80 57 45 59 71 60 54 61 70 62 55 63 58 64 69 65
REMARK SMILES IDX 85 66 56 67 57 68 68 70 86 71 59 72 46 73 47 74 52 75 48 76
REMARK SMILES IDX 49 77 51 78 53 79 50 80 72 81 73 82 78 83 74 84 75 85 77 86
REMARK SMILES IDX 79 87 76 88 60 89 61 90 66 91 62 92 63 93 65 94 67 95 64 96
REMARK H PARENT 17 14 8 22 84 58 58 69
REMARK Flexibility Score: inf
ROOT
ATOM      1  C   UNL A   1      38.832  31.269  29.837  1.00  0.00     0.188 C 
ENDROOT
BRANCH   1   2
ATOM      2  C   UNL A   1      37.392  31.918  29.750  1.00  0.00     0.188 C 
BRANCH   2   3
ATOM      3  O   UNL A   1      37.063  32.953  28.785  1.00  0.00    -0.376 OA
BRANCH   3   4
ATOM      4  C   UNL A   1      35.807  33.660  28.743  1.00  0.00     0.202 C 
BRANCH   4   5
ATOM      5  C   UNL A   1      34.398  32.830  28.988  1.00  0.00     0.261 C 
BRANCH   5   6
ATOM      6  O   UNL A   1      33.707  32.143  27.845  1.00  0.00    -0.462 OA
BRANCH   6   7
ATOM      7  C   UNL A   1      34.049  30.835  27.511  1.00  0.00     0.328 C 
ATOM      8  O   UNL A   1      34.938  30.233  28.116  1.00  0.00    -0.250 OA
BRANCH   7   9
ATOM      9  C   UNL A   1      33.044  30.047  26.484  1.00  0.00     0.189 C 
ATOM     10  C   UNL A   1      32.064  29.129  27.218  1.00  0.00     0.043 C 
BRANCH   9  11
ATOM     11  N   UNL A   1      33.486  29.341  25.267  1.00  0.00    -0.339 N 
ATOM     12  C   UNL A   1      33.023  28.294  24.477  1.00  0.00     0.254 C 
ATOM     13  O   UNL A   1      33.883  27.969  23.638  1.00  0.00    -0.269 OA
ATOM     14  H   UNL A   1      34.333  29.709  24.921  1.00  0.00     0.164 HD
BRANCH  12  15
ATOM     15  C   UNL A   1      31.673  27.530  24.393  1.00  0.00     0.063 A 
ATOM     16  C   UNL A   1      31.133  26.354  24.987  1.00  0.00     0.051 A 
ATOM     17  C   UNL A   1      29.795  25.940  24.669  1.00  0.00     0.027 A 
ATOM     18  C   UNL A   1      28.955  26.660  23.830  1.00  0.00     0.002 A 
ATOM     19  C   UNL A   1      30.772  28.199  23.496  1.00  0.00     0.016 A 
ATOM     20  C   UNL A   1      29.453  27.794  23.229  1.00  0.00     0.001 A 
BRANCH  16  21
ATOM     21  N   UNL A   1      31.698  25.562  26.019  1.00  0.00    -0.352 N 
ATOM     22  H   UNL A   1      31.701  25.929  26.932  1.00  0.00     0.167 HD
BRANCH  21  23
ATOM     23  C   UNL A   1      32.271  24.253  25.817  1.00  0.00     0.077 A 
ATOM     24  C   UNL A   1      33.392  24.557  22.753  1.00  0.00     0.046 C 
ATOM     25  C   UNL A   1      33.170  23.565  23.838  1.00  0.00    -0.030 A 
ATOM     26  C   UNL A   1      32.382  22.422  23.777  1.00  0.00     0.006 A 
ATOM     27  C   UNL A   1      33.411  24.119  25.066  1.00  0.00     0.069 A 
ATOM     28  C   UNL A   1      31.583  22.128  24.873  1.00  0.00     0.023 A 
ATOM     29  Cl  UNL A   1      34.900  24.952  25.342  1.00  0.00    -0.082 Cl
ATOM     30  C   UNL A   1      31.439  23.122  25.843  1.00  0.00     0.066 A 
ATOM     31  Cl  UNL A   1      30.143  23.019  26.967  1.00  0.00    -0.082 Cl
ENDBRANCH  21  23
ENDBRANCH  16  21
ENDBRANCH  12  15
ENDBRANCH   9  11
ENDBRANCH   7   9
ENDBRANCH   6   7
ENDBRANCH   5   6
ENDBRANCH   4   5
ENDBRANCH   3   4
ENDBRANCH   2   3
ENDBRANCH   1   2
BRANCH   1  32
ATOM     32  O   UNL A   1      39.122  30.162  28.983  1.00  0.00    -0.377 OA
BRANCH  32  33
ATOM     33  C   UNL A   1      38.315  29.017  29.173  1.00  0.00     0.188 C 
BRANCH  33  34
ATOM     34  C   UNL A   1      39.007  27.907  29.956  1.00  0.00     0.188 C 
BRANCH  34  35
ATOM     35  O   UNL A   1      39.837  27.034  29.220  1.00  0.00    -0.376 OA
BRANCH  35  36
ATOM     36  C   UNL A   1      39.324  26.164  28.219  1.00  0.00     0.202 C 
BRANCH  36  37
ATOM     37  C   UNL A   1      40.107  25.720  26.968  1.00  0.00     0.261 C 
BRANCH  37  38
ATOM     38  O   UNL A   1      41.491  26.093  26.862  1.00  0.00    -0.460 OA
BRANCH  38  39
ATOM     39  C   UNL A   1      42.430  25.228  27.303  1.00  0.00     0.338 C 
ATOM     40  O   UNL A   1      42.269  24.095  27.683  1.00  0.00    -0.246 OA
BRANCH  39  41
ATOM     41  C   UNL A   1      43.752  25.828  26.990  1.00  0.00     0.060 A 
ATOM     42  C   UNL A   1      44.535  26.296  28.057  1.00  0.00     0.016 A 
ATOM     43  C   UNL A   1      44.202  25.957  25.675  1.00  0.00     0.016 A 
ATOM     44  C   UNL A   1      45.742  26.933  27.818  1.00  0.00     0.010 A 
ATOM     45  C   UNL A   1      45.381  26.667  25.426  1.00  0.00     0.010 A 
ATOM     46  C   UNL A   1      46.114  27.207  26.500  1.00  0.00    -0.014 A 
BRANCH  46  47
ATOM     47  C   UNL A   1      47.028  28.352  26.299  1.00  0.00     0.031 A 
ATOM     48  C   UNL A   1      46.431  29.731  26.403  1.00  0.00     0.074 A 
ATOM     49  C   UNL A   1      48.353  28.183  26.174  1.00  0.00     0.049 A 
ATOM     50  N   UNL A   1      47.008  30.900  26.308  1.00  0.00    -0.248 NA
ATOM     51  C   UNL A   1      44.981  29.799  26.664  1.00  0.00     0.031 C 
ATOM     52  C   UNL A   1      49.048  26.899  26.161  1.00  0.00     0.029 A 
ATOM     53  N   UNL A   1      49.353  29.113  26.047  1.00  0.00    -0.354 N 
ATOM     54  C   UNL A   1      45.993  31.834  26.488  1.00  0.00     0.074 A 
ATOM     55  C   UNL A   1      44.761  31.102  26.669  1.00  0.00     0.031 C 
ATOM     56  C   UNL A   1      50.366  27.122  26.020  1.00  0.00     0.029 A 
ATOM     57  C   UNL A   1      50.600  28.560  25.902  1.00  0.00     0.049 A 
ATOM     58  H   UNL A   1      49.191  30.084  26.059  1.00  0.00     0.167 HD
ATOM     59  C   UNL A   1      46.082  33.183  26.506  1.00  0.00     0.037 A 
ATOM     60  C   UNL A   1      51.786  29.156  25.678  1.00  0.00     0.037 A 
ATOM     61  C   UNL A   1      47.311  33.903  26.318  1.00  0.00     0.049 A 
ATOM     62  C   UNL A   1      51.845  30.661  25.604  1.00  0.00     0.074 A 
ATOM     63  C   UNL A   1      47.516  35.271  26.299  1.00  0.00     0.029 A 
ATOM     64  N   UNL A   1      48.547  33.308  26.110  1.00  0.00    -0.354 N 
ATOM     65  N   UNL A   1      50.882  31.539  25.760  1.00  0.00    -0.248 NA
ATOM     66  C   UNL A   1      53.159  31.258  25.333  1.00  0.00     0.031 C 
ATOM     67  C   UNL A   1      48.867  35.503  26.019  1.00  0.00     0.029 A 
ATOM     68  C   UNL A   1      49.516  34.280  25.938  1.00  0.00     0.049 A 
ATOM     69  H   UNL A   1      48.710  32.337  26.088  1.00  0.00     0.167 HD
ATOM     70  C   UNL A   1      51.480  32.789  25.645  1.00  0.00     0.074 A 
ATOM     71  C   UNL A   1      52.891  32.553  25.418  1.00  0.00     0.031 C 
ATOM     72  C   UNL A   1      50.918  34.021  25.724  1.00  0.00     0.037 A 
BRANCH  59  73
ATOM     73  C   UNL A   1      44.807  33.958  26.682  1.00  0.00     0.057 A 
ATOM     74  C   UNL A   1      44.008  34.342  25.597  1.00  0.00     0.134 A 
ATOM     75  C   UNL A   1      44.372  34.321  27.963  1.00  0.00     0.134 A 
ATOM     76  F   UNL A   1      44.379  34.049  24.341  1.00  0.00    -0.206 F 
ATOM     77  C   UNL A   1      42.836  35.079  25.778  1.00  0.00     0.040 A 
ATOM     78  C   UNL A   1      43.186  35.030  28.159  1.00  0.00     0.040 A 
ATOM     79  F   UNL A   1      45.090  33.989  29.047  1.00  0.00    -0.206 F 
ATOM     80  C   UNL A   1      42.418  35.419  27.063  1.00  0.00     0.006 A 
ENDBRANCH  59  73
BRANCH  60  81
ATOM     81  C   UNL A   1      53.009  28.336  25.482  1.00  0.00     0.057 A 
ATOM     82  C   UNL A   1      53.373  27.852  24.219  1.00  0.00     0.134 A 
ATOM     83  C   UNL A   1      53.830  27.989  26.563  1.00  0.00     0.134 A 
ATOM     84  F   UNL A   1      52.617  28.129  23.147  1.00  0.00    -0.206 F 
ATOM     85  C   UNL A   1      54.492  27.036  24.042  1.00  0.00     0.040 A 
ATOM     86  C   UNL A   1      54.969  27.200  26.396  1.00  0.00     0.040 A 
ATOM     87  F   UNL A   1      53.540  28.419  27.800  1.00  0.00    -0.206 F 
ATOM     88  C   UNL A   1      55.297  26.713  25.132  1.00  0.00     0.006 A 
ENDBRANCH  60  81
BRANCH  72  89
ATOM     89  C   UNL A   1      51.838  35.205  25.627  1.00  0.00     0.057 A 
ATOM     90  C   UNL A   1      52.315  35.879  26.759  1.00  0.00     0.134 A 
ATOM     91  C   UNL A   1      52.275  35.660  24.375  1.00  0.00     0.134 A 
ATOM     92  F   UNL A   1      51.931  35.501  27.989  1.00  0.00    -0.206 F 
ATOM     93  C   UNL A   1      53.159  36.985  26.648  1.00  0.00     0.040 A 
ATOM     94  C   UNL A   1      53.147  36.741  24.253  1.00  0.00     0.040 A 
ATOM     95  F   UNL A   1      51.871  35.051  23.250  1.00  0.00    -0.206 F 
ATOM     96  C   UNL A   1      53.581  37.416  25.392  1.00  0.00     0.006 A 
ENDBRANCH  72  89
ENDBRANCH  46  47
ENDBRANCH  39  41
ENDBRANCH  38  39
ENDBRANCH  37  38
ENDBRANCH  36  37
ENDBRANCH  35  36
ENDBRANCH  34  35
ENDBRANCH  33  34
ENDBRANCH  32  33
ENDBRANCH   1  32
TORSDOF 24
ENDMDL
MODEL 2
REMARK VINA RESULT:      -9.0      6.376     11.464
REMARK SMILES Cc1ccc(Cl)c(Nc2ccccc2C(=O)N[C@@H](C)C(=O)OCCOCCOCCOCCOC(=O)c2ccc(-c3c4nc(c(-c5c(F)cccc5F)c5ccc([nH]5)c(-c5c(F)cccc5F)c5nc(c(-c6c(F)cccc6F)c6ccc3[nH]6)C=C5)C=C4)cc2)c1Cl
REMARK SMILES IDX 27 1 26 2 25 3 24 4 23 5 22 6 20 7 21 8 18 9 19 10 17 11
REMARK SMILES IDX 15 12 16 13 14 15 9 16 10 17 11 18 13 19 12 20 8 21 7 23
REMARK SMILES IDX 1 24 2 25 3 26 91 27 4 28 92 29 5 30 6 31 28 32 29 33 30 34
REMARK SMILES IDX 31 35 32 36 33 37 34 38 35 39 36 40 37 41 38 42 90 43 39 44
REMARK SMILES IDX 89 45 40 46 41 47 42 48 83 49 43 50 88 51 82 52 84 53 44 54
REMARK SMILES IDX 87 55 81 56 80 57 45 59 71 60 54 61 70 62 55 63 58 64 69 65
REMARK SMILES IDX 85 66 56 67 57 68 68 70 86 71 59 72 46 73 47 74 52 75 48 76
REMARK SMILES IDX 49 77 51 78 53 79 50 80 72 81 73 82 78 83 74 84 75 85 77 86
REMARK SMILES IDX 79 87 76 88 60 89 61 90 66 91 62 92 63 93 65 94 67 95 64 96
REMARK H PARENT 17 14 8 22 84 58 58 69
REMARK Flexibility Score: inf
ROOT
ATOM      1  C   UNL A   1      39.347  27.211  28.115  1.00  0.00     0.188 C 
ENDROOT
BRANCH   1   2
ATOM      2  C   UNL A   1      39.413  28.777  28.333  1.00  0.00     0.188 C 
BRANCH   2   3
ATOM      3  O   UNL A   1      38.412  29.680  27.792  1.00  0.00    -0.376 OA
BRANCH   3   4
ATOM      4  C   UNL A   1      37.657  30.626  28.575  1.00  0.00     0.202 C 
BRANCH   4   5
ATOM      5  C   UNL A   1      36.017  30.454  28.696  1.00  0.00     0.261 C 
BRANCH   5   6
ATOM      6  O   UNL A   1      35.177  30.246  27.468  1.00  0.00    -0.462 OA
BRANCH   6   7
ATOM      7  C   UNL A   1      33.915  30.828  27.383  1.00  0.00     0.328 C 
ATOM      8  O   UNL A   1      33.685  31.931  27.880  1.00  0.00    -0.250 OA
BRANCH   7   9
ATOM      9  C   UNL A   1      32.841  30.120  26.367  1.00  0.00     0.189 C 
ATOM     10  C   UNL A   1      31.885  29.173  27.097  1.00  0.00     0.043 C 
BRANCH   9  11
ATOM     11  N   UNL A   1      33.203  29.484  25.087  1.00  0.00    -0.339 N 
ATOM     12  C   UNL A   1      32.694  28.474  24.277  1.00  0.00     0.254 C 
ATOM     13  O   UNL A   1      33.497  28.203  23.364  1.00  0.00    -0.269 OA
ATOM     14  H   UNL A   1      34.021  29.879  24.704  1.00  0.00     0.164 HD
BRANCH  12  15
ATOM     15  C   UNL A   1      31.349  27.700  24.245  1.00  0.00     0.063 A 
ATOM     16  C   UNL A   1      30.847  26.511  24.848  1.00  0.00     0.051 A 
ATOM     17  C   UNL A   1      29.498  26.090  24.587  1.00  0.00     0.027 A 
ATOM     18  C   UNL A   1      28.613  26.815  23.799  1.00  0.00     0.002 A 
ATOM     19  C   UNL A   1      30.401  28.373  23.402  1.00  0.00     0.016 A 
ATOM     20  C   UNL A   1      29.073  27.961  23.191  1.00  0.00     0.001 A 
BRANCH  16  21
ATOM     21  N   UNL A   1      31.466  25.709  25.840  1.00  0.00    -0.352 N 
ATOM     22  H   UNL A   1      31.441  26.028  26.771  1.00  0.00     0.167 HD
BRANCH  21  23
ATOM     23  C   UNL A   1      32.133  24.457  25.574  1.00  0.00     0.077 A 
ATOM     24  C   UNL A   1      33.006  24.897  22.446  1.00  0.00     0.046 C 
ATOM     25  C   UNL A   1      32.945  23.876  23.525  1.00  0.00    -0.030 A 
ATOM     26  C   UNL A   1      32.255  22.671  23.496  1.00  0.00     0.006 A 
ATOM     27  C   UNL A   1      33.224  24.432  24.744  1.00  0.00     0.069 A 
ATOM     28  C   UNL A   1      31.562  22.294  24.638  1.00  0.00     0.023 A 
ATOM     29  Cl  UNL A   1      34.653  25.386  24.933  1.00  0.00    -0.082 Cl
ATOM     30  C   UNL A   1      31.403  23.259  25.635  1.00  0.00     0.066 A 
ATOM     31  Cl  UNL A   1      30.202  23.029  26.843  1.00  0.00    -0.082 Cl
ENDBRANCH  21  23
ENDBRANCH  16  21
ENDBRANCH  12  15
ENDBRANCH   9  11
ENDBRANCH   7   9
ENDBRANCH   6   7
ENDBRANCH   5   6
ENDBRANCH   4   5
ENDBRANCH   3   4
ENDBRANCH   2   3
ENDBRANCH   1   2
BRANCH   1  32
ATOM     32  O   UNL A   1      40.394  26.593  27.367  1.00  0.00    -0.377 OA
BRANCH  32  33
ATOM     33  C   UNL A   1      40.543  25.201  27.561  1.00  0.00     0.188 C 
BRANCH  33  34
ATOM     34  C   UNL A   1      41.695  24.595  26.768  1.00  0.00     0.188 C 
BRANCH  34  35
ATOM     35  O   UNL A   1      42.074  25.267  25.585  1.00  0.00    -0.376 OA
BRANCH  35  36
ATOM     36  C   UNL A   1      43.433  25.393  25.185  1.00  0.00     0.202 C 
BRANCH  36  37
ATOM     37  C   UNL A   1      44.445  26.353  25.839  1.00  0.00     0.261 C 
BRANCH  37  38
ATOM     38  O   UNL A   1      44.068  27.016  27.057  1.00  0.00    -0.460 OA
BRANCH  38  39
ATOM     39  C   UNL A   1      43.650  28.299  26.994  1.00  0.00     0.338 C 
ATOM     40  O   UNL A   1      43.179  28.874  26.044  1.00  0.00    -0.246 OA
BRANCH  39  41
ATOM     41  C   UNL A   1      43.623  28.815  28.386  1.00  0.00     0.060 A 
ATOM     42  C   UNL A   1      43.121  27.976  29.393  1.00  0.00     0.016 A 
ATOM     43  C   UNL A   1      44.055  30.107  28.693  1.00  0.00     0.016 A 
ATOM     44  C   UNL A   1      43.002  28.434  30.696  1.00  0.00     0.010 A 
ATOM     45  C   UNL A   1      43.864  30.597  29.989  1.00  0.00     0.010 A 
ATOM     46  C   UNL A   1      43.279  29.775  30.971  1.00  0.00    -0.014 A 
BRANCH  46  47
ATOM     47  C   UNL A   1      42.599  30.359  32.147  1.00  0.00     0.031 A 
ATOM     48  C   UNL A   1      43.386  30.425  33.430  1.00  0.00     0.074 A 
ATOM     49  C   UNL A   1      41.391  30.936  32.049  1.00  0.00     0.049 A 
ATOM     50  N   UNL A   1      43.048  30.919  34.592  1.00  0.00    -0.248 NA
ATOM     51  C   UNL A   1      44.751  29.869  33.389  1.00  0.00     0.031 C 
ATOM     52  C   UNL A   1      40.585  31.016  30.835  1.00  0.00     0.029 A 
ATOM     53  N   UNL A   1      40.642  31.579  33.000  1.00  0.00    -0.354 N 
ATOM     54  C   UNL A   1      44.151  30.723  35.416  1.00  0.00     0.074 A 
ATOM     55  C   UNL A   1      45.158  30.043  34.635  1.00  0.00     0.031 C 
ATOM     56  C   UNL A   1      39.441  31.664  31.117  1.00  0.00     0.029 A 
ATOM     57  C   UNL A   1      39.425  32.012  32.537  1.00  0.00     0.049 A 
ATOM     58  H   UNL A   1      40.947  31.715  33.926  1.00  0.00     0.167 HD
ATOM     59  C   UNL A   1      44.312  31.085  36.710  1.00  0.00     0.037 A 
ATOM     60  C   UNL A   1      38.412  32.602  33.199  1.00  0.00     0.037 A 
ATOM     61  C   UNL A   1      43.303  31.755  37.481  1.00  0.00     0.049 A 
ATOM     62  C   UNL A   1      38.577  32.908  34.666  1.00  0.00     0.074 A 
ATOM     63  C   UNL A   1      43.350  32.153  38.804  1.00  0.00     0.029 A 
ATOM     64  N   UNL A   1      42.056  32.122  36.994  1.00  0.00    -0.354 N 
ATOM     65  N   UNL A   1      39.615  32.708  35.444  1.00  0.00    -0.248 NA
ATOM     66  C   UNL A   1      37.432  33.530  35.344  1.00  0.00     0.031 C 
ATOM     67  C   UNL A   1      42.109  32.706  39.136  1.00  0.00     0.029 A 
ATOM     68  C   UNL A   1      41.315  32.721  37.998  1.00  0.00     0.049 A 
ATOM     69  H   UNL A   1      41.745  31.978  36.071  1.00  0.00     0.167 HD
ATOM     70  C   UNL A   1      39.262  33.214  36.691  1.00  0.00     0.074 A 
ATOM     71  C   UNL A   1      37.920  33.740  36.559  1.00  0.00     0.031 C 
ATOM     72  C   UNL A   1      39.983  33.248  37.840  1.00  0.00     0.037 A 
BRANCH  59  73
ATOM     73  C   UNL A   1      45.605  30.710  37.376  1.00  0.00     0.057 A 
ATOM     74  C   UNL A   1      45.791  29.475  38.010  1.00  0.00     0.134 A 
ATOM     75  C   UNL A   1      46.683  31.604  37.378  1.00  0.00     0.134 A 
ATOM     76  F   UNL A   1      44.791  28.582  38.067  1.00  0.00    -0.206 F 
ATOM     77  C   UNL A   1      46.994  29.151  38.642  1.00  0.00     0.040 A 
ATOM     78  C   UNL A   1      47.901  31.279  37.979  1.00  0.00     0.040 A 
ATOM     79  F   UNL A   1      46.575  32.806  36.793  1.00  0.00    -0.206 F 
ATOM     80  C   UNL A   1      48.056  30.052  38.621  1.00  0.00     0.006 A 
ENDBRANCH  59  73
BRANCH  60  81
ATOM     81  C   UNL A   1      37.145  32.923  32.493  1.00  0.00     0.057 A 
ATOM     82  C   UNL A   1      36.948  34.157  31.863  1.00  0.00     0.134 A 
ATOM     83  C   UNL A   1      36.084  32.008  32.459  1.00  0.00     0.134 A 
ATOM     84  F   UNL A   1      37.916  35.085  31.880  1.00  0.00    -0.206 F 
ATOM     85  C   UNL A   1      35.738  34.480  31.246  1.00  0.00     0.040 A 
ATOM     86  C   UNL A   1      34.879  32.306  31.818  1.00  0.00     0.040 A 
ATOM     87  F   UNL A   1      36.205  30.807  33.042  1.00  0.00    -0.206 F 
ATOM     88  C   UNL A   1      34.701  33.549  31.218  1.00  0.00     0.006 A 
ENDBRANCH  60  81
BRANCH  72  89
ATOM     89  C   UNL A   1      39.357  33.928  39.025  1.00  0.00     0.057 A 
ATOM     90  C   UNL A   1      39.555  35.287  39.299  1.00  0.00     0.134 A 
ATOM     91  C   UNL A   1      38.520  33.211  39.891  1.00  0.00     0.134 A 
ATOM     92  F   UNL A   1      40.350  36.032  38.515  1.00  0.00    -0.206 F 
ATOM     93  C   UNL A   1      38.975  35.898  40.413  1.00  0.00     0.040 A 
ATOM     94  C   UNL A   1      37.907  33.818  40.986  1.00  0.00     0.040 A 
ATOM     95  F   UNL A   1      38.275  31.908  39.679  1.00  0.00    -0.206 F 
ATOM     96  C   UNL A   1      38.145  35.164  41.257  1.00  0.00     0.006 A 
ENDBRANCH  72  89
ENDBRANCH  46  47
ENDBRANCH  39  41
ENDBRANCH  38  39
ENDBRANCH  37  38
ENDBRANCH  36  37
ENDBRANCH  35  36
ENDBRANCH  34  35
ENDBRANCH  33  34
ENDBRANCH  32  33
ENDBRANCH   1  32
TORSDOF 24
ENDMDL
MODEL 3
REMARK VINA RESULT:      -9.0      5.878     11.548
REMARK SMILES Cc1ccc(Cl)c(Nc2ccccc2C(=O)N[C@@H](C)C(=O)OCCOCCOCCOCCOC(=O)c2ccc(-c3c4nc(c(-c5c(F)cccc5F)c5ccc([nH]5)c(-c5c(F)cccc5F)c5nc(c(-c6c(F)cccc6F)c6ccc3[nH]6)C=C5)C=C4)cc2)c1Cl
REMARK SMILES IDX 27 1 26 2 25 3 24 4 23 5 22 6 20 7 21 8 18 9 19 10 17 11
REMARK SMILES IDX 15 12 16 13 14 15 9 16 10 17 11 18 13 19 12 20 8 21 7 23
REMARK SMILES IDX 1 24 2 25 3 26 91 27 4 28 92 29 5 30 6 31 28 32 29 33 30 34
REMARK SMILES IDX 31 35 32 36 33 37 34 38 35 39 36 40 37 41 38 42 90 43 39 44
REMARK SMILES IDX 89 45 40 46 41 47 42 48 83 49 43 50 88 51 82 52 84 53 44 54
REMARK SMILES IDX 87 55 81 56 80 57 45 59 71 60 54 61 70 62 55 63 58 64 69 65
REMARK SMILES IDX 85 66 56 67 57 68 68 70 86 71 59 72 46 73 47 74 52 75 48 76
REMARK SMILES IDX 49 77 51 78 53 79 50 80 72 81 73 82 78 83 74 84 75 85 77 86
REMARK SMILES IDX 79 87 76 88 60 89 61 90 66 91 62 92 63 93 65 94 67 95 64 96
REMARK H PARENT 17 14 8 22 84 58 58 69
REMARK Flexibility Score: inf
ROOT
ATOM      1  C   UNL A   1      38.805  34.008  31.229  1.00  0.00     0.188 C 
ENDROOT
BRANCH   1   2
ATOM      2  C   UNL A   1      39.276  32.571  31.693  1.00  0.00     0.188 C 
BRANCH   2   3
ATOM      3  O   UNL A   1      38.672  31.352  31.181  1.00  0.00    -0.376 OA
BRANCH   3   4
ATOM      4  C   UNL A   1      39.118  30.652  30.003  1.00  0.00     0.202 C 
BRANCH   4   5
ATOM      5  C   UNL A   1      38.451  29.186  29.628  1.00  0.00     0.261 C 
BRANCH   5   6
ATOM      6  O   UNL A   1      39.049  28.328  28.550  1.00  0.00    -0.462 OA
BRANCH   6   7
ATOM      7  C   UNL A   1      40.181  27.562  28.822  1.00  0.00     0.328 C 
ATOM      8  O   UNL A   1      40.675  27.529  29.949  1.00  0.00    -0.250 OA
BRANCH   7   9
ATOM      9  C   UNL A   1      40.653  26.504  27.662  1.00  0.00     0.189 C 
ATOM     10  C   UNL A   1      40.924  27.191  26.322  1.00  0.00     0.043 C 
BRANCH   9  11
ATOM     11  N   UNL A   1      39.974  25.226  27.377  1.00  0.00    -0.339 N 
ATOM     12  C   UNL A   1      40.306  24.011  26.786  1.00  0.00     0.254 C 
ATOM     13  O   UNL A   1      39.289  23.308  26.638  1.00  0.00    -0.269 OA
ATOM     14  H   UNL A   1      39.038  25.235  27.687  1.00  0.00     0.164 HD
BRANCH  12  15
ATOM     15  C   UNL A   1      41.648  23.358  26.358  1.00  0.00     0.063 A 
ATOM     16  C   UNL A   1      42.942  23.835  26.002  1.00  0.00     0.051 A 
ATOM     17  C   UNL A   1      43.980  22.903  25.660  1.00  0.00     0.027 A 
ATOM     18  C   UNL A   1      43.810  21.526  25.701  1.00  0.00     0.002 A 
ATOM     19  C   UNL A   1      41.524  21.927  26.330  1.00  0.00     0.016 A 
ATOM     20  C   UNL A   1      42.566  21.034  26.027  1.00  0.00     0.001 A 
BRANCH  16  21
ATOM     21  N   UNL A   1      43.431  25.164  26.080  1.00  0.00    -0.352 N 
ATOM     22  H   UNL A   1      43.010  25.844  25.506  1.00  0.00     0.167 HD
BRANCH  21  23
ATOM     23  C   UNL A   1      44.508  25.584  26.944  1.00  0.00     0.077 A 
ATOM     24  C   UNL A   1      47.099  24.634  25.177  1.00  0.00     0.046 C 
ATOM     25  C   UNL A   1      46.706  25.166  26.508  1.00  0.00    -0.030 A 
ATOM     26  C   UNL A   1      46.928  24.570  27.744  1.00  0.00     0.006 A 
ATOM     27  C   UNL A   1      45.673  26.056  26.397  1.00  0.00     0.069 A 
ATOM     28  C   UNL A   1      45.897  24.603  28.673  1.00  0.00     0.023 A 
ATOM     29  Cl  UNL A   1      45.798  27.361  25.269  1.00  0.00    -0.082 Cl
ATOM     30  C   UNL A   1      44.640  25.004  28.216  1.00  0.00     0.066 A 
ATOM     31  Cl  UNL A   1      43.248  24.644  29.158  1.00  0.00    -0.082 Cl
ENDBRANCH  21  23
ENDBRANCH  16  21
ENDBRANCH  12  15
ENDBRANCH   9  11
ENDBRANCH   7   9
ENDBRANCH   6   7
ENDBRANCH   5   6
ENDBRANCH   4   5
ENDBRANCH   3   4
ENDBRANCH   2   3
ENDBRANCH   1   2
BRANCH   1  32
ATOM     32  O   UNL A   1      39.583  34.682  30.240  1.00  0.00    -0.377 OA
BRANCH  32  33
ATOM     33  C   UNL A   1      40.902  34.203  30.070  1.00  0.00     0.188 C 
BRANCH  33  34
ATOM     34  C   UNL A   1      41.824  35.193  29.367  1.00  0.00     0.188 C 
BRANCH  34  35
ATOM     35  O   UNL A   1      42.989  34.662  28.772  1.00  0.00    -0.376 OA
BRANCH  35  36
ATOM     36  C   UNL A   1      43.415  35.039  27.468  1.00  0.00     0.202 C 
BRANCH  36  37
ATOM     37  C   UNL A   1      44.764  34.634  26.843  1.00  0.00     0.261 C 
BRANCH  37  38
ATOM     38  O   UNL A   1      45.196  33.270  26.978  1.00  0.00    -0.460 OA
BRANCH  38  39
ATOM     39  C   UNL A   1      44.388  32.287  26.526  1.00  0.00     0.338 C 
ATOM     40  O   UNL A   1      43.917  32.169  25.422  1.00  0.00    -0.246 OA
BRANCH  39  41
ATOM     41  C   UNL A   1      44.388  31.218  27.557  1.00  0.00     0.060 A 
ATOM     42  C   UNL A   1      44.827  31.546  28.850  1.00  0.00     0.016 A 
ATOM     43  C   UNL A   1      43.995  29.913  27.255  1.00  0.00     0.016 A 
ATOM     44  C   UNL A   1      44.920  30.571  29.830  1.00  0.00     0.010 A 
ATOM     45  C   UNL A   1      44.161  28.913  28.219  1.00  0.00     0.010 A 
ATOM     46  C   UNL A   1      44.683  29.238  29.485  1.00  0.00    -0.014 A 
BRANCH  46  47
ATOM     47  C   UNL A   1      45.345  28.215  30.322  1.00  0.00     0.031 A 
ATOM     48  C   UNL A   1      46.755  27.836  29.954  1.00  0.00     0.074 A 
ATOM     49  C   UNL A   1      44.776  27.747  31.444  1.00  0.00     0.049 A 
ATOM     50  N   UNL A   1      47.574  27.000  30.537  1.00  0.00    -0.248 NA
ATOM     51  C   UNL A   1      47.325  28.505  28.770  1.00  0.00     0.031 C 
ATOM     52  C   UNL A   1      43.457  28.120  31.947  1.00  0.00     0.029 A 
ATOM     53  N   UNL A   1      45.256  26.858  32.371  1.00  0.00    -0.354 N 
ATOM     54  C   UNL A   1      48.744  27.038  29.787  1.00  0.00     0.074 A 
ATOM     55  C   UNL A   1      48.525  27.955  28.692  1.00  0.00     0.031 C 
ATOM     56  C   UNL A   1      43.226  27.453  33.091  1.00  0.00     0.029 A 
ATOM     57  C   UNL A   1      44.366  26.585  33.380  1.00  0.00     0.049 A 
ATOM     58  H   UNL A   1      46.152  26.454  32.318  1.00  0.00     0.167 HD
ATOM     59  C   UNL A   1      49.903  26.373  29.996  1.00  0.00     0.037 A 
ATOM     60  C   UNL A   1      44.463  25.715  34.402  1.00  0.00     0.037 A 
ATOM     61  C   UNL A   1      50.111  25.458  31.084  1.00  0.00     0.049 A 
ATOM     62  C   UNL A   1      45.728  24.911  34.559  1.00  0.00     0.074 A 
ATOM     63  C   UNL A   1      51.237  24.714  31.383  1.00  0.00     0.029 A 
ATOM     64  N   UNL A   1      49.162  25.159  32.052  1.00  0.00    -0.354 N 
ATOM     65  N   UNL A   1      46.826  24.939  33.839  1.00  0.00    -0.248 NA
ATOM     66  C   UNL A   1      45.771  23.959  35.677  1.00  0.00     0.031 C 
ATOM     67  C   UNL A   1      50.949  23.918  32.497  1.00  0.00     0.029 A 
ATOM     68  C   UNL A   1      49.669  24.223  32.936  1.00  0.00     0.049 A 
ATOM     69  H   UNL A   1      48.261  25.554  32.101  1.00  0.00     0.167 HD
ATOM     70  C   UNL A   1      47.701  24.040  34.440  1.00  0.00     0.074 A 
ATOM     71  C   UNL A   1      47.009  23.494  35.589  1.00  0.00     0.031 C 
ATOM     72  C   UNL A   1      48.964  23.701  34.080  1.00  0.00     0.037 A 
BRANCH  59  73
ATOM     73  C   UNL A   1      51.005  26.573  28.995  1.00  0.00     0.057 A 
ATOM     74  C   UNL A   1      51.983  27.565  29.147  1.00  0.00     0.134 A 
ATOM     75  C   UNL A   1      51.088  25.755  27.862  1.00  0.00     0.134 A 
ATOM     76  F   UNL A   1      51.949  28.400  30.197  1.00  0.00    -0.206 F 
ATOM     77  C   UNL A   1      52.990  27.750  28.197  1.00  0.00     0.040 A 
ATOM     78  C   UNL A   1      52.107  25.909  26.922  1.00  0.00     0.040 A 
ATOM     79  F   UNL A   1      50.183  24.787  27.651  1.00  0.00    -0.206 F 
ATOM     80  C   UNL A   1      53.058  26.916  27.083  1.00  0.00     0.006 A 
ENDBRANCH  59  73
BRANCH  60  81
ATOM     81  C   UNL A   1      43.327  25.538  35.343  1.00  0.00     0.057 A 
ATOM     82  C   UNL A   1      42.431  24.470  35.218  1.00  0.00     0.134 A 
ATOM     83  C   UNL A   1      43.092  26.456  36.375  1.00  0.00     0.134 A 
ATOM     84  F   UNL A   1      42.587  23.570  34.236  1.00  0.00    -0.206 F 
ATOM     85  C   UNL A   1      41.331  24.333  36.068  1.00  0.00     0.040 A 
ATOM     86  C   UNL A   1      42.015  26.314  37.252  1.00  0.00     0.040 A 
ATOM     87  F   UNL A   1      43.912  27.503  36.552  1.00  0.00    -0.206 F 
ATOM     88  C   UNL A   1      41.125  25.254  37.092  1.00  0.00     0.006 A 
ENDBRANCH  60  81
BRANCH  72  89
ATOM     89  C   UNL A   1      49.699  22.740  34.971  1.00  0.00     0.057 A 
ATOM     90  C   UNL A   1      49.704  21.358  34.742  1.00  0.00     0.134 A 
ATOM     91  C   UNL A   1      50.439  23.214  36.064  1.00  0.00     0.134 A 
ATOM     92  F   UNL A   1      49.011  20.836  33.718  1.00  0.00    -0.206 F 
ATOM     93  C   UNL A   1      50.382  20.480  35.590  1.00  0.00     0.040 A 
ATOM     94  C   UNL A   1      51.150  22.351  36.896  1.00  0.00     0.040 A 
ATOM     95  F   UNL A   1      50.492  24.528  36.333  1.00  0.00    -0.206 F 
ATOM     96  C   UNL A   1      51.113  20.977  36.667  1.00  0.00     0.006 A 
ENDBRANCH  72  89
ENDBRANCH  46  47
ENDBRANCH  39  41
ENDBRANCH  38  39
ENDBRANCH  37  38
ENDBRANCH  36  37
ENDBRANCH  35  36
ENDBRANCH  34  35
ENDBRANCH  33  34
ENDBRANCH  32  33
ENDBRANCH   1  32
TORSDOF 24
ENDMDL
