MODEL 1
REMARK VINA RESULT:      -9.2      0.000      0.000
REMARK SMILES CC[N@@H+](C)Cc1cc2c(cc1Cl)C=C(C(=O)OCCOCCOCCOCCOC(=O)c1ccc(-c3c4nc(c(-c5c(F)cccc5F)c5ccc([nH]5)c(-c5c(F)cccc5F)c5nc(c(-c6c(F)cccc6F)c6ccc3[nH]6)C=C5)C=C4)cc1)[C@@H](C(F)(F)F)O2
REMARK SMILES IDX 22 1 21 2 20 3 19 4 18 5 17 6 15 7 16 8 14 9 6 10 7 11 11 12
REMARK SMILES IDX 8 13 10 14 12 15 9 16 91 17 13 18 86 19 5 20 3 21 4 22 2 24
REMARK SMILES IDX 1 25 87 26 88 27 89 28 90 29 23 30 24 31 25 32 26 33 27 34
REMARK SMILES IDX 28 35 29 36 30 37 31 38 32 39 33 40 85 41 34 42 84 43 35 44
REMARK SMILES IDX 36 45 37 46 78 47 38 48 83 49 77 50 79 51 39 52 82 53 76 54
REMARK SMILES IDX 75 55 40 57 66 58 49 59 65 60 50 61 53 62 64 63 80 64 51 65
REMARK SMILES IDX 52 66 63 68 81 69 54 70 41 71 42 72 47 73 43 74 44 75 46 76
REMARK SMILES IDX 48 77 45 78 67 79 68 80 73 81 69 82 70 83 72 84 74 85 71 86
REMARK SMILES IDX 55 87 56 88 61 89 57 90 58 91 60 92 62 93 59 94
REMARK H PARENT 3 23 79 56 53 67
REMARK Flexibility Score: inf
ROOT
ATOM      1  C   UNL A   1      32.070  36.432  31.764  1.00  0.00     0.188 C 
ENDROOT
BRANCH   1   2
ATOM      2  C   UNL A   1      33.111  36.089  30.681  1.00  0.00     0.188 C 
BRANCH   2   3
ATOM      3  O   UNL A   1      32.520  35.744  29.431  1.00  0.00    -0.376 OA
BRANCH   3   4
ATOM      4  C   UNL A   1      33.338  35.071  28.482  1.00  0.00     0.202 C 
BRANCH   4   5
ATOM      5  C   UNL A   1      32.813  33.741  27.919  1.00  0.00     0.261 C 
BRANCH   5   6
ATOM      6  O   UNL A   1      33.438  32.567  28.457  1.00  0.00    -0.460 OA
BRANCH   6   7
ATOM      7  C   UNL A   1      34.623  32.197  27.939  1.00  0.00     0.338 C 
ATOM      8  O   UNL A   1      35.680  32.800  28.020  1.00  0.00    -0.246 OA
BRANCH   7   9
ATOM      9  C   UNL A   1      34.468  30.830  27.400  1.00  0.00     0.087 C 
ATOM     10  C   UNL A   1      32.800  26.313  26.105  1.00  0.00     0.029 A 
ATOM     11  C   UNL A   1      34.053  26.944  26.047  1.00  0.00     0.058 A 
ATOM     12  C   UNL A   1      31.660  27.121  26.249  1.00  0.00     0.050 A 
ATOM     13  C   UNL A   1      34.188  28.292  26.360  1.00  0.00     0.128 A 
ATOM     14  C   UNL A   1      31.792  28.489  26.509  1.00  0.00     0.033 A 
ATOM     15  Cl  UNL A   1      30.056  26.486  26.180  1.00  0.00    -0.084 Cl
ATOM     16  C   UNL A   1      33.061  29.056  26.647  1.00  0.00     0.019 A 
ATOM     17  O   UNL A   1      35.465  28.764  26.408  1.00  0.00    -0.475 OA
ATOM     18  C   UNL A   1      33.220  30.404  27.161  1.00  0.00     0.027 C 
ATOM     19  C   UNL A   1      35.707  30.033  27.073  1.00  0.00     0.316 C 
BRANCH  10  20
ATOM     20  C   UNL A   1      32.754  24.798  26.166  1.00  0.00     0.300 C 
BRANCH  20  21
ATOM     21  N   UNL A   1      33.491  24.097  25.087  1.00  0.00    -0.334 N 
ATOM     22  C   UNL A   1      32.589  23.503  24.095  1.00  0.00     0.333 C 
ATOM     23  H   UNL A   1      34.031  24.850  24.662  1.00  0.00     0.348 HD
BRANCH  21  24
ATOM     24  C   UNL A   1      34.485  23.103  25.516  1.00  0.00     0.258 C 
ATOM     25  C   UNL A   1      34.445  22.787  27.008  1.00  0.00     0.071 C 
ENDBRANCH  21  24
ENDBRANCH  20  21
ENDBRANCH  10  20
BRANCH  19  26
ATOM     26  C   UNL A   1      36.579  29.790  28.311  1.00  0.00     0.430 C 
ATOM     27  F   UNL A   1      37.164  28.567  28.271  1.00  0.00    -0.167 F 
ATOM     28  F   UNL A   1      37.580  30.696  28.408  1.00  0.00    -0.167 F 
ATOM     29  F   UNL A   1      35.861  29.857  29.455  1.00  0.00    -0.167 F 
ENDBRANCH  19  26
ENDBRANCH   7   9
ENDBRANCH   6   7
ENDBRANCH   5   6
ENDBRANCH   4   5
ENDBRANCH   3   4
ENDBRANCH   2   3
ENDBRANCH   1   2
BRANCH   1  30
ATOM     30  O   UNL A   1      32.664  36.949  32.944  1.00  0.00    -0.377 OA
BRANCH  30  31
ATOM     31  C   UNL A   1      34.031  36.612  33.187  1.00  0.00     0.188 C 
BRANCH  31  32
ATOM     32  C   UNL A   1      34.451  35.182  33.601  1.00  0.00     0.188 C 
BRANCH  32  33
ATOM     33  O   UNL A   1      35.836  35.057  33.920  1.00  0.00    -0.376 OA
BRANCH  33  34
ATOM     34  C   UNL A   1      36.169  34.222  35.022  1.00  0.00     0.202 C 
BRANCH  34  35
ATOM     35  C   UNL A   1      37.260  33.190  34.712  1.00  0.00     0.261 C 
BRANCH  35  36
ATOM     36  O   UNL A   1      36.778  31.912  34.271  1.00  0.00    -0.460 OA
BRANCH  36  37
ATOM     37  C   UNL A   1      36.487  31.770  32.958  1.00  0.00     0.338 C 
ATOM     38  O   UNL A   1      35.414  31.951  32.417  1.00  0.00    -0.246 OA
BRANCH  37  39
ATOM     39  C   UNL A   1      37.765  31.557  32.243  1.00  0.00     0.060 A 
ATOM     40  C   UNL A   1      38.726  30.682  32.755  1.00  0.00     0.016 A 
ATOM     41  C   UNL A   1      38.008  32.267  31.061  1.00  0.00     0.016 A 
ATOM     42  C   UNL A   1      39.914  30.479  32.053  1.00  0.00     0.010 A 
ATOM     43  C   UNL A   1      39.201  32.069  30.363  1.00  0.00     0.010 A 
ATOM     44  C   UNL A   1      40.144  31.145  30.836  1.00  0.00    -0.014 A 
BRANCH  44  45
ATOM     45  C   UNL A   1      41.249  30.691  29.960  1.00  0.00     0.031 A 
ATOM     46  C   UNL A   1      42.410  31.564  29.601  1.00  0.00     0.074 A 
ATOM     47  C   UNL A   1      41.171  29.435  29.480  1.00  0.00     0.049 A 
ATOM     48  N   UNL A   1      43.493  31.250  28.936  1.00  0.00    -0.248 NA
ATOM     49  C   UNL A   1      42.346  32.967  30.029  1.00  0.00     0.031 C 
ATOM     50  C   UNL A   1      40.060  28.512  29.725  1.00  0.00     0.029 A 
ATOM     51  N   UNL A   1      42.036  28.718  28.699  1.00  0.00    -0.354 N 
ATOM     52  C   UNL A   1      44.258  32.408  28.884  1.00  0.00     0.074 A 
ATOM     53  C   UNL A   1      43.487  33.443  29.544  1.00  0.00     0.031 C 
ATOM     54  C   UNL A   1      40.322  27.343  29.125  1.00  0.00     0.029 A 
ATOM     55  C   UNL A   1      41.607  27.439  28.444  1.00  0.00     0.049 A 
ATOM     56  H   UNL A   1      42.882  29.084  28.352  1.00  0.00     0.167 HD
ATOM     57  C   UNL A   1      45.492  32.579  28.347  1.00  0.00     0.037 A 
ATOM     58  C   UNL A   1      42.190  26.448  27.747  1.00  0.00     0.037 A 
ATOM     59  C   UNL A   1      46.236  31.547  27.663  1.00  0.00     0.049 A 
ATOM     60  C   UNL A   1      43.542  26.678  27.140  1.00  0.00     0.074 A 
ATOM     61  C   UNL A   1      47.514  31.611  27.132  1.00  0.00     0.029 A 
ATOM     62  N   UNL A   1      45.763  30.270  27.396  1.00  0.00    -0.354 N 
ATOM     63  N   UNL A   1      44.301  27.745  27.188  1.00  0.00    -0.248 NA
ATOM     64  C   UNL A   1      44.123  25.556  26.392  1.00  0.00     0.031 C 
ATOM     65  C   UNL A   1      47.793  30.392  26.500  1.00  0.00     0.029 A 
ATOM     66  C   UNL A   1      46.708  29.550  26.680  1.00  0.00     0.049 A 
ATOM     67  H   UNL A   1      44.883  29.927  27.674  1.00  0.00     0.167 HD
ATOM     68  C   UNL A   1      45.457  27.419  26.494  1.00  0.00     0.074 A 
ATOM     69  C   UNL A   1      45.309  26.044  26.061  1.00  0.00     0.031 C 
ATOM     70  C   UNL A   1      46.542  28.189  26.235  1.00  0.00     0.037 A 
BRANCH  57  71
ATOM     71  C   UNL A   1      46.123  33.935  28.479  1.00  0.00     0.057 A 
ATOM     72  C   UNL A   1      45.970  34.903  27.479  1.00  0.00     0.134 A 
ATOM     73  C   UNL A   1      46.932  34.265  29.576  1.00  0.00     0.134 A 
ATOM     74  F   UNL A   1      45.218  34.651  26.396  1.00  0.00    -0.206 F 
ATOM     75  C   UNL A   1      46.599  36.148  27.562  1.00  0.00     0.040 A 
ATOM     76  C   UNL A   1      47.547  35.514  29.681  1.00  0.00     0.040 A 
ATOM     77  F   UNL A   1      47.119  33.385  30.570  1.00  0.00    -0.206 F 
ATOM     78  C   UNL A   1      47.386  36.457  28.669  1.00  0.00     0.006 A 
ENDBRANCH  57  71
BRANCH  58  79
ATOM     79  C   UNL A   1      41.511  25.138  27.617  1.00  0.00     0.057 A 
ATOM     80  C   UNL A   1      40.500  24.932  26.672  1.00  0.00     0.134 A 
ATOM     81  C   UNL A   1      41.870  24.056  28.428  1.00  0.00     0.134 A 
ATOM     82  F   UNL A   1      40.103  25.935  25.874  1.00  0.00    -0.206 F 
ATOM     83  C   UNL A   1      39.867  23.696  26.538  1.00  0.00     0.040 A 
ATOM     84  C   UNL A   1      41.265  22.807  28.287  1.00  0.00     0.040 A 
ATOM     85  F   UNL A   1      42.843  24.191  29.341  1.00  0.00    -0.206 F 
ATOM     86  C   UNL A   1      40.258  22.627  27.342  1.00  0.00     0.006 A 
ENDBRANCH  58  79
BRANCH  70  87
ATOM     87  C   UNL A   1      47.650  27.543  25.453  1.00  0.00     0.057 A 
ATOM     88  C   UNL A   1      47.668  27.598  24.054  1.00  0.00     0.134 A 
ATOM     89  C   UNL A   1      48.718  26.894  26.087  1.00  0.00     0.134 A 
ATOM     90  F   UNL A   1      46.675  28.200  23.382  1.00  0.00    -0.206 F 
ATOM     91  C   UNL A   1      48.713  27.043  23.314  1.00  0.00     0.040 A 
ATOM     92  C   UNL A   1      49.784  26.360  25.359  1.00  0.00     0.040 A 
ATOM     93  F   UNL A   1      48.773  26.821  27.426  1.00  0.00    -0.206 F 
ATOM     94  C   UNL A   1      49.782  26.432  23.968  1.00  0.00     0.006 A 
ENDBRANCH  70  87
ENDBRANCH  44  45
ENDBRANCH  37  39
ENDBRANCH  36  37
ENDBRANCH  35  36
ENDBRANCH  34  35
ENDBRANCH  33  34
ENDBRANCH  32  33
ENDBRANCH  31  32
ENDBRANCH  30  31
ENDBRANCH   1  30
TORSDOF 24
ENDMDL
MODEL 2
REMARK VINA RESULT:      -9.1      5.574     11.025
REMARK SMILES CC[N@@H+](C)Cc1cc2c(cc1Cl)C=C(C(=O)OCCOCCOCCOCCOC(=O)c1ccc(-c3c4nc(c(-c5c(F)cccc5F)c5ccc([nH]5)c(-c5c(F)cccc5F)c5nc(c(-c6c(F)cccc6F)c6ccc3[nH]6)C=C5)C=C4)cc1)[C@@H](C(F)(F)F)O2
REMARK SMILES IDX 22 1 21 2 20 3 19 4 18 5 17 6 15 7 16 8 14 9 6 10 7 11 11 12
REMARK SMILES IDX 8 13 10 14 12 15 9 16 91 17 13 18 86 19 5 20 3 21 4 22 2 24
REMARK SMILES IDX 1 25 87 26 88 27 89 28 90 29 23 30 24 31 25 32 26 33 27 34
REMARK SMILES IDX 28 35 29 36 30 37 31 38 32 39 33 40 85 41 34 42 84 43 35 44
REMARK SMILES IDX 36 45 37 46 78 47 38 48 83 49 77 50 79 51 39 52 82 53 76 54
REMARK SMILES IDX 75 55 40 57 66 58 49 59 65 60 50 61 53 62 64 63 80 64 51 65
REMARK SMILES IDX 52 66 63 68 81 69 54 70 41 71 42 72 47 73 43 74 44 75 46 76
REMARK SMILES IDX 48 77 45 78 67 79 68 80 73 81 69 82 70 83 72 84 74 85 71 86
REMARK SMILES IDX 55 87 56 88 61 89 57 90 58 91 60 92 62 93 59 94
REMARK H PARENT 3 23 79 56 53 67
REMARK Flexibility Score: inf
ROOT
ATOM      1  C   UNL A   1      41.993  21.076  26.512  1.00  0.00     0.188 C 
ENDROOT
BRANCH   1   2
ATOM      2  C   UNL A   1      40.492  21.249  26.809  1.00  0.00     0.188 C 
BRANCH   2   3
ATOM      3  O   UNL A   1      39.776  21.849  25.731  1.00  0.00    -0.376 OA
BRANCH   3   4
ATOM      4  C   UNL A   1      38.441  22.267  25.983  1.00  0.00     0.202 C 
BRANCH   4   5
ATOM      5  C   UNL A   1      37.336  21.655  25.107  1.00  0.00     0.261 C 
BRANCH   5   6
ATOM      6  O   UNL A   1      36.349  22.585  24.640  1.00  0.00    -0.460 OA
BRANCH   6   7
ATOM      7  C   UNL A   1      35.146  22.575  25.243  1.00  0.00     0.338 C 
ATOM      8  O   UNL A   1      34.783  21.834  26.141  1.00  0.00    -0.246 OA
BRANCH   7   9
ATOM      9  C   UNL A   1      34.391  23.747  24.754  1.00  0.00     0.087 C 
ATOM     10  C   UNL A   1      32.067  28.131  24.269  1.00  0.00     0.029 A 
ATOM     11  C   UNL A   1      32.147  26.976  23.474  1.00  0.00     0.058 A 
ATOM     12  C   UNL A   1      33.039  28.315  25.265  1.00  0.00     0.050 A 
ATOM     13  C   UNL A   1      33.006  25.937  23.812  1.00  0.00     0.128 A 
ATOM     14  C   UNL A   1      33.942  27.292  25.569  1.00  0.00     0.033 A 
ATOM     15  Cl  UNL A   1      33.145  29.761  26.205  1.00  0.00    -0.084 Cl
ATOM     16  C   UNL A   1      33.868  26.070  24.896  1.00  0.00     0.019 A 
ATOM     17  O   UNL A   1      32.900  24.810  23.054  1.00  0.00    -0.475 OA
ATOM     18  C   UNL A   1      34.620  24.919  25.361  1.00  0.00     0.027 C 
ATOM     19  C   UNL A   1      33.484  23.579  23.560  1.00  0.00     0.316 C 
BRANCH  10  20
ATOM     20  C   UNL A   1      30.856  29.033  24.116  1.00  0.00     0.300 C 
BRANCH  20  21
ATOM     21  N   UNL A   1      29.974  28.722  22.965  1.00  0.00    -0.334 N 
ATOM     22  C   UNL A   1      29.816  29.868  22.064  1.00  0.00     0.333 C 
ATOM     23  H   UNL A   1      30.481  27.974  22.493  1.00  0.00     0.348 HD
BRANCH  21  24
ATOM     24  C   UNL A   1      28.658  28.153  23.288  1.00  0.00     0.258 C 
ATOM     25  C   UNL A   1      28.698  26.685  23.700  1.00  0.00     0.071 C 
ENDBRANCH  21  24
ENDBRANCH  20  21
ENDBRANCH  10  20
BRANCH  19  26
ATOM     26  C   UNL A   1      32.362  22.567  23.826  1.00  0.00     0.430 C 
ATOM     27  F   UNL A   1      31.878  22.687  25.087  1.00  0.00    -0.167 F 
ATOM     28  F   UNL A   1      31.314  22.745  22.989  1.00  0.00    -0.167 F 
ATOM     29  F   UNL A   1      32.787  21.292  23.677  1.00  0.00    -0.167 F 
ENDBRANCH  19  26
ENDBRANCH   7   9
ENDBRANCH   6   7
ENDBRANCH   5   6
ENDBRANCH   4   5
ENDBRANCH   3   4
ENDBRANCH   2   3
ENDBRANCH   1   2
BRANCH   1  30
ATOM     30  O   UNL A   1      42.434  19.741  26.702  1.00  0.00    -0.377 OA
BRANCH  30  31
ATOM     31  C   UNL A   1      43.204  19.155  25.651  1.00  0.00     0.188 C 
BRANCH  31  32
ATOM     32  C   UNL A   1      44.414  19.888  25.027  1.00  0.00     0.188 C 
BRANCH  32  33
ATOM     33  O   UNL A   1      44.064  21.063  24.296  1.00  0.00    -0.376 OA
BRANCH  33  34
ATOM     34  C   UNL A   1      45.116  21.969  23.991  1.00  0.00     0.202 C 
BRANCH  34  35
ATOM     35  C   UNL A   1      45.635  22.748  25.206  1.00  0.00     0.261 C 
BRANCH  35  36
ATOM     36  O   UNL A   1      44.619  23.221  26.103  1.00  0.00    -0.460 OA
BRANCH  36  37
ATOM     37  C   UNL A   1      43.968  24.358  25.768  1.00  0.00     0.338 C 
ATOM     38  O   UNL A   1      43.492  24.645  24.687  1.00  0.00    -0.246 OA
BRANCH  37  39
ATOM     39  C   UNL A   1      43.746  25.123  27.015  1.00  0.00     0.060 A 
ATOM     40  C   UNL A   1      44.151  26.456  27.111  1.00  0.00     0.016 A 
ATOM     41  C   UNL A   1      43.149  24.481  28.107  1.00  0.00     0.016 A 
ATOM     42  C   UNL A   1      43.911  27.165  28.288  1.00  0.00     0.010 A 
ATOM     43  C   UNL A   1      42.916  25.190  29.288  1.00  0.00     0.010 A 
ATOM     44  C   UNL A   1      43.263  26.546  29.371  1.00  0.00    -0.014 A 
BRANCH  44  45
ATOM     45  C   UNL A   1      42.742  27.384  30.477  1.00  0.00     0.031 A 
ATOM     46  C   UNL A   1      43.388  27.437  31.825  1.00  0.00     0.074 A 
ATOM     47  C   UNL A   1      41.637  28.109  30.225  1.00  0.00     0.049 A 
ATOM     48  N   UNL A   1      43.097  28.211  32.841  1.00  0.00    -0.248 NA
ATOM     49  C   UNL A   1      44.490  26.500  32.075  1.00  0.00     0.031 C 
ATOM     50  C   UNL A   1      40.896  28.096  28.962  1.00  0.00     0.029 A 
ATOM     51  N   UNL A   1      40.951  29.000  31.007  1.00  0.00    -0.354 N 
ATOM     52  C   UNL A   1      43.994  27.876  33.846  1.00  0.00     0.074 A 
ATOM     53  C   UNL A   1      44.808  26.793  33.330  1.00  0.00     0.031 C 
ATOM     54  C   UNL A   1      39.871  28.956  29.046  1.00  0.00     0.029 A 
ATOM     55  C   UNL A   1      39.875  29.567  30.370  1.00  0.00     0.049 A 
ATOM     56  H   UNL A   1      41.203  29.211  31.934  1.00  0.00     0.167 HD
ATOM     57  C   UNL A   1      44.131  28.436  35.074  1.00  0.00     0.037 A 
ATOM     58  C   UNL A   1      38.994  30.487  30.800  1.00  0.00     0.037 A 
ATOM     59  C   UNL A   1      43.293  29.494  35.588  1.00  0.00     0.049 A 
ATOM     60  C   UNL A   1      39.154  31.064  32.175  1.00  0.00     0.074 A 
ATOM     61  C   UNL A   1      43.386  30.160  36.800  1.00  0.00     0.029 A 
ATOM     62  N   UNL A   1      42.193  30.027  34.930  1.00  0.00    -0.354 N 
ATOM     63  N   UNL A   1      40.071  30.814  33.077  1.00  0.00    -0.248 NA
ATOM     64  C   UNL A   1      38.159  32.064  32.585  1.00  0.00     0.031 C 
ATOM     65  C   UNL A   1      42.315  31.058  36.895  1.00  0.00     0.029 A 
ATOM     66  C   UNL A   1      41.581  30.988  35.723  1.00  0.00     0.049 A 
ATOM     67  H   UNL A   1      41.892  29.761  34.032  1.00  0.00     0.167 HD
ATOM     68  C   UNL A   1      39.776  31.638  34.154  1.00  0.00     0.074 A 
ATOM     69  C   UNL A   1      38.613  32.416  33.778  1.00  0.00     0.031 C 
ATOM     70  C   UNL A   1      40.410  31.741  35.348  1.00  0.00     0.037 A 
BRANCH  57  71
ATOM     71  C   UNL A   1      45.231  27.916  35.954  1.00  0.00     0.057 A 
ATOM     72  C   UNL A   1      44.999  26.879  36.865  1.00  0.00     0.134 A 
ATOM     73  C   UNL A   1      46.513  28.484  35.938  1.00  0.00     0.134 A 
ATOM     74  F   UNL A   1      43.792  26.298  36.942  1.00  0.00    -0.206 F 
ATOM     75  C   UNL A   1      45.998  26.426  37.730  1.00  0.00     0.040 A 
ATOM     76  C   UNL A   1      47.527  28.024  36.780  1.00  0.00     0.040 A 
ATOM     77  F   UNL A   1      46.805  29.479  35.088  1.00  0.00    -0.206 F 
ATOM     78  C   UNL A   1      47.268  26.996  37.685  1.00  0.00     0.006 A 
ENDBRANCH  57  71
BRANCH  58  79
ATOM     79  C   UNL A   1      37.904  30.942  29.906  1.00  0.00     0.057 A 
ATOM     80  C   UNL A   1      37.966  32.180  29.255  1.00  0.00     0.134 A 
ATOM     81  C   UNL A   1      36.781  30.142  29.673  1.00  0.00     0.134 A 
ATOM     82  F   UNL A   1      39.012  32.997  29.449  1.00  0.00    -0.206 F 
ATOM     83  C   UNL A   1      36.947  32.606  28.403  1.00  0.00     0.040 A 
ATOM     84  C   UNL A   1      35.768  30.544  28.803  1.00  0.00     0.040 A 
ATOM     85  F   UNL A   1      36.675  28.940  30.259  1.00  0.00    -0.206 F 
ATOM     86  C   UNL A   1      35.849  31.781  28.168  1.00  0.00     0.006 A 
ENDBRANCH  58  79
BRANCH  70  87
ATOM     87  C   UNL A   1      39.850  32.740  36.320  1.00  0.00     0.057 A 
ATOM     88  C   UNL A   1      40.376  34.034  36.402  1.00  0.00     0.134 A 
ATOM     89  C   UNL A   1      38.766  32.430  37.153  1.00  0.00     0.134 A 
ATOM     90  F   UNL A   1      41.416  34.398  35.636  1.00  0.00    -0.206 F 
ATOM     91  C   UNL A   1      39.838  34.989  37.267  1.00  0.00     0.040 A 
ATOM     92  C   UNL A   1      38.201  33.384  38.002  1.00  0.00     0.040 A 
ATOM     93  F   UNL A   1      38.202  31.213  37.112  1.00  0.00    -0.206 F 
ATOM     94  C   UNL A   1      38.739  34.667  38.061  1.00  0.00     0.006 A 
ENDBRANCH  70  87
ENDBRANCH  44  45
ENDBRANCH  37  39
ENDBRANCH  36  37
ENDBRANCH  35  36
ENDBRANCH  34  35
ENDBRANCH  33  34
ENDBRANCH  32  33
ENDBRANCH  31  32
ENDBRANCH  30  31
ENDBRANCH   1  30
TORSDOF 24
ENDMDL
MODEL 3
REMARK VINA RESULT:      -8.8      4.511      7.433
REMARK SMILES CC[N@@H+](C)Cc1cc2c(cc1Cl)C=C(C(=O)OCCOCCOCCOCCOC(=O)c1ccc(-c3c4nc(c(-c5c(F)cccc5F)c5ccc([nH]5)c(-c5c(F)cccc5F)c5nc(c(-c6c(F)cccc6F)c6ccc3[nH]6)C=C5)C=C4)cc1)[C@@H](C(F)(F)F)O2
REMARK SMILES IDX 22 1 21 2 20 3 19 4 18 5 17 6 15 7 16 8 14 9 6 10 7 11 11 12
REMARK SMILES IDX 8 13 10 14 12 15 9 16 91 17 13 18 86 19 5 20 3 21 4 22 2 24
REMARK SMILES IDX 1 25 87 26 88 27 89 28 90 29 23 30 24 31 25 32 26 33 27 34
REMARK SMILES IDX 28 35 29 36 30 37 31 38 32 39 33 40 85 41 34 42 84 43 35 44
REMARK SMILES IDX 36 45 37 46 78 47 38 48 83 49 77 50 79 51 39 52 82 53 76 54
REMARK SMILES IDX 75 55 40 57 66 58 49 59 65 60 50 61 53 62 64 63 80 64 51 65
REMARK SMILES IDX 52 66 63 68 81 69 54 70 41 71 42 72 47 73 43 74 44 75 46 76
REMARK SMILES IDX 48 77 45 78 67 79 68 80 73 81 69 82 70 83 72 84 74 85 71 86
REMARK SMILES IDX 55 87 56 88 61 89 57 90 58 91 60 92 62 93 59 94
REMARK H PARENT 3 23 79 56 53 67
REMARK Flexibility Score: inf
ROOT
ATOM      1  C   UNL A   1      30.235  31.767  25.153  1.00  0.00     0.188 C 
ENDROOT
BRANCH   1   2
ATOM      2  C   UNL A   1      29.427  32.114  23.889  1.00  0.00     0.188 C 
BRANCH   2   3
ATOM      3  O   UNL A   1      28.167  31.449  23.833  1.00  0.00    -0.376 OA
BRANCH   3   4
ATOM      4  C   UNL A   1      27.785  30.870  22.592  1.00  0.00     0.202 C 
BRANCH   4   5
ATOM      5  C   UNL A   1      27.926  29.345  22.455  1.00  0.00     0.261 C 
BRANCH   5   6
ATOM      6  O   UNL A   1      29.052  28.778  23.140  1.00  0.00    -0.460 OA
BRANCH   6   7
ATOM      7  C   UNL A   1      30.167  28.547  22.424  1.00  0.00     0.338 C 
ATOM      8  O   UNL A   1      30.696  29.303  21.626  1.00  0.00    -0.246 OA
BRANCH   7   9
ATOM      9  C   UNL A   1      30.753  27.279  22.905  1.00  0.00     0.087 C 
ATOM     10  C   UNL A   1      31.979  23.215  25.520  1.00  0.00     0.029 A 
ATOM     11  C   UNL A   1      32.488  23.817  24.358  1.00  0.00     0.058 A 
ATOM     12  C   UNL A   1      30.683  23.565  25.932  1.00  0.00     0.050 A 
ATOM     13  C   UNL A   1      31.836  24.896  23.770  1.00  0.00     0.128 A 
ATOM     14  C   UNL A   1      30.002  24.613  25.305  1.00  0.00     0.033 A 
ATOM     15  Cl  UNL A   1      29.884  22.785  27.250  1.00  0.00    -0.084 Cl
ATOM     16  C   UNL A   1      30.616  25.333  24.278  1.00  0.00     0.019 A 
ATOM     17  O   UNL A   1      32.490  25.491  22.734  1.00  0.00    -0.475 OA
ATOM     18  C   UNL A   1      30.038  26.571  23.789  1.00  0.00     0.027 C 
ATOM     19  C   UNL A   1      32.064  26.816  22.318  1.00  0.00     0.316 C 
BRANCH  10  20
ATOM     20  C   UNL A   1      32.905  22.343  26.348  1.00  0.00     0.300 C 
BRANCH  20  21
ATOM     21  N   UNL A   1      33.770  21.421  25.574  1.00  0.00    -0.334 N 
ATOM     22  C   UNL A   1      33.280  20.040  25.611  1.00  0.00     0.333 C 
ATOM     23  H   UNL A   1      33.698  21.792  24.627  1.00  0.00     0.348 HD
BRANCH  21  24
ATOM     24  C   UNL A   1      35.204  21.451  25.893  1.00  0.00     0.258 C 
ATOM     25  C   UNL A   1      36.115  21.385  24.671  1.00  0.00     0.071 C 
ENDBRANCH  21  24
ENDBRANCH  20  21
ENDBRANCH  10  20
BRANCH  19  26
ATOM     26  C   UNL A   1      33.199  27.812  22.585  1.00  0.00     0.430 C 
ATOM     27  F   UNL A   1      34.252  27.210  23.190  1.00  0.00    -0.167 F 
ATOM     28  F   UNL A   1      33.668  28.360  21.440  1.00  0.00    -0.167 F 
ATOM     29  F   UNL A   1      32.800  28.828  23.385  1.00  0.00    -0.167 F 
ENDBRANCH  19  26
ENDBRANCH   7   9
ENDBRANCH   6   7
ENDBRANCH   5   6
ENDBRANCH   4   5
ENDBRANCH   3   4
ENDBRANCH   2   3
ENDBRANCH   1   2
BRANCH   1  30
ATOM     30  O   UNL A   1      31.028  30.602  24.987  1.00  0.00    -0.377 OA
BRANCH  30  31
ATOM     31  C   UNL A   1      31.506  29.966  26.173  1.00  0.00     0.188 C 
BRANCH  31  32
ATOM     32  C   UNL A   1      33.014  29.715  26.407  1.00  0.00     0.188 C 
BRANCH  32  33
ATOM     33  O   UNL A   1      33.512  30.276  27.621  1.00  0.00    -0.376 OA
BRANCH  33  34
ATOM     34  C   UNL A   1      34.000  31.611  27.560  1.00  0.00     0.202 C 
BRANCH  34  35
ATOM     35  C   UNL A   1      32.901  32.677  27.633  1.00  0.00     0.261 C 
BRANCH  35  36
ATOM     36  O   UNL A   1      33.371  34.034  27.629  1.00  0.00    -0.460 OA
BRANCH  36  37
ATOM     37  C   UNL A   1      33.396  34.692  28.810  1.00  0.00     0.338 C 
ATOM     38  O   UNL A   1      32.533  35.412  29.272  1.00  0.00    -0.246 OA
BRANCH  37  39
ATOM     39  C   UNL A   1      34.582  34.216  29.556  1.00  0.00     0.060 A 
ATOM     40  C   UNL A   1      34.432  33.529  30.763  1.00  0.00     0.016 A 
ATOM     41  C   UNL A   1      35.858  34.490  29.048  1.00  0.00     0.016 A 
ATOM     42  C   UNL A   1      35.563  33.070  31.437  1.00  0.00     0.010 A 
ATOM     43  C   UNL A   1      36.990  34.037  29.729  1.00  0.00     0.010 A 
ATOM     44  C   UNL A   1      36.847  33.292  30.908  1.00  0.00    -0.014 A 
BRANCH  44  45
ATOM     45  C   UNL A   1      37.997  32.541  31.461  1.00  0.00     0.031 A 
ATOM     46  C   UNL A   1      38.580  32.828  32.809  1.00  0.00     0.074 A 
ATOM     47  C   UNL A   1      38.520  31.569  30.690  1.00  0.00     0.049 A 
ATOM     48  N   UNL A   1      39.513  32.173  33.453  1.00  0.00    -0.248 NA
ATOM     49  C   UNL A   1      38.063  34.004  33.522  1.00  0.00     0.031 C 
ATOM     50  C   UNL A   1      38.064  31.235  29.339  1.00  0.00     0.029 A 
ATOM     51  N   UNL A   1      39.536  30.683  30.930  1.00  0.00    -0.354 N 
ATOM     52  C   UNL A   1      39.681  32.838  34.661  1.00  0.00     0.074 A 
ATOM     53  C   UNL A   1      38.786  33.977  34.635  1.00  0.00     0.031 C 
ATOM     54  C   UNL A   1      38.782  30.201  28.877  1.00  0.00     0.029 A 
ATOM     55  C   UNL A   1      39.755  29.812  29.891  1.00  0.00     0.049 A 
ATOM     56  H   UNL A   1      40.059  30.672  31.764  1.00  0.00     0.167 HD
ATOM     57  C   UNL A   1      40.497  32.512  35.694  1.00  0.00     0.037 A 
ATOM     58  C   UNL A   1      40.636  28.804  29.771  1.00  0.00     0.037 A 
ATOM     59  C   UNL A   1      41.408  31.391  35.695  1.00  0.00     0.049 A 
ATOM     60  C   UNL A   1      41.545  28.487  30.921  1.00  0.00     0.074 A 
ATOM     61  C   UNL A   1      42.237  30.951  36.715  1.00  0.00     0.029 A 
ATOM     62  N   UNL A   1      41.628  30.545  34.617  1.00  0.00    -0.354 N 
ATOM     63  N   UNL A   1      41.622  29.058  32.098  1.00  0.00    -0.248 NA
ATOM     64  C   UNL A   1      42.484  27.374  30.726  1.00  0.00     0.031 C 
ATOM     65  C   UNL A   1      42.993  29.873  36.237  1.00  0.00     0.029 A 
ATOM     66  C   UNL A   1      42.601  29.608  34.935  1.00  0.00     0.049 A 
ATOM     67  H   UNL A   1      41.161  30.603  33.753  1.00  0.00     0.167 HD
ATOM     68  C   UNL A   1      42.602  28.363  32.792  1.00  0.00     0.074 A 
ATOM     69  C   UNL A   1      43.069  27.311  31.912  1.00  0.00     0.031 C 
ATOM     70  C   UNL A   1      43.075  28.578  34.044  1.00  0.00     0.037 A 
BRANCH  57  71
ATOM     71  C   UNL A   1      40.442  33.378  36.920  1.00  0.00     0.057 A 
ATOM     72  C   UNL A   1      41.368  34.410  37.116  1.00  0.00     0.134 A 
ATOM     73  C   UNL A   1      39.503  33.153  37.936  1.00  0.00     0.134 A 
ATOM     74  F   UNL A   1      42.301  34.674  36.190  1.00  0.00    -0.206 F 
ATOM     75  C   UNL A   1      41.364  35.185  38.279  1.00  0.00     0.040 A 
ATOM     76  C   UNL A   1      39.475  33.936  39.092  1.00  0.00     0.040 A 
ATOM     77  F   UNL A   1      38.587  32.182  37.812  1.00  0.00    -0.206 F 
ATOM     78  C   UNL A   1      40.412  34.952  39.268  1.00  0.00     0.006 A 
ENDBRANCH  57  71
BRANCH  58  79
ATOM     79  C   UNL A   1      40.674  27.999  28.528  1.00  0.00     0.057 A 
ATOM     80  C   UNL A   1      41.426  28.406  27.420  1.00  0.00     0.134 A 
ATOM     81  C   UNL A   1      39.969  26.796  28.425  1.00  0.00     0.134 A 
ATOM     82  F   UNL A   1      42.115  29.557  27.453  1.00  0.00    -0.206 F 
ATOM     83  C   UNL A   1      41.475  27.645  26.252  1.00  0.00     0.040 A 
ATOM     84  C   UNL A   1      40.029  26.011  27.274  1.00  0.00     0.040 A 
ATOM     85  F   UNL A   1      39.243  26.349  29.461  1.00  0.00    -0.206 F 
ATOM     86  C   UNL A   1      40.782  26.438  26.182  1.00  0.00     0.006 A 
ENDBRANCH  58  79
BRANCH  70  87
ATOM     87  C   UNL A   1      44.148  27.643  34.525  1.00  0.00     0.057 A 
ATOM     88  C   UNL A   1      45.499  28.001  34.450  1.00  0.00     0.134 A 
ATOM     89  C   UNL A   1      43.840  26.399  35.094  1.00  0.00     0.134 A 
ATOM     90  F   UNL A   1      45.865  29.176  33.914  1.00  0.00    -0.206 F 
ATOM     91  C   UNL A   1      46.505  27.164  34.934  1.00  0.00     0.040 A 
ATOM     92  C   UNL A   1      44.835  25.565  35.607  1.00  0.00     0.040 A 
ATOM     93  F   UNL A   1      42.564  26.002  35.213  1.00  0.00    -0.206 F 
ATOM     94  C   UNL A   1      46.173  25.946  35.526  1.00  0.00     0.006 A 
ENDBRANCH  70  87
ENDBRANCH  44  45
ENDBRANCH  37  39
ENDBRANCH  36  37
ENDBRANCH  35  36
ENDBRANCH  34  35
ENDBRANCH  33  34
ENDBRANCH  32  33
ENDBRANCH  31  32
ENDBRANCH  30  31
ENDBRANCH   1  30
TORSDOF 24
ENDMDL
