MODEL 1
REMARK VINA RESULT:     -10.0      0.000      0.000
REMARK SMILES C[C@@H]1[C@@H](C(=O)OCCOCCOCCOCCOC(=O)c2ccc(-c3c4nc(c(-c5c(F)cccc5F)c5ccc([nH]5)c(-c5c(F)cccc5F)c5nc(c(-c6c(F)cccc6F)c6ccc3[nH]6)C=C5)C=C4)cc2)CCN1c1nc2sccn2c1[N+](=O)[O-]
REMARK SMILES IDX 12 1 11 2 10 3 9 4 8 5 7 6 6 7 4 8 5 9 3 10 1 11 2 12 77 13
REMARK SMILES IDX 75 14 76 15 78 16 79 17 85 18 80 19 84 20 81 21 83 22 82 23
REMARK SMILES IDX 86 24 87 25 88 26 13 27 14 28 15 29 16 30 17 31 18 32 19 33
REMARK SMILES IDX 20 34 21 35 22 36 74 37 23 38 73 39 24 40 25 41 26 42 67 43
REMARK SMILES IDX 27 44 72 45 66 46 68 47 28 48 71 49 65 50 64 51 29 53 55 54
REMARK SMILES IDX 38 55 54 56 39 57 42 58 53 59 69 60 40 61 41 62 52 64 70 65
REMARK SMILES IDX 43 66 30 67 31 68 36 69 32 70 33 71 35 72 37 73 34 74 56 75
REMARK SMILES IDX 57 76 62 77 58 78 59 79 61 80 63 81 60 82 44 83 45 84 50 85
REMARK SMILES IDX 46 86 47 87 49 88 51 89 48 90
REMARK H PARENT 68 52 42 63
REMARK Flexibility Score: inf
ROOT
ATOM      1  O   UNL A   1      33.276  20.448  25.682  1.00  0.00    -0.377 OA
ENDROOT
BRANCH   1   2
ATOM      2  C   UNL A   1      33.115  20.211  24.298  1.00  0.00     0.188 C 
BRANCH   2   3
ATOM      3  C   UNL A   1      32.523  21.414  23.546  1.00  0.00     0.188 C 
BRANCH   3   4
ATOM      4  O   UNL A   1      33.413  22.450  23.178  1.00  0.00    -0.376 OA
BRANCH   4   5
ATOM      5  C   UNL A   1      33.079  23.539  22.331  1.00  0.00     0.202 C 
BRANCH   5   6
ATOM      6  C   UNL A   1      33.213  25.048  22.619  1.00  0.00     0.261 C 
BRANCH   6   7
ATOM      7  O   UNL A   1      33.611  25.443  23.924  1.00  0.00    -0.463 OA
BRANCH   7   8
ATOM      8  C   UNL A   1      33.753  26.776  24.096  1.00  0.00     0.311 C 
ATOM      9  O   UNL A   1      34.051  27.554  23.201  1.00  0.00    -0.252 OA
BRANCH   8  10
ATOM     10  C   UNL A   1      33.398  27.139  25.532  1.00  0.00     0.123 C 
ATOM     11  C   UNL A   1      31.313  27.282  26.989  1.00  0.00     0.032 C 
ATOM     12  C   UNL A   1      31.912  27.471  25.598  1.00  0.00     0.095 C 
ATOM     13  N   UNL A   1      31.890  28.892  25.192  1.00  0.00    -0.346 N 
ATOM     14  C   UNL A   1      34.075  28.418  25.976  1.00  0.00     0.039 C 
ATOM     15  C   UNL A   1      33.237  29.463  25.252  1.00  0.00     0.119 C 
BRANCH  13  16
ATOM     16  C   UNL A   1      30.892  29.295  24.366  1.00  0.00     0.229 A 
ATOM     17  N   UNL A   1      30.430  30.589  24.554  1.00  0.00    -0.173 NA
ATOM     18  C   UNL A   1      30.191  28.675  23.342  1.00  0.00     0.373 A 
ATOM     19  C   UNL A   1      29.469  30.709  23.690  1.00  0.00     0.286 A 
ATOM     20  N   UNL A   1      29.273  29.601  22.924  1.00  0.00    -0.166 N 
ATOM     21  S   UNL A   1      28.370  31.988  23.281  1.00  0.00    -0.078 S 
ATOM     22  C   UNL A   1      28.253  29.723  21.998  1.00  0.00     0.220 A 
ATOM     23  C   UNL A   1      27.672  30.935  22.047  1.00  0.00     0.114 A 
BRANCH  18  24
ATOM     24  N   UNL A   1      30.231  27.394  22.745  1.00  0.00    -0.023 N 
ATOM     25  O   UNL A   1      30.841  27.253  21.683  1.00  0.00    -0.358 OA
ATOM     26  O   UNL A   1      29.667  26.477  23.353  1.00  0.00    -0.358 OA
ENDBRANCH  18  24
ENDBRANCH  13  16
ENDBRANCH   8  10
ENDBRANCH   7   8
ENDBRANCH   6   7
ENDBRANCH   5   6
ENDBRANCH   4   5
ENDBRANCH   3   4
ENDBRANCH   2   3
ENDBRANCH   1   2
BRANCH   1  27
ATOM     27  C   UNL A   1      33.900  21.669  26.059  1.00  0.00     0.188 C 
BRANCH  27  28
ATOM     28  C   UNL A   1      35.441  21.766  26.190  1.00  0.00     0.188 C 
BRANCH  28  29
ATOM     29  O   UNL A   1      36.159  21.665  24.968  1.00  0.00    -0.376 OA
BRANCH  29  30
ATOM     30  C   UNL A   1      37.252  20.768  24.880  1.00  0.00     0.202 C 
BRANCH  30  31
ATOM     31  C   UNL A   1      38.589  21.228  25.483  1.00  0.00     0.261 C 
BRANCH  31  32
ATOM     32  O   UNL A   1      39.216  20.309  26.388  1.00  0.00    -0.460 OA
BRANCH  32  33
ATOM     33  C   UNL A   1      40.530  20.066  26.203  1.00  0.00     0.338 C 
ATOM     34  O   UNL A   1      41.029  19.137  25.590  1.00  0.00    -0.246 OA
BRANCH  33  35
ATOM     35  C   UNL A   1      41.282  21.235  26.703  1.00  0.00     0.060 A 
ATOM     36  C   UNL A   1      41.267  21.511  28.077  1.00  0.00     0.016 A 
ATOM     37  C   UNL A   1      42.008  22.044  25.825  1.00  0.00     0.016 A 
ATOM     38  C   UNL A   1      41.944  22.624  28.572  1.00  0.00     0.010 A 
ATOM     39  C   UNL A   1      42.665  23.174  26.319  1.00  0.00     0.010 A 
ATOM     40  C   UNL A   1      42.603  23.488  27.689  1.00  0.00    -0.014 A 
BRANCH  40  41
ATOM     41  C   UNL A   1      43.030  24.827  28.161  1.00  0.00     0.031 A 
ATOM     42  C   UNL A   1      41.969  25.866  28.397  1.00  0.00     0.074 A 
ATOM     43  C   UNL A   1      44.322  25.111  28.401  1.00  0.00     0.049 A 
ATOM     44  N   UNL A   1      42.092  27.117  28.759  1.00  0.00    -0.248 NA
ATOM     45  C   UNL A   1      40.576  25.431  28.196  1.00  0.00     0.031 C 
ATOM     46  C   UNL A   1      45.437  24.177  28.257  1.00  0.00     0.029 A 
ATOM     47  N   UNL A   1      44.911  26.280  28.812  1.00  0.00    -0.354 N 
ATOM     48  C   UNL A   1      40.798  27.618  28.820  1.00  0.00     0.074 A 
ATOM     49  C   UNL A   1      39.908  26.550  28.427  1.00  0.00     0.031 C 
ATOM     50  C   UNL A   1      46.580  24.815  28.563  1.00  0.00     0.029 A 
ATOM     51  C   UNL A   1      46.280  26.209  28.888  1.00  0.00     0.049 A 
ATOM     52  H   UNL A   1      44.400  27.093  29.032  1.00  0.00     0.167 HD
ATOM     53  C   UNL A   1      40.388  28.857  29.181  1.00  0.00     0.037 A 
ATOM     54  C   UNL A   1      47.186  27.169  29.164  1.00  0.00     0.037 A 
ATOM     55  C   UNL A   1      41.278  29.920  29.566  1.00  0.00     0.049 A 
ATOM     56  C   UNL A   1      46.709  28.565  29.478  1.00  0.00     0.074 A 
ATOM     57  C   UNL A   1      40.961  31.208  29.960  1.00  0.00     0.029 A 
ATOM     58  N   UNL A   1      42.661  29.820  29.596  1.00  0.00    -0.354 N 
ATOM     59  N   UNL A   1      45.484  29.027  29.555  1.00  0.00    -0.248 NA
ATOM     60  C   UNL A   1      47.745  29.575  29.744  1.00  0.00     0.031 C 
ATOM     61  C   UNL A   1      42.155  31.905  30.170  1.00  0.00     0.029 A 
ATOM     62  C   UNL A   1      43.214  31.032  29.972  1.00  0.00     0.049 A 
ATOM     63  H   UNL A   1      43.173  29.007  29.381  1.00  0.00     0.167 HD
ATOM     64  C   UNL A   1      45.601  30.366  29.913  1.00  0.00     0.074 A 
ATOM     65  C   UNL A   1      47.016  30.638  30.049  1.00  0.00     0.031 C 
ATOM     66  C   UNL A   1      44.625  31.286  30.114  1.00  0.00     0.037 A 
BRANCH  53  67
ATOM     67  C   UNL A   1      38.914  29.136  29.140  1.00  0.00     0.057 A 
ATOM     68  C   UNL A   1      38.106  29.039  30.281  1.00  0.00     0.134 A 
ATOM     69  C   UNL A   1      38.298  29.534  27.946  1.00  0.00     0.134 A 
ATOM     70  F   UNL A   1      38.628  28.648  31.453  1.00  0.00    -0.206 F 
ATOM     71  C   UNL A   1      36.736  29.303  30.230  1.00  0.00     0.040 A 
ATOM     72  C   UNL A   1      36.935  29.829  27.889  1.00  0.00     0.040 A 
ATOM     73  F   UNL A   1      39.013  29.648  26.816  1.00  0.00    -0.206 F 
ATOM     74  C   UNL A   1      36.149  29.706  29.032  1.00  0.00     0.006 A 
ENDBRANCH  53  67
BRANCH  54  75
ATOM     75  C   UNL A   1      48.638  26.857  29.139  1.00  0.00     0.057 A 
ATOM     76  C   UNL A   1      49.409  27.073  27.991  1.00  0.00     0.134 A 
ATOM     77  C   UNL A   1      49.283  26.304  30.251  1.00  0.00     0.134 A 
ATOM     78  F   UNL A   1      48.845  27.576  26.883  1.00  0.00    -0.206 F 
ATOM     79  C   UNL A   1      50.762  26.728  27.941  1.00  0.00     0.040 A 
ATOM     80  C   UNL A   1      50.641  25.982  30.226  1.00  0.00     0.040 A 
ATOM     81  F   UNL A   1      48.603  26.071  31.383  1.00  0.00    -0.206 F 
ATOM     82  C   UNL A   1      51.382  26.185  29.064  1.00  0.00     0.006 A 
ENDBRANCH  54  75
BRANCH  66  83
ATOM     83  C   UNL A   1      45.047  32.661  30.551  1.00  0.00     0.057 A 
ATOM     84  C   UNL A   1      45.256  32.984  31.898  1.00  0.00     0.134 A 
ATOM     85  C   UNL A   1      45.292  33.664  29.602  1.00  0.00     0.134 A 
ATOM     86  F   UNL A   1      45.030  32.075  32.859  1.00  0.00    -0.206 F 
ATOM     87  C   UNL A   1      45.666  34.261  32.287  1.00  0.00     0.040 A 
ATOM     88  C   UNL A   1      45.734  34.933  29.977  1.00  0.00     0.040 A 
ATOM     89  F   UNL A   1      45.126  33.420  28.294  1.00  0.00    -0.206 F 
ATOM     90  C   UNL A   1      45.914  35.237  31.325  1.00  0.00     0.006 A 
ENDBRANCH  66  83
ENDBRANCH  40  41
ENDBRANCH  33  35
ENDBRANCH  32  33
ENDBRANCH  31  32
ENDBRANCH  30  31
ENDBRANCH  29  30
ENDBRANCH  28  29
ENDBRANCH  27  28
ENDBRANCH   1  27
TORSDOF 22
ENDMDL
MODEL 2
REMARK VINA RESULT:      -9.8      0.630      6.004
REMARK SMILES C[C@@H]1[C@@H](C(=O)OCCOCCOCCOCCOC(=O)c2ccc(-c3c4nc(c(-c5c(F)cccc5F)c5ccc([nH]5)c(-c5c(F)cccc5F)c5nc(c(-c6c(F)cccc6F)c6ccc3[nH]6)C=C5)C=C4)cc2)CCN1c1nc2sccn2c1[N+](=O)[O-]
REMARK SMILES IDX 12 1 11 2 10 3 9 4 8 5 7 6 6 7 4 8 5 9 3 10 1 11 2 12 77 13
REMARK SMILES IDX 75 14 76 15 78 16 79 17 85 18 80 19 84 20 81 21 83 22 82 23
REMARK SMILES IDX 86 24 87 25 88 26 13 27 14 28 15 29 16 30 17 31 18 32 19 33
REMARK SMILES IDX 20 34 21 35 22 36 74 37 23 38 73 39 24 40 25 41 26 42 67 43
REMARK SMILES IDX 27 44 72 45 66 46 68 47 28 48 71 49 65 50 64 51 29 53 55 54
REMARK SMILES IDX 38 55 54 56 39 57 42 58 53 59 69 60 40 61 41 62 52 64 70 65
REMARK SMILES IDX 43 66 30 67 31 68 36 69 32 70 33 71 35 72 37 73 34 74 56 75
REMARK SMILES IDX 57 76 62 77 58 78 59 79 61 80 63 81 60 82 44 83 45 84 50 85
REMARK SMILES IDX 46 86 47 87 49 88 51 89 48 90
REMARK H PARENT 68 52 42 63
REMARK Flexibility Score: inf
ROOT
ATOM      1  O   UNL A   1      33.459  20.584  26.040  1.00  0.00    -0.377 OA
ENDROOT
BRANCH   1   2
ATOM      2  C   UNL A   1      33.111  20.036  24.785  1.00  0.00     0.188 C 
BRANCH   2   3
ATOM      3  C   UNL A   1      32.530  21.077  23.813  1.00  0.00     0.188 C 
BRANCH   3   4
ATOM      4  O   UNL A   1      33.290  22.247  23.587  1.00  0.00    -0.376 OA
BRANCH   4   5
ATOM      5  C   UNL A   1      33.004  23.216  22.590  1.00  0.00     0.202 C 
BRANCH   5   6
ATOM      6  C   UNL A   1      32.656  24.706  22.782  1.00  0.00     0.261 C 
BRANCH   6   7
ATOM      7  O   UNL A   1      32.730  25.243  24.095  1.00  0.00    -0.463 OA
BRANCH   7   8
ATOM      8  C   UNL A   1      33.410  26.407  24.195  1.00  0.00     0.311 C 
ATOM      9  O   UNL A   1      34.011  26.932  23.267  1.00  0.00    -0.252 OA
BRANCH   8  10
ATOM     10  C   UNL A   1      33.228  26.979  25.595  1.00  0.00     0.123 C 
ATOM     11  C   UNL A   1      31.309  27.560  27.167  1.00  0.00     0.032 C 
ATOM     12  C   UNL A   1      31.804  27.506  25.724  1.00  0.00     0.095 C 
ATOM     13  N   UNL A   1      31.917  28.861  25.144  1.00  0.00    -0.346 N 
ATOM     14  C   UNL A   1      34.089  28.201  25.825  1.00  0.00     0.039 C 
ATOM     15  C   UNL A   1      33.324  29.255  25.036  1.00  0.00     0.119 C 
BRANCH  13  16
ATOM     16  C   UNL A   1      30.908  29.290  24.347  1.00  0.00     0.229 A 
ATOM     17  N   UNL A   1      30.475  30.592  24.559  1.00  0.00    -0.173 NA
ATOM     18  C   UNL A   1      30.170  28.695  23.335  1.00  0.00     0.373 A 
ATOM     19  C   UNL A   1      29.495  30.738  23.720  1.00  0.00     0.286 A 
ATOM     20  N   UNL A   1      29.260  29.642  22.949  1.00  0.00    -0.166 N 
ATOM     21  S   UNL A   1      28.412  32.042  23.351  1.00  0.00    -0.078 S 
ATOM     22  C   UNL A   1      28.220  29.793  22.050  1.00  0.00     0.220 A 
ATOM     23  C   UNL A   1      27.663  31.015  22.125  1.00  0.00     0.114 A 
BRANCH  18  24
ATOM     24  N   UNL A   1      30.170  27.420  22.725  1.00  0.00    -0.023 N 
ATOM     25  O   UNL A   1      30.795  27.265  21.674  1.00  0.00    -0.358 OA
ATOM     26  O   UNL A   1      29.558  26.519  23.312  1.00  0.00    -0.358 OA
ENDBRANCH  18  24
ENDBRANCH  13  16
ENDBRANCH   8  10
ENDBRANCH   7   8
ENDBRANCH   6   7
ENDBRANCH   5   6
ENDBRANCH   4   5
ENDBRANCH   3   4
ENDBRANCH   2   3
ENDBRANCH   1   2
BRANCH   1  27
ATOM     27  C   UNL A   1      34.339  21.702  26.033  1.00  0.00     0.188 C 
BRANCH  27  28
ATOM     28  C   UNL A   1      35.873  21.504  26.120  1.00  0.00     0.188 C 
BRANCH  28  29
ATOM     29  O   UNL A   1      36.507  21.143  24.901  1.00  0.00    -0.376 OA
BRANCH  29  30
ATOM     30  C   UNL A   1      37.560  20.195  24.922  1.00  0.00     0.202 C 
BRANCH  30  31
ATOM     31  C   UNL A   1      38.947  20.696  25.352  1.00  0.00     0.261 C 
BRANCH  31  32
ATOM     32  O   UNL A   1      39.678  19.833  26.235  1.00  0.00    -0.460 OA
BRANCH  32  33
ATOM     33  C   UNL A   1      41.017  19.789  26.081  1.00  0.00     0.338 C 
ATOM     34  O   UNL A   1      41.661  18.951  25.470  1.00  0.00    -0.246 OA
BRANCH  33  35
ATOM     35  C   UNL A   1      41.577  21.048  26.611  1.00  0.00     0.060 A 
ATOM     36  C   UNL A   1      41.492  21.298  27.988  1.00  0.00     0.016 A 
ATOM     37  C   UNL A   1      42.195  21.968  25.760  1.00  0.00     0.016 A 
ATOM     38  C   UNL A   1      41.986  22.491  28.511  1.00  0.00     0.010 A 
ATOM     39  C   UNL A   1      42.667  23.175  26.283  1.00  0.00     0.010 A 
ATOM     40  C   UNL A   1      42.529  23.456  27.654  1.00  0.00    -0.014 A 
BRANCH  40  41
ATOM     41  C   UNL A   1      42.744  24.836  28.152  1.00  0.00     0.031 A 
ATOM     42  C   UNL A   1      44.134  25.229  28.569  1.00  0.00     0.074 A 
ATOM     43  C   UNL A   1      41.741  25.730  28.209  1.00  0.00     0.049 A 
ATOM     44  N   UNL A   1      44.565  26.353  29.082  1.00  0.00    -0.248 NA
ATOM     45  C   UNL A   1      45.182  24.211  28.382  1.00  0.00     0.031 C 
ATOM     46  C   UNL A   1      40.363  25.486  27.789  1.00  0.00     0.029 A 
ATOM     47  N   UNL A   1      41.734  27.027  28.656  1.00  0.00    -0.354 N 
ATOM     48  C   UNL A   1      45.927  26.173  29.285  1.00  0.00     0.074 A 
ATOM     49  C   UNL A   1      46.247  24.825  28.874  1.00  0.00     0.031 C 
ATOM     50  C   UNL A   1      39.639  26.597  28.011  1.00  0.00     0.029 A 
ATOM     51  C   UNL A   1      40.493  27.614  28.621  1.00  0.00     0.049 A 
ATOM     52  H   UNL A   1      42.542  27.493  28.971  1.00  0.00     0.167 HD
ATOM     53  C   UNL A   1      46.834  27.057  29.765  1.00  0.00     0.037 A 
ATOM     54  C   UNL A   1      40.094  28.825  29.056  1.00  0.00     0.037 A 
ATOM     55  C   UNL A   1      46.511  28.397  30.179  1.00  0.00     0.049 A 
ATOM     56  C   UNL A   1      41.106  29.762  29.668  1.00  0.00     0.074 A 
ATOM     57  C   UNL A   1      47.360  29.374  30.668  1.00  0.00     0.029 A 
ATOM     58  N   UNL A   1      45.237  28.943  30.162  1.00  0.00    -0.354 N 
ATOM     59  N   UNL A   1      42.396  29.594  29.837  1.00  0.00    -0.248 NA
ATOM     60  C   UNL A   1      40.605  31.058  30.148  1.00  0.00     0.031 C 
ATOM     61  C   UNL A   1      46.588  30.492  31.004  1.00  0.00     0.029 A 
ATOM     62  C   UNL A   1      45.270  30.234  30.661  1.00  0.00     0.049 A 
ATOM     63  H   UNL A   1      44.428  28.481  29.844  1.00  0.00     0.167 HD
ATOM     64  C   UNL A   1      42.864  30.773  30.407  1.00  0.00     0.074 A 
ATOM     65  C   UNL A   1      41.721  31.652  30.545  1.00  0.00     0.031 C 
ATOM     66  C   UNL A   1      44.126  31.101  30.782  1.00  0.00     0.037 A 
BRANCH  53  67
ATOM     67  C   UNL A   1      48.254  26.588  29.898  1.00  0.00     0.057 A 
ATOM     68  C   UNL A   1      48.701  25.882  31.021  1.00  0.00     0.134 A 
ATOM     69  C   UNL A   1      49.179  26.825  28.873  1.00  0.00     0.134 A 
ATOM     70  F   UNL A   1      47.872  25.635  32.046  1.00  0.00    -0.206 F 
ATOM     71  C   UNL A   1      50.025  25.450  31.132  1.00  0.00     0.040 A 
ATOM     72  C   UNL A   1      50.497  26.373  28.959  1.00  0.00     0.040 A 
ATOM     73  F   UNL A   1      48.817  27.495  27.769  1.00  0.00    -0.206 F 
ATOM     74  C   UNL A   1      50.924  25.689  30.095  1.00  0.00     0.006 A 
ENDBRANCH  53  67
BRANCH  54  75
ATOM     75  C   UNL A   1      38.666  29.225  28.952  1.00  0.00     0.057 A 
ATOM     76  C   UNL A   1      37.800  29.121  30.047  1.00  0.00     0.134 A 
ATOM     77  C   UNL A   1      38.125  29.687  27.747  1.00  0.00     0.134 A 
ATOM     78  F   UNL A   1      38.250  28.660  31.224  1.00  0.00    -0.206 F 
ATOM     79  C   UNL A   1      36.444  29.439  29.941  1.00  0.00     0.040 A 
ATOM     80  C   UNL A   1      36.779  30.037  27.634  1.00  0.00     0.040 A 
ATOM     81  F   UNL A   1      38.900  29.809  26.659  1.00  0.00    -0.206 F 
ATOM     82  C   UNL A   1      35.931  29.904  28.731  1.00  0.00     0.006 A 
ENDBRANCH  54  75
BRANCH  66  83
ATOM     83  C   UNL A   1      44.350  32.483  31.329  1.00  0.00     0.057 A 
ATOM     84  C   UNL A   1      44.653  33.572  30.502  1.00  0.00     0.134 A 
ATOM     85  C   UNL A   1      44.216  32.734  32.702  1.00  0.00     0.134 A 
ATOM     86  F   UNL A   1      44.806  33.402  29.180  1.00  0.00    -0.206 F 
ATOM     87  C   UNL A   1      44.841  34.854  31.024  1.00  0.00     0.040 A 
ATOM     88  C   UNL A   1      44.369  34.017  33.230  1.00  0.00     0.040 A 
ATOM     89  F   UNL A   1      43.914  31.739  33.550  1.00  0.00    -0.206 F 
ATOM     90  C   UNL A   1      44.691  35.080  32.391  1.00  0.00     0.006 A 
ENDBRANCH  66  83
ENDBRANCH  40  41
ENDBRANCH  33  35
ENDBRANCH  32  33
ENDBRANCH  31  32
ENDBRANCH  30  31
ENDBRANCH  29  30
ENDBRANCH  28  29
ENDBRANCH  27  28
ENDBRANCH   1  27
TORSDOF 22
ENDMDL
MODEL 3
REMARK VINA RESULT:      -9.8      4.113      6.049
REMARK SMILES C[C@@H]1[C@@H](C(=O)OCCOCCOCCOCCOC(=O)c2ccc(-c3c4nc(c(-c5c(F)cccc5F)c5ccc([nH]5)c(-c5c(F)cccc5F)c5nc(c(-c6c(F)cccc6F)c6ccc3[nH]6)C=C5)C=C4)cc2)CCN1c1nc2sccn2c1[N+](=O)[O-]
REMARK SMILES IDX 12 1 11 2 10 3 9 4 8 5 7 6 6 7 4 8 5 9 3 10 1 11 2 12 77 13
REMARK SMILES IDX 75 14 76 15 78 16 79 17 85 18 80 19 84 20 81 21 83 22 82 23
REMARK SMILES IDX 86 24 87 25 88 26 13 27 14 28 15 29 16 30 17 31 18 32 19 33
REMARK SMILES IDX 20 34 21 35 22 36 74 37 23 38 73 39 24 40 25 41 26 42 67 43
REMARK SMILES IDX 27 44 72 45 66 46 68 47 28 48 71 49 65 50 64 51 29 53 55 54
REMARK SMILES IDX 38 55 54 56 39 57 42 58 53 59 69 60 40 61 41 62 52 64 70 65
REMARK SMILES IDX 43 66 30 67 31 68 36 69 32 70 33 71 35 72 37 73 34 74 56 75
REMARK SMILES IDX 57 76 62 77 58 78 59 79 61 80 63 81 60 82 44 83 45 84 50 85
REMARK SMILES IDX 46 86 47 87 49 88 51 89 48 90
REMARK H PARENT 68 52 42 63
REMARK Flexibility Score: inf
ROOT
ATOM      1  O   UNL A   1      40.848  21.882  26.178  1.00  0.00    -0.377 OA
ENDROOT
BRANCH   1   2
ATOM      2  C   UNL A   1      40.087  22.330  27.281  1.00  0.00     0.188 C 
BRANCH   2   3
ATOM      3  C   UNL A   1      39.032  23.382  26.898  1.00  0.00     0.188 C 
BRANCH   3   4
ATOM      4  O   UNL A   1      38.360  23.207  25.666  1.00  0.00    -0.376 OA
BRANCH   4   5
ATOM      5  C   UNL A   1      37.375  22.216  25.417  1.00  0.00     0.202 C 
BRANCH   5   6
ATOM      6  C   UNL A   1      36.368  22.146  24.252  1.00  0.00     0.261 C 
BRANCH   6   7
ATOM      7  O   UNL A   1      35.728  23.349  23.851  1.00  0.00    -0.463 OA
BRANCH   7   8
ATOM      8  C   UNL A   1      34.831  23.838  24.737  1.00  0.00     0.311 C 
ATOM      9  O   UNL A   1      34.991  24.869  25.376  1.00  0.00    -0.252 OA
BRANCH   8  10
ATOM     10  C   UNL A   1      33.588  22.958  24.732  1.00  0.00     0.123 C 
ATOM     11  C   UNL A   1      31.386  22.799  23.461  1.00  0.00     0.032 C 
ATOM     12  C   UNL A   1      32.458  23.715  24.046  1.00  0.00     0.095 C 
ATOM     13  N   UNL A   1      31.917  24.539  25.148  1.00  0.00    -0.346 N 
ATOM     14  C   UNL A   1      33.064  22.711  26.130  1.00  0.00     0.039 C 
ATOM     15  C   UNL A   1      32.406  24.050  26.439  1.00  0.00     0.119 C 
BRANCH  13  16
ATOM     16  C   UNL A   1      31.565  25.817  24.863  1.00  0.00     0.229 A 
ATOM     17  N   UNL A   1      30.841  26.004  23.694  1.00  0.00    -0.173 NA
ATOM     18  C   UNL A   1      31.785  27.032  25.495  1.00  0.00     0.373 A 
ATOM     19  C   UNL A   1      30.673  27.289  23.630  1.00  0.00     0.286 A 
ATOM     20  N   UNL A   1      31.209  27.969  24.680  1.00  0.00    -0.166 N 
ATOM     21  S   UNL A   1      29.898  28.346  22.494  1.00  0.00    -0.078 S 
ATOM     22  C   UNL A   1      31.029  29.339  24.620  1.00  0.00     0.220 A 
ATOM     23  C   UNL A   1      30.343  29.710  23.524  1.00  0.00     0.114 A 
BRANCH  18  24
ATOM     24  N   UNL A   1      32.450  27.430  26.677  1.00  0.00    -0.023 N 
ATOM     25  O   UNL A   1      31.821  27.444  27.736  1.00  0.00    -0.358 OA
ATOM     26  O   UNL A   1      33.649  27.716  26.574  1.00  0.00    -0.358 OA
ENDBRANCH  18  24
ENDBRANCH  13  16
ENDBRANCH   8  10
ENDBRANCH   7   8
ENDBRANCH   6   7
ENDBRANCH   5   6
ENDBRANCH   4   5
ENDBRANCH   3   4
ENDBRANCH   2   3
ENDBRANCH   1   2
BRANCH   1  27
ATOM     27  C   UNL A   1      41.181  20.499  26.144  1.00  0.00     0.188 C 
BRANCH  27  28
ATOM     28  C   UNL A   1      42.655  20.042  26.005  1.00  0.00     0.188 C 
BRANCH  28  29
ATOM     29  O   UNL A   1      43.404  20.711  25.000  1.00  0.00    -0.376 OA
BRANCH  29  30
ATOM     30  C   UNL A   1      44.760  21.037  25.249  1.00  0.00     0.202 C 
BRANCH  30  31
ATOM     31  C   UNL A   1      45.049  22.414  25.868  1.00  0.00     0.261 C 
BRANCH  31  32
ATOM     32  O   UNL A   1      43.950  23.334  25.885  1.00  0.00    -0.460 OA
BRANCH  32  33
ATOM     33  C   UNL A   1      44.226  24.625  25.606  1.00  0.00     0.338 C 
ATOM     34  O   UNL A   1      44.820  25.058  24.631  1.00  0.00    -0.246 OA
BRANCH  33  35
ATOM     35  C   UNL A   1      43.508  25.465  26.586  1.00  0.00     0.060 A 
ATOM     36  C   UNL A   1      43.889  26.805  26.733  1.00  0.00     0.016 A 
ATOM     37  C   UNL A   1      42.458  24.938  27.342  1.00  0.00     0.016 A 
ATOM     38  C   UNL A   1      43.248  27.613  27.671  1.00  0.00     0.010 A 
ATOM     39  C   UNL A   1      41.834  25.742  28.301  1.00  0.00     0.010 A 
ATOM     40  C   UNL A   1      42.254  27.071  28.494  1.00  0.00    -0.014 A 
BRANCH  40  41
ATOM     41  C   UNL A   1      41.813  27.818  29.696  1.00  0.00     0.031 A 
ATOM     42  C   UNL A   1      40.597  28.695  29.577  1.00  0.00     0.074 A 
ATOM     43  C   UNL A   1      42.456  27.704  30.872  1.00  0.00     0.049 A 
ATOM     44  N   UNL A   1      40.047  29.483  30.466  1.00  0.00    -0.248 NA
ATOM     45  C   UNL A   1      39.909  28.680  28.276  1.00  0.00     0.031 C 
ATOM     46  C   UNL A   1      43.614  26.852  31.126  1.00  0.00     0.029 A 
ATOM     47  N   UNL A   1      42.220  28.324  32.074  1.00  0.00    -0.354 N 
ATOM     48  C   UNL A   1      38.957  30.061  29.829  1.00  0.00     0.074 A 
ATOM     49  C   UNL A   1      38.941  29.562  28.472  1.00  0.00     0.031 C 
ATOM     50  C   UNL A   1      43.999  27.012  32.405  1.00  0.00     0.029 A 
ATOM     51  C   UNL A   1      43.136  28.004  33.045  1.00  0.00     0.049 A 
ATOM     52  H   UNL A   1      41.466  28.939  32.224  1.00  0.00     0.167 HD
ATOM     53  C   UNL A   1      38.044  30.925  30.332  1.00  0.00     0.037 A 
ATOM     54  C   UNL A   1      43.273  28.480  34.299  1.00  0.00     0.037 A 
ATOM     55  C   UNL A   1      38.067  31.424  31.682  1.00  0.00     0.049 A 
ATOM     56  C   UNL A   1      42.295  29.508  34.810  1.00  0.00     0.074 A 
ATOM     57  C   UNL A   1      37.181  32.294  32.292  1.00  0.00     0.029 A 
ATOM     58  N   UNL A   1      39.031  31.105  32.625  1.00  0.00    -0.354 N 
ATOM     59  N   UNL A   1      41.255  30.034  34.210  1.00  0.00    -0.248 NA
ATOM     60  C   UNL A   1      42.512  30.008  36.176  1.00  0.00     0.031 C 
ATOM     61  C   UNL A   1      37.644  32.548  33.588  1.00  0.00     0.029 A 
ATOM     62  C   UNL A   1      38.780  31.784  33.805  1.00  0.00     0.049 A 
ATOM     63  H   UNL A   1      39.783  30.487  32.478  1.00  0.00     0.167 HD
ATOM     64  C   UNL A   1      40.674  30.896  35.135  1.00  0.00     0.074 A 
ATOM     65  C   UNL A   1      41.473  30.813  36.339  1.00  0.00     0.031 C 
ATOM     66  C   UNL A   1      39.578  31.684  35.001  1.00  0.00     0.037 A 
BRANCH  53  67
ATOM     67  C   UNL A   1      36.967  31.410  29.406  1.00  0.00     0.057 A 
ATOM     68  C   UNL A   1      36.990  32.693  28.846  1.00  0.00     0.134 A 
ATOM     69  C   UNL A   1      35.904  30.569  29.051  1.00  0.00     0.134 A 
ATOM     70  F   UNL A   1      37.970  33.555  29.156  1.00  0.00    -0.206 F 
ATOM     71  C   UNL A   1      35.982  33.132  27.984  1.00  0.00     0.040 A 
ATOM     72  C   UNL A   1      34.906  30.986  28.169  1.00  0.00     0.040 A 
ATOM     73  F   UNL A   1      35.820  29.327  29.551  1.00  0.00    -0.206 F 
ATOM     74  C   UNL A   1      34.940  32.273  27.638  1.00  0.00     0.006 A 
ENDBRANCH  53  67
BRANCH  54  75
ATOM     75  C   UNL A   1      44.388  28.009  35.160  1.00  0.00     0.057 A 
ATOM     76  C   UNL A   1      44.247  26.886  35.985  1.00  0.00     0.134 A 
ATOM     77  C   UNL A   1      45.611  28.690  35.207  1.00  0.00     0.134 A 
ATOM     78  F   UNL A   1      43.092  26.205  36.007  1.00  0.00    -0.206 F 
ATOM     79  C   UNL A   1      45.270  26.473  36.841  1.00  0.00     0.040 A 
ATOM     80  C   UNL A   1      46.653  28.270  36.036  1.00  0.00     0.040 A 
ATOM     81  F   UNL A   1      45.812  29.774  34.443  1.00  0.00    -0.206 F 
ATOM     82  C   UNL A   1      46.480  27.164  36.864  1.00  0.00     0.006 A 
ENDBRANCH  54  75
BRANCH  66  83
ATOM     83  C   UNL A   1      39.145  32.481  36.199  1.00  0.00     0.057 A 
ATOM     84  C   UNL A   1      38.267  31.964  37.161  1.00  0.00     0.134 A 
ATOM     85  C   UNL A   1      39.653  33.769  36.416  1.00  0.00     0.134 A 
ATOM     86  F   UNL A   1      37.736  30.741  37.011  1.00  0.00    -0.206 F 
ATOM     87  C   UNL A   1      37.889  32.711  38.279  1.00  0.00     0.040 A 
ATOM     88  C   UNL A   1      39.307  34.512  37.546  1.00  0.00     0.040 A 
ATOM     89  F   UNL A   1      40.509  34.321  35.542  1.00  0.00    -0.206 F 
ATOM     90  C   UNL A   1      38.416  33.985  38.478  1.00  0.00     0.006 A 
ENDBRANCH  66  83
ENDBRANCH  40  41
ENDBRANCH  33  35
ENDBRANCH  32  33
ENDBRANCH  31  32
ENDBRANCH  30  31
ENDBRANCH  29  30
ENDBRANCH  28  29
ENDBRANCH  27  28
ENDBRANCH   1  27
TORSDOF 22
ENDMDL
