MODEL 1
REMARK VINA RESULT:      -9.2      0.000      0.000
REMARK SMILES Cc1coc2cc3c(cc12)[C@@H](C)[C@H](CCC(=O)N[C@@H](Cc1c[nH]c2ccccc12)C(=O)OCCOCCOCCOCCOC(=O)c1ccc(-c2c4nc(c(-c5c(F)cccc5F)c5ccc([nH]5)c(-c5c(F)cccc5F)c5nc(c(-c6c(F)cccc6F)c6ccc2[nH]6)C=C5)C=C4)cc1)C(=O)O3
REMARK SMILES IDX 37 1 36 2 35 3 34 4 33 5 32 6 30 7 31 8 19 9 18 10 16 11
REMARK SMILES IDX 17 12 15 14 14 15 13 16 1 17 2 18 3 19 10 20 4 21 5 22 9 23
REMARK SMILES IDX 6 24 8 25 7 26 11 27 103 28 12 29 101 30 102 31 20 32 21 33
REMARK SMILES IDX 22 34 29 35 23 36 24 37 28 38 25 40 27 41 26 42 38 43 39 44
REMARK SMILES IDX 40 45 41 46 42 47 43 48 44 49 45 50 46 51 47 52 48 53 100 54
REMARK SMILES IDX 49 55 99 56 50 57 51 58 52 59 93 60 53 61 98 62 92 63 94 64
REMARK SMILES IDX 54 65 97 66 91 67 90 68 55 70 81 71 64 72 80 73 65 74 68 75
REMARK SMILES IDX 79 76 95 77 66 78 67 79 78 81 96 82 69 83 56 84 57 85 62 86
REMARK SMILES IDX 58 87 59 88 61 89 63 90 60 91 82 92 83 93 88 94 84 95 85 96
REMARK SMILES IDX 87 97 89 98 86 99 70 100 71 101 76 102 72 103 73 104 75 105
REMARK SMILES IDX 77 106 74 107
REMARK H PARENT 18 13 23 39 94 69 68 80
REMARK Flexibility Score: inf
ROOT
ATOM      1  C   UNL A   1      38.588  30.620  30.359  1.00  0.00     0.188 C 
ENDROOT
BRANCH   1   2
ATOM      2  C   UNL A   1      38.262  31.415  29.101  1.00  0.00     0.188 C 
BRANCH   2   3
ATOM      3  O   UNL A   1      37.019  31.254  28.454  1.00  0.00    -0.376 OA
BRANCH   3   4
ATOM      4  C   UNL A   1      36.743  30.193  27.553  1.00  0.00     0.202 C 
BRANCH   4   5
ATOM      5  C   UNL A   1      35.478  29.333  27.531  1.00  0.00     0.261 C 
BRANCH   5   6
ATOM      6  O   UNL A   1      34.676  29.430  26.359  1.00  0.00    -0.462 OA
BRANCH   6   7
ATOM      7  C   UNL A   1      33.809  28.417  26.158  1.00  0.00     0.329 C 
ATOM      8  O   UNL A   1      33.681  27.452  26.910  1.00  0.00    -0.250 OA
BRANCH   7   9
ATOM      9  C   UNL A   1      33.019  28.526  24.862  1.00  0.00     0.196 C 
BRANCH   9  10
ATOM     10  N   UNL A   1      33.507  27.836  23.646  1.00  0.00    -0.342 N 
ATOM     11  C   UNL A   1      33.630  26.507  23.310  1.00  0.00     0.220 C 
ATOM     12  O   UNL A   1      34.120  26.189  22.223  1.00  0.00    -0.275 OA
ATOM     13  H   UNL A   1      33.804  28.450  22.936  1.00  0.00     0.164 HD
BRANCH  11  14
ATOM     14  C   UNL A   1      33.164  25.397  24.263  1.00  0.00     0.101 C 
BRANCH  14  15
ATOM     15  C   UNL A   1      34.236  24.538  24.960  1.00  0.00     0.026 C 
BRANCH  15  16
ATOM     16  C   UNL A   1      34.561  23.278  24.174  1.00  0.00     0.107 C 
ATOM     17  C   UNL A   1      35.542  16.321  25.209  1.00  0.00     0.048 C 
ATOM     18  C   UNL A   1      34.447  17.044  24.531  1.00  0.00    -0.005 A 
ATOM     19  C   UNL A   1      33.315  16.502  23.955  1.00  0.00     0.199 A 
ATOM     20  C   UNL A   1      34.295  18.454  24.440  1.00  0.00     0.024 A 
ATOM     21  O   UNL A   1      32.443  17.473  23.594  1.00  0.00    -0.464 OA
ATOM     22  C   UNL A   1      33.007  18.650  23.957  1.00  0.00     0.137 A 
ATOM     23  C   UNL A   1      35.090  19.570  24.779  1.00  0.00     0.020 A 
ATOM     24  C   UNL A   1      32.375  19.872  23.909  1.00  0.00     0.095 A 
ATOM     25  C   UNL A   1      34.513  20.838  24.713  1.00  0.00    -0.001 A 
ATOM     26  C   UNL A   1      33.146  20.933  24.372  1.00  0.00     0.138 A 
ATOM     27  C   UNL A   1      35.298  22.130  24.907  1.00  0.00     0.034 C 
ATOM     28  O   UNL A   1      32.510  22.151  24.414  1.00  0.00    -0.426 OA
ATOM     29  C   UNL A   1      36.740  22.034  24.338  1.00  0.00     0.014 C 
ATOM     30  C   UNL A   1      33.299  22.759  23.505  1.00  0.00     0.314 C 
ATOM     31  O   UNL A   1      33.025  22.804  22.310  1.00  0.00    -0.251 OA
ENDBRANCH  15  16
ENDBRANCH  14  15
ENDBRANCH  11  14
ENDBRANCH   9  10
BRANCH   9  32
ATOM     32  C   UNL A   1      31.527  28.219  25.221  1.00  0.00     0.074 C 
BRANCH  32  33
ATOM     33  C   UNL A   1      30.509  28.445  24.147  1.00  0.00    -0.020 A 
ATOM     34  C   UNL A   1      29.975  27.487  23.307  1.00  0.00     0.087 A 
ATOM     35  C   UNL A   1      29.893  29.676  23.792  1.00  0.00     0.003 A 
ATOM     36  N   UNL A   1      28.968  28.060  22.581  1.00  0.00    -0.361 N 
ATOM     37  C   UNL A   1      28.836  29.379  22.934  1.00  0.00     0.046 A 
ATOM     38  C   UNL A   1      30.083  31.005  24.188  1.00  0.00     0.010 A 
ATOM     39  H   UNL A   1      28.422  27.597  21.905  1.00  0.00     0.166 HD
ATOM     40  C   UNL A   1      27.871  30.321  22.576  1.00  0.00     0.026 A 
ATOM     41  C   UNL A   1      29.081  31.934  23.915  1.00  0.00     0.001 A 
ATOM     42  C   UNL A   1      27.985  31.591  23.139  1.00  0.00     0.002 A 
ENDBRANCH  32  33
ENDBRANCH   9  32
ENDBRANCH   7   9
ENDBRANCH   6   7
ENDBRANCH   5   6
ENDBRANCH   4   5
ENDBRANCH   3   4
ENDBRANCH   2   3
ENDBRANCH   1   2
BRANCH   1  43
ATOM     43  O   UNL A   1      38.766  31.350  31.542  1.00  0.00    -0.377 OA
BRANCH  43  44
ATOM     44  C   UNL A   1      37.632  31.875  32.200  1.00  0.00     0.188 C 
BRANCH  44  45
ATOM     45  C   UNL A   1      37.817  32.965  33.271  1.00  0.00     0.188 C 
BRANCH  45  46
ATOM     46  O   UNL A   1      37.119  32.739  34.472  1.00  0.00    -0.376 OA
BRANCH  46  47
ATOM     47  C   UNL A   1      37.788  32.265  35.623  1.00  0.00     0.202 C 
BRANCH  47  48
ATOM     48  C   UNL A   1      38.504  30.899  35.705  1.00  0.00     0.261 C 
BRANCH  48  49
ATOM     49  O   UNL A   1      39.751  30.848  36.421  1.00  0.00    -0.460 OA
BRANCH  49  50
ATOM     50  C   UNL A   1      40.716  31.776  36.232  1.00  0.00     0.338 C 
ATOM     51  O   UNL A   1      41.120  32.575  37.050  1.00  0.00    -0.246 OA
BRANCH  50  52
ATOM     52  C   UNL A   1      41.432  31.378  34.970  1.00  0.00     0.060 A 
ATOM     53  C   UNL A   1      42.279  30.267  34.903  1.00  0.00     0.016 A 
ATOM     54  C   UNL A   1      41.477  32.334  33.940  1.00  0.00     0.016 A 
ATOM     55  C   UNL A   1      43.219  30.179  33.864  1.00  0.00     0.010 A 
ATOM     56  C   UNL A   1      42.436  32.256  32.917  1.00  0.00     0.010 A 
ATOM     57  C   UNL A   1      43.334  31.189  32.878  1.00  0.00    -0.014 A 
BRANCH  57  58
ATOM     58  C   UNL A   1      44.168  30.899  31.681  1.00  0.00     0.031 A 
ATOM     59  C   UNL A   1      43.582  29.766  30.912  1.00  0.00     0.074 A 
ATOM     60  C   UNL A   1      45.216  31.555  31.118  1.00  0.00     0.049 A 
ATOM     61  N   UNL A   1      44.108  28.608  30.695  1.00  0.00    -0.248 NA
ATOM     62  C   UNL A   1      42.186  29.891  30.461  1.00  0.00     0.031 C 
ATOM     63  C   UNL A   1      45.760  32.864  31.482  1.00  0.00     0.029 A 
ATOM     64  N   UNL A   1      45.988  31.211  30.020  1.00  0.00    -0.354 N 
ATOM     65  C   UNL A   1      43.179  27.912  29.928  1.00  0.00     0.074 A 
ATOM     66  C   UNL A   1      41.964  28.681  29.949  1.00  0.00     0.031 C 
ATOM     67  C   UNL A   1      46.619  33.287  30.519  1.00  0.00     0.029 A 
ATOM     68  C   UNL A   1      46.786  32.243  29.516  1.00  0.00     0.049 A 
ATOM     69  H   UNL A   1      45.976  30.310  29.625  1.00  0.00     0.167 HD
ATOM     70  C   UNL A   1      43.569  26.884  29.130  1.00  0.00     0.037 A 
ATOM     71  C   UNL A   1      47.513  32.267  28.362  1.00  0.00     0.037 A 
ATOM     72  C   UNL A   1      44.902  26.439  29.435  1.00  0.00     0.049 A 
ATOM     73  C   UNL A   1      47.768  30.885  27.908  1.00  0.00     0.074 A 
ATOM     74  C   UNL A   1      45.521  25.503  30.228  1.00  0.00     0.029 A 
ATOM     75  N   UNL A   1      45.875  27.274  28.968  1.00  0.00    -0.354 N 
ATOM     76  N   UNL A   1      48.649  30.095  28.446  1.00  0.00    -0.248 NA
ATOM     77  C   UNL A   1      46.883  30.259  26.932  1.00  0.00     0.031 C 
ATOM     78  C   UNL A   1      46.912  25.833  30.239  1.00  0.00     0.029 A 
ATOM     79  C   UNL A   1      47.117  26.957  29.445  1.00  0.00     0.049 A 
ATOM     80  H   UNL A   1      45.701  28.022  28.354  1.00  0.00     0.167 HD
ATOM     81  C   UNL A   1      48.125  28.841  28.257  1.00  0.00     0.074 A 
ATOM     82  C   UNL A   1      47.186  28.976  27.151  1.00  0.00     0.031 C 
ATOM     83  C   UNL A   1      48.197  27.904  29.247  1.00  0.00     0.037 A 
BRANCH  70  84
ATOM     84  C   UNL A   1      42.981  26.596  27.766  1.00  0.00     0.057 A 
ATOM     85  C   UNL A   1      42.455  25.315  27.512  1.00  0.00     0.134 A 
ATOM     86  C   UNL A   1      43.216  27.384  26.621  1.00  0.00     0.134 A 
ATOM     87  F   UNL A   1      42.188  24.466  28.517  1.00  0.00    -0.206 F 
ATOM     88  C   UNL A   1      42.258  24.827  26.214  1.00  0.00     0.040 A 
ATOM     89  C   UNL A   1      42.973  26.925  25.324  1.00  0.00     0.040 A 
ATOM     90  F   UNL A   1      43.792  28.589  26.686  1.00  0.00    -0.206 F 
ATOM     91  C   UNL A   1      42.526  25.631  25.113  1.00  0.00     0.006 A 
ENDBRANCH  70  84
BRANCH  71  92
ATOM     92  C   UNL A   1      47.974  33.378  27.483  1.00  0.00     0.057 A 
ATOM     93  C   UNL A   1      49.339  33.556  27.178  1.00  0.00     0.134 A 
ATOM     94  C   UNL A   1      47.073  34.061  26.656  1.00  0.00     0.134 A 
ATOM     95  F   UNL A   1      50.290  32.943  27.898  1.00  0.00    -0.206 F 
ATOM     96  C   UNL A   1      49.776  34.302  26.074  1.00  0.00     0.040 A 
ATOM     97  C   UNL A   1      47.496  34.816  25.552  1.00  0.00     0.040 A 
ATOM     98  F   UNL A   1      45.750  33.933  26.832  1.00  0.00    -0.206 F 
ATOM     99  C   UNL A   1      48.849  34.917  25.242  1.00  0.00     0.006 A 
ENDBRANCH  71  92
BRANCH  83 100
ATOM    100  C   UNL A   1      49.306  28.016  30.261  1.00  0.00     0.057 A 
ATOM    101  C   UNL A   1      49.219  28.699  31.488  1.00  0.00     0.134 A 
ATOM    102  C   UNL A   1      50.513  27.346  30.017  1.00  0.00     0.134 A 
ATOM    103  F   UNL A   1      48.076  29.271  31.898  1.00  0.00    -0.206 F 
ATOM    104  C   UNL A   1      50.275  28.726  32.406  1.00  0.00     0.040 A 
ATOM    105  C   UNL A   1      51.551  27.314  30.952  1.00  0.00     0.040 A 
ATOM    106  F   UNL A   1      50.704  26.687  28.864  1.00  0.00    -0.206 F 
ATOM    107  C   UNL A   1      51.436  28.010  32.150  1.00  0.00     0.006 A 
ENDBRANCH  83 100
ENDBRANCH  57  58
ENDBRANCH  50  52
ENDBRANCH  49  50
ENDBRANCH  48  49
ENDBRANCH  47  48
ENDBRANCH  46  47
ENDBRANCH  45  46
ENDBRANCH  44  45
ENDBRANCH  43  44
ENDBRANCH   1  43
TORSDOF 26
ENDMDL
MODEL 2
REMARK VINA RESULT:      -8.9      5.560     12.352
REMARK SMILES Cc1coc2cc3c(cc12)[C@@H](C)[C@H](CCC(=O)N[C@@H](Cc1c[nH]c2ccccc12)C(=O)OCCOCCOCCOCCOC(=O)c1ccc(-c2c4nc(c(-c5c(F)cccc5F)c5ccc([nH]5)c(-c5c(F)cccc5F)c5nc(c(-c6c(F)cccc6F)c6ccc2[nH]6)C=C5)C=C4)cc1)C(=O)O3
REMARK SMILES IDX 37 1 36 2 35 3 34 4 33 5 32 6 30 7 31 8 19 9 18 10 16 11
REMARK SMILES IDX 17 12 15 14 14 15 13 16 1 17 2 18 3 19 10 20 4 21 5 22 9 23
REMARK SMILES IDX 6 24 8 25 7 26 11 27 103 28 12 29 101 30 102 31 20 32 21 33
REMARK SMILES IDX 22 34 29 35 23 36 24 37 28 38 25 40 27 41 26 42 38 43 39 44
REMARK SMILES IDX 40 45 41 46 42 47 43 48 44 49 45 50 46 51 47 52 48 53 100 54
REMARK SMILES IDX 49 55 99 56 50 57 51 58 52 59 93 60 53 61 98 62 92 63 94 64
REMARK SMILES IDX 54 65 97 66 91 67 90 68 55 70 81 71 64 72 80 73 65 74 68 75
REMARK SMILES IDX 79 76 95 77 66 78 67 79 78 81 96 82 69 83 56 84 57 85 62 86
REMARK SMILES IDX 58 87 59 88 61 89 63 90 60 91 82 92 83 93 88 94 84 95 85 96
REMARK SMILES IDX 87 97 89 98 86 99 70 100 71 101 76 102 72 103 73 104 75 105
REMARK SMILES IDX 77 106 74 107
REMARK H PARENT 18 13 23 39 94 69 68 80
REMARK Flexibility Score: inf
ROOT
ATOM      1  C   UNL A   1      39.106  33.875  37.300  1.00  0.00     0.188 C 
ENDROOT
BRANCH   1   2
ATOM      2  C   UNL A   1      40.535  34.385  37.159  1.00  0.00     0.188 C 
BRANCH   2   3
ATOM      3  O   UNL A   1      41.628  33.521  37.377  1.00  0.00    -0.376 OA
BRANCH   3   4
ATOM      4  C   UNL A   1      42.981  33.934  37.265  1.00  0.00     0.202 C 
BRANCH   4   5
ATOM      5  C   UNL A   1      43.524  35.006  36.319  1.00  0.00     0.261 C 
BRANCH   5   6
ATOM      6  O   UNL A   1      43.632  34.634  34.949  1.00  0.00    -0.462 OA
BRANCH   6   7
ATOM      7  C   UNL A   1      43.246  35.569  34.058  1.00  0.00     0.329 C 
ATOM      8  O   UNL A   1      42.624  36.589  34.346  1.00  0.00    -0.250 OA
BRANCH   7   9
ATOM      9  C   UNL A   1      43.595  35.230  32.615  1.00  0.00     0.196 C 
BRANCH   9  10
ATOM     10  N   UNL A   1      44.928  35.591  32.080  1.00  0.00    -0.342 N 
ATOM     11  C   UNL A   1      45.487  35.505  30.826  1.00  0.00     0.220 C 
ATOM     12  O   UNL A   1      46.661  35.841  30.651  1.00  0.00    -0.275 OA
ATOM     13  H   UNL A   1      45.535  35.968  32.756  1.00  0.00     0.164 HD
BRANCH  11  14
ATOM     14  C   UNL A   1      44.678  34.999  29.623  1.00  0.00     0.101 C 
BRANCH  14  15
ATOM     15  C   UNL A   1      44.068  36.041  28.666  1.00  0.00     0.026 C 
BRANCH  15  16
ATOM     16  C   UNL A   1      44.895  36.210  27.402  1.00  0.00     0.107 C 
ATOM     17  C   UNL A   1      51.622  37.314  25.412  1.00  0.00     0.048 C 
ATOM     18  C   UNL A   1      50.764  36.119  25.271  1.00  0.00    -0.005 A 
ATOM     19  C   UNL A   1      51.111  34.899  24.725  1.00  0.00     0.199 A 
ATOM     20  C   UNL A   1      49.444  35.963  25.773  1.00  0.00     0.024 A 
ATOM     21  O   UNL A   1      50.135  33.982  24.932  1.00  0.00    -0.464 OA
ATOM     22  C   UNL A   1      49.159  34.611  25.631  1.00  0.00     0.137 A 
ATOM     23  C   UNL A   1      48.501  36.814  26.389  1.00  0.00     0.020 A 
ATOM     24  C   UNL A   1      48.061  33.989  26.179  1.00  0.00     0.095 A 
ATOM     25  C   UNL A   1      47.349  36.243  26.929  1.00  0.00    -0.001 A 
ATOM     26  C   UNL A   1      47.217  34.838  26.888  1.00  0.00     0.138 A 
ATOM     27  C   UNL A   1      46.188  37.059  27.484  1.00  0.00     0.034 C 
ATOM     28  O   UNL A   1      46.158  34.228  27.516  1.00  0.00    -0.426 OA
ATOM     29  C   UNL A   1      45.958  38.375  26.691  1.00  0.00     0.014 C 
ATOM     30  C   UNL A   1      45.192  34.844  26.805  1.00  0.00     0.314 C 
ATOM     31  O   UNL A   1      44.701  34.361  25.790  1.00  0.00    -0.251 OA
ENDBRANCH  15  16
ENDBRANCH  14  15
ENDBRANCH  11  14
ENDBRANCH   9  10
BRANCH   9  32
ATOM     32  C   UNL A   1      43.199  33.732  32.400  1.00  0.00     0.074 C 
BRANCH  32  33
ATOM     33  C   UNL A   1      41.736  33.422  32.313  1.00  0.00    -0.020 A 
ATOM     34  C   UNL A   1      40.981  32.753  33.258  1.00  0.00     0.087 A 
ATOM     35  C   UNL A   1      40.847  33.759  31.258  1.00  0.00     0.003 A 
ATOM     36  N   UNL A   1      39.668  32.813  32.885  1.00  0.00    -0.361 N 
ATOM     37  C   UNL A   1      39.552  33.512  31.710  1.00  0.00     0.046 A 
ATOM     38  C   UNL A   1      41.017  34.334  29.992  1.00  0.00     0.010 A 
ATOM     39  H   UNL A   1      38.918  32.414  33.382  1.00  0.00     0.166 HD
ATOM     40  C   UNL A   1      38.419  33.950  31.022  1.00  0.00     0.026 A 
ATOM     41  C   UNL A   1      39.904  34.857  29.339  1.00  0.00     0.001 A 
ATOM     42  C   UNL A   1      38.629  34.684  29.857  1.00  0.00     0.002 A 
ENDBRANCH  32  33
ENDBRANCH   9  32
ENDBRANCH   7   9
ENDBRANCH   6   7
ENDBRANCH   5   6
ENDBRANCH   4   5
ENDBRANCH   3   4
ENDBRANCH   2   3
ENDBRANCH   1   2
BRANCH   1  43
ATOM     43  O   UNL A   1      38.160  34.382  36.397  1.00  0.00    -0.377 OA
BRANCH  43  44
ATOM     44  C   UNL A   1      37.279  33.486  35.754  1.00  0.00     0.188 C 
BRANCH  44  45
ATOM     45  C   UNL A   1      36.533  33.939  34.487  1.00  0.00     0.188 C 
BRANCH  45  46
ATOM     46  O   UNL A   1      35.556  33.038  34.021  1.00  0.00    -0.376 OA
BRANCH  46  47
ATOM     47  C   UNL A   1      35.760  32.296  32.836  1.00  0.00     0.202 C 
BRANCH  47  48
ATOM     48  C   UNL A   1      34.763  32.261  31.656  1.00  0.00     0.261 C 
BRANCH  48  49
ATOM     49  O   UNL A   1      35.269  32.601  30.353  1.00  0.00    -0.460 OA
BRANCH  49  50
ATOM     50  C   UNL A   1      35.076  31.795  29.285  1.00  0.00     0.338 C 
ATOM     51  O   UNL A   1      34.275  31.961  28.389  1.00  0.00    -0.246 OA
BRANCH  50  52
ATOM     52  C   UNL A   1      36.275  30.888  29.228  1.00  0.00     0.060 A 
ATOM     53  C   UNL A   1      36.288  29.619  29.815  1.00  0.00     0.016 A 
ATOM     54  C   UNL A   1      37.493  31.475  28.841  1.00  0.00     0.016 A 
ATOM     55  C   UNL A   1      37.517  29.001  30.092  1.00  0.00     0.010 A 
ATOM     56  C   UNL A   1      38.722  30.865  29.144  1.00  0.00     0.010 A 
ATOM     57  C   UNL A   1      38.751  29.631  29.792  1.00  0.00    -0.014 A 
BRANCH  57  58
ATOM     58  C   UNL A   1      39.988  28.811  29.879  1.00  0.00     0.031 A 
ATOM     59  C   UNL A   1      40.492  28.792  31.281  1.00  0.00     0.074 A 
ATOM     60  C   UNL A   1      40.608  27.994  28.987  1.00  0.00     0.049 A 
ATOM     61  N   UNL A   1      41.609  29.264  31.721  1.00  0.00    -0.248 NA
ATOM     62  C   UNL A   1      39.574  28.326  32.335  1.00  0.00     0.031 C 
ATOM     63  C   UNL A   1      40.133  27.577  27.667  1.00  0.00     0.029 A 
ATOM     64  N   UNL A   1      41.792  27.286  29.111  1.00  0.00    -0.354 N 
ATOM     65  C   UNL A   1      41.616  29.000  33.087  1.00  0.00     0.074 A 
ATOM     66  C   UNL A   1      40.288  28.570  33.434  1.00  0.00     0.031 C 
ATOM     67  C   UNL A   1      40.899  26.555  27.207  1.00  0.00     0.029 A 
ATOM     68  C   UNL A   1      41.994  26.306  28.134  1.00  0.00     0.049 A 
ATOM     69  H   UNL A   1      42.441  27.458  29.830  1.00  0.00     0.167 HD
ATOM     70  C   UNL A   1      42.786  28.913  33.772  1.00  0.00     0.037 A 
ATOM     71  C   UNL A   1      42.961  25.344  28.084  1.00  0.00     0.037 A 
ATOM     72  C   UNL A   1      43.893  29.435  33.016  1.00  0.00     0.049 A 
ATOM     73  C   UNL A   1      44.097  25.739  28.941  1.00  0.00     0.074 A 
ATOM     74  C   UNL A   1      44.562  30.624  32.855  1.00  0.00     0.029 A 
ATOM     75  N   UNL A   1      44.320  28.599  32.027  1.00  0.00    -0.354 N 
ATOM     76  N   UNL A   1      44.976  26.639  28.613  1.00  0.00    -0.248 NA
ATOM     77  C   UNL A   1      44.178  25.262  30.317  1.00  0.00     0.031 C 
ATOM     78  C   UNL A   1      45.392  30.471  31.700  1.00  0.00     0.029 A 
ATOM     79  C   UNL A   1      45.221  29.191  31.187  1.00  0.00     0.049 A 
ATOM     80  H   UNL A   1      44.012  27.669  31.930  1.00  0.00     0.167 HD
ATOM     81  C   UNL A   1      45.367  27.171  29.815  1.00  0.00     0.074 A 
ATOM     82  C   UNL A   1      45.032  26.162  30.813  1.00  0.00     0.031 C 
ATOM     83  C   UNL A   1      45.559  28.516  29.948  1.00  0.00     0.037 A 
BRANCH  70  84
ATOM     84  C   UNL A   1      43.046  27.932  34.893  1.00  0.00     0.057 A 
ATOM     85  C   UNL A   1      43.430  28.428  36.153  1.00  0.00     0.134 A 
ATOM     86  C   UNL A   1      43.266  26.552  34.700  1.00  0.00     0.134 A 
ATOM     87  F   UNL A   1      43.274  29.724  36.461  1.00  0.00    -0.206 F 
ATOM     88  C   UNL A   1      44.062  27.629  37.114  1.00  0.00     0.040 A 
ATOM     89  C   UNL A   1      43.847  25.735  35.674  1.00  0.00     0.040 A 
ATOM     90  F   UNL A   1      43.035  25.945  33.531  1.00  0.00    -0.206 F 
ATOM     91  C   UNL A   1      44.280  26.279  36.873  1.00  0.00     0.006 A 
ENDBRANCH  70  84
BRANCH  71  92
ATOM     92  C   UNL A   1      43.018  24.003  27.438  1.00  0.00     0.057 A 
ATOM     93  C   UNL A   1      42.541  22.850  28.096  1.00  0.00     0.134 A 
ATOM     94  C   UNL A   1      43.213  23.877  26.057  1.00  0.00     0.134 A 
ATOM     95  F   UNL A   1      42.310  22.858  29.417  1.00  0.00    -0.206 F 
ATOM     96  C   UNL A   1      42.205  21.674  27.410  1.00  0.00     0.040 A 
ATOM     97  C   UNL A   1      42.887  22.705  25.359  1.00  0.00     0.040 A 
ATOM     98  F   UNL A   1      43.628  24.922  25.326  1.00  0.00    -0.206 F 
ATOM     99  C   UNL A   1      42.356  21.608  26.031  1.00  0.00     0.006 A 
ENDBRANCH  71  92
BRANCH  83 100
ATOM    100  C   UNL A   1      45.916  29.314  28.720  1.00  0.00     0.057 A 
ATOM    101  C   UNL A   1      47.204  29.412  28.162  1.00  0.00     0.134 A 
ATOM    102  C   UNL A   1      44.894  29.973  28.024  1.00  0.00     0.134 A 
ATOM    103  F   UNL A   1      48.244  28.724  28.658  1.00  0.00    -0.206 F 
ATOM    104  C   UNL A   1      47.458  30.136  26.992  1.00  0.00     0.040 A 
ATOM    105  C   UNL A   1      45.125  30.647  26.822  1.00  0.00     0.040 A 
ATOM    106  F   UNL A   1      43.636  29.961  28.490  1.00  0.00    -0.206 F 
ATOM    107  C   UNL A   1      46.412  30.735  26.304  1.00  0.00     0.006 A 
ENDBRANCH  83 100
ENDBRANCH  57  58
ENDBRANCH  50  52
ENDBRANCH  49  50
ENDBRANCH  48  49
ENDBRANCH  47  48
ENDBRANCH  46  47
ENDBRANCH  45  46
ENDBRANCH  44  45
ENDBRANCH  43  44
ENDBRANCH   1  43
TORSDOF 26
ENDMDL
MODEL 3
REMARK VINA RESULT:      -8.6      5.910     12.070
REMARK SMILES Cc1coc2cc3c(cc12)[C@@H](C)[C@H](CCC(=O)N[C@@H](Cc1c[nH]c2ccccc12)C(=O)OCCOCCOCCOCCOC(=O)c1ccc(-c2c4nc(c(-c5c(F)cccc5F)c5ccc([nH]5)c(-c5c(F)cccc5F)c5nc(c(-c6c(F)cccc6F)c6ccc2[nH]6)C=C5)C=C4)cc1)C(=O)O3
REMARK SMILES IDX 37 1 36 2 35 3 34 4 33 5 32 6 30 7 31 8 19 9 18 10 16 11
REMARK SMILES IDX 17 12 15 14 14 15 13 16 1 17 2 18 3 19 10 20 4 21 5 22 9 23
REMARK SMILES IDX 6 24 8 25 7 26 11 27 103 28 12 29 101 30 102 31 20 32 21 33
REMARK SMILES IDX 22 34 29 35 23 36 24 37 28 38 25 40 27 41 26 42 38 43 39 44
REMARK SMILES IDX 40 45 41 46 42 47 43 48 44 49 45 50 46 51 47 52 48 53 100 54
REMARK SMILES IDX 49 55 99 56 50 57 51 58 52 59 93 60 53 61 98 62 92 63 94 64
REMARK SMILES IDX 54 65 97 66 91 67 90 68 55 70 81 71 64 72 80 73 65 74 68 75
REMARK SMILES IDX 79 76 95 77 66 78 67 79 78 81 96 82 69 83 56 84 57 85 62 86
REMARK SMILES IDX 58 87 59 88 61 89 63 90 60 91 82 92 83 93 88 94 84 95 85 96
REMARK SMILES IDX 87 97 89 98 86 99 70 100 71 101 76 102 72 103 73 104 75 105
REMARK SMILES IDX 77 106 74 107
REMARK H PARENT 18 13 23 39 94 69 68 80
REMARK Flexibility Score: inf
ROOT
ATOM      1  C   UNL A   1      37.460  30.382  29.307  1.00  0.00     0.188 C 
ENDROOT
BRANCH   1   2
ATOM      2  C   UNL A   1      38.885  30.072  28.862  1.00  0.00     0.188 C 
BRANCH   2   3
ATOM      3  O   UNL A   1      39.654  29.109  29.547  1.00  0.00    -0.376 OA
BRANCH   3   4
ATOM      4  C   UNL A   1      41.068  29.175  29.654  1.00  0.00     0.202 C 
BRANCH   4   5
ATOM      5  C   UNL A   1      42.030  27.987  29.653  1.00  0.00     0.261 C 
BRANCH   5   6
ATOM      6  O   UNL A   1      41.491  26.746  29.210  1.00  0.00    -0.462 OA
BRANCH   6   7
ATOM      7  C   UNL A   1      42.366  25.724  29.130  1.00  0.00     0.329 C 
ATOM      8  O   UNL A   1      43.327  25.570  29.883  1.00  0.00    -0.250 OA
BRANCH   7   9
ATOM      9  C   UNL A   1      42.108  24.776  27.966  1.00  0.00     0.196 C 
BRANCH   9  10
ATOM     10  N   UNL A   1      42.143  25.295  26.579  1.00  0.00    -0.342 N 
ATOM     11  C   UNL A   1      42.932  26.230  25.949  1.00  0.00     0.220 C 
ATOM     12  O   UNL A   1      42.721  26.518  24.768  1.00  0.00    -0.275 OA
ATOM     13  H   UNL A   1      41.466  24.890  25.990  1.00  0.00     0.164 HD
BRANCH  11  14
ATOM     14  C   UNL A   1      44.083  26.929  26.685  1.00  0.00     0.101 C 
BRANCH  14  15
ATOM     15  C   UNL A   1      45.372  27.235  25.898  1.00  0.00     0.026 C 
BRANCH  15  16
ATOM     16  C   UNL A   1      46.612  27.138  26.770  1.00  0.00     0.107 C 
ATOM     17  C   UNL A   1      50.961  31.309  30.528  1.00  0.00     0.048 C 
ATOM     18  C   UNL A   1      49.978  30.301  30.973  1.00  0.00    -0.005 A 
ATOM     19  C   UNL A   1      49.658  29.960  32.273  1.00  0.00     0.199 A 
ATOM     20  C   UNL A   1      49.089  29.564  30.144  1.00  0.00     0.024 A 
ATOM     21  O   UNL A   1      48.584  29.135  32.306  1.00  0.00    -0.464 OA
ATOM     22  C   UNL A   1      48.197  28.956  31.020  1.00  0.00     0.137 A 
ATOM     23  C   UNL A   1      48.916  29.409  28.753  1.00  0.00     0.020 A 
ATOM     24  C   UNL A   1      47.046  28.311  30.628  1.00  0.00     0.095 A 
ATOM     25  C   UNL A   1      47.786  28.730  28.298  1.00  0.00    -0.001 A 
ATOM     26  C   UNL A   1      46.843  28.289  29.252  1.00  0.00     0.138 A 
ATOM     27  C   UNL A   1      47.556  28.365  26.837  1.00  0.00     0.034 C 
ATOM     28  O   UNL A   1      45.660  27.724  28.840  1.00  0.00    -0.426 OA
ATOM     29  C   UNL A   1      48.877  28.004  26.104  1.00  0.00     0.014 C 
ATOM     30  C   UNL A   1      46.215  26.695  28.168  1.00  0.00     0.314 C 
ATOM     31  O   UNL A   1      46.411  25.596  28.677  1.00  0.00    -0.251 OA
ENDBRANCH  15  16
ENDBRANCH  14  15
ENDBRANCH  11  14
ENDBRANCH   9  10
BRANCH   9  32
ATOM     32  C   UNL A   1      43.008  23.519  28.206  1.00  0.00     0.074 C 
BRANCH  32  33
ATOM     33  C   UNL A   1      43.347  22.688  27.007  1.00  0.00    -0.020 A 
ATOM     34  C   UNL A   1      42.569  21.689  26.454  1.00  0.00     0.087 A 
ATOM     35  C   UNL A   1      44.519  22.771  26.207  1.00  0.00     0.003 A 
ATOM     36  N   UNL A   1      43.150  21.285  25.284  1.00  0.00    -0.361 N 
ATOM     37  C   UNL A   1      44.297  22.006  25.065  1.00  0.00     0.046 A 
ATOM     38  C   UNL A   1      45.713  23.495  26.309  1.00  0.00     0.010 A 
ATOM     39  H   UNL A   1      42.800  20.582  24.690  1.00  0.00     0.166 HD
ATOM     40  C   UNL A   1      45.141  22.050  23.954  1.00  0.00     0.026 A 
ATOM     41  C   UNL A   1      46.516  23.621  25.178  1.00  0.00     0.001 A 
ATOM     42  C   UNL A   1      46.224  22.926  24.015  1.00  0.00     0.002 A 
ENDBRANCH  32  33
ENDBRANCH   9  32
ENDBRANCH   7   9
ENDBRANCH   6   7
ENDBRANCH   5   6
ENDBRANCH   4   5
ENDBRANCH   3   4
ENDBRANCH   2   3
ENDBRANCH   1   2
BRANCH   1  43
ATOM     43  O   UNL A   1      37.273  31.544  30.069  1.00  0.00    -0.377 OA
BRANCH  43  44
ATOM     44  C   UNL A   1      37.904  32.740  29.662  1.00  0.00     0.188 C 
BRANCH  44  45
ATOM     45  C   UNL A   1      37.048  33.899  29.121  1.00  0.00     0.188 C 
BRANCH  45  46
ATOM     46  O   UNL A   1      35.838  33.509  28.517  1.00  0.00    -0.376 OA
BRANCH  46  47
ATOM     47  C   UNL A   1      34.701  34.346  28.563  1.00  0.00     0.202 C 
BRANCH  47  48
ATOM     48  C   UNL A   1      33.752  34.451  29.778  1.00  0.00     0.261 C 
BRANCH  48  49
ATOM     49  O   UNL A   1      34.258  35.099  30.958  1.00  0.00    -0.460 OA
BRANCH  49  50
ATOM     50  C   UNL A   1      33.942  34.662  32.198  1.00  0.00     0.338 C 
ATOM     51  O   UNL A   1      32.833  34.396  32.610  1.00  0.00    -0.246 OA
BRANCH  50  52
ATOM     52  C   UNL A   1      35.236  34.215  32.822  1.00  0.00     0.060 A 
ATOM     53  C   UNL A   1      36.436  34.913  32.651  1.00  0.00     0.016 A 
ATOM     54  C   UNL A   1      35.275  32.902  33.325  1.00  0.00     0.016 A 
ATOM     55  C   UNL A   1      37.654  34.258  32.892  1.00  0.00     0.010 A 
ATOM     56  C   UNL A   1      36.496  32.242  33.540  1.00  0.00     0.010 A 
ATOM     57  C   UNL A   1      37.701  32.904  33.306  1.00  0.00    -0.014 A 
BRANCH  57  58
ATOM     58  C   UNL A   1      39.004  32.369  33.782  1.00  0.00     0.031 A 
ATOM     59  C   UNL A   1      39.580  33.270  34.819  1.00  0.00     0.074 A 
ATOM     60  C   UNL A   1      39.642  31.189  33.564  1.00  0.00     0.049 A 
ATOM     61  N   UNL A   1      40.675  33.947  34.752  1.00  0.00    -0.248 NA
ATOM     62  C   UNL A   1      38.758  33.563  36.007  1.00  0.00     0.031 C 
ATOM     63  C   UNL A   1      39.135  30.007  32.865  1.00  0.00     0.029 A 
ATOM     64  N   UNL A   1      40.885  30.761  34.002  1.00  0.00    -0.354 N 
ATOM     65  C   UNL A   1      40.774  34.623  35.964  1.00  0.00     0.074 A 
ATOM     66  C   UNL A   1      39.505  34.477  36.625  1.00  0.00     0.031 C 
ATOM     67  C   UNL A   1      39.958  28.951  33.094  1.00  0.00     0.029 A 
ATOM     68  C   UNL A   1      41.116  29.389  33.862  1.00  0.00     0.049 A 
ATOM     69  H   UNL A   1      41.553  31.374  34.382  1.00  0.00     0.167 HD
ATOM     70  C   UNL A   1      41.981  35.032  36.435  1.00  0.00     0.037 A 
ATOM     71  C   UNL A   1      42.154  28.649  34.348  1.00  0.00     0.037 A 
ATOM     72  C   UNL A   1      43.001  34.978  35.423  1.00  0.00     0.049 A 
ATOM     73  C   UNL A   1      43.297  29.536  34.647  1.00  0.00     0.074 A 
ATOM     74  C   UNL A   1      43.562  35.805  34.479  1.00  0.00     0.029 A 
ATOM     75  N   UNL A   1      43.443  33.715  35.161  1.00  0.00    -0.354 N 
ATOM     76  N   UNL A   1      44.081  30.040  33.741  1.00  0.00    -0.248 NA
ATOM     77  C   UNL A   1      43.488  30.057  35.996  1.00  0.00     0.031 C 
ATOM     78  C   UNL A   1      44.341  34.971  33.618  1.00  0.00     0.029 A 
ATOM     79  C   UNL A   1      44.249  33.655  34.058  1.00  0.00     0.049 A 
ATOM     80  H   UNL A   1      43.208  32.932  35.708  1.00  0.00     0.167 HD
ATOM     81  C   UNL A   1      44.489  31.232  34.285  1.00  0.00     0.074 A 
ATOM     82  C   UNL A   1      44.290  31.090  35.722  1.00  0.00     0.031 C 
ATOM     83  C   UNL A   1      44.577  32.353  33.511  1.00  0.00     0.037 A 
BRANCH  70  84
ATOM     84  C   UNL A   1      42.377  35.008  37.895  1.00  0.00     0.057 A 
ATOM     85  C   UNL A   1      42.868  36.188  38.483  1.00  0.00     0.134 A 
ATOM     86  C   UNL A   1      42.618  33.829  38.629  1.00  0.00     0.134 A 
ATOM     87  F   UNL A   1      42.706  37.378  37.883  1.00  0.00    -0.206 F 
ATOM     88  C   UNL A   1      43.614  36.184  39.669  1.00  0.00     0.040 A 
ATOM     89  C   UNL A   1      43.315  33.820  39.841  1.00  0.00     0.040 A 
ATOM     90  F   UNL A   1      42.291  32.617  38.168  1.00  0.00    -0.206 F 
ATOM     91  C   UNL A   1      43.847  34.995  40.348  1.00  0.00     0.006 A 
ENDBRANCH  70  84
BRANCH  71  92
ATOM     92  C   UNL A   1      42.288  27.209  34.705  1.00  0.00     0.057 A 
ATOM     93  C   UNL A   1      43.102  26.338  33.952  1.00  0.00     0.134 A 
ATOM     94  C   UNL A   1      41.909  26.743  35.970  1.00  0.00     0.134 A 
ATOM     95  F   UNL A   1      43.532  26.683  32.729  1.00  0.00    -0.206 F 
ATOM     96  C   UNL A   1      43.572  25.117  34.457  1.00  0.00     0.040 A 
ATOM     97  C   UNL A   1      42.366  25.522  36.486  1.00  0.00     0.040 A 
ATOM     98  F   UNL A   1      41.167  27.506  36.786  1.00  0.00    -0.206 F 
ATOM     99  C   UNL A   1      43.222  24.717  35.740  1.00  0.00     0.006 A 
ENDBRANCH  71  92
BRANCH  83 100
ATOM    100  C   UNL A   1      44.804  32.185  32.030  1.00  0.00     0.057 A 
ATOM    101  C   UNL A   1      46.061  32.071  31.410  1.00  0.00     0.134 A 
ATOM    102  C   UNL A   1      43.691  32.072  31.186  1.00  0.00     0.134 A 
ATOM    103  F   UNL A   1      47.199  32.033  32.120  1.00  0.00    -0.206 F 
ATOM    104  C   UNL A   1      46.200  31.872  30.031  1.00  0.00     0.040 A 
ATOM    105  C   UNL A   1      43.815  31.812  29.819  1.00  0.00     0.040 A 
ATOM    106  F   UNL A   1      42.448  32.193  31.678  1.00  0.00    -0.206 F 
ATOM    107  C   UNL A   1      45.073  31.716  29.235  1.00  0.00     0.006 A 
ENDBRANCH  83 100
ENDBRANCH  57  58
ENDBRANCH  50  52
ENDBRANCH  49  50
ENDBRANCH  48  49
ENDBRANCH  47  48
ENDBRANCH  46  47
ENDBRANCH  45  46
ENDBRANCH  44  45
ENDBRANCH  43  44
ENDBRANCH   1  43
TORSDOF 26
ENDMDL
