MODEL 1
REMARK VINA RESULT:     -11.1      0.000      0.000
REMARK SMILES O=C(OCCOCCOCCOCCOC(=O)[C@H]1CCCCN1c1cc(-c2ccccc2)nc(-c2cccc(Cl)c2)n1)c1ccc(-c2c3nc(c(-c4c(F)cccc4F)c4ccc([nH]4)c(-c4c(F)cccc4F)c4nc(c(-c5c(F)cccc5F)c5ccc2[nH]5)C=C4)C=C3)cc1
REMARK SMILES IDX 9 1 8 2 7 3 6 4 5 5 4 6 3 7 2 8 1 9 43 10 44 11 96 12 45 13
REMARK SMILES IDX 95 14 46 15 47 16 48 17 89 18 49 19 94 20 88 21 90 22 50 23
REMARK SMILES IDX 93 24 87 25 86 26 51 28 77 29 60 30 76 31 61 32 64 33 75 34
REMARK SMILES IDX 91 35 62 36 63 37 74 39 92 40 65 41 52 42 53 43 58 44 54 45
REMARK SMILES IDX 55 46 57 47 59 48 56 49 78 50 79 51 84 52 80 53 81 54 83 55
REMARK SMILES IDX 85 56 82 57 66 58 67 59 72 60 68 61 69 62 71 63 73 64 70 65
REMARK SMILES IDX 10 66 11 67 12 68 13 69 14 70 15 71 16 72 17 73 18 74 19 75
REMARK SMILES IDX 23 76 20 77 22 78 21 79 24 80 25 81 42 82 26 83 34 84 33 85
REMARK SMILES IDX 27 86 28 87 32 88 29 89 31 90 30 91 35 92 36 93 41 94 37 95
REMARK SMILES IDX 39 96 38 97 40 98
REMARK H PARENT 90 27 64 38
REMARK Flexibility Score: inf
ROOT
ATOM      1  O   UNL A   1      40.775  21.272  26.205  1.00  0.00    -0.377 OA
ENDROOT
BRANCH   1   2
ATOM      2  C   UNL A   1      41.040  20.741  27.491  1.00  0.00     0.188 C 
BRANCH   2   3
ATOM      3  C   UNL A   1      41.997  19.546  27.502  1.00  0.00     0.188 C 
BRANCH   3   4
ATOM      4  O   UNL A   1      42.123  18.983  26.188  1.00  0.00    -0.376 OA
BRANCH   4   5
ATOM      5  C   UNL A   1      43.451  18.687  25.749  1.00  0.00     0.202 C 
BRANCH   5   6
ATOM      6  C   UNL A   1      43.816  19.183  24.352  1.00  0.00     0.261 C 
BRANCH   6   7
ATOM      7  O   UNL A   1      45.223  19.159  24.093  1.00  0.00    -0.460 OA
BRANCH   7   8
ATOM      8  C   UNL A   1      46.187  19.961  24.604  1.00  0.00     0.338 C 
ATOM      9  O   UNL A   1      47.269  19.441  24.877  1.00  0.00    -0.246 OA
BRANCH   8  10
ATOM     10  C   UNL A   1      46.006  21.415  24.959  1.00  0.00     0.060 A 
ATOM     11  C   UNL A   1      46.117  22.506  24.090  1.00  0.00     0.016 A 
ATOM     12  C   UNL A   1      45.650  21.688  26.295  1.00  0.00     0.016 A 
ATOM     13  C   UNL A   1      45.874  23.808  24.500  1.00  0.00     0.010 A 
ATOM     14  C   UNL A   1      45.476  22.999  26.743  1.00  0.00     0.010 A 
ATOM     15  C   UNL A   1      45.628  24.056  25.843  1.00  0.00    -0.014 A 
BRANCH  15  16
ATOM     16  C   UNL A   1      45.922  25.414  26.313  1.00  0.00     0.031 A 
ATOM     17  C   UNL A   1      44.775  26.166  26.920  1.00  0.00     0.074 A 
ATOM     18  C   UNL A   1      47.179  25.877  26.337  1.00  0.00     0.049 A 
ATOM     19  N   UNL A   1      44.709  27.399  27.331  1.00  0.00    -0.248 NA
ATOM     20  C   UNL A   1      43.524  25.402  27.105  1.00  0.00     0.031 C 
ATOM     21  C   UNL A   1      48.368  25.121  25.940  1.00  0.00     0.029 A 
ATOM     22  N   UNL A   1      47.663  27.093  26.728  1.00  0.00    -0.354 N 
ATOM     23  C   UNL A   1      43.407  27.568  27.783  1.00  0.00     0.074 A 
ATOM     24  C   UNL A   1      42.717  26.314  27.615  1.00  0.00     0.031 C 
ATOM     25  C   UNL A   1      49.448  25.906  26.087  1.00  0.00     0.029 A 
ATOM     26  C   UNL A   1      49.012  27.229  26.524  1.00  0.00     0.049 A 
ATOM     27  H   UNL A   1      47.100  27.800  27.118  1.00  0.00     0.167 HD
ATOM     28  C   UNL A   1      42.839  28.691  28.273  1.00  0.00     0.037 A 
ATOM     29  C   UNL A   1      49.778  28.331  26.630  1.00  0.00     0.037 A 
ATOM     30  C   UNL A   1      43.562  29.924  28.393  1.00  0.00     0.049 A 
ATOM     31  C   UNL A   1      49.104  29.609  27.057  1.00  0.00     0.074 A 
ATOM     32  C   UNL A   1      43.107  31.168  28.780  1.00  0.00     0.029 A 
ATOM     33  N   UNL A   1      44.918  30.054  28.110  1.00  0.00    -0.354 N 
ATOM     34  N   UNL A   1      47.847  29.807  27.390  1.00  0.00    -0.248 NA
ATOM     35  C   UNL A   1      49.936  30.815  27.105  1.00  0.00     0.031 C 
ATOM     36  C   UNL A   1      44.180  32.062  28.683  1.00  0.00     0.029 A 
ATOM     37  C   UNL A   1      45.316  31.362  28.296  1.00  0.00     0.049 A 
ATOM     38  H   UNL A   1      45.507  29.321  27.819  1.00  0.00     0.167 HD
ATOM     39  C   UNL A   1      47.743  31.153  27.714  1.00  0.00     0.074 A 
ATOM     40  C   UNL A   1      49.068  31.720  27.538  1.00  0.00     0.031 C 
ATOM     41  C   UNL A   1      46.659  31.861  28.121  1.00  0.00     0.037 A 
BRANCH  28  42
ATOM     42  C   UNL A   1      41.371  28.628  28.576  1.00  0.00     0.057 A 
ATOM     43  C   UNL A   1      40.875  28.195  29.814  1.00  0.00     0.134 A 
ATOM     44  C   UNL A   1      40.435  28.906  27.572  1.00  0.00     0.134 A 
ATOM     45  F   UNL A   1      41.716  27.868  30.807  1.00  0.00    -0.206 F 
ATOM     46  C   UNL A   1      39.507  28.004  30.028  1.00  0.00     0.040 A 
ATOM     47  C   UNL A   1      39.064  28.746  27.782  1.00  0.00     0.040 A 
ATOM     48  F   UNL A   1      40.838  29.309  26.357  1.00  0.00    -0.206 F 
ATOM     49  C   UNL A   1      38.597  28.281  29.009  1.00  0.00     0.006 A 
ENDBRANCH  28  42
BRANCH  29  50
ATOM     50  C   UNL A   1      51.218  28.277  26.269  1.00  0.00     0.057 A 
ATOM     51  C   UNL A   1      52.214  28.128  27.239  1.00  0.00     0.134 A 
ATOM     52  C   UNL A   1      51.634  28.354  24.932  1.00  0.00     0.134 A 
ATOM     53  F   UNL A   1      51.887  28.067  28.538  1.00  0.00    -0.206 F 
ATOM     54  C   UNL A   1      53.568  28.063  26.897  1.00  0.00     0.040 A 
ATOM     55  C   UNL A   1      52.980  28.264  24.573  1.00  0.00     0.040 A 
ATOM     56  F   UNL A   1      50.733  28.498  23.948  1.00  0.00    -0.206 F 
ATOM     57  C   UNL A   1      53.952  28.123  25.559  1.00  0.00     0.006 A 
ENDBRANCH  29  50
BRANCH  41  58
ATOM     58  C   UNL A   1      46.879  33.304  28.455  1.00  0.00     0.057 A 
ATOM     59  C   UNL A   1      46.723  34.317  27.503  1.00  0.00     0.134 A 
ATOM     60  C   UNL A   1      47.164  33.682  29.773  1.00  0.00     0.134 A 
ATOM     61  F   UNL A   1      46.459  34.014  26.223  1.00  0.00    -0.206 F 
ATOM     62  C   UNL A   1      46.856  35.661  27.850  1.00  0.00     0.040 A 
ATOM     63  C   UNL A   1      47.269  35.022  30.137  1.00  0.00     0.040 A 
ATOM     64  F   UNL A   1      47.310  32.753  30.732  1.00  0.00    -0.206 F 
ATOM     65  C   UNL A   1      47.118  36.015  29.173  1.00  0.00     0.006 A 
ENDBRANCH  41  58
ENDBRANCH  15  16
ENDBRANCH   8  10
ENDBRANCH   7   8
ENDBRANCH   6   7
ENDBRANCH   5   6
ENDBRANCH   4   5
ENDBRANCH   3   4
ENDBRANCH   2   3
ENDBRANCH   1   2
BRANCH   1  66
ATOM     66  C   UNL A   1      39.615  22.068  26.107  1.00  0.00     0.188 C 
BRANCH  66  67
ATOM     67  C   UNL A   1      38.308  21.456  25.583  1.00  0.00     0.188 C 
BRANCH  67  68
ATOM     68  O   UNL A   1      37.530  22.155  24.647  1.00  0.00    -0.376 OA
BRANCH  68  69
ATOM     69  C   UNL A   1      36.572  23.091  25.085  1.00  0.00     0.202 C 
BRANCH  69  70
ATOM     70  C   UNL A   1      35.125  23.191  24.543  1.00  0.00     0.261 C 
BRANCH  70  71
ATOM     71  O   UNL A   1      34.697  24.357  23.814  1.00  0.00    -0.462 OA
BRANCH  71  72
ATOM     72  C   UNL A   1      33.646  24.233  22.962  1.00  0.00     0.328 C 
ATOM     73  O   UNL A   1      33.719  23.562  21.932  1.00  0.00    -0.250 OA
BRANCH  72  74
ATOM     74  C   UNL A   1      32.381  25.058  23.403  1.00  0.00     0.193 C 
ATOM     75  C   UNL A   1      31.157  24.144  23.247  1.00  0.00     0.037 C 
ATOM     76  N   UNL A   1      32.410  25.656  24.792  1.00  0.00    -0.343 N 
ATOM     77  C   UNL A   1      31.082  23.131  24.387  1.00  0.00     0.005 C 
ATOM     78  C   UNL A   1      32.001  24.869  25.965  1.00  0.00     0.119 C 
ATOM     79  C   UNL A   1      30.877  23.879  25.691  1.00  0.00     0.022 C 
BRANCH  76  80
ATOM     80  C   UNL A   1      32.168  27.034  24.925  1.00  0.00     0.134 A 
ATOM     81  C   UNL A   1      31.180  27.664  24.168  1.00  0.00     0.076 A 
ATOM     82  N   UNL A   1      32.928  27.750  25.754  1.00  0.00    -0.211 NA
ATOM     83  C   UNL A   1      30.960  29.021  24.334  1.00  0.00     0.076 A 
ATOM     84  C   UNL A   1      32.690  29.077  25.811  1.00  0.00     0.162 A 
ATOM     85  N   UNL A   1      31.735  29.749  25.148  1.00  0.00    -0.228 NA
BRANCH  83  86
ATOM     86  C   UNL A   1      29.856  29.752  23.677  1.00  0.00     0.000 A 
ATOM     87  C   UNL A   1      29.142  29.184  22.605  1.00  0.00     0.010 A 
ATOM     88  C   UNL A   1      29.522  31.069  24.050  1.00  0.00     0.010 A 
ATOM     89  C   UNL A   1      28.145  29.900  21.930  1.00  0.00     0.001 A 
ATOM     90  C   UNL A   1      28.533  31.790  23.369  1.00  0.00     0.001 A 
ATOM     91  C   UNL A   1      27.847  31.206  22.308  1.00  0.00     0.000 A 
ENDBRANCH  83  86
BRANCH  84  92
ATOM     92  C   UNL A   1      33.565  29.865  26.666  1.00  0.00     0.021 A 
ATOM     93  C   UNL A   1      34.763  29.320  27.159  1.00  0.00     0.012 A 
ATOM     94  C   UNL A   1      33.222  31.178  27.021  1.00  0.00     0.032 A 
ATOM     95  C   UNL A   1      35.589  30.059  28.004  1.00  0.00     0.002 A 
ATOM     96  C   UNL A   1      34.039  31.906  27.882  1.00  0.00     0.041 A 
ATOM     97  C   UNL A   1      35.219  31.352  28.376  1.00  0.00     0.020 A 
ATOM     98  Cl  UNL A   1      33.578  33.495  28.353  1.00  0.00    -0.084 Cl
ENDBRANCH  84  92
ENDBRANCH  76  80
ENDBRANCH  72  74
ENDBRANCH  71  72
ENDBRANCH  70  71
ENDBRANCH  69  70
ENDBRANCH  68  69
ENDBRANCH  67  68
ENDBRANCH  66  67
ENDBRANCH   1  66
TORSDOF 23
ENDMDL
MODEL 2
REMARK VINA RESULT:     -10.9      0.838      5.780
REMARK SMILES O=C(OCCOCCOCCOCCOC(=O)[C@H]1CCCCN1c1cc(-c2ccccc2)nc(-c2cccc(Cl)c2)n1)c1ccc(-c2c3nc(c(-c4c(F)cccc4F)c4ccc([nH]4)c(-c4c(F)cccc4F)c4nc(c(-c5c(F)cccc5F)c5ccc2[nH]5)C=C4)C=C3)cc1
REMARK SMILES IDX 9 1 8 2 7 3 6 4 5 5 4 6 3 7 2 8 1 9 43 10 44 11 96 12 45 13
REMARK SMILES IDX 95 14 46 15 47 16 48 17 89 18 49 19 94 20 88 21 90 22 50 23
REMARK SMILES IDX 93 24 87 25 86 26 51 28 77 29 60 30 76 31 61 32 64 33 75 34
REMARK SMILES IDX 91 35 62 36 63 37 74 39 92 40 65 41 52 42 53 43 58 44 54 45
REMARK SMILES IDX 55 46 57 47 59 48 56 49 78 50 79 51 84 52 80 53 81 54 83 55
REMARK SMILES IDX 85 56 82 57 66 58 67 59 72 60 68 61 69 62 71 63 73 64 70 65
REMARK SMILES IDX 10 66 11 67 12 68 13 69 14 70 15 71 16 72 17 73 18 74 19 75
REMARK SMILES IDX 23 76 20 77 22 78 21 79 24 80 25 81 42 82 26 83 34 84 33 85
REMARK SMILES IDX 27 86 28 87 32 88 29 89 31 90 30 91 35 92 36 93 41 94 37 95
REMARK SMILES IDX 39 96 38 97 40 98
REMARK H PARENT 90 27 64 38
REMARK Flexibility Score: inf
ROOT
ATOM      1  O   UNL A   1      41.398  21.618  26.103  1.00  0.00    -0.377 OA
ENDROOT
BRANCH   1   2
ATOM      2  C   UNL A   1      41.504  21.179  27.445  1.00  0.00     0.188 C 
BRANCH   2   3
ATOM      3  C   UNL A   1      42.290  19.879  27.630  1.00  0.00     0.188 C 
BRANCH   3   4
ATOM      4  O   UNL A   1      42.105  19.008  26.504  1.00  0.00    -0.376 OA
BRANCH   4   5
ATOM      5  C   UNL A   1      43.284  18.400  25.971  1.00  0.00     0.202 C 
BRANCH   5   6
ATOM      6  C   UNL A   1      43.586  18.705  24.505  1.00  0.00     0.261 C 
BRANCH   6   7
ATOM      7  O   UNL A   1      44.985  18.744  24.211  1.00  0.00    -0.460 OA
BRANCH   7   8
ATOM      8  C   UNL A   1      45.842  19.785  24.334  1.00  0.00     0.338 C 
ATOM      9  O   UNL A   1      47.034  19.564  24.120  1.00  0.00    -0.246 OA
BRANCH   8  10
ATOM     10  C   UNL A   1      45.466  21.166  24.808  1.00  0.00     0.060 A 
ATOM     11  C   UNL A   1      44.998  22.220  24.017  1.00  0.00     0.016 A 
ATOM     12  C   UNL A   1      45.564  21.393  26.195  1.00  0.00     0.016 A 
ATOM     13  C   UNL A   1      44.621  23.441  24.557  1.00  0.00     0.010 A 
ATOM     14  C   UNL A   1      45.261  22.640  26.747  1.00  0.00     0.010 A 
ATOM     15  C   UNL A   1      44.826  23.671  25.910  1.00  0.00    -0.014 A 
BRANCH  15  16
ATOM     16  C   UNL A   1      44.943  25.075  26.316  1.00  0.00     0.031 A 
ATOM     17  C   UNL A   1      46.280  25.716  26.096  1.00  0.00     0.074 A 
ATOM     18  C   UNL A   1      43.866  25.771  26.706  1.00  0.00     0.049 A 
ATOM     19  N   UNL A   1      46.706  26.898  26.438  1.00  0.00    -0.248 NA
ATOM     20  C   UNL A   1      47.277  24.906  25.368  1.00  0.00     0.031 C 
ATOM     21  C   UNL A   1      42.497  25.257  26.756  1.00  0.00     0.029 A 
ATOM     22  N   UNL A   1      43.759  27.069  27.120  1.00  0.00    -0.354 N 
ATOM     23  C   UNL A   1      48.024  26.956  26.002  1.00  0.00     0.074 A 
ATOM     24  C   UNL A   1      48.329  25.704  25.358  1.00  0.00     0.031 C 
ATOM     25  C   UNL A   1      41.686  26.229  27.203  1.00  0.00     0.029 A 
ATOM     26  C   UNL A   1      42.493  27.403  27.527  1.00  0.00     0.049 A 
ATOM     27  H   UNL A   1      44.514  27.700  27.126  1.00  0.00     0.167 HD
ATOM     28  C   UNL A   1      48.904  27.968  26.156  1.00  0.00     0.037 A 
ATOM     29  C   UNL A   1      42.069  28.521  28.146  1.00  0.00     0.037 A 
ATOM     30  C   UNL A   1      48.558  29.186  26.831  1.00  0.00     0.049 A 
ATOM     31  C   UNL A   1      43.091  29.591  28.426  1.00  0.00     0.074 A 
ATOM     32  C   UNL A   1      49.360  30.263  27.151  1.00  0.00     0.029 A 
ATOM     33  N   UNL A   1      47.281  29.472  27.301  1.00  0.00    -0.354 N 
ATOM     34  N   UNL A   1      44.368  29.616  28.110  1.00  0.00    -0.248 NA
ATOM     35  C   UNL A   1      42.631  30.774  29.159  1.00  0.00     0.031 C 
ATOM     36  C   UNL A   1      48.574  31.181  27.859  1.00  0.00     0.029 A 
ATOM     37  C   UNL A   1      47.271  30.703  27.924  1.00  0.00     0.049 A 
ATOM     38  H   UNL A   1      46.498  28.883  27.203  1.00  0.00     0.167 HD
ATOM     39  C   UNL A   1      44.857  30.826  28.580  1.00  0.00     0.074 A 
ATOM     40  C   UNL A   1      43.736  31.508  29.201  1.00  0.00     0.031 C 
ATOM     41  C   UNL A   1      46.113  31.336  28.510  1.00  0.00     0.037 A 
BRANCH  28  42
ATOM     42  C   UNL A   1      50.309  27.717  25.694  1.00  0.00     0.057 A 
ATOM     43  C   UNL A   1      51.353  27.420  26.582  1.00  0.00     0.134 A 
ATOM     44  C   UNL A   1      50.643  27.879  24.344  1.00  0.00     0.134 A 
ATOM     45  F   UNL A   1      51.113  27.294  27.896  1.00  0.00    -0.206 F 
ATOM     46  C   UNL A   1      52.679  27.333  26.149  1.00  0.00     0.040 A 
ATOM     47  C   UNL A   1      51.960  27.768  23.895  1.00  0.00     0.040 A 
ATOM     48  F   UNL A   1      49.698  28.182  23.440  1.00  0.00    -0.206 F 
ATOM     49  C   UNL A   1      52.985  27.507  24.801  1.00  0.00     0.006 A 
ENDBRANCH  28  42
BRANCH  29  50
ATOM     50  C   UNL A   1      40.656  28.639  28.587  1.00  0.00     0.057 A 
ATOM     51  C   UNL A   1      39.644  29.043  27.711  1.00  0.00     0.134 A 
ATOM     52  C   UNL A   1      40.278  28.331  29.903  1.00  0.00     0.134 A 
ATOM     53  F   UNL A   1      39.939  29.371  26.445  1.00  0.00    -0.206 F 
ATOM     54  C   UNL A   1      38.312  29.141  28.123  1.00  0.00     0.040 A 
ATOM     55  C   UNL A   1      38.948  28.400  30.322  1.00  0.00     0.040 A 
ATOM     56  F   UNL A   1      41.196  27.938  30.798  1.00  0.00    -0.206 F 
ATOM     57  C   UNL A   1      37.961  28.811  29.431  1.00  0.00     0.006 A 
ENDBRANCH  29  50
BRANCH  41  58
ATOM     58  C   UNL A   1      46.319  32.711  29.065  1.00  0.00     0.057 A 
ATOM     59  C   UNL A   1      46.046  33.860  28.317  1.00  0.00     0.134 A 
ATOM     60  C   UNL A   1      46.711  32.875  30.400  1.00  0.00     0.134 A 
ATOM     61  F   UNL A   1      45.676  33.765  27.031  1.00  0.00    -0.206 F 
ATOM     62  C   UNL A   1      46.170  35.132  28.876  1.00  0.00     0.040 A 
ATOM     63  C   UNL A   1      46.809  34.139  30.977  1.00  0.00     0.040 A 
ATOM     64  F   UNL A   1      46.972  31.807  31.170  1.00  0.00    -0.206 F 
ATOM     65  C   UNL A   1      46.541  35.272  30.213  1.00  0.00     0.006 A 
ENDBRANCH  41  58
ENDBRANCH  15  16
ENDBRANCH   8  10
ENDBRANCH   7   8
ENDBRANCH   6   7
ENDBRANCH   5   6
ENDBRANCH   4   5
ENDBRANCH   3   4
ENDBRANCH   2   3
ENDBRANCH   1   2
BRANCH   1  66
ATOM     66  C   UNL A   1      40.271  22.416  25.816  1.00  0.00     0.188 C 
BRANCH  66  67
ATOM     67  C   UNL A   1      38.862  21.891  26.125  1.00  0.00     0.188 C 
BRANCH  67  68
ATOM     68  O   UNL A   1      37.762  22.344  25.380  1.00  0.00    -0.376 OA
BRANCH  68  69
ATOM     69  C   UNL A   1      36.927  23.354  25.899  1.00  0.00     0.202 C 
BRANCH  69  70
ATOM     70  C   UNL A   1      35.421  23.508  25.572  1.00  0.00     0.261 C 
BRANCH  70  71
ATOM     71  O   UNL A   1      34.930  24.704  24.939  1.00  0.00    -0.462 OA
BRANCH  71  72
ATOM     72  C   UNL A   1      34.407  24.602  23.689  1.00  0.00     0.328 C 
ATOM     73  O   UNL A   1      34.961  23.951  22.803  1.00  0.00    -0.250 OA
BRANCH  72  74
ATOM     74  C   UNL A   1      33.080  25.425  23.496  1.00  0.00     0.193 C 
ATOM     75  C   UNL A   1      32.130  24.574  22.639  1.00  0.00     0.037 C 
ATOM     76  N   UNL A   1      32.376  25.885  24.753  1.00  0.00    -0.343 N 
ATOM     77  C   UNL A   1      31.498  23.459  23.469  1.00  0.00     0.005 C 
ATOM     78  C   UNL A   1      31.435  25.003  25.461  1.00  0.00     0.119 C 
ATOM     79  C   UNL A   1      30.634  24.084  24.548  1.00  0.00     0.022 C 
BRANCH  76  80
ATOM     80  C   UNL A   1      32.072  27.250  24.881  1.00  0.00     0.134 A 
ATOM     81  C   UNL A   1      31.090  27.843  24.087  1.00  0.00     0.076 A 
ATOM     82  N   UNL A   1      32.770  27.993  25.741  1.00  0.00    -0.211 NA
ATOM     83  C   UNL A   1      30.808  29.189  24.249  1.00  0.00     0.076 A 
ATOM     84  C   UNL A   1      32.475  29.309  25.793  1.00  0.00     0.162 A 
ATOM     85  N   UNL A   1      31.521  29.944  25.095  1.00  0.00    -0.228 NA
BRANCH  83  86
ATOM     86  C   UNL A   1      29.703  29.879  23.551  1.00  0.00     0.000 A 
ATOM     87  C   UNL A   1      29.049  29.283  22.456  1.00  0.00     0.010 A 
ATOM     88  C   UNL A   1      29.307  31.182  23.910  1.00  0.00     0.010 A 
ATOM     89  C   UNL A   1      28.052  29.961  21.744  1.00  0.00     0.001 A 
ATOM     90  C   UNL A   1      28.317  31.865  23.191  1.00  0.00     0.001 A 
ATOM     91  C   UNL A   1      27.691  31.255  22.107  1.00  0.00     0.000 A 
ENDBRANCH  83  86
BRANCH  84  92
ATOM     92  C   UNL A   1      33.283  30.128  26.685  1.00  0.00     0.021 A 
ATOM     93  C   UNL A   1      34.422  29.593  27.311  1.00  0.00     0.012 A 
ATOM     94  C   UNL A   1      32.931  31.461  26.943  1.00  0.00     0.032 A 
ATOM     95  C   UNL A   1      35.181  30.364  28.190  1.00  0.00     0.002 A 
ATOM     96  C   UNL A   1      33.680  32.221  27.839  1.00  0.00     0.041 A 
ATOM     97  C   UNL A   1      34.801  31.677  28.464  1.00  0.00     0.020 A 
ATOM     98  Cl  UNL A   1      33.205  33.836  28.188  1.00  0.00    -0.084 Cl
ENDBRANCH  84  92
ENDBRANCH  76  80
ENDBRANCH  72  74
ENDBRANCH  71  72
ENDBRANCH  70  71
ENDBRANCH  69  70
ENDBRANCH  68  69
ENDBRANCH  67  68
ENDBRANCH  66  67
ENDBRANCH   1  66
TORSDOF 23
ENDMDL
MODEL 3
REMARK VINA RESULT:     -10.0      2.573      6.974
REMARK SMILES O=C(OCCOCCOCCOCCOC(=O)[C@H]1CCCCN1c1cc(-c2ccccc2)nc(-c2cccc(Cl)c2)n1)c1ccc(-c2c3nc(c(-c4c(F)cccc4F)c4ccc([nH]4)c(-c4c(F)cccc4F)c4nc(c(-c5c(F)cccc5F)c5ccc2[nH]5)C=C4)C=C3)cc1
REMARK SMILES IDX 9 1 8 2 7 3 6 4 5 5 4 6 3 7 2 8 1 9 43 10 44 11 96 12 45 13
REMARK SMILES IDX 95 14 46 15 47 16 48 17 89 18 49 19 94 20 88 21 90 22 50 23
REMARK SMILES IDX 93 24 87 25 86 26 51 28 77 29 60 30 76 31 61 32 64 33 75 34
REMARK SMILES IDX 91 35 62 36 63 37 74 39 92 40 65 41 52 42 53 43 58 44 54 45
REMARK SMILES IDX 55 46 57 47 59 48 56 49 78 50 79 51 84 52 80 53 81 54 83 55
REMARK SMILES IDX 85 56 82 57 66 58 67 59 72 60 68 61 69 62 71 63 73 64 70 65
REMARK SMILES IDX 10 66 11 67 12 68 13 69 14 70 15 71 16 72 17 73 18 74 19 75
REMARK SMILES IDX 23 76 20 77 22 78 21 79 24 80 25 81 42 82 26 83 34 84 33 85
REMARK SMILES IDX 27 86 28 87 32 88 29 89 31 90 30 91 35 92 36 93 41 94 37 95
REMARK SMILES IDX 39 96 38 97 40 98
REMARK H PARENT 90 27 64 38
REMARK Flexibility Score: inf
ROOT
ATOM      1  O   UNL A   1      41.414  20.854  25.748  1.00  0.00    -0.377 OA
ENDROOT
BRANCH   1   2
ATOM      2  C   UNL A   1      41.800  19.580  26.232  1.00  0.00     0.188 C 
BRANCH   2   3
ATOM      3  C   UNL A   1      43.176  19.107  25.755  1.00  0.00     0.188 C 
BRANCH   3   4
ATOM      4  O   UNL A   1      43.637  19.910  24.657  1.00  0.00    -0.376 OA
BRANCH   4   5
ATOM      5  C   UNL A   1      44.749  20.768  24.922  1.00  0.00     0.202 C 
BRANCH   5   6
ATOM      6  C   UNL A   1      44.447  22.264  24.936  1.00  0.00     0.261 C 
BRANCH   6   7
ATOM      7  O   UNL A   1      44.621  22.865  26.222  1.00  0.00    -0.460 OA
BRANCH   7   8
ATOM      8  C   UNL A   1      43.775  23.685  26.890  1.00  0.00     0.338 C 
ATOM      9  O   UNL A   1      42.662  23.240  27.173  1.00  0.00    -0.246 OA
BRANCH   8  10
ATOM     10  C   UNL A   1      44.051  25.129  27.224  1.00  0.00     0.060 A 
ATOM     11  C   UNL A   1      44.741  25.609  28.343  1.00  0.00     0.016 A 
ATOM     12  C   UNL A   1      43.600  26.079  26.287  1.00  0.00     0.016 A 
ATOM     13  C   UNL A   1      44.996  26.958  28.532  1.00  0.00     0.010 A 
ATOM     14  C   UNL A   1      43.781  27.448  26.501  1.00  0.00     0.010 A 
ATOM     15  C   UNL A   1      44.450  27.878  27.649  1.00  0.00    -0.014 A 
BRANCH  15  16
ATOM     16  C   UNL A   1      44.269  29.240  28.164  1.00  0.00     0.031 A 
ATOM     17  C   UNL A   1      45.363  30.216  27.847  1.00  0.00     0.074 A 
ATOM     18  C   UNL A   1      43.118  29.611  28.739  1.00  0.00     0.049 A 
ATOM     19  N   UNL A   1      45.525  31.446  28.242  1.00  0.00    -0.248 NA
ATOM     20  C   UNL A   1      46.420  29.733  26.936  1.00  0.00     0.031 C 
ATOM     21  C   UNL A   1      41.939  28.759  28.902  1.00  0.00     0.029 A 
ATOM     22  N   UNL A   1      42.749  30.811  29.279  1.00  0.00    -0.354 N 
ATOM     23  C   UNL A   1      46.715  31.866  27.662  1.00  0.00     0.074 A 
ATOM     24  C   UNL A   1      47.230  30.774  26.875  1.00  0.00     0.031 C 
ATOM     25  C   UNL A   1      40.981  29.463  29.528  1.00  0.00     0.029 A 
ATOM     26  C   UNL A   1      41.508  30.783  29.861  1.00  0.00     0.049 A 
ATOM     27  H   UNL A   1      43.318  31.614  29.253  1.00  0.00     0.167 HD
ATOM     28  C   UNL A   1      47.329  33.060  27.802  1.00  0.00     0.037 A 
ATOM     29  C   UNL A   1      40.910  31.716  30.625  1.00  0.00     0.037 A 
ATOM     30  C   UNL A   1      46.788  34.107  28.621  1.00  0.00     0.049 A 
ATOM     31  C   UNL A   1      41.662  32.996  30.878  1.00  0.00     0.074 A 
ATOM     32  C   UNL A   1      47.333  35.334  28.940  1.00  0.00     0.029 A 
ATOM     33  N   UNL A   1      45.556  34.026  29.262  1.00  0.00    -0.354 N 
ATOM     34  N   UNL A   1      42.837  33.367  30.417  1.00  0.00    -0.248 NA
ATOM     35  C   UNL A   1      41.028  33.976  31.764  1.00  0.00     0.031 C 
ATOM     36  C   UNL A   1      46.448  35.975  29.816  1.00  0.00     0.029 A 
ATOM     37  C   UNL A   1      45.327  35.174  29.991  1.00  0.00     0.049 A 
ATOM     38  H   UNL A   1      44.938  33.262  29.203  1.00  0.00     0.167 HD
ATOM     39  C   UNL A   1      43.071  34.634  30.935  1.00  0.00     0.074 A 
ATOM     40  C   UNL A   1      41.911  34.966  31.743  1.00  0.00     0.031 C 
ATOM     41  C   UNL A   1      44.139  35.453  30.764  1.00  0.00     0.037 A 
BRANCH  28  42
ATOM     42  C   UNL A   1      48.675  33.207  27.157  1.00  0.00     0.057 A 
ATOM     43  C   UNL A   1      49.850  32.712  27.742  1.00  0.00     0.134 A 
ATOM     44  C   UNL A   1      48.811  33.950  25.978  1.00  0.00     0.134 A 
ATOM     45  F   UNL A   1      49.799  32.029  28.896  1.00  0.00    -0.206 F 
ATOM     46  C   UNL A   1      51.109  32.984  27.200  1.00  0.00     0.040 A 
ATOM     47  C   UNL A   1      50.060  34.206  25.411  1.00  0.00     0.040 A 
ATOM     48  F   UNL A   1      47.732  34.469  25.372  1.00  0.00    -0.206 F 
ATOM     49  C   UNL A   1      51.215  33.734  26.030  1.00  0.00     0.006 A 
ENDBRANCH  28  42
BRANCH  29  50
ATOM     50  C   UNL A   1      39.585  31.441  31.238  1.00  0.00     0.057 A 
ATOM     51  C   UNL A   1      38.393  31.814  30.610  1.00  0.00     0.134 A 
ATOM     52  C   UNL A   1      39.479  30.776  32.468  1.00  0.00     0.134 A 
ATOM     53  F   UNL A   1      38.422  32.469  29.440  1.00  0.00    -0.206 F 
ATOM     54  C   UNL A   1      37.146  31.542  31.181  1.00  0.00     0.040 A 
ATOM     55  C   UNL A   1      38.241  30.475  33.039  1.00  0.00     0.040 A 
ATOM     56  F   UNL A   1      40.582  30.391  33.128  1.00  0.00    -0.206 F 
ATOM     57  C   UNL A   1      37.069  30.864  32.396  1.00  0.00     0.006 A 
ENDBRANCH  29  50
BRANCH  41  58
ATOM     58  C   UNL A   1      44.072  36.800  31.413  1.00  0.00     0.057 A 
ATOM     59  C   UNL A   1      44.408  36.991  32.757  1.00  0.00     0.134 A 
ATOM     60  C   UNL A   1      43.749  37.930  30.651  1.00  0.00     0.134 A 
ATOM     61  F   UNL A   1      44.716  35.945  33.538  1.00  0.00    -0.206 F 
ATOM     62  C   UNL A   1      44.415  38.265  33.326  1.00  0.00     0.040 A 
ATOM     63  C   UNL A   1      43.781  39.209  31.200  1.00  0.00     0.040 A 
ATOM     64  F   UNL A   1      43.432  37.808  29.352  1.00  0.00    -0.206 F 
ATOM     65  C   UNL A   1      44.112  39.378  32.543  1.00  0.00     0.006 A 
ENDBRANCH  41  58
ENDBRANCH  15  16
ENDBRANCH   8  10
ENDBRANCH   7   8
ENDBRANCH   6   7
ENDBRANCH   5   6
ENDBRANCH   4   5
ENDBRANCH   3   4
ENDBRANCH   2   3
ENDBRANCH   1   2
BRANCH   1  66
ATOM     66  C   UNL A   1      40.140  21.295  26.161  1.00  0.00     0.188 C 
BRANCH  66  67
ATOM     67  C   UNL A   1      38.878  20.604  25.623  1.00  0.00     0.188 C 
BRANCH  67  68
ATOM     68  O   UNL A   1      37.877  21.358  24.993  1.00  0.00    -0.376 OA
BRANCH  68  69
ATOM     69  C   UNL A   1      37.217  22.384  25.699  1.00  0.00     0.202 C 
BRANCH  69  70
ATOM     70  C   UNL A   1      35.707  22.708  25.578  1.00  0.00     0.261 C 
BRANCH  70  71
ATOM     71  O   UNL A   1      35.272  23.975  25.051  1.00  0.00    -0.462 OA
BRANCH  71  72
ATOM     72  C   UNL A   1      34.944  24.046  23.735  1.00  0.00     0.328 C 
ATOM     73  O   UNL A   1      35.649  23.541  22.860  1.00  0.00    -0.250 OA
BRANCH  72  74
ATOM     74  C   UNL A   1      33.629  24.865  23.460  1.00  0.00     0.193 C 
ATOM     75  C   UNL A   1      32.787  24.062  22.457  1.00  0.00     0.037 C 
ATOM     76  N   UNL A   1      32.793  25.234  24.664  1.00  0.00    -0.343 N 
ATOM     77  C   UNL A   1      32.094  22.888  23.143  1.00  0.00     0.005 C 
ATOM     78  C   UNL A   1      31.801  24.297  25.213  1.00  0.00     0.119 C 
ATOM     79  C   UNL A   1      31.113  23.431  24.165  1.00  0.00     0.022 C 
BRANCH  76  80
ATOM     80  C   UNL A   1      32.454  26.584  24.848  1.00  0.00     0.134 A 
ATOM     81  C   UNL A   1      31.374  27.151  24.169  1.00  0.00     0.076 A 
ATOM     82  N   UNL A   1      33.207  27.341  25.647  1.00  0.00    -0.211 NA
ATOM     83  C   UNL A   1      31.061  28.482  24.384  1.00  0.00     0.076 A 
ATOM     84  C   UNL A   1      32.871  28.643  25.753  1.00  0.00     0.162 A 
ATOM     85  N   UNL A   1      31.827  29.251  25.167  1.00  0.00    -0.228 NA
BRANCH  83  86
ATOM     86  C   UNL A   1      29.865  29.138  23.814  1.00  0.00     0.000 A 
ATOM     87  C   UNL A   1      28.887  28.398  23.123  1.00  0.00     0.010 A 
ATOM     88  C   UNL A   1      29.692  30.535  23.881  1.00  0.00     0.010 A 
ATOM     89  C   UNL A   1      27.790  29.024  22.518  1.00  0.00     0.001 A 
ATOM     90  C   UNL A   1      28.600  31.162  23.266  1.00  0.00     0.001 A 
ATOM     91  C   UNL A   1      27.651  30.407  22.583  1.00  0.00     0.000 A 
ENDBRANCH  83  86
BRANCH  84  92
ATOM     92  C   UNL A   1      33.734  29.480  26.574  1.00  0.00     0.021 A 
ATOM     93  C   UNL A   1      33.292  30.735  27.026  1.00  0.00     0.012 A 
ATOM     94  C   UNL A   1      35.025  29.052  26.918  1.00  0.00     0.032 A 
ATOM     95  C   UNL A   1      34.126  31.554  27.786  1.00  0.00     0.002 A 
ATOM     96  C   UNL A   1      35.862  29.882  27.660  1.00  0.00     0.041 A 
ATOM     97  C   UNL A   1      35.419  31.131  28.092  1.00  0.00     0.020 A 
ATOM     98  Cl  UNL A   1      37.461  29.367  28.027  1.00  0.00    -0.084 Cl
ENDBRANCH  84  92
ENDBRANCH  76  80
ENDBRANCH  72  74
ENDBRANCH  71  72
ENDBRANCH  70  71
ENDBRANCH  69  70
ENDBRANCH  68  69
ENDBRANCH  67  68
ENDBRANCH  66  67
ENDBRANCH   1  66
TORSDOF 23
ENDMDL
