MODEL 1
REMARK VINA RESULT:     -11.3      0.000      0.000
REMARK SMILES Cc1nn([C@H]2CCS(=O)(=O)C2)c(C)c1/C=C(\CC(=O)OCCOCCOCCOCCOC(=O)c1ccc(-c2c3nc(c(-c4c(F)cccc4F)c4ccc([nH]4)c(-c4c(F)cccc4F)c4nc(c(-c5c(F)cccc5F)c5ccc2[nH]5)C=C4)C=C3)cc1)c1nc2ccccc2s1
REMARK SMILES IDX 25 1 24 2 23 3 22 4 21 5 20 6 18 7 19 8 17 9 16 10 15 11
REMARK SMILES IDX 14 12 1 13 2 14 3 15 4 16 12 17 13 18 5 19 6 20 11 21 7 22
REMARK SMILES IDX 8 23 9 24 10 25 89 26 90 27 97 28 91 29 96 30 92 31 95 32
REMARK SMILES IDX 93 33 94 34 26 35 27 36 28 37 29 38 30 39 31 40 32 41 33 42
REMARK SMILES IDX 34 43 35 44 36 45 88 46 37 47 87 48 38 49 39 50 40 51 81 52
REMARK SMILES IDX 41 53 86 54 80 55 82 56 42 57 85 58 79 59 78 60 43 62 69 63
REMARK SMILES IDX 52 64 68 65 53 66 56 67 67 68 83 69 54 70 55 71 66 73 84 74
REMARK SMILES IDX 57 75 44 76 45 77 50 78 46 79 47 80 49 81 51 82 48 83 70 84
REMARK SMILES IDX 71 85 76 86 72 87 73 88 75 89 77 90 74 91 58 92 59 93 64 94
REMARK SMILES IDX 60 95 61 96 63 97 65 98 62 99
REMARK H PARENT 82 61 56 72
REMARK Flexibility Score: inf
ROOT
ATOM      1  C   UNL A   1      40.871  20.273  26.802  1.00  0.00     0.188 C 
ENDROOT
BRANCH   1   2
ATOM      2  C   UNL A   1      40.642  21.717  27.314  1.00  0.00     0.188 C 
BRANCH   2   3
ATOM      3  O   UNL A   1      39.611  22.550  26.787  1.00  0.00    -0.376 OA
BRANCH   3   4
ATOM      4  C   UNL A   1      38.556  21.984  26.030  1.00  0.00     0.202 C 
BRANCH   4   5
ATOM      5  C   UNL A   1      37.433  22.938  25.581  1.00  0.00     0.261 C 
BRANCH   5   6
ATOM      6  O   UNL A   1      36.193  22.851  26.317  1.00  0.00    -0.463 OA
BRANCH   6   7
ATOM      7  C   UNL A   1      35.097  23.154  25.584  1.00  0.00     0.310 C 
ATOM      8  O   UNL A   1      35.113  23.887  24.596  1.00  0.00    -0.252 OA
BRANCH   7   9
ATOM      9  C   UNL A   1      33.766  22.709  26.172  1.00  0.00     0.161 C 
BRANCH   9  10
ATOM     10  C   UNL A   1      32.729  21.662  25.732  1.00  0.00    -0.000 C 
ATOM     11  C   UNL A   1      31.467  22.043  25.375  1.00  0.00     0.019 C 
BRANCH  11  12
ATOM     12  C   UNL A   1      30.901  23.352  25.509  1.00  0.00     0.019 A 
ATOM     13  C   UNL A   1      29.158  23.073  27.460  1.00  0.00     0.069 C 
ATOM     14  C   UNL A   1      29.993  23.825  26.489  1.00  0.00     0.067 A 
ATOM     15  N   UNL A   1      29.933  25.165  26.462  1.00  0.00    -0.177 NA
ATOM     16  N   UNL A   1      30.769  25.503  25.459  1.00  0.00    -0.265 N 
ATOM     17  C   UNL A   1      31.029  24.427  24.642  1.00  0.00     0.043 A 
ATOM     18  C   UNL A   1      31.446  24.522  23.215  1.00  0.00     0.067 C 
BRANCH  16  19
ATOM     19  C   UNL A   1      31.312  26.851  25.395  1.00  0.00     0.123 C 
ATOM     20  C   UNL A   1      31.140  27.640  26.714  1.00  0.00     0.044 C 
ATOM     21  C   UNL A   1      32.822  26.910  25.148  1.00  0.00     0.164 C 
ATOM     22  C   UNL A   1      31.868  28.964  26.532  1.00  0.00     0.139 C 
ATOM     23  S   UNL A   1      33.266  28.593  25.495  1.00  0.00     0.152 S 
ATOM     24  O   UNL A   1      33.123  29.350  24.257  1.00  0.00    -0.229 OA
ATOM     25  O   UNL A   1      34.467  28.615  26.281  1.00  0.00    -0.229 OA
ENDBRANCH  16  19
ENDBRANCH  11  12
BRANCH  10  26
ATOM     26  C   UNL A   1      33.139  20.288  25.451  1.00  0.00     0.121 A 
ATOM     27  N   UNL A   1      32.386  19.233  25.707  1.00  0.00    -0.236 NA
ATOM     28  S   UNL A   1      34.649  19.863  24.689  1.00  0.00    -0.114 S 
ATOM     29  C   UNL A   1      32.996  18.049  25.315  1.00  0.00     0.082 A 
ATOM     30  C   UNL A   1      34.249  18.192  24.725  1.00  0.00     0.055 A 
ATOM     31  C   UNL A   1      32.444  16.754  25.426  1.00  0.00     0.030 A 
ATOM     32  C   UNL A   1      34.976  17.085  24.245  1.00  0.00     0.021 A 
ATOM     33  C   UNL A   1      33.145  15.648  24.928  1.00  0.00     0.002 A 
ATOM     34  C   UNL A   1      34.397  15.814  24.345  1.00  0.00     0.002 A 
ENDBRANCH  10  26
ENDBRANCH   9  10
ENDBRANCH   7   9
ENDBRANCH   6   7
ENDBRANCH   5   6
ENDBRANCH   4   5
ENDBRANCH   3   4
ENDBRANCH   2   3
ENDBRANCH   1   2
BRANCH   1  35
ATOM     35  O   UNL A   1      41.813  19.495  27.526  1.00  0.00    -0.377 OA
BRANCH  35  36
ATOM     36  C   UNL A   1      42.559  18.575  26.749  1.00  0.00     0.188 C 
BRANCH  36  37
ATOM     37  C   UNL A   1      43.088  19.103  25.403  1.00  0.00     0.188 C 
BRANCH  37  38
ATOM     38  O   UNL A   1      44.149  18.340  24.840  1.00  0.00    -0.376 OA
BRANCH  38  39
ATOM     39  C   UNL A   1      45.042  18.934  23.909  1.00  0.00     0.202 C 
BRANCH  39  40
ATOM     40  C   UNL A   1      45.543  20.311  24.330  1.00  0.00     0.261 C 
BRANCH  40  41
ATOM     41  O   UNL A   1      44.887  21.377  23.672  1.00  0.00    -0.460 OA
BRANCH  41  42
ATOM     42  C   UNL A   1      45.127  22.595  24.180  1.00  0.00     0.338 C 
ATOM     43  O   UNL A   1      45.981  23.396  23.824  1.00  0.00    -0.246 OA
BRANCH  42  44
ATOM     44  C   UNL A   1      44.273  22.782  25.354  1.00  0.00     0.060 A 
ATOM     45  C   UNL A   1      43.073  23.416  25.053  1.00  0.00     0.016 A 
ATOM     46  C   UNL A   1      44.913  22.894  26.600  1.00  0.00     0.016 A 
ATOM     47  C   UNL A   1      42.753  24.495  25.823  1.00  0.00     0.010 A 
ATOM     48  C   UNL A   1      44.603  23.985  27.362  1.00  0.00     0.010 A 
ATOM     49  C   UNL A   1      43.602  24.824  26.888  1.00  0.00    -0.014 A 
BRANCH  49  50
ATOM     50  C   UNL A   1      43.332  26.071  27.542  1.00  0.00     0.031 A 
ATOM     51  C   UNL A   1      44.402  27.052  27.316  1.00  0.00     0.074 A 
ATOM     52  C   UNL A   1      42.214  26.306  28.241  1.00  0.00     0.049 A 
ATOM     53  N   UNL A   1      45.292  27.465  28.151  1.00  0.00    -0.248 NA
ATOM     54  C   UNL A   1      44.628  27.448  25.918  1.00  0.00     0.031 C 
ATOM     55  C   UNL A   1      40.951  25.568  28.249  1.00  0.00     0.029 A 
ATOM     56  N   UNL A   1      41.970  27.366  29.044  1.00  0.00    -0.354 N 
ATOM     57  C   UNL A   1      46.102  28.317  27.414  1.00  0.00     0.074 A 
ATOM     58  C   UNL A   1      45.777  28.108  26.028  1.00  0.00     0.031 C 
ATOM     59  C   UNL A   1      40.007  26.336  28.846  1.00  0.00     0.029 A 
ATOM     60  C   UNL A   1      40.640  27.542  29.363  1.00  0.00     0.049 A 
ATOM     61  H   UNL A   1      42.681  27.962  29.372  1.00  0.00     0.167 HD
ATOM     62  C   UNL A   1      46.819  29.305  28.003  1.00  0.00     0.037 A 
ATOM     63  C   UNL A   1      40.126  28.670  29.904  1.00  0.00     0.037 A 
ATOM     64  C   UNL A   1      46.959  29.093  29.418  1.00  0.00     0.049 A 
ATOM     65  C   UNL A   1      41.257  29.458  30.471  1.00  0.00     0.074 A 
ATOM     66  C   UNL A   1      47.567  28.128  30.197  1.00  0.00     0.029 A 
ATOM     67  N   UNL A   1      46.103  29.770  30.251  1.00  0.00    -0.354 N 
ATOM     68  N   UNL A   1      41.962  29.098  31.509  1.00  0.00    -0.248 NA
ATOM     69  C   UNL A   1      41.891  30.454  29.614  1.00  0.00     0.031 C 
ATOM     70  C   UNL A   1      46.735  27.993  31.346  1.00  0.00     0.029 A 
ATOM     71  C   UNL A   1      45.672  28.888  31.209  1.00  0.00     0.049 A 
ATOM     72  H   UNL A   1      45.845  30.718  30.175  1.00  0.00     0.167 HD
ATOM     73  C   UNL A   1      43.258  29.524  31.240  1.00  0.00     0.074 A 
ATOM     74  C   UNL A   1      43.132  30.435  30.109  1.00  0.00     0.031 C 
ATOM     75  C   UNL A   1      44.342  28.887  31.778  1.00  0.00     0.037 A 
BRANCH  62  76
ATOM     76  C   UNL A   1      47.096  30.622  27.335  1.00  0.00     0.057 A 
ATOM     77  C   UNL A   1      48.418  31.078  27.240  1.00  0.00     0.134 A 
ATOM     78  C   UNL A   1      46.104  31.570  27.005  1.00  0.00     0.134 A 
ATOM     79  F   UNL A   1      49.448  30.280  27.560  1.00  0.00    -0.206 F 
ATOM     80  C   UNL A   1      48.727  32.395  26.882  1.00  0.00     0.040 A 
ATOM     81  C   UNL A   1      46.403  32.866  26.585  1.00  0.00     0.040 A 
ATOM     82  F   UNL A   1      44.795  31.334  27.166  1.00  0.00    -0.206 F 
ATOM     83  C   UNL A   1      47.718  33.292  26.550  1.00  0.00     0.006 A 
ENDBRANCH  62  76
BRANCH  63  84
ATOM     84  C   UNL A   1      38.791  29.249  29.648  1.00  0.00     0.057 A 
ATOM     85  C   UNL A   1      38.409  29.638  28.359  1.00  0.00     0.134 A 
ATOM     86  C   UNL A   1      37.770  29.215  30.615  1.00  0.00     0.134 A 
ATOM     87  F   UNL A   1      39.304  29.652  27.361  1.00  0.00    -0.206 F 
ATOM     88  C   UNL A   1      37.085  29.971  28.048  1.00  0.00     0.040 A 
ATOM     89  C   UNL A   1      36.448  29.557  30.322  1.00  0.00     0.040 A 
ATOM     90  F   UNL A   1      38.003  28.770  31.859  1.00  0.00    -0.206 F 
ATOM     91  C   UNL A   1      36.099  29.926  29.030  1.00  0.00     0.006 A 
ENDBRANCH  63  84
BRANCH  75  92
ATOM     92  C   UNL A   1      44.089  27.891  32.873  1.00  0.00     0.057 A 
ATOM     93  C   UNL A   1      43.923  26.517  32.638  1.00  0.00     0.134 A 
ATOM     94  C   UNL A   1      44.192  28.301  34.206  1.00  0.00     0.134 A 
ATOM     95  F   UNL A   1      43.918  26.025  31.393  1.00  0.00    -0.206 F 
ATOM     96  C   UNL A   1      43.827  25.599  33.688  1.00  0.00     0.040 A 
ATOM     97  C   UNL A   1      44.129  27.389  35.262  1.00  0.00     0.040 A 
ATOM     98  F   UNL A   1      44.414  29.592  34.501  1.00  0.00    -0.206 F 
ATOM     99  C   UNL A   1      43.939  26.033  35.005  1.00  0.00     0.006 A 
ENDBRANCH  75  92
ENDBRANCH  49  50
ENDBRANCH  42  44
ENDBRANCH  41  42
ENDBRANCH  40  41
ENDBRANCH  39  40
ENDBRANCH  38  39
ENDBRANCH  37  38
ENDBRANCH  36  37
ENDBRANCH  35  36
ENDBRANCH   1  35
TORSDOF 24
ENDMDL
MODEL 2
REMARK VINA RESULT:     -10.6      3.303      9.407
REMARK SMILES Cc1nn([C@H]2CCS(=O)(=O)C2)c(C)c1/C=C(\CC(=O)OCCOCCOCCOCCOC(=O)c1ccc(-c2c3nc(c(-c4c(F)cccc4F)c4ccc([nH]4)c(-c4c(F)cccc4F)c4nc(c(-c5c(F)cccc5F)c5ccc2[nH]5)C=C4)C=C3)cc1)c1nc2ccccc2s1
REMARK SMILES IDX 25 1 24 2 23 3 22 4 21 5 20 6 18 7 19 8 17 9 16 10 15 11
REMARK SMILES IDX 14 12 1 13 2 14 3 15 4 16 12 17 13 18 5 19 6 20 11 21 7 22
REMARK SMILES IDX 8 23 9 24 10 25 89 26 90 27 97 28 91 29 96 30 92 31 95 32
REMARK SMILES IDX 93 33 94 34 26 35 27 36 28 37 29 38 30 39 31 40 32 41 33 42
REMARK SMILES IDX 34 43 35 44 36 45 88 46 37 47 87 48 38 49 39 50 40 51 81 52
REMARK SMILES IDX 41 53 86 54 80 55 82 56 42 57 85 58 79 59 78 60 43 62 69 63
REMARK SMILES IDX 52 64 68 65 53 66 56 67 67 68 83 69 54 70 55 71 66 73 84 74
REMARK SMILES IDX 57 75 44 76 45 77 50 78 46 79 47 80 49 81 51 82 48 83 70 84
REMARK SMILES IDX 71 85 76 86 72 87 73 88 75 89 77 90 74 91 58 92 59 93 64 94
REMARK SMILES IDX 60 95 61 96 63 97 65 98 62 99
REMARK H PARENT 82 61 56 72
REMARK Flexibility Score: inf
ROOT
ATOM      1  C   UNL A   1      33.938  32.312  28.604  1.00  0.00     0.188 C 
ENDROOT
BRANCH   1   2
ATOM      2  C   UNL A   1      34.504  31.253  27.626  1.00  0.00     0.188 C 
BRANCH   2   3
ATOM      3  O   UNL A   1      33.676  30.582  26.679  1.00  0.00    -0.376 OA
BRANCH   3   4
ATOM      4  C   UNL A   1      32.312  30.335  26.973  1.00  0.00     0.202 C 
BRANCH   4   5
ATOM      5  C   UNL A   1      31.806  28.895  26.767  1.00  0.00     0.261 C 
BRANCH   5   6
ATOM      6  O   UNL A   1      32.639  27.846  27.307  1.00  0.00    -0.463 OA
BRANCH   6   7
ATOM      7  C   UNL A   1      33.061  26.950  26.384  1.00  0.00     0.310 C 
ATOM      8  O   UNL A   1      34.159  26.999  25.832  1.00  0.00    -0.252 OA
BRANCH   7   9
ATOM      9  C   UNL A   1      32.008  25.972  25.885  1.00  0.00     0.161 C 
BRANCH   9  10
ATOM     10  C   UNL A   1      31.357  25.752  24.510  1.00  0.00    -0.000 C 
ATOM     11  C   UNL A   1      31.175  24.489  24.022  1.00  0.00     0.019 C 
BRANCH  11  12
ATOM     12  C   UNL A   1      31.678  23.274  24.591  1.00  0.00     0.019 A 
ATOM     13  C   UNL A   1      30.088  22.847  26.643  1.00  0.00     0.069 C 
ATOM     14  C   UNL A   1      31.135  22.502  25.648  1.00  0.00     0.067 A 
ATOM     15  N   UNL A   1      31.716  21.294  25.689  1.00  0.00    -0.177 NA
ATOM     16  N   UNL A   1      32.623  21.340  24.692  1.00  0.00    -0.265 N 
ATOM     17  C   UNL A   1      32.876  22.635  24.307  1.00  0.00     0.043 A 
ATOM     18  C   UNL A   1      34.132  23.100  23.653  1.00  0.00     0.067 C 
BRANCH  16  19
ATOM     19  C   UNL A   1      33.144  20.101  24.133  1.00  0.00     0.123 C 
ATOM     20  C   UNL A   1      34.386  19.569  24.885  1.00  0.00     0.044 C 
ATOM     21  C   UNL A   1      32.167  18.924  24.196  1.00  0.00     0.164 C 
ATOM     22  C   UNL A   1      34.725  18.218  24.272  1.00  0.00     0.139 C 
ATOM     23  S   UNL A   1      33.159  17.500  23.823  1.00  0.00     0.152 S 
ATOM     24  O   UNL A   1      33.144  17.321  22.375  1.00  0.00    -0.229 OA
ATOM     25  O   UNL A   1      32.835  16.442  24.737  1.00  0.00    -0.229 OA
ENDBRANCH  16  19
ENDBRANCH  11  12
BRANCH  10  26
ATOM     26  C   UNL A   1      30.702  26.859  23.815  1.00  0.00     0.121 A 
ATOM     27  N   UNL A   1      29.404  27.092  23.871  1.00  0.00    -0.236 NA
ATOM     28  S   UNL A   1      31.556  28.048  22.868  1.00  0.00    -0.114 S 
ATOM     29  C   UNL A   1      29.045  28.221  23.148  1.00  0.00     0.082 A 
ATOM     30  C   UNL A   1      30.097  28.891  22.528  1.00  0.00     0.055 A 
ATOM     31  C   UNL A   1      27.742  28.754  23.031  1.00  0.00     0.030 A 
ATOM     32  C   UNL A   1      29.895  30.073  21.789  1.00  0.00     0.021 A 
ATOM     33  C   UNL A   1      27.531  29.943  22.321  1.00  0.00     0.002 A 
ATOM     34  C   UNL A   1      28.597  30.593  21.708  1.00  0.00     0.002 A 
ENDBRANCH  10  26
ENDBRANCH   9  10
ENDBRANCH   7   9
ENDBRANCH   6   7
ENDBRANCH   5   6
ENDBRANCH   4   5
ENDBRANCH   3   4
ENDBRANCH   2   3
ENDBRANCH   1   2
BRANCH   1  35
ATOM     35  O   UNL A   1      33.362  33.467  28.010  1.00  0.00    -0.377 OA
BRANCH  35  36
ATOM     36  C   UNL A   1      33.350  34.623  28.829  1.00  0.00     0.188 C 
BRANCH  36  37
ATOM     37  C   UNL A   1      34.370  34.642  29.983  1.00  0.00     0.188 C 
BRANCH  37  38
ATOM     38  O   UNL A   1      33.853  34.222  31.241  1.00  0.00    -0.376 OA
BRANCH  38  39
ATOM     39  C   UNL A   1      34.732  33.785  32.266  1.00  0.00     0.202 C 
BRANCH  39  40
ATOM     40  C   UNL A   1      35.096  32.308  32.175  1.00  0.00     0.261 C 
BRANCH  40  41
ATOM     41  O   UNL A   1      36.385  32.074  31.640  1.00  0.00    -0.460 OA
BRANCH  41  42
ATOM     42  C   UNL A   1      36.628  30.809  31.270  1.00  0.00     0.338 C 
ATOM     43  O   UNL A   1      36.027  30.149  30.433  1.00  0.00    -0.246 OA
BRANCH  42  44
ATOM     44  C   UNL A   1      37.674  30.266  32.139  1.00  0.00     0.060 A 
ATOM     45  C   UNL A   1      38.854  31.000  32.086  1.00  0.00     0.016 A 
ATOM     46  C   UNL A   1      37.634  28.888  32.404  1.00  0.00     0.016 A 
ATOM     47  C   UNL A   1      39.994  30.288  31.857  1.00  0.00     0.010 A 
ATOM     48  C   UNL A   1      38.773  28.174  32.159  1.00  0.00     0.010 A 
ATOM     49  C   UNL A   1      39.899  28.892  31.775  1.00  0.00    -0.014 A 
BRANCH  49  50
ATOM     50  C   UNL A   1      41.082  28.208  31.342  1.00  0.00     0.031 A 
ATOM     51  C   UNL A   1      42.114  28.184  32.386  1.00  0.00     0.074 A 
ATOM     52  C   UNL A   1      41.198  27.636  30.137  1.00  0.00     0.049 A 
ATOM     53  N   UNL A   1      43.213  28.854  32.435  1.00  0.00    -0.248 NA
ATOM     54  C   UNL A   1      41.758  27.482  33.628  1.00  0.00     0.031 C 
ATOM     55  C   UNL A   1      40.159  27.289  29.168  1.00  0.00     0.029 A 
ATOM     56  N   UNL A   1      42.330  27.150  29.578  1.00  0.00    -0.354 N 
ATOM     57  C   UNL A   1      43.777  28.525  33.659  1.00  0.00     0.074 A 
ATOM     58  C   UNL A   1      42.758  27.855  34.422  1.00  0.00     0.031 C 
ATOM     59  C   UNL A   1      40.691  26.448  28.248  1.00  0.00     0.029 A 
ATOM     60  C   UNL A   1      42.119  26.315  28.501  1.00  0.00     0.049 A 
ATOM     61  H   UNL A   1      43.229  27.373  29.912  1.00  0.00     0.167 HD
ATOM     62  C   UNL A   1      45.112  28.615  33.876  1.00  0.00     0.037 A 
ATOM     63  C   UNL A   1      43.058  25.501  27.968  1.00  0.00     0.037 A 
ATOM     64  C   UNL A   1      45.758  29.444  32.895  1.00  0.00     0.049 A 
ATOM     65  C   UNL A   1      44.391  25.976  28.439  1.00  0.00     0.074 A 
ATOM     66  C   UNL A   1      45.680  30.779  32.553  1.00  0.00     0.029 A 
ATOM     67  N   UNL A   1      46.381  28.818  31.843  1.00  0.00    -0.354 N 
ATOM     68  N   UNL A   1      44.943  27.102  28.079  1.00  0.00    -0.248 NA
ATOM     69  C   UNL A   1      44.931  25.390  29.660  1.00  0.00     0.031 C 
ATOM     70  C   UNL A   1      45.867  30.817  31.141  1.00  0.00     0.029 A 
ATOM     71  C   UNL A   1      46.059  29.506  30.702  1.00  0.00     0.049 A 
ATOM     72  H   UNL A   1      46.956  28.020  31.899  1.00  0.00     0.167 HD
ATOM     73  C   UNL A   1      45.622  27.557  29.204  1.00  0.00     0.074 A 
ATOM     74  C   UNL A   1      45.659  26.416  30.112  1.00  0.00     0.031 C 
ATOM     75  C   UNL A   1      45.846  28.889  29.410  1.00  0.00     0.037 A 
BRANCH  62  76
ATOM     76  C   UNL A   1      45.857  27.677  34.783  1.00  0.00     0.057 A 
ATOM     77  C   UNL A   1      46.555  28.194  35.882  1.00  0.00     0.134 A 
ATOM     78  C   UNL A   1      46.122  26.323  34.481  1.00  0.00     0.134 A 
ATOM     79  F   UNL A   1      46.414  29.478  36.246  1.00  0.00    -0.206 F 
ATOM     80  C   UNL A   1      47.479  27.431  36.604  1.00  0.00     0.040 A 
ATOM     81  C   UNL A   1      46.992  25.535  35.233  1.00  0.00     0.040 A 
ATOM     82  F   UNL A   1      45.635  25.717  33.390  1.00  0.00    -0.206 F 
ATOM     83  C   UNL A   1      47.698  26.096  36.282  1.00  0.00     0.006 A 
ENDBRANCH  62  76
BRANCH  63  84
ATOM     84  C   UNL A   1      42.843  24.162  27.382  1.00  0.00     0.057 A 
ATOM     85  C   UNL A   1      42.400  23.092  28.168  1.00  0.00     0.134 A 
ATOM     86  C   UNL A   1      42.836  23.955  25.990  1.00  0.00     0.134 A 
ATOM     87  F   UNL A   1      42.326  23.216  29.501  1.00  0.00    -0.206 F 
ATOM     88  C   UNL A   1      41.971  21.885  27.602  1.00  0.00     0.040 A 
ATOM     89  C   UNL A   1      42.422  22.752  25.413  1.00  0.00     0.040 A 
ATOM     90  F   UNL A   1      43.152  24.941  25.138  1.00  0.00    -0.206 F 
ATOM     91  C   UNL A   1      41.976  21.714  26.221  1.00  0.00     0.006 A 
ENDBRANCH  63  84
BRANCH  75  92
ATOM     92  C   UNL A   1      45.579  29.823  28.264  1.00  0.00     0.057 A 
ATOM     93  C   UNL A   1      44.324  30.399  28.019  1.00  0.00     0.134 A 
ATOM     94  C   UNL A   1      46.654  30.290  27.499  1.00  0.00     0.134 A 
ATOM     95  F   UNL A   1      43.262  30.086  28.773  1.00  0.00    -0.206 F 
ATOM     96  C   UNL A   1      44.140  31.369  27.030  1.00  0.00     0.040 A 
ATOM     97  C   UNL A   1      46.489  31.281  26.530  1.00  0.00     0.040 A 
ATOM     98  F   UNL A   1      47.894  29.828  27.724  1.00  0.00    -0.206 F 
ATOM     99  C   UNL A   1      45.228  31.819  26.287  1.00  0.00     0.006 A 
ENDBRANCH  75  92
ENDBRANCH  49  50
ENDBRANCH  42  44
ENDBRANCH  41  42
ENDBRANCH  40  41
ENDBRANCH  39  40
ENDBRANCH  38  39
ENDBRANCH  37  38
ENDBRANCH  36  37
ENDBRANCH  35  36
ENDBRANCH   1  35
TORSDOF 24
ENDMDL
MODEL 3
REMARK VINA RESULT:     -10.4      3.548      9.286
REMARK SMILES Cc1nn([C@H]2CCS(=O)(=O)C2)c(C)c1/C=C(\CC(=O)OCCOCCOCCOCCOC(=O)c1ccc(-c2c3nc(c(-c4c(F)cccc4F)c4ccc([nH]4)c(-c4c(F)cccc4F)c4nc(c(-c5c(F)cccc5F)c5ccc2[nH]5)C=C4)C=C3)cc1)c1nc2ccccc2s1
REMARK SMILES IDX 25 1 24 2 23 3 22 4 21 5 20 6 18 7 19 8 17 9 16 10 15 11
REMARK SMILES IDX 14 12 1 13 2 14 3 15 4 16 12 17 13 18 5 19 6 20 11 21 7 22
REMARK SMILES IDX 8 23 9 24 10 25 89 26 90 27 97 28 91 29 96 30 92 31 95 32
REMARK SMILES IDX 93 33 94 34 26 35 27 36 28 37 29 38 30 39 31 40 32 41 33 42
REMARK SMILES IDX 34 43 35 44 36 45 88 46 37 47 87 48 38 49 39 50 40 51 81 52
REMARK SMILES IDX 41 53 86 54 80 55 82 56 42 57 85 58 79 59 78 60 43 62 69 63
REMARK SMILES IDX 52 64 68 65 53 66 56 67 67 68 83 69 54 70 55 71 66 73 84 74
REMARK SMILES IDX 57 75 44 76 45 77 50 78 46 79 47 80 49 81 51 82 48 83 70 84
REMARK SMILES IDX 71 85 76 86 72 87 73 88 75 89 77 90 74 91 58 92 59 93 64 94
REMARK SMILES IDX 60 95 61 96 63 97 65 98 62 99
REMARK H PARENT 82 61 56 72
REMARK Flexibility Score: inf
ROOT
ATOM      1  C   UNL A   1      35.409  32.973  28.381  1.00  0.00     0.188 C 
ENDROOT
BRANCH   1   2
ATOM      2  C   UNL A   1      35.950  31.523  28.339  1.00  0.00     0.188 C 
BRANCH   2   3
ATOM      3  O   UNL A   1      35.570  30.605  27.315  1.00  0.00    -0.376 OA
BRANCH   3   4
ATOM      4  C   UNL A   1      34.242  30.118  27.252  1.00  0.00     0.202 C 
BRANCH   4   5
ATOM      5  C   UNL A   1      34.058  28.590  27.297  1.00  0.00     0.261 C 
BRANCH   5   6
ATOM      6  O   UNL A   1      33.311  28.007  26.207  1.00  0.00    -0.463 OA
BRANCH   6   7
ATOM      7  C   UNL A   1      32.279  27.227  26.603  1.00  0.00     0.310 C 
ATOM      8  O   UNL A   1      31.657  27.392  27.651  1.00  0.00    -0.252 OA
BRANCH   7   9
ATOM      9  C   UNL A   1      32.048  25.970  25.778  1.00  0.00     0.161 C 
BRANCH   9  10
ATOM     10  C   UNL A   1      31.288  25.707  24.468  1.00  0.00    -0.000 C 
ATOM     11  C   UNL A   1      31.065  24.429  24.039  1.00  0.00     0.019 C 
BRANCH  11  12
ATOM     12  C   UNL A   1      31.610  23.232  24.606  1.00  0.00     0.019 A 
ATOM     13  C   UNL A   1      30.062  22.771  26.683  1.00  0.00     0.069 C 
ATOM     14  C   UNL A   1      31.103  22.450  25.675  1.00  0.00     0.067 A 
ATOM     15  N   UNL A   1      31.719  21.259  25.713  1.00  0.00    -0.177 NA
ATOM     16  N   UNL A   1      32.609  21.324  24.702  1.00  0.00    -0.265 N 
ATOM     17  C   UNL A   1      32.821  22.624  24.308  1.00  0.00     0.043 A 
ATOM     18  C   UNL A   1      34.053  23.121  23.633  1.00  0.00     0.067 C 
BRANCH  16  19
ATOM     19  C   UNL A   1      33.156  20.098  24.142  1.00  0.00     0.123 C 
ATOM     20  C   UNL A   1      34.404  19.586  24.897  1.00  0.00     0.044 C 
ATOM     21  C   UNL A   1      32.201  18.902  24.196  1.00  0.00     0.164 C 
ATOM     22  C   UNL A   1      34.771  18.244  24.281  1.00  0.00     0.139 C 
ATOM     23  S   UNL A   1      33.221  17.499  23.823  1.00  0.00     0.152 S 
ATOM     24  O   UNL A   1      33.215  17.324  22.374  1.00  0.00    -0.229 OA
ATOM     25  O   UNL A   1      32.913  16.431  24.732  1.00  0.00    -0.229 OA
ENDBRANCH  16  19
ENDBRANCH  11  12
BRANCH  10  26
ATOM     26  C   UNL A   1      30.582  26.793  23.791  1.00  0.00     0.121 A 
ATOM     27  N   UNL A   1      29.281  26.994  23.892  1.00  0.00    -0.236 NA
ATOM     28  S   UNL A   1      31.372  27.998  22.808  1.00  0.00    -0.114 S 
ATOM     29  C   UNL A   1      28.868  28.110  23.177  1.00  0.00     0.082 A 
ATOM     30  C   UNL A   1      29.881  28.802  22.517  1.00  0.00     0.055 A 
ATOM     31  C   UNL A   1      27.550  28.610  23.104  1.00  0.00     0.030 A 
ATOM     32  C   UNL A   1      29.624  29.974  21.779  1.00  0.00     0.021 A 
ATOM     33  C   UNL A   1      27.284  29.789  22.395  1.00  0.00     0.002 A 
ATOM     34  C   UNL A   1      28.311  30.462  21.741  1.00  0.00     0.002 A 
ENDBRANCH  10  26
ENDBRANCH   9  10
ENDBRANCH   7   9
ENDBRANCH   6   7
ENDBRANCH   5   6
ENDBRANCH   4   5
ENDBRANCH   3   4
ENDBRANCH   2   3
ENDBRANCH   1   2
BRANCH   1  35
ATOM     35  O   UNL A   1      35.579  33.669  29.608  1.00  0.00    -0.377 OA
BRANCH  35  36
ATOM     36  C   UNL A   1      34.406  33.803  30.392  1.00  0.00     0.188 C 
BRANCH  36  37
ATOM     37  C   UNL A   1      34.453  33.160  31.791  1.00  0.00     0.188 C 
BRANCH  37  38
ATOM     38  O   UNL A   1      35.612  32.375  32.046  1.00  0.00    -0.376 OA
BRANCH  38  39
ATOM     39  C   UNL A   1      36.331  32.534  33.260  1.00  0.00     0.202 C 
BRANCH  39  40
ATOM     40  C   UNL A   1      37.837  32.358  33.111  1.00  0.00     0.261 C 
BRANCH  40  41
ATOM     41  O   UNL A   1      38.315  32.651  31.813  1.00  0.00    -0.460 OA
BRANCH  41  42
ATOM     42  C   UNL A   1      39.645  32.789  31.712  1.00  0.00     0.338 C 
ATOM     43  O   UNL A   1      40.379  33.469  32.417  1.00  0.00    -0.246 OA
BRANCH  42  44
ATOM     44  C   UNL A   1      40.093  32.087  30.508  1.00  0.00     0.060 A 
ATOM     45  C   UNL A   1      39.245  31.047  30.143  1.00  0.00     0.016 A 
ATOM     46  C   UNL A   1      41.472  32.087  30.243  1.00  0.00     0.016 A 
ATOM     47  C   UNL A   1      39.837  29.839  29.922  1.00  0.00     0.010 A 
ATOM     48  C   UNL A   1      42.066  30.874  30.038  1.00  0.00     0.010 A 
ATOM     49  C   UNL A   1      41.235  29.761  30.000  1.00  0.00    -0.014 A 
BRANCH  49  50
ATOM     50  C   UNL A   1      41.792  28.441  29.954  1.00  0.00     0.031 A 
ATOM     51  C   UNL A   1      42.347  28.035  31.252  1.00  0.00     0.074 A 
ATOM     52  C   UNL A   1      41.767  27.672  28.858  1.00  0.00     0.049 A 
ATOM     53  N   UNL A   1      43.585  27.924  31.588  1.00  0.00    -0.248 NA
ATOM     54  C   UNL A   1      41.390  27.956  32.366  1.00  0.00     0.031 C 
ATOM     55  C   UNL A   1      40.960  27.808  27.645  1.00  0.00     0.029 A 
ATOM     56  N   UNL A   1      42.434  26.511  28.669  1.00  0.00    -0.354 N 
ATOM     57  C   UNL A   1      43.560  27.593  32.935  1.00  0.00     0.074 A 
ATOM     58  C   UNL A   1      42.219  27.827  33.398  1.00  0.00     0.031 C 
ATOM     59  C   UNL A   1      41.026  26.645  26.952  1.00  0.00     0.029 A 
ATOM     60  C   UNL A   1      41.972  25.756  27.611  1.00  0.00     0.049 A 
ATOM     61  H   UNL A   1      43.185  26.228  29.238  1.00  0.00     0.167 HD
ATOM     62  C   UNL A   1      44.582  26.925  33.524  1.00  0.00     0.037 A 
ATOM     63  C   UNL A   1      42.284  24.457  27.405  1.00  0.00     0.037 A 
ATOM     64  C   UNL A   1      45.784  26.988  32.738  1.00  0.00     0.049 A 
ATOM     65  C   UNL A   1      43.493  24.145  28.220  1.00  0.00     0.074 A 
ATOM     66  C   UNL A   1      46.625  28.007  32.334  1.00  0.00     0.029 A 
ATOM     67  N   UNL A   1      46.079  25.913  31.936  1.00  0.00    -0.354 N 
ATOM     68  N   UNL A   1      44.684  24.626  27.990  1.00  0.00    -0.248 NA
ATOM     69  C   UNL A   1      43.291  23.625  29.568  1.00  0.00     0.031 C 
ATOM     70  C   UNL A   1      47.075  27.631  31.036  1.00  0.00     0.029 A 
ATOM     71  C   UNL A   1      46.493  26.401  30.724  1.00  0.00     0.049 A 
ATOM     72  H   UNL A   1      46.006  24.963  32.187  1.00  0.00     0.167 HD
ATOM     73  C   UNL A   1      45.253  24.819  29.244  1.00  0.00     0.074 A 
ATOM     74  C   UNL A   1      44.388  24.095  30.168  1.00  0.00     0.031 C 
ATOM     75  C   UNL A   1      46.210  25.772  29.452  1.00  0.00     0.037 A 
BRANCH  62  76
ATOM     76  C   UNL A   1      44.379  25.944  34.643  1.00  0.00     0.057 A 
ATOM     77  C   UNL A   1      44.710  26.319  35.953  1.00  0.00     0.134 A 
ATOM     78  C   UNL A   1      44.110  24.571  34.458  1.00  0.00     0.134 A 
ATOM     79  F   UNL A   1      45.020  27.590  36.248  1.00  0.00    -0.206 F 
ATOM     80  C   UNL A   1      44.804  25.388  36.993  1.00  0.00     0.040 A 
ATOM     81  C   UNL A   1      44.137  23.645  35.500  1.00  0.00     0.040 A 
ATOM     82  F   UNL A   1      43.904  24.031  33.249  1.00  0.00    -0.206 F 
ATOM     83  C   UNL A   1      44.514  24.047  36.769  1.00  0.00     0.006 A 
ENDBRANCH  62  76
BRANCH  63  84
ATOM     84  C   UNL A   1      41.407  23.413  26.836  1.00  0.00     0.057 A 
ATOM     85  C   UNL A   1      41.939  22.346  26.101  1.00  0.00     0.134 A 
ATOM     86  C   UNL A   1      40.052  23.303  27.199  1.00  0.00     0.134 A 
ATOM     87  F   UNL A   1      43.233  22.340  25.754  1.00  0.00    -0.206 F 
ATOM     88  C   UNL A   1      41.166  21.231  25.751  1.00  0.00     0.040 A 
ATOM     89  C   UNL A   1      39.268  22.203  26.846  1.00  0.00     0.040 A 
ATOM     90  F   UNL A   1      39.465  24.221  27.980  1.00  0.00    -0.206 F 
ATOM     91  C   UNL A   1      39.828  21.155  26.128  1.00  0.00     0.006 A 
ENDBRANCH  63  84
BRANCH  75  92
ATOM     92  C   UNL A   1      46.820  26.419  28.241  1.00  0.00     0.057 A 
ATOM     93  C   UNL A   1      47.924  25.886  27.560  1.00  0.00     0.134 A 
ATOM     94  C   UNL A   1      46.169  27.506  27.647  1.00  0.00     0.134 A 
ATOM     95  F   UNL A   1      48.543  24.784  28.003  1.00  0.00    -0.206 F 
ATOM     96  C   UNL A   1      48.382  26.436  26.358  1.00  0.00     0.040 A 
ATOM     97  C   UNL A   1      46.597  28.043  26.432  1.00  0.00     0.040 A 
ATOM     98  F   UNL A   1      45.068  28.025  28.213  1.00  0.00    -0.206 F 
ATOM     99  C   UNL A   1      47.712  27.513  25.787  1.00  0.00     0.006 A 
ENDBRANCH  75  92
ENDBRANCH  49  50
ENDBRANCH  42  44
ENDBRANCH  41  42
ENDBRANCH  40  41
ENDBRANCH  39  40
ENDBRANCH  38  39
ENDBRANCH  37  38
ENDBRANCH  36  37
ENDBRANCH  35  36
ENDBRANCH   1  35
TORSDOF 24
ENDMDL
