MODEL 1
REMARK VINA RESULT:     -10.1      0.000      0.000
REMARK SMILES C[C@@H](C(=O)OCCOCCOCCOCCOC(=O)c1ccc(-c2c3nc(c(-c4c(F)cccc4F)c4ccc([nH]4)c(-c4c(F)cccc4F)c4nc(c(-c5c(F)cccc5F)c5ccc2[nH]5)C=C4)C=C3)cc1)c1ccc(Cc2ccoc2)cc1F
REMARK SMILES IDX 10 1 9 2 8 3 7 4 6 5 5 6 3 7 4 8 2 9 1 10 74 11 75 12 85 13
REMARK SMILES IDX 76 14 84 15 86 16 77 17 78 18 79 19 80 20 83 21 81 22 82 23
REMARK SMILES IDX 11 24 12 25 13 26 14 27 15 28 16 29 17 30 18 31 19 32 20 33
REMARK SMILES IDX 21 34 73 35 22 36 72 37 23 38 24 39 25 40 66 41 26 42 71 43
REMARK SMILES IDX 65 44 67 45 27 46 70 47 64 48 63 49 28 51 54 52 37 53 53 54
REMARK SMILES IDX 38 55 41 56 52 57 68 58 39 59 40 60 51 62 69 63 42 64 29 65
REMARK SMILES IDX 30 66 35 67 31 68 32 69 34 70 36 71 33 72 55 73 56 74 61 75
REMARK SMILES IDX 57 76 58 77 60 78 62 79 59 80 43 81 44 82 49 83 45 84 46 85
REMARK SMILES IDX 48 86 50 87 47 88
REMARK H PARENT 67 50 41 61
REMARK Flexibility Score: inf
ROOT
ATOM      1  C   UNL A   1      31.748  28.432  22.681  1.00  0.00     0.188 C 
ENDROOT
BRANCH   1   2
ATOM      2  C   UNL A   1      30.281  28.725  23.027  1.00  0.00     0.188 C 
BRANCH   2   3
ATOM      3  O   UNL A   1      29.488  27.609  23.371  1.00  0.00    -0.376 OA
BRANCH   3   4
ATOM      4  C   UNL A   1      30.067  26.419  23.884  1.00  0.00     0.202 C 
BRANCH   4   5
ATOM      5  C   UNL A   1      29.926  25.871  25.322  1.00  0.00     0.261 C 
BRANCH   5   6
ATOM      6  O   UNL A   1      31.047  26.000  26.204  1.00  0.00    -0.463 OA
BRANCH   6   7
ATOM      7  C   UNL A   1      31.659  24.859  26.598  1.00  0.00     0.313 C 
ATOM      8  O   UNL A   1      31.067  23.939  27.148  1.00  0.00    -0.252 OA
BRANCH   7   9
ATOM      9  C   UNL A   1      33.158  24.826  26.226  1.00  0.00     0.129 C 
ATOM     10  C   UNL A   1      33.618  26.025  25.374  1.00  0.00     0.025 C 
BRANCH   9  11
ATOM     11  C   UNL A   1      33.611  23.434  25.768  1.00  0.00     0.002 A 
ATOM     12  C   UNL A   1      33.440  22.912  24.476  1.00  0.00     0.008 A 
ATOM     13  C   UNL A   1      34.258  22.605  26.695  1.00  0.00     0.127 A 
ATOM     14  C   UNL A   1      33.894  21.619  24.144  1.00  0.00     0.004 A 
ATOM     15  C   UNL A   1      34.683  21.313  26.382  1.00  0.00     0.043 A 
ATOM     16  F   UNL A   1      34.547  23.067  27.917  1.00  0.00    -0.207 F 
ATOM     17  C   UNL A   1      34.523  20.799  25.091  1.00  0.00    -0.041 A 
BRANCH  17  18
ATOM     18  C   UNL A   1      35.187  19.490  24.728  1.00  0.00     0.074 C 
BRANCH  18  19
ATOM     19  C   UNL A   1      34.174  18.411  24.555  1.00  0.00    -0.005 A 
ATOM     20  C   UNL A   1      34.237  17.251  23.728  1.00  0.00     0.046 A 
ATOM     21  C   UNL A   1      33.020  18.248  25.302  1.00  0.00     0.198 A 
ATOM     22  C   UNL A   1      33.136  16.485  24.028  1.00  0.00     0.195 A 
ATOM     23  O   UNL A   1      32.391  17.088  24.986  1.00  0.00    -0.472 OA
ENDBRANCH  18  19
ENDBRANCH  17  18
ENDBRANCH   9  11
ENDBRANCH   7   9
ENDBRANCH   6   7
ENDBRANCH   5   6
ENDBRANCH   4   5
ENDBRANCH   3   4
ENDBRANCH   2   3
ENDBRANCH   1   2
BRANCH   1  24
ATOM     24  O   UNL A   1      32.693  28.854  23.647  1.00  0.00    -0.377 OA
BRANCH  24  25
ATOM     25  C   UNL A   1      32.216  29.369  24.883  1.00  0.00     0.188 C 
BRANCH  25  26
ATOM     26  C   UNL A   1      33.181  29.673  26.047  1.00  0.00     0.188 C 
BRANCH  26  27
ATOM     27  O   UNL A   1      32.615  30.418  27.114  1.00  0.00    -0.376 OA
BRANCH  27  28
ATOM     28  C   UNL A   1      33.271  31.600  27.546  1.00  0.00     0.202 C 
BRANCH  28  29
ATOM     29  C   UNL A   1      32.442  32.893  27.587  1.00  0.00     0.261 C 
BRANCH  29  30
ATOM     30  O   UNL A   1      33.182  34.124  27.591  1.00  0.00    -0.460 OA
BRANCH  30  31
ATOM     31  C   UNL A   1      33.316  34.774  28.765  1.00  0.00     0.338 C 
ATOM     32  O   UNL A   1      32.542  35.579  29.257  1.00  0.00    -0.246 OA
BRANCH  31  33
ATOM     33  C   UNL A   1      34.483  34.202  29.468  1.00  0.00     0.060 A 
ATOM     34  C   UNL A   1      35.754  34.340  28.894  1.00  0.00     0.016 A 
ATOM     35  C   UNL A   1      34.326  33.539  30.687  1.00  0.00     0.016 A 
ATOM     36  C   UNL A   1      36.867  33.779  29.519  1.00  0.00     0.010 A 
ATOM     37  C   UNL A   1      35.438  32.957  31.299  1.00  0.00     0.010 A 
ATOM     38  C   UNL A   1      36.708  33.042  30.699  1.00  0.00    -0.014 A 
BRANCH  38  39
ATOM     39  C   UNL A   1      37.817  32.188  31.188  1.00  0.00     0.031 A 
ATOM     40  C   UNL A   1      38.375  32.464  32.558  1.00  0.00     0.074 A 
ATOM     41  C   UNL A   1      38.305  31.175  30.452  1.00  0.00     0.049 A 
ATOM     42  N   UNL A   1      39.378  31.899  33.179  1.00  0.00    -0.248 NA
ATOM     43  C   UNL A   1      37.710  33.527  33.330  1.00  0.00     0.031 C 
ATOM     44  C   UNL A   1      37.820  30.777  29.133  1.00  0.00     0.029 A 
ATOM     45  N   UNL A   1      39.333  30.303  30.713  1.00  0.00    -0.354 N 
ATOM     46  C   UNL A   1      39.467  32.540  34.409  1.00  0.00     0.074 A 
ATOM     47  C   UNL A   1      38.443  33.561  34.431  1.00  0.00     0.031 C 
ATOM     48  C   UNL A   1      38.563  29.746  28.691  1.00  0.00     0.029 A 
ATOM     49  C   UNL A   1      39.595  29.437  29.680  1.00  0.00     0.049 A 
ATOM     50  H   UNL A   1      39.833  30.297  31.561  1.00  0.00     0.167 HD
ATOM     51  C   UNL A   1      40.319  32.295  35.433  1.00  0.00     0.037 A 
ATOM     52  C   UNL A   1      40.575  28.523  29.539  1.00  0.00     0.037 A 
ATOM     53  C   UNL A   1      41.343  31.283  35.404  1.00  0.00     0.049 A 
ATOM     54  C   UNL A   1      41.568  28.325  30.656  1.00  0.00     0.074 A 
ATOM     55  C   UNL A   1      42.253  30.951  36.390  1.00  0.00     0.029 A 
ATOM     56  N   UNL A   1      41.599  30.449  34.326  1.00  0.00    -0.354 N 
ATOM     57  N   UNL A   1      41.636  28.923  31.822  1.00  0.00    -0.248 NA
ATOM     58  C   UNL A   1      42.622  27.323  30.438  1.00  0.00     0.031 C 
ATOM     59  C   UNL A   1      43.098  29.957  35.888  1.00  0.00     0.029 A 
ATOM     60  C   UNL A   1      42.671  29.622  34.613  1.00  0.00     0.049 A 
ATOM     61  H   UNL A   1      41.091  30.445  33.481  1.00  0.00     0.167 HD
ATOM     62  C   UNL A   1      42.713  28.347  32.486  1.00  0.00     0.074 A 
ATOM     63  C   UNL A   1      43.263  27.345  31.598  1.00  0.00     0.031 C 
ATOM     64  C   UNL A   1      43.203  28.621  33.721  1.00  0.00     0.037 A 
BRANCH  51  65
ATOM     65  C   UNL A   1      40.198  33.159  36.654  1.00  0.00     0.057 A 
ATOM     66  C   UNL A   1      41.025  34.271  36.863  1.00  0.00     0.134 A 
ATOM     67  C   UNL A   1      39.225  32.886  37.625  1.00  0.00     0.134 A 
ATOM     68  F   UNL A   1      41.987  34.578  35.981  1.00  0.00    -0.206 F 
ATOM     69  C   UNL A   1      40.907  35.063  38.007  1.00  0.00     0.040 A 
ATOM     70  C   UNL A   1      39.078  33.689  38.757  1.00  0.00     0.040 A 
ATOM     71  F   UNL A   1      38.398  31.839  37.486  1.00  0.00    -0.206 F 
ATOM     72  C   UNL A   1      39.925  34.777  38.955  1.00  0.00     0.006 A 
ENDBRANCH  51  65
BRANCH  52  73
ATOM     73  C   UNL A   1      40.685  27.735  28.284  1.00  0.00     0.057 A 
ATOM     74  C   UNL A   1      40.079  26.480  28.154  1.00  0.00     0.134 A 
ATOM     75  C   UNL A   1      41.425  28.206  27.192  1.00  0.00     0.134 A 
ATOM     76  F   UNL A   1      39.378  25.960  29.173  1.00  0.00    -0.206 F 
ATOM     77  C   UNL A   1      40.220  25.714  26.995  1.00  0.00     0.040 A 
ATOM     78  C   UNL A   1      41.550  27.466  26.016  1.00  0.00     0.040 A 
ATOM     79  F   UNL A   1      42.032  29.401  27.251  1.00  0.00    -0.206 F 
ATOM     80  C   UNL A   1      40.953  26.211  25.918  1.00  0.00     0.006 A 
ENDBRANCH  52  73
BRANCH  64  81
ATOM     81  C   UNL A   1      44.362  27.797  34.207  1.00  0.00     0.057 A 
ATOM     82  C   UNL A   1      44.185  26.564  34.846  1.00  0.00     0.134 A 
ATOM     83  C   UNL A   1      45.679  28.227  33.989  1.00  0.00     0.134 A 
ATOM     84  F   UNL A   1      42.953  26.097  35.096  1.00  0.00    -0.206 F 
ATOM     85  C   UNL A   1      45.275  25.801  35.275  1.00  0.00     0.040 A 
ATOM     86  C   UNL A   1      46.775  27.459  34.384  1.00  0.00     0.040 A 
ATOM     87  F   UNL A   1      45.922  29.393  33.371  1.00  0.00    -0.206 F 
ATOM     88  C   UNL A   1      46.574  26.245  35.037  1.00  0.00     0.006 A 
ENDBRANCH  64  81
ENDBRANCH  38  39
ENDBRANCH  31  33
ENDBRANCH  30  31
ENDBRANCH  29  30
ENDBRANCH  28  29
ENDBRANCH  27  28
ENDBRANCH  26  27
ENDBRANCH  25  26
ENDBRANCH  24  25
ENDBRANCH   1  24
TORSDOF 23
ENDMDL
MODEL 2
REMARK VINA RESULT:      -9.7      3.237      9.010
REMARK SMILES C[C@@H](C(=O)OCCOCCOCCOCCOC(=O)c1ccc(-c2c3nc(c(-c4c(F)cccc4F)c4ccc([nH]4)c(-c4c(F)cccc4F)c4nc(c(-c5c(F)cccc5F)c5ccc2[nH]5)C=C4)C=C3)cc1)c1ccc(Cc2ccoc2)cc1F
REMARK SMILES IDX 10 1 9 2 8 3 7 4 6 5 5 6 3 7 4 8 2 9 1 10 74 11 75 12 85 13
REMARK SMILES IDX 76 14 84 15 86 16 77 17 78 18 79 19 80 20 83 21 81 22 82 23
REMARK SMILES IDX 11 24 12 25 13 26 14 27 15 28 16 29 17 30 18 31 19 32 20 33
REMARK SMILES IDX 21 34 73 35 22 36 72 37 23 38 24 39 25 40 66 41 26 42 71 43
REMARK SMILES IDX 65 44 67 45 27 46 70 47 64 48 63 49 28 51 54 52 37 53 53 54
REMARK SMILES IDX 38 55 41 56 52 57 68 58 39 59 40 60 51 62 69 63 42 64 29 65
REMARK SMILES IDX 30 66 35 67 31 68 32 69 34 70 36 71 33 72 55 73 56 74 61 75
REMARK SMILES IDX 57 76 58 77 60 78 62 79 59 80 43 81 44 82 49 83 45 84 46 85
REMARK SMILES IDX 48 86 50 87 47 88
REMARK H PARENT 67 50 41 61
REMARK Flexibility Score: inf
ROOT
ATOM      1  C   UNL A   1      39.174  21.436  25.754  1.00  0.00     0.188 C 
ENDROOT
BRANCH   1   2
ATOM      2  C   UNL A   1      37.809  22.140  25.720  1.00  0.00     0.188 C 
BRANCH   2   3
ATOM      3  O   UNL A   1      36.735  21.388  25.200  1.00  0.00    -0.376 OA
BRANCH   3   4
ATOM      4  C   UNL A   1      35.596  22.018  24.633  1.00  0.00     0.202 C 
BRANCH   4   5
ATOM      5  C   UNL A   1      34.131  21.866  25.097  1.00  0.00     0.261 C 
BRANCH   5   6
ATOM      6  O   UNL A   1      33.281  23.016  25.029  1.00  0.00    -0.463 OA
BRANCH   6   7
ATOM      7  C   UNL A   1      33.218  23.672  23.846  1.00  0.00     0.313 C 
ATOM      8  O   UNL A   1      32.929  23.120  22.792  1.00  0.00    -0.252 OA
BRANCH   7   9
ATOM      9  C   UNL A   1      33.492  25.186  23.987  1.00  0.00     0.129 C 
ATOM     10  C   UNL A   1      34.308  25.560  25.240  1.00  0.00     0.025 C 
BRANCH   9  11
ATOM     11  C   UNL A   1      32.247  26.029  23.690  1.00  0.00     0.002 A 
ATOM     12  C   UNL A   1      32.013  26.736  22.500  1.00  0.00     0.008 A 
ATOM     13  C   UNL A   1      31.244  26.105  24.667  1.00  0.00     0.127 A 
ATOM     14  C   UNL A   1      30.832  27.484  22.313  1.00  0.00     0.004 A 
ATOM     15  C   UNL A   1      30.087  26.868  24.502  1.00  0.00     0.043 A 
ATOM     16  F   UNL A   1      31.347  25.379  25.787  1.00  0.00    -0.207 F 
ATOM     17  C   UNL A   1      29.850  27.561  23.311  1.00  0.00    -0.041 A 
BRANCH  17  18
ATOM     18  C   UNL A   1      28.496  28.193  23.079  1.00  0.00     0.074 C 
BRANCH  18  19
ATOM     19  C   UNL A   1      28.640  29.612  22.647  1.00  0.00    -0.005 A 
ATOM     20  C   UNL A   1      28.285  30.206  21.399  1.00  0.00     0.046 A 
ATOM     21  C   UNL A   1      29.011  30.677  23.450  1.00  0.00     0.198 A 
ATOM     22  C   UNL A   1      28.464  31.562  21.536  1.00  0.00     0.195 A 
ATOM     23  O   UNL A   1      28.907  31.855  22.784  1.00  0.00    -0.472 OA
ENDBRANCH  18  19
ENDBRANCH  17  18
ENDBRANCH   9  11
ENDBRANCH   7   9
ENDBRANCH   6   7
ENDBRANCH   5   6
ENDBRANCH   4   5
ENDBRANCH   3   4
ENDBRANCH   2   3
ENDBRANCH   1   2
BRANCH   1  24
ATOM     24  O   UNL A   1      39.975  21.724  26.886  1.00  0.00    -0.377 OA
BRANCH  24  25
ATOM     25  C   UNL A   1      41.046  20.845  27.200  1.00  0.00     0.188 C 
BRANCH  25  26
ATOM     26  C   UNL A   1      42.193  20.596  26.199  1.00  0.00     0.188 C 
BRANCH  26  27
ATOM     27  O   UNL A   1      42.546  21.717  25.403  1.00  0.00    -0.376 OA
BRANCH  27  28
ATOM     28  C   UNL A   1      43.806  22.336  25.617  1.00  0.00     0.202 C 
BRANCH  28  29
ATOM     29  C   UNL A   1      43.838  23.579  26.519  1.00  0.00     0.261 C 
BRANCH  29  30
ATOM     30  O   UNL A   1      42.564  24.108  26.919  1.00  0.00    -0.460 OA
BRANCH  30  31
ATOM     31  C   UNL A   1      42.085  25.171  26.243  1.00  0.00     0.338 C 
ATOM     32  O   UNL A   1      41.898  25.260  25.040  1.00  0.00    -0.246 OA
BRANCH  31  33
ATOM     33  C   UNL A   1      41.633  26.171  27.233  1.00  0.00     0.060 A 
ATOM     34  C   UNL A   1      42.289  27.407  27.295  1.00  0.00     0.016 A 
ATOM     35  C   UNL A   1      40.567  25.891  28.091  1.00  0.00     0.016 A 
ATOM     36  C   UNL A   1      41.906  28.354  28.244  1.00  0.00     0.010 A 
ATOM     37  C   UNL A   1      40.200  26.831  29.057  1.00  0.00     0.010 A 
ATOM     38  C   UNL A   1      40.893  28.052  29.162  1.00  0.00    -0.014 A 
BRANCH  38  39
ATOM     39  C   UNL A   1      40.701  28.911  30.356  1.00  0.00     0.031 A 
ATOM     40  C   UNL A   1      39.610  29.946  30.318  1.00  0.00     0.074 A 
ATOM     41  C   UNL A   1      41.455  28.765  31.458  1.00  0.00     0.049 A 
ATOM     42  N   UNL A   1      39.287  30.850  31.207  1.00  0.00    -0.248 NA
ATOM     43  C   UNL A   1      38.771  29.964  29.108  1.00  0.00     0.031 C 
ATOM     44  C   UNL A   1      42.510  27.770  31.637  1.00  0.00     0.029 A 
ATOM     45  N   UNL A   1      41.452  29.471  32.636  1.00  0.00    -0.354 N 
ATOM     46  C   UNL A   1      38.214  31.546  30.662  1.00  0.00     0.074 A 
ATOM     47  C   UNL A   1      37.966  30.985  29.353  1.00  0.00     0.031 C 
ATOM     48  C   UNL A   1      43.066  27.940  32.850  1.00  0.00     0.029 A 
ATOM     49  C   UNL A   1      42.429  29.076  33.517  1.00  0.00     0.049 A 
ATOM     50  H   UNL A   1      40.809  30.190  32.832  1.00  0.00     0.167 HD
ATOM     51  C   UNL A   1      37.494  32.555  31.208  1.00  0.00     0.037 A 
ATOM     52  C   UNL A   1      42.786  29.593  34.709  1.00  0.00     0.037 A 
ATOM     53  C   UNL A   1      37.750  33.115  32.508  1.00  0.00     0.049 A 
ATOM     54  C   UNL A   1      42.027  30.774  35.260  1.00  0.00     0.074 A 
ATOM     55  C   UNL A   1      37.075  34.135  33.154  1.00  0.00     0.029 A 
ATOM     56  N   UNL A   1      38.771  32.711  33.356  1.00  0.00    -0.354 N 
ATOM     57  N   UNL A   1      41.003  31.415  34.747  1.00  0.00    -0.248 NA
ATOM     58  C   UNL A   1      42.472  31.302  36.558  1.00  0.00     0.031 C 
ATOM     59  C   UNL A   1      37.723  34.388  34.367  1.00  0.00     0.029 A 
ATOM     60  C   UNL A   1      38.761  33.479  34.507  1.00  0.00     0.049 A 
ATOM     61  H   UNL A   1      39.408  31.983  33.167  1.00  0.00     0.167 HD
ATOM     62  C   UNL A   1      40.663  32.396  35.672  1.00  0.00     0.074 A 
ATOM     63  C   UNL A   1      41.581  32.257  36.782  1.00  0.00     0.031 C 
ATOM     64  C   UNL A   1      39.677  33.325  35.610  1.00  0.00     0.037 A 
BRANCH  51  65
ATOM     65  C   UNL A   1      36.384  33.135  30.381  1.00  0.00     0.057 A 
ATOM     66  C   UNL A   1      35.038  32.835  30.629  1.00  0.00     0.134 A 
ATOM     67  C   UNL A   1      36.664  34.023  29.335  1.00  0.00     0.134 A 
ATOM     68  F   UNL A   1      34.700  31.979  31.606  1.00  0.00    -0.206 F 
ATOM     69  C   UNL A   1      34.013  33.375  29.849  1.00  0.00     0.040 A 
ATOM     70  C   UNL A   1      35.647  34.594  28.568  1.00  0.00     0.040 A 
ATOM     71  F   UNL A   1      37.931  34.356  29.045  1.00  0.00    -0.206 F 
ATOM     72  C   UNL A   1      34.317  34.264  28.819  1.00  0.00     0.006 A 
ENDBRANCH  51  65
BRANCH  52  73
ATOM     73  C   UNL A   1      43.932  29.017  35.459  1.00  0.00     0.057 A 
ATOM     74  C   UNL A   1      43.746  28.020  36.423  1.00  0.00     0.134 A 
ATOM     75  C   UNL A   1      45.240  29.471  35.249  1.00  0.00     0.134 A 
ATOM     76  F   UNL A   1      42.514  27.560  36.690  1.00  0.00    -0.206 F 
ATOM     77  C   UNL A   1      44.813  27.509  37.165  1.00  0.00     0.040 A 
ATOM     78  C   UNL A   1      46.321  28.950  35.962  1.00  0.00     0.040 A 
ATOM     79  F   UNL A   1      45.488  30.426  34.341  1.00  0.00    -0.206 F 
ATOM     80  C   UNL A   1      46.107  27.970  36.930  1.00  0.00     0.006 A 
ENDBRANCH  52  73
BRANCH  64  81
ATOM     81  C   UNL A   1      39.507  34.238  36.792  1.00  0.00     0.057 A 
ATOM     82  C   UNL A   1      38.821  33.843  37.947  1.00  0.00     0.134 A 
ATOM     83  C   UNL A   1      40.082  35.517  36.790  1.00  0.00     0.134 A 
ATOM     84  F   UNL A   1      38.238  32.636  38.014  1.00  0.00    -0.206 F 
ATOM     85  C   UNL A   1      38.689  34.696  39.046  1.00  0.00     0.040 A 
ATOM     86  C   UNL A   1      39.984  36.366  37.894  1.00  0.00     0.040 A 
ATOM     87  F   UNL A   1      40.765  35.956  35.722  1.00  0.00    -0.206 F 
ATOM     88  C   UNL A   1      39.278  35.958  39.023  1.00  0.00     0.006 A 
ENDBRANCH  64  81
ENDBRANCH  38  39
ENDBRANCH  31  33
ENDBRANCH  30  31
ENDBRANCH  29  30
ENDBRANCH  28  29
ENDBRANCH  27  28
ENDBRANCH  26  27
ENDBRANCH  25  26
ENDBRANCH  24  25
ENDBRANCH   1  24
TORSDOF 23
ENDMDL
MODEL 3
REMARK VINA RESULT:      -9.7      3.221      8.968
REMARK SMILES C[C@@H](C(=O)OCCOCCOCCOCCOC(=O)c1ccc(-c2c3nc(c(-c4c(F)cccc4F)c4ccc([nH]4)c(-c4c(F)cccc4F)c4nc(c(-c5c(F)cccc5F)c5ccc2[nH]5)C=C4)C=C3)cc1)c1ccc(Cc2ccoc2)cc1F
REMARK SMILES IDX 10 1 9 2 8 3 7 4 6 5 5 6 3 7 4 8 2 9 1 10 74 11 75 12 85 13
REMARK SMILES IDX 76 14 84 15 86 16 77 17 78 18 79 19 80 20 83 21 81 22 82 23
REMARK SMILES IDX 11 24 12 25 13 26 14 27 15 28 16 29 17 30 18 31 19 32 20 33
REMARK SMILES IDX 21 34 73 35 22 36 72 37 23 38 24 39 25 40 66 41 26 42 71 43
REMARK SMILES IDX 65 44 67 45 27 46 70 47 64 48 63 49 28 51 54 52 37 53 53 54
REMARK SMILES IDX 38 55 41 56 52 57 68 58 39 59 40 60 51 62 69 63 42 64 29 65
REMARK SMILES IDX 30 66 35 67 31 68 32 69 34 70 36 71 33 72 55 73 56 74 61 75
REMARK SMILES IDX 57 76 58 77 60 78 62 79 59 80 43 81 44 82 49 83 45 84 46 85
REMARK SMILES IDX 48 86 50 87 47 88
REMARK H PARENT 67 50 41 61
REMARK Flexibility Score: inf
ROOT
ATOM      1  C   UNL A   1      38.716  21.880  25.881  1.00  0.00     0.188 C 
ENDROOT
BRANCH   1   2
ATOM      2  C   UNL A   1      37.975  23.221  25.784  1.00  0.00     0.188 C 
BRANCH   2   3
ATOM      3  O   UNL A   1      36.572  23.169  25.927  1.00  0.00    -0.376 OA
BRANCH   3   4
ATOM      4  C   UNL A   1      35.707  23.368  24.819  1.00  0.00     0.202 C 
BRANCH   4   5
ATOM      5  C   UNL A   1      34.512  22.478  24.411  1.00  0.00     0.261 C 
BRANCH   5   6
ATOM      6  O   UNL A   1      33.449  22.304  25.354  1.00  0.00    -0.463 OA
BRANCH   6   7
ATOM      7  C   UNL A   1      32.222  22.748  24.994  1.00  0.00     0.313 C 
ATOM      8  O   UNL A   1      31.687  22.446  23.935  1.00  0.00    -0.252 OA
BRANCH   7   9
ATOM      9  C   UNL A   1      31.558  23.619  26.084  1.00  0.00     0.129 C 
ATOM     10  C   UNL A   1      30.345  22.953  26.763  1.00  0.00     0.025 C 
BRANCH   9  11
ATOM     11  C   UNL A   1      31.392  25.076  25.638  1.00  0.00     0.002 A 
ATOM     12  C   UNL A   1      30.203  25.644  25.154  1.00  0.00     0.008 A 
ATOM     13  C   UNL A   1      32.500  25.931  25.724  1.00  0.00     0.127 A 
ATOM     14  C   UNL A   1      30.142  26.999  24.770  1.00  0.00     0.004 A 
ATOM     15  C   UNL A   1      32.456  27.266  25.318  1.00  0.00     0.043 A 
ATOM     16  F   UNL A   1      33.641  25.492  26.270  1.00  0.00    -0.207 F 
ATOM     17  C   UNL A   1      31.268  27.832  24.847  1.00  0.00    -0.041 A 
BRANCH  17  18
ATOM     18  C   UNL A   1      31.197  29.326  24.626  1.00  0.00     0.074 C 
BRANCH  18  19
ATOM     19  C   UNL A   1      30.281  29.652  23.496  1.00  0.00    -0.005 A 
ATOM     20  C   UNL A   1      29.142  30.512  23.489  1.00  0.00     0.046 A 
ATOM     21  C   UNL A   1      30.459  29.295  22.171  1.00  0.00     0.198 A 
ATOM     22  C   UNL A   1      28.722  30.609  22.184  1.00  0.00     0.195 A 
ATOM     23  O   UNL A   1      29.521  29.869  21.376  1.00  0.00    -0.472 OA
ENDBRANCH  18  19
ENDBRANCH  17  18
ENDBRANCH   9  11
ENDBRANCH   7   9
ENDBRANCH   6   7
ENDBRANCH   5   6
ENDBRANCH   4   5
ENDBRANCH   3   4
ENDBRANCH   2   3
ENDBRANCH   1   2
BRANCH   1  24
ATOM     24  O   UNL A   1      40.102  21.973  26.156  1.00  0.00    -0.377 OA
BRANCH  24  25
ATOM     25  C   UNL A   1      40.758  20.846  26.720  1.00  0.00     0.188 C 
BRANCH  25  26
ATOM     26  C   UNL A   1      42.123  20.367  26.185  1.00  0.00     0.188 C 
BRANCH  26  27
ATOM     27  O   UNL A   1      42.810  21.306  25.372  1.00  0.00    -0.376 OA
BRANCH  27  28
ATOM     28  C   UNL A   1      43.951  21.963  25.902  1.00  0.00     0.202 C 
BRANCH  28  29
ATOM     29  C   UNL A   1      43.720  22.986  27.025  1.00  0.00     0.261 C 
BRANCH  29  30
ATOM     30  O   UNL A   1      43.936  24.364  26.685  1.00  0.00    -0.460 OA
BRANCH  30  31
ATOM     31  C   UNL A   1      42.919  25.035  26.107  1.00  0.00     0.338 C 
ATOM     32  O   UNL A   1      42.411  24.816  25.020  1.00  0.00    -0.246 OA
BRANCH  31  33
ATOM     33  C   UNL A   1      42.380  25.984  27.104  1.00  0.00     0.060 A 
ATOM     34  C   UNL A   1      42.975  27.246  27.229  1.00  0.00     0.016 A 
ATOM     35  C   UNL A   1      41.292  25.631  27.906  1.00  0.00     0.016 A 
ATOM     36  C   UNL A   1      42.508  28.146  28.187  1.00  0.00     0.010 A 
ATOM     37  C   UNL A   1      40.841  26.524  28.880  1.00  0.00     0.010 A 
ATOM     38  C   UNL A   1      41.472  27.771  29.051  1.00  0.00    -0.014 A 
BRANCH  38  39
ATOM     39  C   UNL A   1      41.189  28.585  30.258  1.00  0.00     0.031 A 
ATOM     40  C   UNL A   1      40.070  29.588  30.193  1.00  0.00     0.074 A 
ATOM     41  C   UNL A   1      41.888  28.425  31.395  1.00  0.00     0.049 A 
ATOM     42  N   UNL A   1      39.672  30.452  31.090  1.00  0.00    -0.248 NA
ATOM     43  C   UNL A   1      39.297  29.621  28.940  1.00  0.00     0.031 C 
ATOM     44  C   UNL A   1      42.962  27.457  31.600  1.00  0.00     0.029 A 
ATOM     45  N   UNL A   1      41.799  29.091  32.593  1.00  0.00    -0.354 N 
ATOM     46  C   UNL A   1      38.609  31.133  30.510  1.00  0.00     0.074 A 
ATOM     47  C   UNL A   1      38.448  30.609  29.172  1.00  0.00     0.031 C 
ATOM     48  C   UNL A   1      43.446  27.603  32.846  1.00  0.00     0.029 A 
ATOM     49  C   UNL A   1      42.740  28.697  33.512  1.00  0.00     0.049 A 
ATOM     50  H   UNL A   1      41.124  29.785  32.774  1.00  0.00     0.167 HD
ATOM     51  C   UNL A   1      37.829  32.102  31.046  1.00  0.00     0.037 A 
ATOM     52  C   UNL A   1      43.016  29.185  34.737  1.00  0.00     0.037 A 
ATOM     53  C   UNL A   1      37.998  32.627  32.376  1.00  0.00     0.049 A 
ATOM     54  C   UNL A   1      42.191  30.325  35.282  1.00  0.00     0.074 A 
ATOM     55  C   UNL A   1      37.257  33.605  33.015  1.00  0.00     0.029 A 
ATOM     56  N   UNL A   1      38.983  32.226  33.265  1.00  0.00    -0.354 N 
ATOM     57  N   UNL A   1      41.177  30.952  34.735  1.00  0.00    -0.248 NA
ATOM     58  C   UNL A   1      42.549  30.823  36.619  1.00  0.00     0.031 C 
ATOM     59  C   UNL A   1      37.831  33.837  34.269  1.00  0.00     0.029 A 
ATOM     60  C   UNL A   1      38.888  32.956  34.437  1.00  0.00     0.049 A 
ATOM     61  H   UNL A   1      39.652  31.524  33.088  1.00  0.00     0.167 HD
ATOM     62  C   UNL A   1      40.757  31.891  35.670  1.00  0.00     0.074 A 
ATOM     63  C   UNL A   1      41.618  31.744  36.824  1.00  0.00     0.031 C 
ATOM     64  C   UNL A   1      39.747  32.793  35.583  1.00  0.00     0.037 A 
BRANCH  51  65
ATOM     65  C   UNL A   1      36.747  32.677  30.179  1.00  0.00     0.057 A 
ATOM     66  C   UNL A   1      37.008  33.669  29.224  1.00  0.00     0.134 A 
ATOM     67  C   UNL A   1      35.429  32.215  30.287  1.00  0.00     0.134 A 
ATOM     68  F   UNL A   1      38.245  34.166  29.080  1.00  0.00    -0.206 F 
ATOM     69  C   UNL A   1      35.991  34.200  28.427  1.00  0.00     0.040 A 
ATOM     70  C   UNL A   1      34.410  32.717  29.475  1.00  0.00     0.040 A 
ATOM     71  F   UNL A   1      35.110  31.265  31.178  1.00  0.00    -0.206 F 
ATOM     72  C   UNL A   1      34.689  33.718  28.547  1.00  0.00     0.006 A 
ENDBRANCH  51  65
BRANCH  52  73
ATOM     73  C   UNL A   1      44.137  28.620  35.531  1.00  0.00     0.057 A 
ATOM     74  C   UNL A   1      45.450  29.074  35.366  1.00  0.00     0.134 A 
ATOM     75  C   UNL A   1      43.927  27.588  36.455  1.00  0.00     0.134 A 
ATOM     76  F   UNL A   1      45.723  30.042  34.478  1.00  0.00    -0.206 F 
ATOM     77  C   UNL A   1      46.515  28.513  36.074  1.00  0.00     0.040 A 
ATOM     78  C   UNL A   1      44.976  27.037  37.191  1.00  0.00     0.040 A 
ATOM     79  F   UNL A   1      42.692  27.105  36.660  1.00  0.00    -0.206 F 
ATOM     80  C   UNL A   1      46.278  27.495  36.996  1.00  0.00     0.006 A 
ENDBRANCH  52  73
BRANCH  64  81
ATOM     81  C   UNL A   1      39.486  33.661  36.782  1.00  0.00     0.057 A 
ATOM     82  C   UNL A   1      39.995  34.961  36.887  1.00  0.00     0.134 A 
ATOM     83  C   UNL A   1      38.672  33.201  37.827  1.00  0.00     0.134 A 
ATOM     84  F   UNL A   1      40.789  35.461  35.928  1.00  0.00    -0.206 F 
ATOM     85  C   UNL A   1      39.727  35.763  38.000  1.00  0.00     0.040 A 
ATOM     86  C   UNL A   1      38.370  34.004  38.928  1.00  0.00     0.040 A 
ATOM     87  F   UNL A   1      38.140  31.970  37.786  1.00  0.00    -0.206 F 
ATOM     88  C   UNL A   1      38.906  35.287  39.020  1.00  0.00     0.006 A 
ENDBRANCH  64  81
ENDBRANCH  38  39
ENDBRANCH  31  33
ENDBRANCH  30  31
ENDBRANCH  29  30
ENDBRANCH  28  29
ENDBRANCH  27  28
ENDBRANCH  26  27
ENDBRANCH  25  26
ENDBRANCH  24  25
ENDBRANCH   1  24
TORSDOF 23
ENDMDL
