MODEL 1
REMARK VINA RESULT:      -8.2      0.000      0.000
REMARK SMILES CC[C@@H](C)[C@H](NC(=O)[C@H](C)N1C(=O)N2CCC3=c4cc(OC)ccc4=N[C@@H]3[C@@]2(C)C1=O)C(=O)OCCOCCOCCOCCOC(=O)c1ccc(-c2c3nc(c(-c4c(F)cccc4F)c4ccc([nH]4)c(-c4c(F)cccc4F)c4nc(c(-c5c(F)cccc5F)c5ccc2[nH]5)C=C4)C=C3)cc1
REMARK SMILES IDX 39 1 38 2 37 3 36 4 35 5 34 6 32 7 33 8 5 9 3 10 4 11 2 12
REMARK SMILES IDX 1 13 6 14 7 15 8 17 9 18 10 19 11 20 12 21 30 22 14 23 13 24
REMARK SMILES IDX 28 25 31 26 15 27 27 28 29 29 16 30 17 31 26 32 18 33 25 34
REMARK SMILES IDX 19 35 24 36 20 37 23 38 21 39 22 40 40 41 41 42 42 43 43 44
REMARK SMILES IDX 44 45 45 46 46 47 47 48 48 49 49 50 50 51 102 52 51 53
REMARK SMILES IDX 101 54 52 55 53 56 54 57 95 58 55 59 100 60 94 61 96 62
REMARK SMILES IDX 56 63 99 64 93 65 92 66 57 68 83 69 66 70 82 71 67 72 70 73
REMARK SMILES IDX 81 74 97 75 68 76 69 77 80 79 98 80 71 81 58 82 59 83 64 84
REMARK SMILES IDX 60 85 61 86 63 87 65 88 62 89 84 90 85 91 90 92 86 93 87 94
REMARK SMILES IDX 89 95 91 96 88 97 72 98 73 99 78 100 74 101 75 102 77 103
REMARK SMILES IDX 79 104 76 105
REMARK H PARENT 6 16 96 67 70 78
REMARK Flexibility Score: inf
ROOT
ATOM      1  C   UNL A   1      33.305  26.594  25.839  1.00  0.00     0.188 C 
ENDROOT
BRANCH   1   2
ATOM      2  C   UNL A   1      32.726  27.788  26.619  1.00  0.00     0.188 C 
BRANCH   2   3
ATOM      3  O   UNL A   1      33.577  28.578  27.447  1.00  0.00    -0.376 OA
BRANCH   3   4
ATOM      4  C   UNL A   1      34.391  29.551  26.813  1.00  0.00     0.202 C 
BRANCH   4   5
ATOM      5  C   UNL A   1      35.292  30.362  27.741  1.00  0.00     0.261 C 
BRANCH   5   6
ATOM      6  O   UNL A   1      34.607  31.502  28.277  1.00  0.00    -0.462 OA
BRANCH   6   7
ATOM      7  C   UNL A   1      35.335  32.630  28.490  1.00  0.00     0.328 C 
ATOM      8  O   UNL A   1      35.620  33.448  27.626  1.00  0.00    -0.250 OA
BRANCH   7   9
ATOM      9  C   UNL A   1      36.013  32.573  29.873  1.00  0.00     0.195 C 
BRANCH   9  10
ATOM     10  C   UNL A   1      35.575  33.952  30.565  1.00  0.00     0.019 C 
ATOM     11  C   UNL A   1      36.116  34.166  31.994  1.00  0.00     0.010 C 
BRANCH  10  12
ATOM     12  C   UNL A   1      34.065  34.238  30.536  1.00  0.00     0.002 C 
ATOM     13  C   UNL A   1      33.608  35.245  31.598  1.00  0.00     0.004 C 
ENDBRANCH  10  12
ENDBRANCH   9  10
BRANCH   9  14
ATOM     14  N   UNL A   1      37.497  32.304  29.859  1.00  0.00    -0.341 N 
ATOM     15  C   UNL A   1      38.439  31.336  30.106  1.00  0.00     0.243 C 
ATOM     16  H   UNL A   1      37.959  33.121  29.566  1.00  0.00     0.164 HD
ATOM     17  O   UNL A   1      39.538  31.708  29.642  1.00  0.00    -0.273 OA
BRANCH  15  18
ATOM     18  C   UNL A   1      38.396  29.800  30.767  1.00  0.00     0.181 C 
ATOM     19  C   UNL A   1      37.221  28.955  30.304  1.00  0.00     0.042 C 
BRANCH  18  20
ATOM     20  N   UNL A   1      38.870  29.582  32.154  1.00  0.00    -0.250 N 
ATOM     21  C   UNL A   1      39.271  28.397  32.822  1.00  0.00     0.328 C 
ATOM     22  C   UNL A   1      39.916  30.339  32.430  1.00  0.00     0.259 C 
ATOM     23  N   UNL A   1      40.752  28.601  33.195  1.00  0.00    -0.307 N 
ATOM     24  O   UNL A   1      38.684  27.325  32.880  1.00  0.00    -0.248 OA
ATOM     25  C   UNL A   1      41.133  29.485  32.142  1.00  0.00     0.147 C 
ATOM     26  O   UNL A   1      39.830  31.302  33.184  1.00  0.00    -0.271 OA
ATOM     27  C   UNL A   1      41.831  27.558  33.445  1.00  0.00     0.127 C 
ATOM     28  C   UNL A   1      41.202  28.301  31.044  1.00  0.00     0.168 C 
ATOM     29  C   UNL A   1      42.349  30.367  32.454  1.00  0.00     0.048 C 
ATOM     30  C   UNL A   1      43.087  27.551  32.268  1.00  0.00     0.055 C 
ATOM     31  C   UNL A   1      42.600  27.836  30.841  1.00  0.00    -0.032 C 
ATOM     32  N   UNL A   1      40.504  28.356  29.782  1.00  0.00    -0.274 NA
ATOM     33  C   UNL A   1      42.818  28.102  29.541  1.00  0.00     0.005 A 
ATOM     34  C   UNL A   1      41.438  27.925  29.022  1.00  0.00     0.066 A 
ATOM     35  C   UNL A   1      43.712  28.646  28.540  1.00  0.00     0.056 A 
ATOM     36  C   UNL A   1      41.265  27.322  27.702  1.00  0.00     0.032 A 
ATOM     37  C   UNL A   1      43.222  28.642  27.264  1.00  0.00     0.119 A 
ATOM     38  C   UNL A   1      42.236  27.650  26.851  1.00  0.00     0.048 A 
BRANCH  37  39
ATOM     39  O   UNL A   1      43.342  29.737  26.419  1.00  0.00    -0.497 OA
ATOM     40  C   UNL A   1      44.321  30.711  26.875  1.00  0.00     0.278 C 
ENDBRANCH  37  39
ENDBRANCH  18  20
ENDBRANCH  15  18
ENDBRANCH   9  14
ENDBRANCH   7   9
ENDBRANCH   6   7
ENDBRANCH   5   6
ENDBRANCH   4   5
ENDBRANCH   3   4
ENDBRANCH   2   3
ENDBRANCH   1   2
BRANCH   1  41
ATOM     41  O   UNL A   1      32.362  25.579  25.528  1.00  0.00    -0.377 OA
BRANCH  41  42
ATOM     42  C   UNL A   1      32.966  24.343  25.152  1.00  0.00     0.188 C 
BRANCH  42  43
ATOM     43  C   UNL A   1      34.375  24.200  25.723  1.00  0.00     0.188 C 
BRANCH  43  44
ATOM     44  O   UNL A   1      35.127  23.150  25.111  1.00  0.00    -0.376 OA
BRANCH  44  45
ATOM     45  C   UNL A   1      36.551  23.371  25.123  1.00  0.00     0.202 C 
BRANCH  45  46
ATOM     46  C   UNL A   1      37.425  22.137  25.413  1.00  0.00     0.261 C 
BRANCH  46  47
ATOM     47  O   UNL A   1      38.620  22.546  26.114  1.00  0.00    -0.460 OA
BRANCH  47  48
ATOM     48  C   UNL A   1      39.533  21.572  26.347  1.00  0.00     0.338 C 
ATOM     49  O   UNL A   1      39.581  20.469  25.832  1.00  0.00    -0.246 OA
BRANCH  48  50
ATOM     50  C   UNL A   1      40.657  22.163  27.112  1.00  0.00     0.060 A 
ATOM     51  C   UNL A   1      41.822  21.444  27.392  1.00  0.00     0.016 A 
ATOM     52  C   UNL A   1      40.498  23.471  27.592  1.00  0.00     0.016 A 
ATOM     53  C   UNL A   1      42.859  22.065  28.093  1.00  0.00     0.010 A 
ATOM     54  C   UNL A   1      41.520  24.081  28.314  1.00  0.00     0.010 A 
ATOM     55  C   UNL A   1      42.726  23.398  28.522  1.00  0.00    -0.014 A 
BRANCH  55  56
ATOM     56  C   UNL A   1      43.921  24.181  28.909  1.00  0.00     0.031 A 
ATOM     57  C   UNL A   1      44.830  24.823  27.911  1.00  0.00     0.074 A 
ATOM     58  C   UNL A   1      44.207  24.220  30.224  1.00  0.00     0.049 A 
ATOM     59  N   UNL A   1      45.906  25.536  28.130  1.00  0.00    -0.248 NA
ATOM     60  C   UNL A   1      44.500  24.640  26.492  1.00  0.00     0.031 C 
ATOM     61  C   UNL A   1      43.410  23.577  31.274  1.00  0.00     0.029 A 
ATOM     62  N   UNL A   1      45.246  24.797  30.903  1.00  0.00    -0.354 N 
ATOM     63  C   UNL A   1      46.375  25.910  26.879  1.00  0.00     0.074 A 
ATOM     64  C   UNL A   1      45.485  25.310  25.903  1.00  0.00     0.031 C 
ATOM     65  C   UNL A   1      43.991  23.789  32.462  1.00  0.00     0.029 A 
ATOM     66  C   UNL A   1      45.204  24.569  32.256  1.00  0.00     0.049 A 
ATOM     67  H   UNL A   1      45.953  25.323  30.465  1.00  0.00     0.167 HD
ATOM     68  C   UNL A   1      47.443  26.691  26.583  1.00  0.00     0.037 A 
ATOM     69  C   UNL A   1      46.054  24.944  33.227  1.00  0.00     0.037 A 
ATOM     70  C   UNL A   1      48.341  27.247  27.567  1.00  0.00     0.049 A 
ATOM     71  C   UNL A   1      47.249  25.770  32.864  1.00  0.00     0.074 A 
ATOM     72  C   UNL A   1      49.422  28.092  27.373  1.00  0.00     0.029 A 
ATOM     73  N   UNL A   1      48.277  26.995  28.930  1.00  0.00    -0.354 N 
ATOM     74  N   UNL A   1      47.625  26.201  31.685  1.00  0.00    -0.248 NA
ATOM     75  C   UNL A   1      48.130  26.171  33.968  1.00  0.00     0.031 C 
ATOM     76  C   UNL A   1      50.036  28.314  28.612  1.00  0.00     0.029 A 
ATOM     77  C   UNL A   1      49.314  27.642  29.586  1.00  0.00     0.049 A 
ATOM     78  H   UNL A   1      47.594  26.437  29.369  1.00  0.00     0.167 HD
ATOM     79  C   UNL A   1      48.776  26.943  31.905  1.00  0.00     0.074 A 
ATOM     80  C   UNL A   1      49.024  26.915  33.333  1.00  0.00     0.031 C 
ATOM     81  C   UNL A   1      49.555  27.590  31.005  1.00  0.00     0.037 A 
BRANCH  68  82
ATOM     82  C   UNL A   1      47.700  26.995  25.135  1.00  0.00     0.057 A 
ATOM     83  C   UNL A   1      48.792  26.433  24.461  1.00  0.00     0.134 A 
ATOM     84  C   UNL A   1      46.894  27.891  24.422  1.00  0.00     0.134 A 
ATOM     85  F   UNL A   1      49.612  25.576  25.088  1.00  0.00    -0.206 F 
ATOM     86  C   UNL A   1      49.072  26.752  23.131  1.00  0.00     0.040 A 
ATOM     87  C   UNL A   1      47.152  28.203  23.085  1.00  0.00     0.040 A 
ATOM     88  F   UNL A   1      45.830  28.461  25.006  1.00  0.00    -0.206 F 
ATOM     89  C   UNL A   1      48.248  27.637  22.438  1.00  0.00     0.006 A 
ENDBRANCH  68  82
BRANCH  69  90
ATOM     90  C   UNL A   1      45.775  24.567  34.632  1.00  0.00     0.057 A 
ATOM     91  C   UNL A   1      46.173  23.329  35.148  1.00  0.00     0.134 A 
ATOM     92  C   UNL A   1      45.082  25.433  35.483  1.00  0.00     0.134 A 
ATOM     93  F   UNL A   1      46.829  22.450  34.374  1.00  0.00    -0.206 F 
ATOM     94  C   UNL A   1      45.886  22.962  36.463  1.00  0.00     0.040 A 
ATOM     95  C   UNL A   1      44.806  25.089  36.806  1.00  0.00     0.040 A 
ATOM     96  F   UNL A   1      44.684  26.636  35.042  1.00  0.00    -0.206 F 
ATOM     97  C   UNL A   1      45.205  23.847  37.297  1.00  0.00     0.006 A 
ENDBRANCH  69  90
BRANCH  81  98
ATOM     98  C   UNL A   1      50.738  28.328  31.557  1.00  0.00     0.057 A 
ATOM     99  C   UNL A   1      51.984  27.699  31.670  1.00  0.00     0.134 A 
ATOM    100  C   UNL A   1      50.646  29.666  31.961  1.00  0.00     0.134 A 
ATOM    101  F   UNL A   1      52.137  26.419  31.300  1.00  0.00    -0.206 F 
ATOM    102  C   UNL A   1      53.099  28.377  32.161  1.00  0.00     0.040 A 
ATOM    103  C   UNL A   1      51.761  30.362  32.431  1.00  0.00     0.040 A 
ATOM    104  F   UNL A   1      49.485  30.330  31.856  1.00  0.00    -0.206 F 
ATOM    105  C   UNL A   1      52.992  29.715  32.535  1.00  0.00     0.006 A 
ENDBRANCH  81  98
ENDBRANCH  55  56
ENDBRANCH  48  50
ENDBRANCH  47  48
ENDBRANCH  46  47
ENDBRANCH  45  46
ENDBRANCH  44  45
ENDBRANCH  43  44
ENDBRANCH  42  43
ENDBRANCH  41  42
ENDBRANCH   1  41
TORSDOF 26
ENDMDL
MODEL 2
REMARK VINA RESULT:      -7.3      5.664     12.720
REMARK SMILES CC[C@@H](C)[C@H](NC(=O)[C@H](C)N1C(=O)N2CCC3=c4cc(OC)ccc4=N[C@@H]3[C@@]2(C)C1=O)C(=O)OCCOCCOCCOCCOC(=O)c1ccc(-c2c3nc(c(-c4c(F)cccc4F)c4ccc([nH]4)c(-c4c(F)cccc4F)c4nc(c(-c5c(F)cccc5F)c5ccc2[nH]5)C=C4)C=C3)cc1
REMARK SMILES IDX 39 1 38 2 37 3 36 4 35 5 34 6 32 7 33 8 5 9 3 10 4 11 2 12
REMARK SMILES IDX 1 13 6 14 7 15 8 17 9 18 10 19 11 20 12 21 30 22 14 23 13 24
REMARK SMILES IDX 28 25 31 26 15 27 27 28 29 29 16 30 17 31 26 32 18 33 25 34
REMARK SMILES IDX 19 35 24 36 20 37 23 38 21 39 22 40 40 41 41 42 42 43 43 44
REMARK SMILES IDX 44 45 45 46 46 47 47 48 48 49 49 50 50 51 102 52 51 53
REMARK SMILES IDX 101 54 52 55 53 56 54 57 95 58 55 59 100 60 94 61 96 62
REMARK SMILES IDX 56 63 99 64 93 65 92 66 57 68 83 69 66 70 82 71 67 72 70 73
REMARK SMILES IDX 81 74 97 75 68 76 69 77 80 79 98 80 71 81 58 82 59 83 64 84
REMARK SMILES IDX 60 85 61 86 63 87 65 88 62 89 84 90 85 91 90 92 86 93 87 94
REMARK SMILES IDX 89 95 91 96 88 97 72 98 73 99 78 100 74 101 75 102 77 103
REMARK SMILES IDX 79 104 76 105
REMARK H PARENT 6 16 96 67 70 78
REMARK Flexibility Score: inf
ROOT
ATOM      1  C   UNL A   1      47.882  25.254  24.109  1.00  0.00     0.188 C 
ENDROOT
BRANCH   1   2
ATOM      2  C   UNL A   1      47.340  26.597  24.629  1.00  0.00     0.188 C 
BRANCH   2   3
ATOM      3  O   UNL A   1      48.160  27.763  24.579  1.00  0.00    -0.376 OA
BRANCH   3   4
ATOM      4  C   UNL A   1      49.532  27.588  24.263  1.00  0.00     0.202 C 
BRANCH   4   5
ATOM      5  C   UNL A   1      50.519  28.214  25.245  1.00  0.00     0.261 C 
BRANCH   5   6
ATOM      6  O   UNL A   1      51.240  29.301  24.648  1.00  0.00    -0.462 OA
BRANCH   6   7
ATOM      7  C   UNL A   1      52.598  29.234  24.657  1.00  0.00     0.328 C 
ATOM      8  O   UNL A   1      53.290  29.272  25.665  1.00  0.00    -0.250 OA
BRANCH   7   9
ATOM      9  C   UNL A   1      53.149  29.425  23.230  1.00  0.00     0.195 C 
BRANCH   9  10
ATOM     10  C   UNL A   1      52.440  28.256  22.392  1.00  0.00     0.019 C 
ATOM     11  C   UNL A   1      53.222  26.927  22.332  1.00  0.00     0.010 C 
BRANCH  10  12
ATOM     12  C   UNL A   1      51.994  28.657  20.976  1.00  0.00     0.002 C 
ATOM     13  C   UNL A   1      50.487  28.911  20.853  1.00  0.00     0.004 C 
ENDBRANCH  10  12
ENDBRANCH   9  10
BRANCH   9  14
ATOM     14  N   UNL A   1      54.652  29.476  23.116  1.00  0.00    -0.341 N 
ATOM     15  C   UNL A   1      55.679  29.654  22.223  1.00  0.00     0.243 C 
ATOM     16  H   UNL A   1      55.038  29.328  24.009  1.00  0.00     0.164 HD
ATOM     17  O   UNL A   1      56.745  29.827  22.854  1.00  0.00    -0.273 OA
BRANCH  15  18
ATOM     18  C   UNL A   1      55.774  29.786  20.558  1.00  0.00     0.181 C 
ATOM     19  C   UNL A   1      56.728  28.798  19.907  1.00  0.00     0.042 C 
BRANCH  18  20
ATOM     20  N   UNL A   1      55.651  31.117  19.917  1.00  0.00    -0.250 N 
ATOM     21  C   UNL A   1      55.914  31.534  18.588  1.00  0.00     0.328 C 
ATOM     22  C   UNL A   1      54.432  31.605  20.050  1.00  0.00     0.259 C 
ATOM     23  N   UNL A   1      54.566  32.021  18.022  1.00  0.00    -0.307 N 
ATOM     24  O   UNL A   1      56.913  31.329  17.913  1.00  0.00    -0.248 OA
ATOM     25  C   UNL A   1      53.686  31.205  18.795  1.00  0.00     0.147 C 
ATOM     26  O   UNL A   1      54.194  32.543  20.803  1.00  0.00    -0.271 OA
ATOM     27  C   UNL A   1      54.104  32.098  16.574  1.00  0.00     0.127 C 
ATOM     28  C   UNL A   1      53.985  29.883  17.914  1.00  0.00     0.168 C 
ATOM     29  C   UNL A   1      52.266  31.764  18.953  1.00  0.00     0.048 C 
ATOM     30  C   UNL A   1      52.821  31.016  16.189  1.00  0.00     0.055 C 
ATOM     31  C   UNL A   1      52.921  29.659  16.900  1.00  0.00    -0.032 C 
ATOM     32  N   UNL A   1      54.396  28.627  18.494  1.00  0.00    -0.274 NA
ATOM     33  C   UNL A   1      52.422  28.461  17.249  1.00  0.00     0.005 A 
ATOM     34  C   UNL A   1      53.647  27.843  17.816  1.00  0.00     0.066 A 
ATOM     35  C   UNL A   1      51.245  27.649  17.481  1.00  0.00     0.056 A 
ATOM     36  C   UNL A   1      53.874  26.417  17.591  1.00  0.00     0.032 A 
ATOM     37  C   UNL A   1      51.495  26.378  17.916  1.00  0.00     0.119 A 
ATOM     38  C   UNL A   1      52.745  25.709  17.573  1.00  0.00     0.048 A 
BRANCH  37  39
ATOM     39  O   UNL A   1      50.785  25.797  18.958  1.00  0.00    -0.497 OA
ATOM     40  C   UNL A   1      50.848  24.345  18.957  1.00  0.00     0.278 C 
ENDBRANCH  37  39
ENDBRANCH  18  20
ENDBRANCH  15  18
ENDBRANCH   9  14
ENDBRANCH   7   9
ENDBRANCH   6   7
ENDBRANCH   5   6
ENDBRANCH   4   5
ENDBRANCH   3   4
ENDBRANCH   2   3
ENDBRANCH   1   2
BRANCH   1  41
ATOM     41  O   UNL A   1      46.915  24.216  24.036  1.00  0.00    -0.377 OA
BRANCH  41  42
ATOM     42  C   UNL A   1      46.540  23.703  25.313  1.00  0.00     0.188 C 
BRANCH  42  43
ATOM     43  C   UNL A   1      45.650  22.468  25.192  1.00  0.00     0.188 C 
BRANCH  43  44
ATOM     44  O   UNL A   1      46.378  21.239  25.254  1.00  0.00    -0.376 OA
BRANCH  44  45
ATOM     45  C   UNL A   1      45.741  20.148  24.562  1.00  0.00     0.202 C 
BRANCH  45  46
ATOM     46  C   UNL A   1      44.663  19.383  25.352  1.00  0.00     0.261 C 
BRANCH  46  47
ATOM     47  O   UNL A   1      43.363  19.665  24.790  1.00  0.00    -0.460 OA
BRANCH  47  48
ATOM     48  C   UNL A   1      42.327  19.664  25.664  1.00  0.00     0.338 C 
ATOM     49  O   UNL A   1      41.681  18.700  26.039  1.00  0.00    -0.246 OA
BRANCH  48  50
ATOM     50  C   UNL A   1      42.286  20.984  26.336  1.00  0.00     0.060 A 
ATOM     51  C   UNL A   1      42.233  21.106  27.728  1.00  0.00     0.016 A 
ATOM     52  C   UNL A   1      42.257  22.126  25.523  1.00  0.00     0.016 A 
ATOM     53  C   UNL A   1      42.225  22.378  28.305  1.00  0.00     0.010 A 
ATOM     54  C   UNL A   1      42.222  23.393  26.097  1.00  0.00     0.010 A 
ATOM     55  C   UNL A   1      42.259  23.526  27.492  1.00  0.00    -0.014 A 
BRANCH  55  56
ATOM     56  C   UNL A   1      42.635  24.837  28.065  1.00  0.00     0.031 A 
ATOM     57  C   UNL A   1      44.011  25.140  28.565  1.00  0.00     0.074 A 
ATOM     58  C   UNL A   1      41.642  25.737  28.197  1.00  0.00     0.049 A 
ATOM     59  N   UNL A   1      44.462  26.253  29.086  1.00  0.00    -0.248 NA
ATOM     60  C   UNL A   1      45.006  24.063  28.478  1.00  0.00     0.031 C 
ATOM     61  C   UNL A   1      40.251  25.514  27.789  1.00  0.00     0.029 A 
ATOM     62  N   UNL A   1      41.635  26.999  28.727  1.00  0.00    -0.354 N 
ATOM     63  C   UNL A   1      45.800  26.025  29.371  1.00  0.00     0.074 A 
ATOM     64  C   UNL A   1      46.077  24.651  29.000  1.00  0.00     0.031 C 
ATOM     65  C   UNL A   1      39.525  26.599  28.088  1.00  0.00     0.029 A 
ATOM     66  C   UNL A   1      40.394  27.584  28.719  1.00  0.00     0.049 A 
ATOM     67  H   UNL A   1      42.441  27.442  29.079  1.00  0.00     0.167 HD
ATOM     68  C   UNL A   1      46.707  26.892  29.885  1.00  0.00     0.037 A 
ATOM     69  C   UNL A   1      39.996  28.784  29.175  1.00  0.00     0.037 A 
ATOM     70  C   UNL A   1      46.403  28.245  30.286  1.00  0.00     0.049 A 
ATOM     71  C   UNL A   1      41.013  29.703  29.778  1.00  0.00     0.074 A 
ATOM     72  C   UNL A   1      47.262  29.219  30.770  1.00  0.00     0.029 A 
ATOM     73  N   UNL A   1      45.135  28.809  30.271  1.00  0.00    -0.354 N 
ATOM     74  N   UNL A   1      42.298  29.510  29.950  1.00  0.00    -0.248 NA
ATOM     75  C   UNL A   1      40.527  31.010  30.237  1.00  0.00     0.031 C 
ATOM     76  C   UNL A   1      46.506  30.354  31.088  1.00  0.00     0.029 A 
ATOM     77  C   UNL A   1      45.183  30.105  30.764  1.00  0.00     0.049 A 
ATOM     78  H   UNL A   1      44.320  28.355  29.957  1.00  0.00     0.167 HD
ATOM     79  C   UNL A   1      42.780  30.679  30.518  1.00  0.00     0.074 A 
ATOM     80  C   UNL A   1      41.651  31.579  30.646  1.00  0.00     0.031 C 
ATOM     81  C   UNL A   1      44.046  30.980  30.899  1.00  0.00     0.037 A 
BRANCH  68  82
ATOM     82  C   UNL A   1      48.119  26.405  30.042  1.00  0.00     0.057 A 
ATOM     83  C   UNL A   1      49.038  26.496  28.988  1.00  0.00     0.134 A 
ATOM     84  C   UNL A   1      48.554  25.794  31.225  1.00  0.00     0.134 A 
ATOM     85  F   UNL A   1      48.684  27.060  27.823  1.00  0.00    -0.206 F 
ATOM     86  C   UNL A   1      50.336  25.996  29.106  1.00  0.00     0.040 A 
ATOM     87  C   UNL A   1      49.856  25.307  31.361  1.00  0.00     0.040 A 
ATOM     88  F   UNL A   1      47.727  25.678  32.274  1.00  0.00    -0.206 F 
ATOM     89  C   UNL A   1      50.750  25.403  30.296  1.00  0.00     0.006 A 
ENDBRANCH  68  82
BRANCH  69  90
ATOM     90  C   UNL A   1      38.577  29.186  29.042  1.00  0.00     0.057 A 
ATOM     91  C   UNL A   1      37.692  29.113  30.124  1.00  0.00     0.134 A 
ATOM     92  C   UNL A   1      38.070  29.630  27.817  1.00  0.00     0.134 A 
ATOM     93  F   UNL A   1      38.119  28.680  31.320  1.00  0.00    -0.206 F 
ATOM     94  C   UNL A   1      36.349  29.465  29.991  1.00  0.00     0.040 A 
ATOM     95  C   UNL A   1      36.734  30.005  27.674  1.00  0.00     0.040 A 
ATOM     96  F   UNL A   1      38.875  29.727  26.749  1.00  0.00    -0.206 F 
ATOM     97  C   UNL A   1      35.869  29.918  28.764  1.00  0.00     0.006 A 
ENDBRANCH  69  90
BRANCH  81  98
ATOM     98  C   UNL A   1      44.261  32.348  31.474  1.00  0.00     0.057 A 
ATOM     99  C   UNL A   1      44.542  33.437  30.640  1.00  0.00     0.134 A 
ATOM    100  C   UNL A   1      44.172  32.589  32.851  1.00  0.00     0.134 A 
ATOM    101  F   UNL A   1      44.640  33.272  29.313  1.00  0.00    -0.206 F 
ATOM    102  C   UNL A   1      44.723  34.720  31.156  1.00  0.00     0.040 A 
ATOM    103  C   UNL A   1      44.327  33.873  33.376  1.00  0.00     0.040 A 
ATOM    104  F   UNL A   1      43.882  31.591  33.699  1.00  0.00    -0.206 F 
ATOM    105  C   UNL A   1      44.607  34.943  32.527  1.00  0.00     0.006 A 
ENDBRANCH  81  98
ENDBRANCH  55  56
ENDBRANCH  48  50
ENDBRANCH  47  48
ENDBRANCH  46  47
ENDBRANCH  45  46
ENDBRANCH  44  45
ENDBRANCH  43  44
ENDBRANCH  42  43
ENDBRANCH  41  42
ENDBRANCH   1  41
TORSDOF 26
ENDMDL
MODEL 3
REMARK VINA RESULT:      -7.3      1.300      2.190
REMARK SMILES CC[C@@H](C)[C@H](NC(=O)[C@H](C)N1C(=O)N2CCC3=c4cc(OC)ccc4=N[C@@H]3[C@@]2(C)C1=O)C(=O)OCCOCCOCCOCCOC(=O)c1ccc(-c2c3nc(c(-c4c(F)cccc4F)c4ccc([nH]4)c(-c4c(F)cccc4F)c4nc(c(-c5c(F)cccc5F)c5ccc2[nH]5)C=C4)C=C3)cc1
REMARK SMILES IDX 39 1 38 2 37 3 36 4 35 5 34 6 32 7 33 8 5 9 3 10 4 11 2 12
REMARK SMILES IDX 1 13 6 14 7 15 8 17 9 18 10 19 11 20 12 21 30 22 14 23 13 24
REMARK SMILES IDX 28 25 31 26 15 27 27 28 29 29 16 30 17 31 26 32 18 33 25 34
REMARK SMILES IDX 19 35 24 36 20 37 23 38 21 39 22 40 40 41 41 42 42 43 43 44
REMARK SMILES IDX 44 45 45 46 46 47 47 48 48 49 49 50 50 51 102 52 51 53
REMARK SMILES IDX 101 54 52 55 53 56 54 57 95 58 55 59 100 60 94 61 96 62
REMARK SMILES IDX 56 63 99 64 93 65 92 66 57 68 83 69 66 70 82 71 67 72 70 73
REMARK SMILES IDX 81 74 97 75 68 76 69 77 80 79 98 80 71 81 58 82 59 83 64 84
REMARK SMILES IDX 60 85 61 86 63 87 65 88 62 89 84 90 85 91 90 92 86 93 87 94
REMARK SMILES IDX 89 95 91 96 88 97 72 98 73 99 78 100 74 101 75 102 77 103
REMARK SMILES IDX 79 104 76 105
REMARK H PARENT 6 16 96 67 70 78
REMARK Flexibility Score: inf
ROOT
ATOM      1  C   UNL A   1      33.643  26.761  25.642  1.00  0.00     0.188 C 
ENDROOT
BRANCH   1   2
ATOM      2  C   UNL A   1      33.042  27.682  26.718  1.00  0.00     0.188 C 
BRANCH   2   3
ATOM      3  O   UNL A   1      33.807  28.769  27.234  1.00  0.00    -0.376 OA
BRANCH   3   4
ATOM      4  C   UNL A   1      33.559  30.059  26.700  1.00  0.00     0.202 C 
BRANCH   4   5
ATOM      5  C   UNL A   1      34.253  31.214  27.418  1.00  0.00     0.261 C 
BRANCH   5   6
ATOM      6  O   UNL A   1      33.414  31.786  28.431  1.00  0.00    -0.462 OA
BRANCH   6   7
ATOM      7  C   UNL A   1      33.222  33.131  28.404  1.00  0.00     0.328 C 
ATOM      8  O   UNL A   1      32.607  33.729  27.531  1.00  0.00    -0.250 OA
BRANCH   7   9
ATOM      9  C   UNL A   1      34.144  33.821  29.429  1.00  0.00     0.195 C 
BRANCH   9  10
ATOM     10  C   UNL A   1      33.606  35.331  29.463  1.00  0.00     0.019 C 
ATOM     11  C   UNL A   1      34.251  36.278  28.429  1.00  0.00     0.010 C 
BRANCH  10  12
ATOM     12  C   UNL A   1      33.626  35.992  30.851  1.00  0.00     0.002 C 
ATOM     13  C   UNL A   1      32.254  36.029  31.536  1.00  0.00     0.004 C 
ENDBRANCH  10  12
ENDBRANCH   9  10
BRANCH   9  14
ATOM     14  N   UNL A   1      35.623  33.671  29.177  1.00  0.00    -0.341 N 
ATOM     15  C   UNL A   1      36.771  33.109  29.679  1.00  0.00     0.243 C 
ATOM     16  H   UNL A   1      35.849  34.152  28.348  1.00  0.00     0.164 HD
ATOM     17  O   UNL A   1      37.668  33.166  28.810  1.00  0.00    -0.273 OA
BRANCH  15  18
ATOM     18  C   UNL A   1      37.161  32.312  31.097  1.00  0.00     0.181 C 
ATOM     19  C   UNL A   1      36.053  31.425  31.639  1.00  0.00     0.042 C 
BRANCH  18  20
ATOM     20  N   UNL A   1      38.039  32.969  32.094  1.00  0.00    -0.250 N 
ATOM     21  C   UNL A   1      38.516  32.518  33.350  1.00  0.00     0.328 C 
ATOM     22  C   UNL A   1      39.187  33.338  31.556  1.00  0.00     0.259 C 
ATOM     23  N   UNL A   1      40.050  32.453  33.222  1.00  0.00    -0.307 N 
ATOM     24  O   UNL A   1      37.877  32.028  34.272  1.00  0.00    -0.248 OA
ATOM     25  C   UNL A   1      40.152  32.202  31.821  1.00  0.00     0.147 C 
ATOM     26  O   UNL A   1      39.448  34.517  31.346  1.00  0.00    -0.271 OA
ATOM     27  C   UNL A   1      41.043  31.602  34.000  1.00  0.00     0.127 C 
ATOM     28  C   UNL A   1      39.742  30.646  31.974  1.00  0.00     0.168 C 
ATOM     29  C   UNL A   1      41.484  32.625  31.189  1.00  0.00     0.048 C 
ATOM     30  C   UNL A   1      41.839  30.407  33.050  1.00  0.00     0.055 C 
ATOM     31  C   UNL A   1      40.943  29.770  31.979  1.00  0.00    -0.032 C 
ATOM     32  N   UNL A   1      38.678  30.034  31.213  1.00  0.00    -0.274 NA
ATOM     33  C   UNL A   1      40.750  28.991  30.901  1.00  0.00     0.005 A 
ATOM     34  C   UNL A   1      39.266  28.943  30.898  1.00  0.00     0.066 A 
ATOM     35  C   UNL A   1      41.316  28.392  29.710  1.00  0.00     0.056 A 
ATOM     36  C   UNL A   1      38.612  27.694  30.510  1.00  0.00     0.032 A 
ATOM     37  C   UNL A   1      40.439  27.668  28.952  1.00  0.00     0.119 A 
ATOM     38  C   UNL A   1      39.279  27.032  29.566  1.00  0.00     0.048 A 
BRANCH  37  39
ATOM     39  O   UNL A   1      40.384  27.779  27.570  1.00  0.00    -0.497 OA
ATOM     40  C   UNL A   1      41.307  28.768  27.035  1.00  0.00     0.278 C 
ENDBRANCH  37  39
ENDBRANCH  18  20
ENDBRANCH  15  18
ENDBRANCH   9  14
ENDBRANCH   7   9
ENDBRANCH   6   7
ENDBRANCH   5   6
ENDBRANCH   4   5
ENDBRANCH   3   4
ENDBRANCH   2   3
ENDBRANCH   1   2
BRANCH   1  41
ATOM     41  O   UNL A   1      32.812  25.672  25.266  1.00  0.00    -0.377 OA
BRANCH  41  42
ATOM     42  C   UNL A   1      33.518  24.627  24.599  1.00  0.00     0.188 C 
BRANCH  42  43
ATOM     43  C   UNL A   1      34.844  24.306  25.285  1.00  0.00     0.188 C 
BRANCH  43  44
ATOM     44  O   UNL A   1      35.554  23.232  24.665  1.00  0.00    -0.376 OA
BRANCH  44  45
ATOM     45  C   UNL A   1      36.986  23.343  24.768  1.00  0.00     0.202 C 
BRANCH  45  46
ATOM     46  C   UNL A   1      37.726  22.102  25.300  1.00  0.00     0.261 C 
BRANCH  46  47
ATOM     47  O   UNL A   1      38.861  22.519  26.091  1.00  0.00    -0.460 OA
BRANCH  47  48
ATOM     48  C   UNL A   1      39.721  21.538  26.457  1.00  0.00     0.338 C 
ATOM     49  O   UNL A   1      39.748  20.391  26.044  1.00  0.00    -0.246 OA
BRANCH  48  50
ATOM     50  C   UNL A   1      40.828  22.154  27.225  1.00  0.00     0.060 A 
ATOM     51  C   UNL A   1      41.974  21.437  27.578  1.00  0.00     0.016 A 
ATOM     52  C   UNL A   1      40.673  23.487  27.633  1.00  0.00     0.016 A 
ATOM     53  C   UNL A   1      42.998  22.080  28.279  1.00  0.00     0.010 A 
ATOM     54  C   UNL A   1      41.680  24.121  28.354  1.00  0.00     0.010 A 
ATOM     55  C   UNL A   1      42.870  23.435  28.635  1.00  0.00    -0.014 A 
BRANCH  55  56
ATOM     56  C   UNL A   1      44.062  24.222  29.019  1.00  0.00     0.031 A 
ATOM     57  C   UNL A   1      44.959  24.879  28.019  1.00  0.00     0.074 A 
ATOM     58  C   UNL A   1      44.359  24.252  30.332  1.00  0.00     0.049 A 
ATOM     59  N   UNL A   1      46.032  25.597  28.234  1.00  0.00    -0.248 NA
ATOM     60  C   UNL A   1      44.619  24.705  26.601  1.00  0.00     0.031 C 
ATOM     61  C   UNL A   1      43.574  23.596  31.383  1.00  0.00     0.029 A 
ATOM     62  N   UNL A   1      45.399  24.831  31.007  1.00  0.00    -0.354 N 
ATOM     63  C   UNL A   1      46.489  25.984  26.983  1.00  0.00     0.074 A 
ATOM     64  C   UNL A   1      45.595  25.386  26.010  1.00  0.00     0.031 C 
ATOM     65  C   UNL A   1      44.163  23.802  32.567  1.00  0.00     0.029 A 
ATOM     66  C   UNL A   1      45.370  24.592  32.358  1.00  0.00     0.049 A 
ATOM     67  H   UNL A   1      46.099  25.365  30.567  1.00  0.00     0.167 HD
ATOM     68  C   UNL A   1      47.549  26.775  26.685  1.00  0.00     0.037 A 
ATOM     69  C   UNL A   1      46.226  24.965  33.326  1.00  0.00     0.037 A 
ATOM     70  C   UNL A   1      48.452  27.328  27.666  1.00  0.00     0.049 A 
ATOM     71  C   UNL A   1      47.412  25.801  32.960  1.00  0.00     0.074 A 
ATOM     72  C   UNL A   1      49.526  28.182  27.471  1.00  0.00     0.029 A 
ATOM     73  N   UNL A   1      48.400  27.064  29.028  1.00  0.00    -0.354 N 
ATOM     74  N   UNL A   1      47.776  26.244  31.781  1.00  0.00    -0.248 NA
ATOM     75  C   UNL A   1      48.299  26.199  34.060  1.00  0.00     0.031 C 
ATOM     76  C   UNL A   1      50.148  28.397  28.707  1.00  0.00     0.029 A 
ATOM     77  C   UNL A   1      49.439  27.713  29.680  1.00  0.00     0.049 A 
ATOM     78  H   UNL A   1      47.724  26.499  29.467  1.00  0.00     0.167 HD
ATOM     79  C   UNL A   1      48.923  26.991  31.998  1.00  0.00     0.074 A 
ATOM     80  C   UNL A   1      49.184  26.953  33.424  1.00  0.00     0.031 C 
ATOM     81  C   UNL A   1      49.691  27.651  31.097  1.00  0.00     0.037 A 
BRANCH  68  82
ATOM     82  C   UNL A   1      47.793  27.091  25.237  1.00  0.00     0.057 A 
ATOM     83  C   UNL A   1      46.986  28.008  24.551  1.00  0.00     0.134 A 
ATOM     84  C   UNL A   1      48.796  26.442  24.506  1.00  0.00     0.134 A 
ATOM     85  F   UNL A   1      46.000  28.657  25.188  1.00  0.00    -0.206 F 
ATOM     86  C   UNL A   1      47.169  28.268  23.192  1.00  0.00     0.040 A 
ATOM     87  C   UNL A   1      49.001  26.707  23.150  1.00  0.00     0.040 A 
ATOM     88  F   UNL A   1      49.606  25.555  25.103  1.00  0.00    -0.206 F 
ATOM     89  C   UNL A   1      48.182  27.619  22.488  1.00  0.00     0.006 A 
ENDBRANCH  68  82
BRANCH  69  90
ATOM     90  C   UNL A   1      45.961  24.574  34.729  1.00  0.00     0.057 A 
ATOM     91  C   UNL A   1      46.416  23.356  35.247  1.00  0.00     0.134 A 
ATOM     92  C   UNL A   1      45.223  25.406  35.578  1.00  0.00     0.134 A 
ATOM     93  F   UNL A   1      47.116  22.511  34.476  1.00  0.00    -0.206 F 
ATOM     94  C   UNL A   1      46.142  22.977  36.561  1.00  0.00     0.040 A 
ATOM     95  C   UNL A   1      44.959  25.049  36.900  1.00  0.00     0.040 A 
ATOM     96  F   UNL A   1      44.769  26.588  35.135  1.00  0.00    -0.206 F 
ATOM     97  C   UNL A   1      45.417  23.827  37.393  1.00  0.00     0.006 A 
ENDBRANCH  69  90
BRANCH  81  98
ATOM     98  C   UNL A   1      50.873  28.392  31.646  1.00  0.00     0.057 A 
ATOM     99  C   UNL A   1      50.744  29.713  32.092  1.00  0.00     0.134 A 
ATOM    100  C   UNL A   1      52.135  27.793  31.749  1.00  0.00     0.134 A 
ATOM    101  F   UNL A   1      49.562  30.344  32.021  1.00  0.00    -0.206 F 
ATOM    102  C   UNL A   1      51.827  30.411  32.626  1.00  0.00     0.040 A 
ATOM    103  C   UNL A   1      53.220  28.472  32.304  1.00  0.00     0.040 A 
ATOM    104  F   UNL A   1      52.317  26.522  31.360  1.00  0.00    -0.206 F 
ATOM    105  C   UNL A   1      53.068  29.787  32.741  1.00  0.00     0.006 A 
ENDBRANCH  81  98
ENDBRANCH  55  56
ENDBRANCH  48  50
ENDBRANCH  47  48
ENDBRANCH  46  47
ENDBRANCH  45  46
ENDBRANCH  44  45
ENDBRANCH  43  44
ENDBRANCH  42  43
ENDBRANCH  41  42
ENDBRANCH   1  41
TORSDOF 26
ENDMDL
