MODEL 1
REMARK VINA RESULT:      -9.0      0.000      0.000
REMARK SMILES CCC[N@@H+](C)CC[C@@H]1CCC[C@]1([NH2+]C)C(=O)OCCOCCOCCOCCOC(=O)c1ccc(-c2c3nc(c(-c4c(F)cccc4F)c4ccc([nH]4)c(-c4c(F)cccc4F)c4nc(c(-c5c(F)cccc5F)c5ccc2[nH]5)C=C4)C=C3)cc1
REMARK SMILES IDX 21 1 20 2 19 3 18 4 17 5 15 6 16 7 12 8 8 9 9 10 10 11 11 12
REMARK SMILES IDX 7 13 6 14 4 15 5 16 3 18 2 19 1 20 13 21 14 22 22 25 23 26
REMARK SMILES IDX 24 27 25 28 26 29 27 30 28 31 29 32 30 33 31 34 32 35 33 36
REMARK SMILES IDX 85 37 34 38 84 39 35 40 36 41 37 42 78 43 38 44 83 45 77 46
REMARK SMILES IDX 79 47 39 48 82 49 76 50 75 51 40 53 66 54 49 55 65 56 50 57
REMARK SMILES IDX 53 58 64 59 80 60 51 61 52 62 63 64 81 65 54 66 41 67 42 68
REMARK SMILES IDX 47 69 43 70 44 71 46 72 48 73 45 74 67 75 68 76 73 77 69 78
REMARK SMILES IDX 70 79 72 80 74 81 71 82 55 83 56 84 61 85 57 86 58 87 60 88
REMARK SMILES IDX 62 89 59 90
REMARK H PARENT 4 17 13 23 13 24 79 52 53 63
REMARK Flexibility Score: inf
ROOT
ATOM      1  C   UNL A   1      32.500  30.809  27.219  1.00  0.00     0.188 C 
ENDROOT
BRANCH   1   2
ATOM      2  O   UNL A   1      32.575  29.977  26.088  1.00  0.00    -0.376 OA
BRANCH   2   3
ATOM      3  C   UNL A   1      33.253  28.743  26.141  1.00  0.00     0.202 C 
BRANCH   3   4
ATOM      4  C   UNL A   1      32.734  27.506  26.887  1.00  0.00     0.261 C 
BRANCH   4   5
ATOM      5  O   UNL A   1      31.773  26.657  26.239  1.00  0.00    -0.459 OA
BRANCH   5   6
ATOM      6  C   UNL A   1      32.169  25.412  25.900  1.00  0.00     0.368 C 
ATOM      7  O   UNL A   1      33.356  25.140  25.718  1.00  0.00    -0.245 OA
BRANCH   6   8
ATOM      8  C   UNL A   1      30.991  24.397  25.623  1.00  0.00     0.197 C 
ATOM      9  C   UNL A   1      31.133  22.955  24.949  1.00  0.00     0.068 C 
ATOM     10  C   UNL A   1      31.216  23.238  23.418  1.00  0.00     0.011 C 
ATOM     11  C   UNL A   1      30.784  24.671  23.197  1.00  0.00     0.008 C 
ATOM     12  C   UNL A   1      30.128  25.079  24.503  1.00  0.00     0.081 C 
BRANCH   9  13
ATOM     13  C   UNL A   1      31.946  21.637  25.225  1.00  0.00     0.072 C 
BRANCH  13  14
ATOM     14  C   UNL A   1      33.464  21.358  25.214  1.00  0.00     0.262 C 
BRANCH  14  15
ATOM     15  N   UNL A   1      34.308  21.437  26.420  1.00  0.00    -0.337 N 
ATOM     16  C   UNL A   1      33.651  22.147  27.516  1.00  0.00     0.332 C 
ATOM     17  H   UNL A   1      34.427  20.465  26.704  1.00  0.00     0.347 HD
BRANCH  15  18
ATOM     18  C   UNL A   1      35.658  21.932  26.192  1.00  0.00     0.261 C 
BRANCH  18  19
ATOM     19  C   UNL A   1      36.200  21.736  24.765  1.00  0.00     0.058 C 
ATOM     20  C   UNL A   1      36.604  22.985  24.017  1.00  0.00     0.010 C 
ENDBRANCH  18  19
ENDBRANCH  15  18
ENDBRANCH  14  15
ENDBRANCH  13  14
ENDBRANCH   9  13
BRANCH   8  21
ATOM     21  N   UNL A   1      30.163  24.291  26.858  1.00  0.00    -0.334 N 
ATOM     22  C   UNL A   1      29.573  22.984  27.120  1.00  0.00     0.331 C 
ATOM     23  H   UNL A   1      29.403  24.967  26.782  1.00  0.00     0.347 HD
ATOM     24  H   UNL A   1      30.801  24.466  27.634  1.00  0.00     0.347 HD
ENDBRANCH   8  21
ENDBRANCH   6   8
ENDBRANCH   5   6
ENDBRANCH   4   5
ENDBRANCH   3   4
ENDBRANCH   2   3
ENDBRANCH   1   2
BRANCH   1  25
ATOM     25  C   UNL A   1      33.752  31.677  27.486  1.00  0.00     0.188 C 
BRANCH  25  26
ATOM     26  O   UNL A   1      33.842  32.723  28.444  1.00  0.00    -0.377 OA
BRANCH  26  27
ATOM     27  C   UNL A   1      34.144  34.029  28.004  1.00  0.00     0.188 C 
BRANCH  27  28
ATOM     28  C   UNL A   1      33.647  35.172  28.906  1.00  0.00     0.188 C 
BRANCH  28  29
ATOM     29  O   UNL A   1      33.237  34.745  30.187  1.00  0.00    -0.376 OA
BRANCH  29  30
ATOM     30  C   UNL A   1      33.687  35.383  31.365  1.00  0.00     0.202 C 
BRANCH  30  31
ATOM     31  C   UNL A   1      34.897  34.884  32.173  1.00  0.00     0.261 C 
BRANCH  31  32
ATOM     32  O   UNL A   1      35.720  33.888  31.573  1.00  0.00    -0.460 OA
BRANCH  32  33
ATOM     33  C   UNL A   1      35.432  32.608  31.891  1.00  0.00     0.338 C 
ATOM     34  O   UNL A   1      34.430  32.182  32.417  1.00  0.00    -0.246 OA
BRANCH  33  35
ATOM     35  C   UNL A   1      36.511  31.779  31.326  1.00  0.00     0.060 A 
ATOM     36  C   UNL A   1      37.439  31.194  32.196  1.00  0.00     0.016 A 
ATOM     37  C   UNL A   1      36.602  31.596  29.946  1.00  0.00     0.016 A 
ATOM     38  C   UNL A   1      38.471  30.417  31.684  1.00  0.00     0.010 A 
ATOM     39  C   UNL A   1      37.665  30.858  29.429  1.00  0.00     0.010 A 
ATOM     40  C   UNL A   1      38.614  30.290  30.298  1.00  0.00    -0.014 A 
BRANCH  40  41
ATOM     41  C   UNL A   1      39.883  29.761  29.764  1.00  0.00     0.031 A 
ATOM     42  C   UNL A   1      41.042  30.708  29.652  1.00  0.00     0.074 A 
ATOM     43  C   UNL A   1      40.005  28.468  29.422  1.00  0.00     0.049 A 
ATOM     44  N   UNL A   1      42.240  30.499  29.175  1.00  0.00    -0.248 NA
ATOM     45  C   UNL A   1      40.820  32.077  30.148  1.00  0.00     0.031 C 
ATOM     46  C   UNL A   1      38.955  27.458  29.539  1.00  0.00     0.029 A 
ATOM     47  N   UNL A   1      41.072  27.791  28.892  1.00  0.00    -0.354 N 
ATOM     48  C   UNL A   1      42.907  31.710  29.299  1.00  0.00     0.074 A 
ATOM     49  C   UNL A   1      41.982  32.654  29.883  1.00  0.00     0.031 C 
ATOM     50  C   UNL A   1      39.424  26.291  29.065  1.00  0.00     0.029 A 
ATOM     51  C   UNL A   1      40.790  26.483  28.583  1.00  0.00     0.049 A 
ATOM     52  H   UNL A   1      41.955  28.203  28.746  1.00  0.00     0.167 HD
ATOM     53  C   UNL A   1      44.181  32.003  28.956  1.00  0.00     0.037 A 
ATOM     54  C   UNL A   1      41.545  25.566  27.948  1.00  0.00     0.037 A 
ATOM     55  C   UNL A   1      45.092  31.053  28.376  1.00  0.00     0.049 A 
ATOM     56  C   UNL A   1      42.939  25.943  27.514  1.00  0.00     0.074 A 
ATOM     57  C   UNL A   1      46.414  31.240  28.017  1.00  0.00     0.029 A 
ATOM     58  N   UNL A   1      44.768  29.744  28.058  1.00  0.00    -0.354 N 
ATOM     59  N   UNL A   1      43.579  27.077  27.667  1.00  0.00    -0.248 NA
ATOM     60  C   UNL A   1      43.718  24.907  26.819  1.00  0.00     0.031 C 
ATOM     61  C   UNL A   1      46.871  30.062  27.421  1.00  0.00     0.029 A 
ATOM     62  C   UNL A   1      45.856  29.119  27.475  1.00  0.00     0.049 A 
ATOM     63  H   UNL A   1      43.894  29.320  28.224  1.00  0.00     0.167 HD
ATOM     64  C   UNL A   1      44.843  26.881  27.122  1.00  0.00     0.074 A 
ATOM     65  C   UNL A   1      44.884  25.515  26.647  1.00  0.00     0.031 C 
ATOM     66  C   UNL A   1      45.877  27.752  27.020  1.00  0.00     0.037 A 
BRANCH  53  67
ATOM     67  C   UNL A   1      44.653  33.411  29.156  1.00  0.00     0.057 A 
ATOM     68  C   UNL A   1      45.311  33.820  30.321  1.00  0.00     0.134 A 
ATOM     69  C   UNL A   1      44.492  34.360  28.137  1.00  0.00     0.134 A 
ATOM     70  F   UNL A   1      45.479  32.966  31.343  1.00  0.00    -0.206 F 
ATOM     71  C   UNL A   1      45.785  35.125  30.472  1.00  0.00     0.040 A 
ATOM     72  C   UNL A   1      44.986  35.659  28.264  1.00  0.00     0.040 A 
ATOM     73  F   UNL A   1      43.867  34.034  26.995  1.00  0.00    -0.206 F 
ATOM     74  C   UNL A   1      45.634  36.044  29.436  1.00  0.00     0.006 A 
ENDBRANCH  53  67
BRANCH  54  75
ATOM     75  C   UNL A   1      40.995  24.221  27.645  1.00  0.00     0.057 A 
ATOM     76  C   UNL A   1      41.433  23.080  28.327  1.00  0.00     0.134 A 
ATOM     77  C   UNL A   1      40.050  24.037  26.626  1.00  0.00     0.134 A 
ATOM     78  F   UNL A   1      42.353  23.185  29.298  1.00  0.00    -0.206 F 
ATOM     79  C   UNL A   1      40.979  21.804  27.985  1.00  0.00     0.040 A 
ATOM     80  C   UNL A   1      39.565  22.771  26.296  1.00  0.00     0.040 A 
ATOM     81  F   UNL A   1      39.588  25.088  25.932  1.00  0.00    -0.206 F 
ATOM     82  C   UNL A   1      40.040  21.648  26.969  1.00  0.00     0.006 A 
ENDBRANCH  54  75
BRANCH  66  83
ATOM     83  C   UNL A   1      47.155  27.241  26.418  1.00  0.00     0.057 A 
ATOM     84  C   UNL A   1      47.383  27.250  25.037  1.00  0.00     0.134 A 
ATOM     85  C   UNL A   1      48.191  26.777  27.240  1.00  0.00     0.134 A 
ATOM     86  F   UNL A   1      46.429  27.672  24.192  1.00  0.00    -0.206 F 
ATOM     87  C   UNL A   1      48.583  26.790  24.493  1.00  0.00     0.040 A 
ATOM     88  C   UNL A   1      49.408  26.347  26.712  1.00  0.00     0.040 A 
ATOM     89  F   UNL A   1      48.045  26.755  28.575  1.00  0.00    -0.206 F 
ATOM     90  C   UNL A   1      49.604  26.345  25.332  1.00  0.00     0.006 A 
ENDBRANCH  66  83
ENDBRANCH  40  41
ENDBRANCH  33  35
ENDBRANCH  32  33
ENDBRANCH  31  32
ENDBRANCH  30  31
ENDBRANCH  29  30
ENDBRANCH  28  29
ENDBRANCH  27  28
ENDBRANCH  26  27
ENDBRANCH  25  26
ENDBRANCH   1  25
TORSDOF 26
ENDMDL
MODEL 2
REMARK VINA RESULT:      -8.4      1.351      2.099
REMARK SMILES CCC[N@@H+](C)CC[C@@H]1CCC[C@]1([NH2+]C)C(=O)OCCOCCOCCOCCOC(=O)c1ccc(-c2c3nc(c(-c4c(F)cccc4F)c4ccc([nH]4)c(-c4c(F)cccc4F)c4nc(c(-c5c(F)cccc5F)c5ccc2[nH]5)C=C4)C=C3)cc1
REMARK SMILES IDX 21 1 20 2 19 3 18 4 17 5 15 6 16 7 12 8 8 9 9 10 10 11 11 12
REMARK SMILES IDX 7 13 6 14 4 15 5 16 3 18 2 19 1 20 13 21 14 22 22 25 23 26
REMARK SMILES IDX 24 27 25 28 26 29 27 30 28 31 29 32 30 33 31 34 32 35 33 36
REMARK SMILES IDX 85 37 34 38 84 39 35 40 36 41 37 42 78 43 38 44 83 45 77 46
REMARK SMILES IDX 79 47 39 48 82 49 76 50 75 51 40 53 66 54 49 55 65 56 50 57
REMARK SMILES IDX 53 58 64 59 80 60 51 61 52 62 63 64 81 65 54 66 41 67 42 68
REMARK SMILES IDX 47 69 43 70 44 71 46 72 48 73 45 74 67 75 68 76 73 77 69 78
REMARK SMILES IDX 70 79 72 80 74 81 71 82 55 83 56 84 61 85 57 86 58 87 60 88
REMARK SMILES IDX 62 89 59 90
REMARK H PARENT 4 17 13 23 13 24 79 52 53 63
REMARK Flexibility Score: inf
ROOT
ATOM      1  C   UNL A   1      33.555  32.077  28.021  1.00  0.00     0.188 C 
ENDROOT
BRANCH   1   2
ATOM      2  O   UNL A   1      34.712  31.384  27.625  1.00  0.00    -0.376 OA
BRANCH   2   3
ATOM      3  C   UNL A   1      34.862  30.010  27.897  1.00  0.00     0.202 C 
BRANCH   3   4
ATOM      4  C   UNL A   1      34.763  28.904  26.837  1.00  0.00     0.261 C 
BRANCH   4   5
ATOM      5  O   UNL A   1      33.468  28.384  26.494  1.00  0.00    -0.459 OA
BRANCH   5   6
ATOM      6  C   UNL A   1      33.423  27.328  25.655  1.00  0.00     0.368 C 
ATOM      7  O   UNL A   1      34.179  26.365  25.788  1.00  0.00    -0.245 OA
BRANCH   6   8
ATOM      8  C   UNL A   1      32.439  27.499  24.431  1.00  0.00     0.197 C 
ATOM      9  C   UNL A   1      32.547  26.742  23.027  1.00  0.00     0.068 C 
ATOM     10  C   UNL A   1      33.632  27.531  22.232  1.00  0.00     0.011 C 
ATOM     11  C   UNL A   1      33.860  28.842  22.954  1.00  0.00     0.008 C 
ATOM     12  C   UNL A   1      32.691  28.960  23.914  1.00  0.00     0.081 C 
BRANCH   9  13
ATOM     13  C   UNL A   1      32.597  25.251  22.531  1.00  0.00     0.072 C 
BRANCH  13  14
ATOM     14  C   UNL A   1      33.552  24.093  22.888  1.00  0.00     0.262 C 
BRANCH  14  15
ATOM     15  N   UNL A   1      33.154  22.949  23.729  1.00  0.00    -0.337 N 
ATOM     16  C   UNL A   1      31.703  22.806  23.828  1.00  0.00     0.332 C 
ATOM     17  H   UNL A   1      33.516  22.136  23.231  1.00  0.00     0.347 HD
BRANCH  15  18
ATOM     18  C   UNL A   1      33.789  22.901  25.039  1.00  0.00     0.261 C 
BRANCH  18  19
ATOM     19  C   UNL A   1      35.325  22.810  25.023  1.00  0.00     0.058 C 
ATOM     20  C   UNL A   1      35.936  21.578  25.651  1.00  0.00     0.010 C 
ENDBRANCH  18  19
ENDBRANCH  15  18
ENDBRANCH  14  15
ENDBRANCH  13  14
ENDBRANCH   9  13
BRANCH   8  21
ATOM     21  N   UNL A   1      31.041  27.412  24.939  1.00  0.00    -0.334 N 
ATOM     22  C   UNL A   1      30.797  26.407  25.967  1.00  0.00     0.331 C 
ATOM     23  H   UNL A   1      30.434  27.201  24.147  1.00  0.00     0.347 HD
ATOM     24  H   UNL A   1      30.852  28.311  25.382  1.00  0.00     0.347 HD
ENDBRANCH   8  21
ENDBRANCH   6   8
ENDBRANCH   5   6
ENDBRANCH   4   5
ENDBRANCH   3   4
ENDBRANCH   2   3
ENDBRANCH   1   2
BRANCH   1  25
ATOM     25  C   UNL A   1      33.570  33.599  27.747  1.00  0.00     0.188 C 
BRANCH  25  26
ATOM     26  O   UNL A   1      34.481  34.531  28.315  1.00  0.00    -0.377 OA
BRANCH  26  27
ATOM     27  C   UNL A   1      33.973  35.668  28.978  1.00  0.00     0.188 C 
BRANCH  27  28
ATOM     28  C   UNL A   1      32.952  35.391  30.095  1.00  0.00     0.188 C 
BRANCH  28  29
ATOM     29  O   UNL A   1      33.386  35.802  31.373  1.00  0.00    -0.376 OA
BRANCH  29  30
ATOM     30  C   UNL A   1      33.711  34.870  32.386  1.00  0.00     0.202 C 
BRANCH  30  31
ATOM     31  C   UNL A   1      34.427  33.540  32.095  1.00  0.00     0.261 C 
BRANCH  31  32
ATOM     32  O   UNL A   1      35.850  33.560  32.042  1.00  0.00    -0.460 OA
BRANCH  32  33
ATOM     33  C   UNL A   1      36.489  32.733  32.897  1.00  0.00     0.338 C 
ATOM     34  O   UNL A   1      36.252  32.550  34.069  1.00  0.00    -0.246 OA
BRANCH  33  35
ATOM     35  C   UNL A   1      37.447  31.953  32.094  1.00  0.00     0.060 A 
ATOM     36  C   UNL A   1      38.248  31.000  32.735  1.00  0.00     0.016 A 
ATOM     37  C   UNL A   1      37.554  32.176  30.721  1.00  0.00     0.016 A 
ATOM     38  C   UNL A   1      39.166  30.261  32.000  1.00  0.00     0.010 A 
ATOM     39  C   UNL A   1      38.508  31.470  29.992  1.00  0.00     0.010 A 
ATOM     40  C   UNL A   1      39.332  30.531  30.637  1.00  0.00    -0.014 A 
BRANCH  40  41
ATOM     41  C   UNL A   1      40.522  29.995  29.950  1.00  0.00     0.031 A 
ATOM     42  C   UNL A   1      41.681  30.924  29.736  1.00  0.00     0.074 A 
ATOM     43  C   UNL A   1      40.578  28.711  29.562  1.00  0.00     0.049 A 
ATOM     44  N   UNL A   1      42.814  30.708  29.122  1.00  0.00    -0.248 NA
ATOM     45  C   UNL A   1      41.544  32.282  30.290  1.00  0.00     0.031 C 
ATOM     46  C   UNL A   1      39.527  27.717  29.769  1.00  0.00     0.029 A 
ATOM     47  N   UNL A   1      41.565  28.031  28.898  1.00  0.00    -0.354 N 
ATOM     48  C   UNL A   1      43.516  31.903  29.203  1.00  0.00     0.074 A 
ATOM     49  C   UNL A   1      42.681  32.846  29.912  1.00  0.00     0.031 C 
ATOM     50  C   UNL A   1      39.915  26.555  29.213  1.00  0.00     0.029 A 
ATOM     51  C   UNL A   1      41.223  26.738  28.587  1.00  0.00     0.049 A 
ATOM     52  H   UNL A   1      42.435  28.431  28.665  1.00  0.00     0.167 HD
ATOM     53  C   UNL A   1      44.750  32.183  28.728  1.00  0.00     0.037 A 
ATOM     54  C   UNL A   1      41.884  25.826  27.848  1.00  0.00     0.037 A 
ATOM     55  C   UNL A   1      45.570  31.235  28.024  1.00  0.00     0.049 A 
ATOM     56  C   UNL A   1      43.229  26.191  27.270  1.00  0.00     0.074 A 
ATOM     57  C   UNL A   1      46.848  31.408  27.525  1.00  0.00     0.029 A 
ATOM     58  N   UNL A   1      45.185  29.941  27.710  1.00  0.00    -0.354 N 
ATOM     59  N   UNL A   1      43.906  27.309  27.382  1.00  0.00    -0.248 NA
ATOM     60  C   UNL A   1      43.904  25.162  26.465  1.00  0.00     0.031 C 
ATOM     61  C   UNL A   1      47.211  30.240  26.850  1.00  0.00     0.029 A 
ATOM     62  C   UNL A   1      46.188  29.314  26.991  1.00  0.00     0.049 A 
ATOM     63  H   UNL A   1      44.327  29.529  27.960  1.00  0.00     0.167 HD
ATOM     64  C   UNL A   1      45.096  27.106  26.694  1.00  0.00     0.074 A 
ATOM     65  C   UNL A   1      45.055  25.754  26.181  1.00  0.00     0.031 C 
ATOM     66  C   UNL A   1      46.131  27.961  26.501  1.00  0.00     0.037 A 
BRANCH  53  67
ATOM     67  C   UNL A   1      45.271  33.576  28.912  1.00  0.00     0.057 A 
ATOM     68  C   UNL A   1      46.227  33.894  29.883  1.00  0.00     0.134 A 
ATOM     69  C   UNL A   1      44.843  34.606  28.063  1.00  0.00     0.134 A 
ATOM     70  F   UNL A   1      46.662  32.958  30.741  1.00  0.00    -0.206 F 
ATOM     71  C   UNL A   1      46.736  35.188  30.010  1.00  0.00     0.040 A 
ATOM     72  C   UNL A   1      45.364  35.897  28.162  1.00  0.00     0.040 A 
ATOM     73  F   UNL A   1      43.925  34.369  27.113  1.00  0.00    -0.206 F 
ATOM     74  C   UNL A   1      46.312  36.190  29.139  1.00  0.00     0.006 A 
ENDBRANCH  53  67
BRANCH  54  75
ATOM     75  C   UNL A   1      41.275  24.500  27.572  1.00  0.00     0.057 A 
ATOM     76  C   UNL A   1      40.212  24.355  26.674  1.00  0.00     0.134 A 
ATOM     77  C   UNL A   1      41.712  23.349  28.242  1.00  0.00     0.134 A 
ATOM     78  F   UNL A   1      39.732  25.422  26.018  1.00  0.00    -0.206 F 
ATOM     79  C   UNL A   1      39.583  23.124  26.478  1.00  0.00     0.040 A 
ATOM     80  C   UNL A   1      41.113  22.107  28.031  1.00  0.00     0.040 A 
ATOM     81  F   UNL A   1      42.727  23.417  29.117  1.00  0.00    -0.206 F 
ATOM     82  C   UNL A   1      40.036  21.995  27.155  1.00  0.00     0.006 A 
ENDBRANCH  54  75
BRANCH  66  83
ATOM     83  C   UNL A   1      47.323  27.445  25.745  1.00  0.00     0.057 A 
ATOM     84  C   UNL A   1      47.429  27.557  24.354  1.00  0.00     0.134 A 
ATOM     85  C   UNL A   1      48.402  26.870  26.431  1.00  0.00     0.134 A 
ATOM     86  F   UNL A   1      46.427  28.089  23.636  1.00  0.00    -0.206 F 
ATOM     87  C   UNL A   1      48.551  27.091  23.668  1.00  0.00     0.040 A 
ATOM     88  C   UNL A   1      49.544  26.431  25.761  1.00  0.00     0.040 A 
ATOM     89  F   UNL A   1      48.373  26.745  27.767  1.00  0.00    -0.206 F 
ATOM     90  C   UNL A   1      49.617  26.534  24.373  1.00  0.00     0.006 A 
ENDBRANCH  66  83
ENDBRANCH  40  41
ENDBRANCH  33  35
ENDBRANCH  32  33
ENDBRANCH  31  32
ENDBRANCH  30  31
ENDBRANCH  29  30
ENDBRANCH  28  29
ENDBRANCH  27  28
ENDBRANCH  26  27
ENDBRANCH  25  26
ENDBRANCH   1  25
TORSDOF 26
ENDMDL
MODEL 3
REMARK VINA RESULT:      -8.2      1.459      2.490
REMARK SMILES CCC[N@@H+](C)CC[C@@H]1CCC[C@]1([NH2+]C)C(=O)OCCOCCOCCOCCOC(=O)c1ccc(-c2c3nc(c(-c4c(F)cccc4F)c4ccc([nH]4)c(-c4c(F)cccc4F)c4nc(c(-c5c(F)cccc5F)c5ccc2[nH]5)C=C4)C=C3)cc1
REMARK SMILES IDX 21 1 20 2 19 3 18 4 17 5 15 6 16 7 12 8 8 9 9 10 10 11 11 12
REMARK SMILES IDX 7 13 6 14 4 15 5 16 3 18 2 19 1 20 13 21 14 22 22 25 23 26
REMARK SMILES IDX 24 27 25 28 26 29 27 30 28 31 29 32 30 33 31 34 32 35 33 36
REMARK SMILES IDX 85 37 34 38 84 39 35 40 36 41 37 42 78 43 38 44 83 45 77 46
REMARK SMILES IDX 79 47 39 48 82 49 76 50 75 51 40 53 66 54 49 55 65 56 50 57
REMARK SMILES IDX 53 58 64 59 80 60 51 61 52 62 63 64 81 65 54 66 41 67 42 68
REMARK SMILES IDX 47 69 43 70 44 71 46 72 48 73 45 74 67 75 68 76 73 77 69 78
REMARK SMILES IDX 70 79 72 80 74 81 71 82 55 83 56 84 61 85 57 86 58 87 60 88
REMARK SMILES IDX 62 89 59 90
REMARK H PARENT 4 17 13 23 13 24 79 52 53 63
REMARK Flexibility Score: inf
ROOT
ATOM      1  C   UNL A   1      34.117  29.958  27.265  1.00  0.00     0.188 C 
ENDROOT
BRANCH   1   2
ATOM      2  O   UNL A   1      33.262  30.133  26.163  1.00  0.00    -0.376 OA
BRANCH   2   3
ATOM      3  C   UNL A   1      32.560  29.043  25.612  1.00  0.00     0.202 C 
BRANCH   3   4
ATOM      4  C   UNL A   1      33.037  27.585  25.682  1.00  0.00     0.261 C 
BRANCH   4   5
ATOM      5  O   UNL A   1      32.411  26.608  24.835  1.00  0.00    -0.459 OA
BRANCH   5   6
ATOM      6  C   UNL A   1      32.390  25.330  25.269  1.00  0.00     0.368 C 
ATOM      7  O   UNL A   1      32.104  25.048  26.433  1.00  0.00    -0.245 OA
BRANCH   6   8
ATOM      8  C   UNL A   1      32.896  24.267  24.215  1.00  0.00     0.197 C 
ATOM      9  C   UNL A   1      33.120  22.708  24.488  1.00  0.00     0.068 C 
ATOM     10  C   UNL A   1      34.505  22.624  25.200  1.00  0.00     0.011 C 
ATOM     11  C   UNL A   1      35.191  23.961  25.019  1.00  0.00     0.008 C 
ATOM     12  C   UNL A   1      34.390  24.659  23.935  1.00  0.00     0.081 C 
BRANCH   9  13
ATOM     13  C   UNL A   1      32.256  21.500  25.004  1.00  0.00     0.072 C 
BRANCH  13  14
ATOM     14  C   UNL A   1      32.631  20.029  25.284  1.00  0.00     0.262 C 
BRANCH  14  15
ATOM     15  N   UNL A   1      33.059  19.091  24.230  1.00  0.00    -0.337 N 
ATOM     16  C   UNL A   1      32.343  19.298  22.973  1.00  0.00     0.332 C 
ATOM     17  H   UNL A   1      34.040  19.324  24.074  1.00  0.00     0.347 HD
BRANCH  15  18
ATOM     18  C   UNL A   1      33.063  17.688  24.622  1.00  0.00     0.261 C 
BRANCH  18  19
ATOM     19  C   UNL A   1      34.266  16.868  24.125  1.00  0.00     0.058 C 
ATOM     20  C   UNL A   1      34.989  16.035  25.157  1.00  0.00     0.010 C 
ENDBRANCH  18  19
ENDBRANCH  15  18
ENDBRANCH  14  15
ENDBRANCH  13  14
ENDBRANCH   9  13
BRANCH   8  21
ATOM     21  N   UNL A   1      32.117  24.447  22.958  1.00  0.00    -0.334 N 
ATOM     22  C   UNL A   1      32.897  24.505  21.727  1.00  0.00     0.331 C 
ATOM     23  H   UNL A   1      31.594  25.319  23.037  1.00  0.00     0.347 HD
ATOM     24  H   UNL A   1      31.532  23.616  22.874  1.00  0.00     0.347 HD
ENDBRANCH   8  21
ENDBRANCH   6   8
ENDBRANCH   5   6
ENDBRANCH   4   5
ENDBRANCH   3   4
ENDBRANCH   2   3
ENDBRANCH   1   2
BRANCH   1  25
ATOM     25  C   UNL A   1      34.605  31.264  27.937  1.00  0.00     0.188 C 
BRANCH  25  26
ATOM     26  O   UNL A   1      34.316  32.581  27.487  1.00  0.00    -0.377 OA
BRANCH  26  27
ATOM     27  C   UNL A   1      33.005  33.082  27.633  1.00  0.00     0.188 C 
BRANCH  27  28
ATOM     28  C   UNL A   1      32.876  34.405  28.406  1.00  0.00     0.188 C 
BRANCH  28  29
ATOM     29  O   UNL A   1      34.117  35.005  28.713  1.00  0.00    -0.376 OA
BRANCH  29  30
ATOM     30  C   UNL A   1      34.576  35.127  30.045  1.00  0.00     0.202 C 
BRANCH  30  31
ATOM     31  C   UNL A   1      34.757  33.918  30.978  1.00  0.00     0.261 C 
BRANCH  31  32
ATOM     32  O   UNL A   1      36.002  33.797  31.660  1.00  0.00    -0.460 OA
BRANCH  32  33
ATOM     33  C   UNL A   1      36.162  32.687  32.413  1.00  0.00     0.338 C 
ATOM     34  O   UNL A   1      35.519  32.347  33.379  1.00  0.00    -0.246 OA
BRANCH  33  35
ATOM     35  C   UNL A   1      37.179  31.862  31.738  1.00  0.00     0.060 A 
ATOM     36  C   UNL A   1      38.155  31.226  32.513  1.00  0.00     0.016 A 
ATOM     37  C   UNL A   1      37.165  31.734  30.348  1.00  0.00     0.016 A 
ATOM     38  C   UNL A   1      39.131  30.452  31.897  1.00  0.00     0.010 A 
ATOM     39  C   UNL A   1      38.172  30.998  29.726  1.00  0.00     0.010 A 
ATOM     40  C   UNL A   1      39.169  30.378  30.500  1.00  0.00    -0.014 A 
BRANCH  40  41
ATOM     41  C   UNL A   1      40.384  29.848  29.853  1.00  0.00     0.031 A 
ATOM     42  C   UNL A   1      41.539  30.788  29.660  1.00  0.00     0.074 A 
ATOM     43  C   UNL A   1      40.466  28.560  29.483  1.00  0.00     0.049 A 
ATOM     44  N   UNL A   1      42.690  30.578  29.080  1.00  0.00    -0.248 NA
ATOM     45  C   UNL A   1      41.371  32.151  30.193  1.00  0.00     0.031 C 
ATOM     46  C   UNL A   1      39.420  27.557  29.672  1.00  0.00     0.029 A 
ATOM     47  N   UNL A   1      41.479  27.884  28.855  1.00  0.00    -0.354 N 
ATOM     48  C   UNL A   1      43.377  31.782  29.167  1.00  0.00     0.074 A 
ATOM     49  C   UNL A   1      42.512  32.723  29.841  1.00  0.00     0.031 C 
ATOM     50  C   UNL A   1      39.838  26.393  29.141  1.00  0.00     0.029 A 
ATOM     51  C   UNL A   1      41.161  26.583  28.550  1.00  0.00     0.049 A 
ATOM     52  H   UNL A   1      42.350  28.291  28.641  1.00  0.00     0.167 HD
ATOM     53  C   UNL A   1      44.620  32.071  28.723  1.00  0.00     0.037 A 
ATOM     54  C   UNL A   1      41.852  25.671  27.841  1.00  0.00     0.037 A 
ATOM     55  C   UNL A   1      45.471  31.123  28.055  1.00  0.00     0.049 A 
ATOM     56  C   UNL A   1      43.208  26.044  27.297  1.00  0.00     0.074 A 
ATOM     57  C   UNL A   1      46.760  31.306  27.589  1.00  0.00     0.029 A 
ATOM     58  N   UNL A   1      45.110  29.821  27.745  1.00  0.00    -0.354 N 
ATOM     59  N   UNL A   1      43.869  27.171  27.414  1.00  0.00    -0.248 NA
ATOM     60  C   UNL A   1      43.917  25.014  26.524  1.00  0.00     0.031 C 
ATOM     61  C   UNL A   1      47.155  30.134  26.939  1.00  0.00     0.029 A 
ATOM     62  C   UNL A   1      46.139  29.198  27.063  1.00  0.00     0.049 A 
ATOM     63  H   UNL A   1      44.249  29.402  27.976  1.00  0.00     0.167 HD
ATOM     64  C   UNL A   1      45.081  26.974  26.762  1.00  0.00     0.074 A 
ATOM     65  C   UNL A   1      45.070  25.615  26.264  1.00  0.00     0.031 C 
ATOM     66  C   UNL A   1      46.111  27.838  26.587  1.00  0.00     0.037 A 
BRANCH  53  67
ATOM     67  C   UNL A   1      45.120  33.471  28.905  1.00  0.00     0.057 A 
ATOM     68  C   UNL A   1      44.932  34.463  27.935  1.00  0.00     0.134 A 
ATOM     69  C   UNL A   1      45.754  33.844  30.098  1.00  0.00     0.134 A 
ATOM     70  F   UNL A   1      44.351  34.167  26.763  1.00  0.00    -0.206 F 
ATOM     71  C   UNL A   1      45.363  35.775  28.141  1.00  0.00     0.040 A 
ATOM     72  C   UNL A   1      46.165  35.158  30.326  1.00  0.00     0.040 A 
ATOM     73  F   UNL A   1      45.969  32.940  31.066  1.00  0.00    -0.206 F 
ATOM     74  C   UNL A   1      45.971  36.127  29.345  1.00  0.00     0.006 A 
ENDBRANCH  53  67
BRANCH  54  75
ATOM     75  C   UNL A   1      41.266  24.334  27.564  1.00  0.00     0.057 A 
ATOM     76  C   UNL A   1      40.213  24.170  26.657  1.00  0.00     0.134 A 
ATOM     77  C   UNL A   1      41.714  23.193  28.242  1.00  0.00     0.134 A 
ATOM     78  F   UNL A   1      39.723  25.227  25.993  1.00  0.00    -0.206 F 
ATOM     79  C   UNL A   1      39.605  22.928  26.460  1.00  0.00     0.040 A 
ATOM     80  C   UNL A   1      41.137  21.940  28.030  1.00  0.00     0.040 A 
ATOM     81  F   UNL A   1      42.720  23.280  29.126  1.00  0.00    -0.206 F 
ATOM     82  C   UNL A   1      40.069  21.809  27.145  1.00  0.00     0.006 A 
ENDBRANCH  54  75
BRANCH  66  83
ATOM     83  C   UNL A   1      47.329  27.327  25.872  1.00  0.00     0.057 A 
ATOM     84  C   UNL A   1      48.346  26.631  26.536  1.00  0.00     0.134 A 
ATOM     85  C   UNL A   1      47.461  27.497  24.487  1.00  0.00     0.134 A 
ATOM     86  F   UNL A   1      48.286  26.442  27.864  1.00  0.00    -0.206 F 
ATOM     87  C   UNL A   1      49.463  26.145  25.855  1.00  0.00     0.040 A 
ATOM     88  C   UNL A   1      48.556  26.987  23.788  1.00  0.00     0.040 A 
ATOM     89  F   UNL A   1      46.517  28.143  23.785  1.00  0.00    -0.206 F 
ATOM     90  C   UNL A   1      49.566  26.316  24.475  1.00  0.00     0.006 A 
ENDBRANCH  66  83
ENDBRANCH  40  41
ENDBRANCH  33  35
ENDBRANCH  32  33
ENDBRANCH  31  32
ENDBRANCH  30  31
ENDBRANCH  29  30
ENDBRANCH  28  29
ENDBRANCH  27  28
ENDBRANCH  26  27
ENDBRANCH  25  26
ENDBRANCH   1  25
TORSDOF 26
ENDMDL
