MODEL 1
REMARK VINA RESULT:     -10.9      0.000      0.000
REMARK SMILES O=C(OCCOCCOCCOCCOC(=O)[C@H]1CCC(=O)N(C2CCCCC2)[C@H]1c1ccccc1)c1ccc(-c2c3nc(c(-c4c(F)cccc4F)c4ccc([nH]4)c(-c4c(F)cccc4F)c4nc(c(-c5c(F)cccc5F)c5ccc2[nH]5)C=C4)C=C3)cc1
REMARK SMILES IDX 8 1 7 2 6 3 5 4 4 5 3 6 2 7 1 8 37 9 38 10 90 11 39 12 89 13
REMARK SMILES IDX 40 14 41 15 42 16 83 17 43 18 88 19 82 20 84 21 44 22 87 23
REMARK SMILES IDX 81 24 80 25 45 27 71 28 54 29 70 30 55 31 58 32 69 33 85 34
REMARK SMILES IDX 56 35 57 36 68 38 86 39 59 40 46 41 47 42 52 43 48 44 49 45
REMARK SMILES IDX 51 46 53 47 50 48 72 49 73 50 78 51 74 52 75 53 77 54 79 55
REMARK SMILES IDX 76 56 60 57 61 58 66 59 62 60 63 61 65 62 67 63 64 64 9 65
REMARK SMILES IDX 10 66 11 67 12 68 13 69 14 70 15 71 16 72 17 73 18 74 19 75
REMARK SMILES IDX 30 76 20 77 23 78 21 79 22 80 31 81 32 82 36 83 33 84 35 85
REMARK SMILES IDX 34 86 24 87 25 88 29 89 26 90 28 91 27 92
REMARK H PARENT 84 26 58 37
REMARK Flexibility Score: inf
ROOT
ATOM      1  C   UNL A   1      34.118  30.848  27.648  1.00  0.00     0.188 C 
ENDROOT
BRANCH   1   2
ATOM      2  C   UNL A   1      33.632  32.303  27.647  1.00  0.00     0.188 C 
BRANCH   2   3
ATOM      3  O   UNL A   1      34.725  33.215  27.646  1.00  0.00    -0.376 OA
BRANCH   3   4
ATOM      4  C   UNL A   1      34.639  34.343  28.509  1.00  0.00     0.202 C 
BRANCH   4   5
ATOM      5  C   UNL A   1      34.117  34.035  29.905  1.00  0.00     0.261 C 
BRANCH   5   6
ATOM      6  O   UNL A   1      35.146  33.783  30.870  1.00  0.00    -0.460 OA
BRANCH   6   7
ATOM      7  C   UNL A   1      35.588  32.607  31.374  1.00  0.00     0.338 C 
ATOM      8  O   UNL A   1      34.882  32.033  32.204  1.00  0.00    -0.246 OA
BRANCH   7   9
ATOM      9  C   UNL A   1      36.842  31.914  30.957  1.00  0.00     0.060 A 
ATOM     10  C   UNL A   1      37.754  31.277  31.798  1.00  0.00     0.016 A 
ATOM     11  C   UNL A   1      37.040  31.797  29.570  1.00  0.00     0.016 A 
ATOM     12  C   UNL A   1      38.846  30.583  31.300  1.00  0.00     0.010 A 
ATOM     13  C   UNL A   1      38.124  31.084  29.053  1.00  0.00     0.010 A 
ATOM     14  C   UNL A   1      39.038  30.490  29.928  1.00  0.00    -0.014 A 
BRANCH  14  15
ATOM     15  C   UNL A   1      40.297  29.902  29.449  1.00  0.00     0.031 A 
ATOM     16  C   UNL A   1      41.502  30.787  29.427  1.00  0.00     0.074 A 
ATOM     17  C   UNL A   1      40.364  28.587  29.178  1.00  0.00     0.049 A 
ATOM     18  N   UNL A   1      42.690  30.553  28.946  1.00  0.00    -0.248 NA
ATOM     19  C   UNL A   1      41.350  32.118  30.045  1.00  0.00     0.031 C 
ATOM     20  C   UNL A   1      39.262  27.633  29.336  1.00  0.00     0.029 A 
ATOM     21  N   UNL A   1      41.406  27.821  28.731  1.00  0.00    -0.354 N 
ATOM     22  C   UNL A   1      43.410  31.721  29.161  1.00  0.00     0.074 A 
ATOM     23  C   UNL A   1      42.539  32.656  29.830  1.00  0.00     0.031 C 
ATOM     24  C   UNL A   1      39.689  26.408  28.988  1.00  0.00     0.029 A 
ATOM     25  C   UNL A   1      41.060  26.511  28.503  1.00  0.00     0.049 A 
ATOM     26  H   UNL A   1      42.314  28.174  28.588  1.00  0.00     0.167 HD
ATOM     27  C   UNL A   1      44.685  31.979  28.801  1.00  0.00     0.037 A 
ATOM     28  C   UNL A   1      41.766  25.535  27.904  1.00  0.00     0.037 A 
ATOM     29  C   UNL A   1      45.516  31.009  28.145  1.00  0.00     0.049 A 
ATOM     30  C   UNL A   1      43.145  25.884  27.409  1.00  0.00     0.074 A 
ATOM     31  C   UNL A   1      46.810  31.146  27.684  1.00  0.00     0.029 A 
ATOM     32  N   UNL A   1      45.115  29.710  27.859  1.00  0.00    -0.354 N 
ATOM     33  N   UNL A   1      43.813  27.008  27.549  1.00  0.00    -0.248 NA
ATOM     34  C   UNL A   1      43.860  24.853  26.650  1.00  0.00     0.031 C 
ATOM     35  C   UNL A   1      47.172  29.943  27.067  1.00  0.00     0.029 A 
ATOM     36  C   UNL A   1      46.124  29.042  27.194  1.00  0.00     0.049 A 
ATOM     37  H   UNL A   1      44.242  29.323  28.096  1.00  0.00     0.167 HD
ATOM     38  C   UNL A   1      45.026  26.816  26.906  1.00  0.00     0.074 A 
ATOM     39  C   UNL A   1      45.014  25.456  26.403  1.00  0.00     0.031 C 
ATOM     40  C   UNL A   1      46.057  27.680  26.728  1.00  0.00     0.037 A 
BRANCH  27  41
ATOM     41  C   UNL A   1      45.200  33.367  29.021  1.00  0.00     0.057 A 
ATOM     42  C   UNL A   1      45.894  33.741  30.178  1.00  0.00     0.134 A 
ATOM     43  C   UNL A   1      44.978  34.355  28.053  1.00  0.00     0.134 A 
ATOM     44  F   UNL A   1      46.107  32.853  31.161  1.00  0.00    -0.206 F 
ATOM     45  C   UNL A   1      46.343  35.051  30.367  1.00  0.00     0.040 A 
ATOM     46  C   UNL A   1      45.439  35.661  28.220  1.00  0.00     0.040 A 
ATOM     47  F   UNL A   1      44.304  34.067  26.929  1.00  0.00    -0.206 F 
ATOM     48  C   UNL A   1      46.122  36.013  29.382  1.00  0.00     0.006 A 
ENDBRANCH  27  41
BRANCH  28  49
ATOM     49  C   UNL A   1      41.162  24.201  27.638  1.00  0.00     0.057 A 
ATOM     50  C   UNL A   1      41.589  23.053  28.316  1.00  0.00     0.134 A 
ATOM     51  C   UNL A   1      40.180  24.029  26.653  1.00  0.00     0.134 A 
ATOM     52  F   UNL A   1      42.540  23.138  29.258  1.00  0.00    -0.206 F 
ATOM     53  C   UNL A   1      41.087  21.785  28.003  1.00  0.00     0.040 A 
ATOM     54  C   UNL A   1      39.645  22.775  26.353  1.00  0.00     0.040 A 
ATOM     55  F   UNL A   1      39.722  25.083  25.960  1.00  0.00    -0.206 F 
ATOM     56  C   UNL A   1      40.110  21.645  27.020  1.00  0.00     0.006 A 
ENDBRANCH  28  49
BRANCH  40  57
ATOM     57  C   UNL A   1      47.246  27.160  25.982  1.00  0.00     0.057 A 
ATOM     58  C   UNL A   1      47.383  27.343  24.602  1.00  0.00     0.134 A 
ATOM     59  C   UNL A   1      48.290  26.528  26.667  1.00  0.00     0.134 A 
ATOM     60  F   UNL A   1      46.407  27.930  23.893  1.00  0.00    -0.206 F 
ATOM     61  C   UNL A   1      48.515  26.898  23.922  1.00  0.00     0.040 A 
ATOM     62  C   UNL A   1      49.440  26.106  26.004  1.00  0.00     0.040 A 
ATOM     63  F   UNL A   1      48.219  26.335  27.993  1.00  0.00    -0.206 F 
ATOM     64  C   UNL A   1      49.552  26.287  24.626  1.00  0.00     0.006 A 
ENDBRANCH  40  57
ENDBRANCH  14  15
ENDBRANCH   7   9
ENDBRANCH   6   7
ENDBRANCH   5   6
ENDBRANCH   4   5
ENDBRANCH   3   4
ENDBRANCH   2   3
ENDBRANCH   1   2
BRANCH   1  65
ATOM     65  O   UNL A   1      33.544  29.982  26.670  1.00  0.00    -0.377 OA
BRANCH  65  66
ATOM     66  C   UNL A   1      33.809  28.591  26.808  1.00  0.00     0.188 C 
BRANCH  66  67
ATOM     67  C   UNL A   1      33.982  27.724  25.537  1.00  0.00     0.188 C 
BRANCH  67  68
ATOM     68  O   UNL A   1      32.861  27.709  24.664  1.00  0.00    -0.376 OA
BRANCH  68  69
ATOM     69  C   UNL A   1      33.133  27.634  23.271  1.00  0.00     0.202 C 
BRANCH  69  70
ATOM     70  C   UNL A   1      32.886  26.252  22.628  1.00  0.00     0.261 C 
BRANCH  70  71
ATOM     71  O   UNL A   1      33.481  25.125  23.306  1.00  0.00    -0.463 OA
BRANCH  71  72
ATOM     72  C   UNL A   1      33.642  24.024  22.531  1.00  0.00     0.311 C 
ATOM     73  O   UNL A   1      33.278  23.992  21.368  1.00  0.00    -0.252 OA
BRANCH  72  74
ATOM     74  C   UNL A   1      34.567  22.997  23.160  1.00  0.00     0.127 C 
ATOM     75  C   UNL A   1      35.728  23.562  23.957  1.00  0.00     0.028 C 
ATOM     76  C   UNL A   1      33.813  21.910  23.943  1.00  0.00     0.130 C 
ATOM     77  C   UNL A   1      36.693  22.438  24.285  1.00  0.00     0.101 C 
ATOM     78  N   UNL A   1      34.747  20.876  24.439  1.00  0.00    -0.332 N 
ATOM     79  C   UNL A   1      36.067  21.149  24.788  1.00  0.00     0.223 C 
ATOM     80  O   UNL A   1      36.788  20.342  25.377  1.00  0.00    -0.275 OA
BRANCH  76  81
ATOM     81  C   UNL A   1      32.864  22.454  25.010  1.00  0.00    -0.025 A 
ATOM     82  C   UNL A   1      31.481  22.544  24.836  1.00  0.00     0.006 A 
ATOM     83  C   UNL A   1      33.384  22.804  26.273  1.00  0.00     0.006 A 
ATOM     84  C   UNL A   1      30.653  22.889  25.911  1.00  0.00     0.000 A 
ATOM     85  C   UNL A   1      32.559  23.045  27.366  1.00  0.00     0.000 A 
ATOM     86  C   UNL A   1      31.187  23.089  27.184  1.00  0.00     0.000 A 
ENDBRANCH  76  81
BRANCH  78  87
ATOM     87  C   UNL A   1      34.192  19.522  24.648  1.00  0.00     0.085 C 
ATOM     88  C   UNL A   1      32.841  19.323  23.929  1.00  0.00     0.025 C 
ATOM     89  C   UNL A   1      35.193  18.408  24.316  1.00  0.00     0.025 C 
ATOM     90  C   UNL A   1      32.274  17.924  24.160  1.00  0.00     0.002 C 
ATOM     91  C   UNL A   1      34.593  17.030  24.575  1.00  0.00     0.002 C 
ATOM     92  C   UNL A   1      33.290  16.840  23.808  1.00  0.00     0.000 C 
ENDBRANCH  78  87
ENDBRANCH  72  74
ENDBRANCH  71  72
ENDBRANCH  70  71
ENDBRANCH  69  70
ENDBRANCH  68  69
ENDBRANCH  67  68
ENDBRANCH  66  67
ENDBRANCH  65  66
ENDBRANCH   1  65
TORSDOF 22
ENDMDL
MODEL 2
REMARK VINA RESULT:     -10.7      4.679      7.252
REMARK SMILES O=C(OCCOCCOCCOCCOC(=O)[C@H]1CCC(=O)N(C2CCCCC2)[C@H]1c1ccccc1)c1ccc(-c2c3nc(c(-c4c(F)cccc4F)c4ccc([nH]4)c(-c4c(F)cccc4F)c4nc(c(-c5c(F)cccc5F)c5ccc2[nH]5)C=C4)C=C3)cc1
REMARK SMILES IDX 8 1 7 2 6 3 5 4 4 5 3 6 2 7 1 8 37 9 38 10 90 11 39 12 89 13
REMARK SMILES IDX 40 14 41 15 42 16 83 17 43 18 88 19 82 20 84 21 44 22 87 23
REMARK SMILES IDX 81 24 80 25 45 27 71 28 54 29 70 30 55 31 58 32 69 33 85 34
REMARK SMILES IDX 56 35 57 36 68 38 86 39 59 40 46 41 47 42 52 43 48 44 49 45
REMARK SMILES IDX 51 46 53 47 50 48 72 49 73 50 78 51 74 52 75 53 77 54 79 55
REMARK SMILES IDX 76 56 60 57 61 58 66 59 62 60 63 61 65 62 67 63 64 64 9 65
REMARK SMILES IDX 10 66 11 67 12 68 13 69 14 70 15 71 16 72 17 73 18 74 19 75
REMARK SMILES IDX 30 76 20 77 23 78 21 79 22 80 31 81 32 82 36 83 33 84 35 85
REMARK SMILES IDX 34 86 24 87 25 88 29 89 26 90 28 91 27 92
REMARK H PARENT 84 26 58 37
REMARK Flexibility Score: inf
ROOT
ATOM      1  C   UNL A   1      34.811  33.288  29.147  1.00  0.00     0.188 C 
ENDROOT
BRANCH   1   2
ATOM      2  C   UNL A   1      34.533  34.782  28.939  1.00  0.00     0.188 C 
BRANCH   2   3
ATOM      3  O   UNL A   1      33.222  34.999  28.427  1.00  0.00    -0.376 OA
BRANCH   3   4
ATOM      4  C   UNL A   1      32.522  36.152  28.880  1.00  0.00     0.202 C 
BRANCH   4   5
ATOM      5  C   UNL A   1      33.231  36.932  29.977  1.00  0.00     0.261 C 
BRANCH   5   6
ATOM      6  O   UNL A   1      32.569  36.885  31.248  1.00  0.00    -0.460 OA
BRANCH   6   7
ATOM      7  C   UNL A   1      32.554  35.903  32.178  1.00  0.00     0.338 C 
ATOM      8  O   UNL A   1      31.495  35.678  32.763  1.00  0.00    -0.246 OA
BRANCH   7   9
ATOM      9  C   UNL A   1      33.712  35.020  32.510  1.00  0.00     0.060 A 
ATOM     10  C   UNL A   1      33.651  33.667  32.843  1.00  0.00     0.016 A 
ATOM     11  C   UNL A   1      34.983  35.596  32.345  1.00  0.00     0.016 A 
ATOM     12  C   UNL A   1      34.796  32.912  33.047  1.00  0.00     0.010 A 
ATOM     13  C   UNL A   1      36.146  34.843  32.527  1.00  0.00     0.010 A 
ATOM     14  C   UNL A   1      36.046  33.499  32.897  1.00  0.00    -0.014 A 
BRANCH  14  15
ATOM     15  C   UNL A   1      37.224  32.716  33.294  1.00  0.00     0.031 A 
ATOM     16  C   UNL A   1      37.801  32.986  34.647  1.00  0.00     0.074 A 
ATOM     17  C   UNL A   1      37.661  31.714  32.512  1.00  0.00     0.049 A 
ATOM     18  N   UNL A   1      38.893  32.525  35.187  1.00  0.00    -0.248 NA
ATOM     19  C   UNL A   1      37.031  33.894  35.519  1.00  0.00     0.031 C 
ATOM     20  C   UNL A   1      37.040  31.292  31.252  1.00  0.00     0.029 A 
ATOM     21  N   UNL A   1      38.715  30.857  32.667  1.00  0.00    -0.354 N 
ATOM     22  C   UNL A   1      38.965  33.121  36.438  1.00  0.00     0.074 A 
ATOM     23  C   UNL A   1      37.803  33.961  36.592  1.00  0.00     0.031 C 
ATOM     24  C   UNL A   1      37.730  30.256  30.749  1.00  0.00     0.029 A 
ATOM     25  C   UNL A   1      38.883  30.002  31.604  1.00  0.00     0.049 A 
ATOM     26  H   UNL A   1      39.295  30.852  33.463  1.00  0.00     0.167 HD
ATOM     27  C   UNL A   1      39.942  32.982  37.360  1.00  0.00     0.037 A 
ATOM     28  C   UNL A   1      39.901  29.164  31.337  1.00  0.00     0.037 A 
ATOM     29  C   UNL A   1      41.076  32.123  37.165  1.00  0.00     0.049 A 
ATOM     30  C   UNL A   1      41.034  29.115  32.330  1.00  0.00     0.074 A 
ATOM     31  C   UNL A   1      42.162  31.919  37.992  1.00  0.00     0.029 A 
ATOM     32  N   UNL A   1      41.259  31.323  36.044  1.00  0.00    -0.354 N 
ATOM     33  N   UNL A   1      41.144  29.726  33.488  1.00  0.00    -0.248 NA
ATOM     34  C   UNL A   1      42.194  28.293  31.973  1.00  0.00     0.031 C 
ATOM     35  C   UNL A   1      43.031  31.035  37.343  1.00  0.00     0.029 A 
ATOM     36  C   UNL A   1      42.459  30.648  36.139  1.00  0.00     0.049 A 
ATOM     37  H   UNL A   1      40.627  31.248  35.293  1.00  0.00     0.167 HD
ATOM     38  C   UNL A   1      42.377  29.355  34.002  1.00  0.00     0.074 A 
ATOM     39  C   UNL A   1      42.964  28.441  33.041  1.00  0.00     0.031 C 
ATOM     40  C   UNL A   1      42.986  29.738  35.152  1.00  0.00     0.037 A 
BRANCH  27  41
ATOM     41  C   UNL A   1      39.865  33.839  38.586  1.00  0.00     0.057 A 
ATOM     42  C   UNL A   1      39.136  33.467  39.722  1.00  0.00     0.134 A 
ATOM     43  C   UNL A   1      40.526  35.073  38.617  1.00  0.00     0.134 A 
ATOM     44  F   UNL A   1      38.449  32.315  39.743  1.00  0.00    -0.206 F 
ATOM     45  C   UNL A   1      39.062  34.297  40.844  1.00  0.00     0.040 A 
ATOM     46  C   UNL A   1      40.478  35.901  39.738  1.00  0.00     0.040 A 
ATOM     47  F   UNL A   1      41.227  35.496  37.554  1.00  0.00    -0.206 F 
ATOM     48  C   UNL A   1      39.742  35.515  40.855  1.00  0.00     0.006 A 
ENDBRANCH  27  41
BRANCH  28  49
ATOM     49  C   UNL A   1      39.958  28.406  30.058  1.00  0.00     0.057 A 
ATOM     50  C   UNL A   1      40.643  28.899  28.941  1.00  0.00     0.134 A 
ATOM     51  C   UNL A   1      39.276  27.191  29.901  1.00  0.00     0.134 A 
ATOM     52  F   UNL A   1      41.302  30.064  29.012  1.00  0.00    -0.206 F 
ATOM     53  C   UNL A   1      40.620  28.231  27.712  1.00  0.00     0.040 A 
ATOM     54  C   UNL A   1      39.273  26.497  28.691  1.00  0.00     0.040 A 
ATOM     55  F   UNL A   1      38.596  26.657  30.927  1.00  0.00    -0.206 F 
ATOM     56  C   UNL A   1      39.935  27.025  27.586  1.00  0.00     0.006 A 
ENDBRANCH  28  49
BRANCH  40  57
ATOM     57  C   UNL A   1      44.333  29.148  35.427  1.00  0.00     0.057 A 
ATOM     58  C   UNL A   1      45.510  29.784  35.017  1.00  0.00     0.134 A 
ATOM     59  C   UNL A   1      44.451  27.964  36.164  1.00  0.00     0.134 A 
ATOM     60  F   UNL A   1      45.457  30.915  34.295  1.00  0.00    -0.206 F 
ATOM     61  C   UNL A   1      46.762  29.253  35.317  1.00  0.00     0.040 A 
ATOM     62  C   UNL A   1      45.697  27.439  36.497  1.00  0.00     0.040 A 
ATOM     63  F   UNL A   1      43.357  27.315  36.593  1.00  0.00    -0.206 F 
ATOM     64  C   UNL A   1      46.858  28.082  36.068  1.00  0.00     0.006 A 
ENDBRANCH  40  57
ENDBRANCH  14  15
ENDBRANCH   7   9
ENDBRANCH   6   7
ENDBRANCH   5   6
ENDBRANCH   4   5
ENDBRANCH   3   4
ENDBRANCH   2   3
ENDBRANCH   1   2
BRANCH   1  65
ATOM     65  O   UNL A   1      35.076  32.519  27.975  1.00  0.00    -0.377 OA
BRANCH  65  66
ATOM     66  C   UNL A   1      34.304  31.338  27.793  1.00  0.00     0.188 C 
BRANCH  66  67
ATOM     67  C   UNL A   1      35.028  29.978  27.635  1.00  0.00     0.188 C 
BRANCH  67  68
ATOM     68  O   UNL A   1      34.276  28.973  26.970  1.00  0.00    -0.376 OA
BRANCH  68  69
ATOM     69  C   UNL A   1      32.985  29.338  26.504  1.00  0.00     0.202 C 
BRANCH  69  70
ATOM     70  C   UNL A   1      31.818  28.515  27.092  1.00  0.00     0.261 C 
BRANCH  70  71
ATOM     71  O   UNL A   1      32.020  27.087  27.153  1.00  0.00    -0.463 OA
BRANCH  71  72
ATOM     72  C   UNL A   1      31.137  26.362  26.424  1.00  0.00     0.311 C 
ATOM     73  O   UNL A   1      30.286  26.889  25.728  1.00  0.00    -0.252 OA
BRANCH  72  74
ATOM     74  C   UNL A   1      31.516  24.895  26.336  1.00  0.00     0.127 C 
ATOM     75  C   UNL A   1      30.407  23.956  25.896  1.00  0.00     0.028 C 
ATOM     76  C   UNL A   1      32.812  24.657  25.545  1.00  0.00     0.130 C 
ATOM     77  C   UNL A   1      30.859  22.525  26.117  1.00  0.00     0.101 C 
ATOM     78  N   UNL A   1      33.198  23.228  25.584  1.00  0.00    -0.332 N 
ATOM     79  C   UNL A   1      32.270  22.194  25.664  1.00  0.00     0.223 C 
ATOM     80  O   UNL A   1      32.568  21.009  25.504  1.00  0.00    -0.275 OA
BRANCH  76  81
ATOM     81  C   UNL A   1      32.807  25.260  24.141  1.00  0.00    -0.025 A 
ATOM     82  C   UNL A   1      33.572  26.372  23.778  1.00  0.00     0.006 A 
ATOM     83  C   UNL A   1      32.067  24.621  23.125  1.00  0.00     0.006 A 
ATOM     84  C   UNL A   1      33.652  26.769  22.438  1.00  0.00     0.000 A 
ATOM     85  C   UNL A   1      32.226  24.949  21.782  1.00  0.00     0.000 A 
ATOM     86  C   UNL A   1      33.022  26.029  21.438  1.00  0.00     0.000 A 
ENDBRANCH  76  81
BRANCH  78  87
ATOM     87  C   UNL A   1      34.636  22.923  25.437  1.00  0.00     0.085 C 
ATOM     88  C   UNL A   1      35.006  22.509  23.997  1.00  0.00     0.025 C 
ATOM     89  C   UNL A   1      35.541  24.043  25.967  1.00  0.00     0.025 C 
ATOM     90  C   UNL A   1      36.493  22.188  23.862  1.00  0.00     0.002 C 
ATOM     91  C   UNL A   1      37.015  23.676  25.827  1.00  0.00     0.002 C 
ATOM     92  C   UNL A   1      37.364  23.327  24.385  1.00  0.00     0.000 C 
ENDBRANCH  78  87
ENDBRANCH  72  74
ENDBRANCH  71  72
ENDBRANCH  70  71
ENDBRANCH  69  70
ENDBRANCH  68  69
ENDBRANCH  67  68
ENDBRANCH  66  67
ENDBRANCH  65  66
ENDBRANCH   1  65
TORSDOF 22
ENDMDL
MODEL 3
REMARK VINA RESULT:     -10.5      1.185      2.117
REMARK SMILES O=C(OCCOCCOCCOCCOC(=O)[C@H]1CCC(=O)N(C2CCCCC2)[C@H]1c1ccccc1)c1ccc(-c2c3nc(c(-c4c(F)cccc4F)c4ccc([nH]4)c(-c4c(F)cccc4F)c4nc(c(-c5c(F)cccc5F)c5ccc2[nH]5)C=C4)C=C3)cc1
REMARK SMILES IDX 8 1 7 2 6 3 5 4 4 5 3 6 2 7 1 8 37 9 38 10 90 11 39 12 89 13
REMARK SMILES IDX 40 14 41 15 42 16 83 17 43 18 88 19 82 20 84 21 44 22 87 23
REMARK SMILES IDX 81 24 80 25 45 27 71 28 54 29 70 30 55 31 58 32 69 33 85 34
REMARK SMILES IDX 56 35 57 36 68 38 86 39 59 40 46 41 47 42 52 43 48 44 49 45
REMARK SMILES IDX 51 46 53 47 50 48 72 49 73 50 78 51 74 52 75 53 77 54 79 55
REMARK SMILES IDX 76 56 60 57 61 58 66 59 62 60 63 61 65 62 67 63 64 64 9 65
REMARK SMILES IDX 10 66 11 67 12 68 13 69 14 70 15 71 16 72 17 73 18 74 19 75
REMARK SMILES IDX 30 76 20 77 23 78 21 79 22 80 31 81 32 82 36 83 33 84 35 85
REMARK SMILES IDX 34 86 24 87 25 88 29 89 26 90 28 91 27 92
REMARK H PARENT 84 26 58 37
REMARK Flexibility Score: inf
ROOT
ATOM      1  C   UNL A   1      34.365  31.448  27.600  1.00  0.00     0.188 C 
ENDROOT
BRANCH   1   2
ATOM      2  C   UNL A   1      33.753  32.751  28.127  1.00  0.00     0.188 C 
BRANCH   2   3
ATOM      3  O   UNL A   1      34.649  33.847  27.970  1.00  0.00    -0.376 OA
BRANCH   3   4
ATOM      4  C   UNL A   1      34.598  34.882  28.946  1.00  0.00     0.202 C 
BRANCH   4   5
ATOM      5  C   UNL A   1      34.230  34.414  30.346  1.00  0.00     0.261 C 
BRANCH   5   6
ATOM      6  O   UNL A   1      35.345  33.955  31.120  1.00  0.00    -0.460 OA
BRANCH   6   7
ATOM      7  C   UNL A   1      35.697  32.694  31.463  1.00  0.00     0.338 C 
ATOM      8  O   UNL A   1      34.900  32.033  32.129  1.00  0.00    -0.246 OA
BRANCH   7   9
ATOM      9  C   UNL A   1      36.958  32.013  31.044  1.00  0.00     0.060 A 
ATOM     10  C   UNL A   1      37.868  31.369  31.883  1.00  0.00     0.016 A 
ATOM     11  C   UNL A   1      37.165  31.915  29.657  1.00  0.00     0.016 A 
ATOM     12  C   UNL A   1      38.966  30.686  31.381  1.00  0.00     0.010 A 
ATOM     13  C   UNL A   1      38.255  31.214  29.137  1.00  0.00     0.010 A 
ATOM     14  C   UNL A   1      39.167  30.613  30.009  1.00  0.00    -0.014 A 
BRANCH  14  15
ATOM     15  C   UNL A   1      40.431  30.037  29.531  1.00  0.00     0.031 A 
ATOM     16  C   UNL A   1      41.623  30.938  29.492  1.00  0.00     0.074 A 
ATOM     17  C   UNL A   1      40.515  28.720  29.274  1.00  0.00     0.049 A 
ATOM     18  N   UNL A   1      42.812  30.716  29.008  1.00  0.00    -0.248 NA
ATOM     19  C   UNL A   1      41.455  32.274  30.096  1.00  0.00     0.031 C 
ATOM     20  C   UNL A   1      39.427  27.752  29.449  1.00  0.00     0.029 A 
ATOM     21  N   UNL A   1      41.565  27.964  28.830  1.00  0.00    -0.354 N 
ATOM     22  C   UNL A   1      43.516  31.897  29.205  1.00  0.00     0.074 A 
ATOM     23  C   UNL A   1      42.636  32.827  29.869  1.00  0.00     0.031 C 
ATOM     24  C   UNL A   1      39.870  26.530  29.112  1.00  0.00     0.029 A 
ATOM     25  C   UNL A   1      41.236  26.646  28.619  1.00  0.00     0.049 A 
ATOM     26  H   UNL A   1      42.468  28.328  28.678  1.00  0.00     0.167 HD
ATOM     27  C   UNL A   1      44.786  32.168  28.835  1.00  0.00     0.037 A 
ATOM     28  C   UNL A   1      41.953  25.674  28.026  1.00  0.00     0.037 A 
ATOM     29  C   UNL A   1      45.627  31.203  28.186  1.00  0.00     0.049 A 
ATOM     30  C   UNL A   1      43.325  26.037  27.520  1.00  0.00     0.074 A 
ATOM     31  C   UNL A   1      46.916  31.353  27.716  1.00  0.00     0.029 A 
ATOM     32  N   UNL A   1      45.243  29.895  27.917  1.00  0.00    -0.354 N 
ATOM     33  N   UNL A   1      43.977  27.172  27.644  1.00  0.00    -0.248 NA
ATOM     34  C   UNL A   1      44.050  25.007  26.769  1.00  0.00     0.031 C 
ATOM     35  C   UNL A   1      47.292  30.149  27.111  1.00  0.00     0.029 A 
ATOM     36  C   UNL A   1      46.258  29.234  27.254  1.00  0.00     0.049 A 
ATOM     37  H   UNL A   1      44.376  29.498  28.162  1.00  0.00     0.167 HD
ATOM     38  C   UNL A   1      45.190  26.990  26.996  1.00  0.00     0.074 A 
ATOM     39  C   UNL A   1      45.194  25.624  26.509  1.00  0.00     0.031 C 
ATOM     40  C   UNL A   1      46.207  27.865  26.803  1.00  0.00     0.037 A 
BRANCH  27  41
ATOM     41  C   UNL A   1      45.282  33.566  29.037  1.00  0.00     0.057 A 
ATOM     42  C   UNL A   1      45.891  33.988  30.226  1.00  0.00     0.134 A 
ATOM     43  C   UNL A   1      45.130  34.514  28.017  1.00  0.00     0.134 A 
ATOM     44  F   UNL A   1      46.033  33.139  31.255  1.00  0.00    -0.206 F 
ATOM     45  C   UNL A   1      46.323  35.305  30.395  1.00  0.00     0.040 A 
ATOM     46  C   UNL A   1      45.577  35.827  28.166  1.00  0.00     0.040 A 
ATOM     47  F   UNL A   1      44.539  34.180  26.861  1.00  0.00    -0.206 F 
ATOM     48  C   UNL A   1      46.173  36.227  29.359  1.00  0.00     0.006 A 
ENDBRANCH  27  41
BRANCH  28  49
ATOM     49  C   UNL A   1      41.367  24.328  27.779  1.00  0.00     0.057 A 
ATOM     50  C   UNL A   1      41.798  23.198  28.483  1.00  0.00     0.134 A 
ATOM     51  C   UNL A   1      40.399  24.128  26.785  1.00  0.00     0.134 A 
ATOM     52  F   UNL A   1      42.736  23.312  29.435  1.00  0.00    -0.206 F 
ATOM     53  C   UNL A   1      41.314  21.920  28.188  1.00  0.00     0.040 A 
ATOM     54  C   UNL A   1      39.881  22.863  26.503  1.00  0.00     0.040 A 
ATOM     55  F   UNL A   1      39.938  25.163  26.067  1.00  0.00    -0.206 F 
ATOM     56  C   UNL A   1      40.350  21.750  27.197  1.00  0.00     0.006 A 
ENDBRANCH  28  49
BRANCH  40  57
ATOM     57  C   UNL A   1      47.400  27.355  26.057  1.00  0.00     0.057 A 
ATOM     58  C   UNL A   1      48.464  26.731  26.715  1.00  0.00     0.134 A 
ATOM     59  C   UNL A   1      47.448  27.435  24.660  1.00  0.00     0.134 A 
ATOM     60  F   UNL A   1      48.478  26.639  28.054  1.00  0.00    -0.206 F 
ATOM     61  C   UNL A   1      49.550  26.216  26.009  1.00  0.00     0.040 A 
ATOM     62  C   UNL A   1      48.513  26.896  23.941  1.00  0.00     0.040 A 
ATOM     63  F   UNL A   1      46.450  28.013  23.974  1.00  0.00    -0.206 F 
ATOM     64  C   UNL A   1      49.570  26.289  24.616  1.00  0.00     0.006 A 
ENDBRANCH  40  57
ENDBRANCH  14  15
ENDBRANCH   7   9
ENDBRANCH   6   7
ENDBRANCH   5   6
ENDBRANCH   4   5
ENDBRANCH   3   4
ENDBRANCH   2   3
ENDBRANCH   1   2
BRANCH   1  65
ATOM     65  O   UNL A   1      33.472  30.350  27.419  1.00  0.00    -0.377 OA
BRANCH  65  66
ATOM     66  C   UNL A   1      33.817  29.397  26.421  1.00  0.00     0.188 C 
BRANCH  66  67
ATOM     67  C   UNL A   1      32.832  29.131  25.257  1.00  0.00     0.188 C 
BRANCH  67  68
ATOM     68  O   UNL A   1      32.483  27.768  25.066  1.00  0.00    -0.376 OA
BRANCH  68  69
ATOM     69  C   UNL A   1      32.379  26.961  26.231  1.00  0.00     0.202 C 
BRANCH  69  70
ATOM     70  C   UNL A   1      32.912  25.520  26.082  1.00  0.00     0.261 C 
BRANCH  70  71
ATOM     71  O   UNL A   1      32.082  24.615  25.323  1.00  0.00    -0.463 OA
BRANCH  71  72
ATOM     72  C   UNL A   1      31.944  23.383  25.873  1.00  0.00     0.311 C 
ATOM     73  O   UNL A   1      31.684  23.227  27.053  1.00  0.00    -0.252 OA
BRANCH  72  74
ATOM     74  C   UNL A   1      31.846  22.285  24.829  1.00  0.00     0.127 C 
ATOM     75  C   UNL A   1      31.674  22.757  23.396  1.00  0.00     0.028 C 
ATOM     76  C   UNL A   1      32.964  21.238  24.953  1.00  0.00     0.130 C 
ATOM     77  C   UNL A   1      31.325  21.564  22.525  1.00  0.00     0.101 C 
ATOM     78  N   UNL A   1      32.760  20.134  23.989  1.00  0.00    -0.332 N 
ATOM     79  C   UNL A   1      32.154  20.311  22.749  1.00  0.00     0.223 C 
ATOM     80  O   UNL A   1      32.153  19.447  21.871  1.00  0.00    -0.275 OA
BRANCH  76  81
ATOM     81  C   UNL A   1      34.375  21.825  24.937  1.00  0.00    -0.025 A 
ATOM     82  C   UNL A   1      35.004  22.285  23.777  1.00  0.00     0.006 A 
ATOM     83  C   UNL A   1      35.056  22.002  26.158  1.00  0.00     0.006 A 
ATOM     84  C   UNL A   1      36.224  22.966  23.855  1.00  0.00     0.000 A 
ATOM     85  C   UNL A   1      36.214  22.766  26.251  1.00  0.00     0.000 A 
ATOM     86  C   UNL A   1      36.802  23.250  25.093  1.00  0.00     0.000 A 
ENDBRANCH  76  81
BRANCH  78  87
ATOM     87  C   UNL A   1      33.323  18.817  24.357  1.00  0.00     0.085 C 
ATOM     88  C   UNL A   1      32.536  18.139  25.498  1.00  0.00     0.025 C 
ATOM     89  C   UNL A   1      33.505  17.888  23.150  1.00  0.00     0.025 C 
ATOM     90  C   UNL A   1      33.133  16.785  25.874  1.00  0.00     0.002 C 
ATOM     91  C   UNL A   1      34.117  16.555  23.565  1.00  0.00     0.002 C 
ATOM     92  C   UNL A   1      33.288  15.881  24.653  1.00  0.00     0.000 C 
ENDBRANCH  78  87
ENDBRANCH  72  74
ENDBRANCH  71  72
ENDBRANCH  70  71
ENDBRANCH  69  70
ENDBRANCH  68  69
ENDBRANCH  67  68
ENDBRANCH  66  67
ENDBRANCH  65  66
ENDBRANCH   1  65
TORSDOF 22
ENDMDL
