MODEL 1
REMARK VINA RESULT:     -10.9      0.000      0.000
REMARK SMILES O=C(CC1(NC(=O)C2(c3ccccc3)CC2)CCC1)OCCOCCOCCOCCOC(=O)c1ccc(-c2c3nc(c(-c4c(F)cccc4F)c4ccc([nH]4)c(-c4c(F)cccc4F)c4nc(c(-c5c(F)cccc5F)c5ccc2[nH]5)C=C4)C=C3)cc1
REMARK SMILES IDX 25 1 24 2 23 3 22 4 21 5 20 6 2 7 1 8 3 9 4 10 17 11 19 12
REMARK SMILES IDX 18 13 5 14 6 15 7 17 8 18 15 19 16 20 9 21 10 22 14 23 11 24
REMARK SMILES IDX 13 25 12 26 26 27 27 28 28 29 29 30 30 31 31 32 32 33 33 34
REMARK SMILES IDX 34 35 35 36 36 37 88 38 37 39 87 40 38 41 39 42 40 43 81 44
REMARK SMILES IDX 41 45 86 46 80 47 82 48 42 49 85 50 79 51 78 52 43 54 69 55
REMARK SMILES IDX 52 56 68 57 53 58 56 59 67 60 83 61 54 62 55 63 66 65 84 66
REMARK SMILES IDX 57 67 44 68 45 69 50 70 46 71 47 72 49 73 51 74 48 75 70 76
REMARK SMILES IDX 71 77 76 78 72 79 73 80 75 81 77 82 74 83 58 84 59 85 64 86
REMARK SMILES IDX 60 87 61 88 63 89 65 90 62 91
REMARK H PARENT 5 16 82 53 56 64
REMARK Flexibility Score: inf
ROOT
ATOM      1  C   UNL A   1      42.202  20.324  26.257  1.00  0.00     0.188 C 
ENDROOT
BRANCH   1   2
ATOM      2  C   UNL A   1      41.157  20.171  27.340  1.00  0.00     0.188 C 
BRANCH   2   3
ATOM      3  O   UNL A   1      40.075  21.079  27.365  1.00  0.00    -0.376 OA
BRANCH   3   4
ATOM      4  C   UNL A   1      40.143  22.254  26.573  1.00  0.00     0.202 C 
BRANCH   4   5
ATOM      5  C   UNL A   1      39.014  23.263  26.763  1.00  0.00     0.261 C 
BRANCH   5   6
ATOM      6  O   UNL A   1      38.305  23.758  25.541  1.00  0.00    -0.463 OA
BRANCH   6   7
ATOM      7  C   UNL A   1      36.919  23.663  24.988  1.00  0.00     0.308 C 
ATOM      8  O   UNL A   1      37.111  22.890  24.000  1.00  0.00    -0.252 OA
BRANCH   7   9
ATOM      9  C   UNL A   1      35.083  24.358  25.932  1.00  0.00     0.151 C 
BRANCH   9  10
ATOM     10  C   UNL A   1      33.667  25.255  25.200  1.00  0.00     0.051 C 
ATOM     11  C   UNL A   1      33.378  26.518  26.073  1.00  0.00     0.029 C 
ATOM     12  C   UNL A   1      33.860  26.268  23.971  1.00  0.00     0.029 C 
ATOM     13  C   UNL A   1      33.625  27.450  24.884  1.00  0.00     0.005 C 
BRANCH  10  14
ATOM     14  N   UNL A   1      32.338  24.496  24.971  1.00  0.00    -0.349 N 
ATOM     15  C   UNL A   1      31.892  23.510  24.109  1.00  0.00     0.231 C 
ATOM     16  H   UNL A   1      31.634  24.786  25.596  1.00  0.00     0.164 HD
ATOM     17  O   UNL A   1      30.684  23.298  24.017  1.00  0.00    -0.274 OA
BRANCH  15  18
ATOM     18  C   UNL A   1      32.871  22.712  23.315  1.00  0.00     0.074 C 
ATOM     19  C   UNL A   1      32.898  23.065  21.819  1.00  0.00     0.023 C 
ATOM     20  C   UNL A   1      34.093  23.331  22.663  1.00  0.00     0.023 C 
BRANCH  18  21
ATOM     21  C   UNL A   1      32.983  21.296  23.811  1.00  0.00    -0.032 A 
ATOM     22  C   UNL A   1      34.378  20.844  24.835  1.00  0.00     0.005 A 
ATOM     23  C   UNL A   1      32.115  19.992  22.866  1.00  0.00     0.005 A 
ATOM     24  C   UNL A   1      34.937  19.150  24.888  1.00  0.00     0.000 A 
ATOM     25  C   UNL A   1      32.699  18.253  22.962  1.00  0.00     0.000 A 
ATOM     26  C   UNL A   1      34.065  17.856  24.035  1.00  0.00     0.000 A 
ENDBRANCH  18  21
ENDBRANCH  15  18
ENDBRANCH  10  14
ENDBRANCH   9  10
ENDBRANCH   7   9
ENDBRANCH   6   7
ENDBRANCH   5   6
ENDBRANCH   4   5
ENDBRANCH   3   4
ENDBRANCH   2   3
ENDBRANCH   1   2
BRANCH   1  27
ATOM     27  O   UNL A   1      42.474  19.270  25.372  1.00  0.00    -0.377 OA
BRANCH  27  28
ATOM     28  C   UNL A   1      43.801  18.834  25.195  1.00  0.00     0.188 C 
BRANCH  28  29
ATOM     29  C   UNL A   1      44.826  19.598  24.310  1.00  0.00     0.188 C 
BRANCH  29  30
ATOM     30  O   UNL A   1      44.555  20.681  23.430  1.00  0.00    -0.376 OA
BRANCH  30  31
ATOM     31  C   UNL A   1      44.958  21.999  23.719  1.00  0.00     0.202 C 
BRANCH  31  32
ATOM     32  C   UNL A   1      43.860  22.887  24.327  1.00  0.00     0.261 C 
BRANCH  32  33
ATOM     33  O   UNL A   1      44.332  24.030  25.058  1.00  0.00    -0.460 OA
BRANCH  33  34
ATOM     34  C   UNL A   1      44.718  23.838  26.344  1.00  0.00     0.338 C 
ATOM     35  O   UNL A   1      45.622  23.128  26.748  1.00  0.00    -0.246 OA
BRANCH  34  36
ATOM     36  C   UNL A   1      43.976  24.813  27.189  1.00  0.00     0.060 A 
ATOM     37  C   UNL A   1      44.326  26.176  27.110  1.00  0.00     0.016 A 
ATOM     38  C   UNL A   1      42.819  24.429  27.880  1.00  0.00     0.016 A 
ATOM     39  C   UNL A   1      43.513  27.149  27.698  1.00  0.00     0.010 A 
ATOM     40  C   UNL A   1      42.043  25.394  28.523  1.00  0.00     0.010 A 
ATOM     41  C   UNL A   1      42.406  26.752  28.458  1.00  0.00    -0.014 A 
BRANCH  41  42
ATOM     42  C   UNL A   1      41.874  27.682  29.477  1.00  0.00     0.031 A 
ATOM     43  C   UNL A   1      42.580  27.673  30.804  1.00  0.00     0.074 A 
ATOM     44  C   UNL A   1      40.834  28.501  29.251  1.00  0.00     0.049 A 
ATOM     45  N   UNL A   1      42.291  28.301  31.911  1.00  0.00    -0.248 NA
ATOM     46  C   UNL A   1      43.781  26.819  30.892  1.00  0.00     0.031 C 
ATOM     47  C   UNL A   1      40.115  28.637  27.987  1.00  0.00     0.029 A 
ATOM     48  N   UNL A   1      40.196  29.372  30.099  1.00  0.00    -0.354 N 
ATOM     49  C   UNL A   1      43.262  27.907  32.822  1.00  0.00     0.074 A 
ATOM     50  C   UNL A   1      44.126  26.962  32.159  1.00  0.00     0.031 C 
ATOM     51  C   UNL A   1      39.117  29.526  28.148  1.00  0.00     0.029 A 
ATOM     52  C   UNL A   1      39.105  29.988  29.537  1.00  0.00     0.049 A 
ATOM     53  H   UNL A   1      40.493  29.539  31.023  1.00  0.00     0.167 HD
ATOM     54  C   UNL A   1      43.423  28.304  34.103  1.00  0.00     0.037 A 
ATOM     55  C   UNL A   1      38.190  30.802  30.099  1.00  0.00     0.037 A 
ATOM     56  C   UNL A   1      42.545  29.232  34.757  1.00  0.00     0.049 A 
ATOM     57  C   UNL A   1      38.331  31.156  31.561  1.00  0.00     0.074 A 
ATOM     58  C   UNL A   1      42.608  29.710  36.051  1.00  0.00     0.029 A 
ATOM     59  N   UNL A   1      41.429  29.807  34.165  1.00  0.00    -0.354 N 
ATOM     60  N   UNL A   1      39.259  30.797  32.417  1.00  0.00    -0.248 NA
ATOM     61  C   UNL A   1      37.298  32.030  32.134  1.00  0.00     0.031 C 
ATOM     62  C   UNL A   1      41.488  30.517  36.267  1.00  0.00     0.029 A 
ATOM     63  C   UNL A   1      40.776  30.612  35.081  1.00  0.00     0.049 A 
ATOM     64  H   UNL A   1      41.145  29.664  33.234  1.00  0.00     0.167 HD
ATOM     65  C   UNL A   1      38.945  31.431  33.615  1.00  0.00     0.074 A 
ATOM     66  C   UNL A   1      37.746  32.207  33.369  1.00  0.00     0.031 C 
ATOM     67  C   UNL A   1      39.588  31.382  34.808  1.00  0.00     0.037 A 
BRANCH  54  68
ATOM     68  C   UNL A   1      44.554  27.696  34.879  1.00  0.00     0.057 A 
ATOM     69  C   UNL A   1      44.436  26.462  35.533  1.00  0.00     0.134 A 
ATOM     70  C   UNL A   1      45.785  28.359  34.970  1.00  0.00     0.134 A 
ATOM     71  F   UNL A   1      43.277  25.786  35.507  1.00  0.00    -0.206 F 
ATOM     72  C   UNL A   1      45.491  25.922  36.269  1.00  0.00     0.040 A 
ATOM     73  C   UNL A   1      46.859  27.811  35.673  1.00  0.00     0.040 A 
ATOM     74  F   UNL A   1      45.966  29.547  34.375  1.00  0.00    -0.206 F 
ATOM     75  C   UNL A   1      46.710  26.592  36.332  1.00  0.00     0.006 A 
ENDBRANCH  54  68
BRANCH  55  76
ATOM     76  C   UNL A   1      37.048  31.321  29.299  1.00  0.00     0.057 A 
ATOM     77  C   UNL A   1      35.939  30.519  29.004  1.00  0.00     0.134 A 
ATOM     78  C   UNL A   1      37.053  32.621  28.777  1.00  0.00     0.134 A 
ATOM     79  F   UNL A   1      35.881  29.256  29.453  1.00  0.00    -0.206 F 
ATOM     80  C   UNL A   1      34.892  30.979  28.203  1.00  0.00     0.040 A 
ATOM     81  C   UNL A   1      35.998  33.106  28.003  1.00  0.00     0.040 A 
ATOM     82  F   UNL A   1      38.083  33.446  29.020  1.00  0.00    -0.206 F 
ATOM     83  C   UNL A   1      34.918  32.280  27.704  1.00  0.00     0.006 A 
ENDBRANCH  55  76
BRANCH  67  84
ATOM     84  C   UNL A   1      39.049  32.234  35.923  1.00  0.00     0.057 A 
ATOM     85  C   UNL A   1      38.195  31.725  36.909  1.00  0.00     0.134 A 
ATOM     86  C   UNL A   1      39.439  33.576  36.038  1.00  0.00     0.134 A 
ATOM     87  F   UNL A   1      37.778  30.450  36.857  1.00  0.00    -0.206 F 
ATOM     88  C   UNL A   1      37.721  32.528  37.948  1.00  0.00     0.040 A 
ATOM     89  C   UNL A   1      39.004  34.376  37.093  1.00  0.00     0.040 A 
ATOM     90  F   UNL A   1      40.270  34.124  35.138  1.00  0.00    -0.206 F 
ATOM     91  C   UNL A   1      38.133  33.856  38.047  1.00  0.00     0.006 A 
ENDBRANCH  67  84
ENDBRANCH  41  42
ENDBRANCH  34  36
ENDBRANCH  33  34
ENDBRANCH  32  33
ENDBRANCH  31  32
ENDBRANCH  30  31
ENDBRANCH  29  30
ENDBRANCH  28  29
ENDBRANCH  27  28
ENDBRANCH   1  27
TORSDOF 24
ENDMDL
MODEL 2
REMARK VINA RESULT:     -10.7      0.865      2.896
REMARK SMILES O=C(CC1(NC(=O)C2(c3ccccc3)CC2)CCC1)OCCOCCOCCOCCOC(=O)c1ccc(-c2c3nc(c(-c4c(F)cccc4F)c4ccc([nH]4)c(-c4c(F)cccc4F)c4nc(c(-c5c(F)cccc5F)c5ccc2[nH]5)C=C4)C=C3)cc1
REMARK SMILES IDX 25 1 24 2 23 3 22 4 21 5 20 6 2 7 1 8 3 9 4 10 17 11 19 12
REMARK SMILES IDX 18 13 5 14 6 15 7 17 8 18 15 19 16 20 9 21 10 22 14 23 11 24
REMARK SMILES IDX 13 25 12 26 26 27 27 28 28 29 29 30 30 31 31 32 32 33 33 34
REMARK SMILES IDX 34 35 35 36 36 37 88 38 37 39 87 40 38 41 39 42 40 43 81 44
REMARK SMILES IDX 41 45 86 46 80 47 82 48 42 49 85 50 79 51 78 52 43 54 69 55
REMARK SMILES IDX 52 56 68 57 53 58 56 59 67 60 83 61 54 62 55 63 66 65 84 66
REMARK SMILES IDX 57 67 44 68 45 69 50 70 46 71 47 72 49 73 51 74 48 75 70 76
REMARK SMILES IDX 71 77 76 78 72 79 73 80 75 81 77 82 74 83 58 84 59 85 64 86
REMARK SMILES IDX 60 87 61 88 63 89 65 90 62 91
REMARK H PARENT 5 16 82 53 56 64
REMARK Flexibility Score: inf
ROOT
ATOM      1  C   UNL A   1      42.115  20.491  26.171  1.00  0.00     0.188 C 
ENDROOT
BRANCH   1   2
ATOM      2  C   UNL A   1      41.083  20.398  27.272  1.00  0.00     0.188 C 
BRANCH   2   3
ATOM      3  O   UNL A   1      39.975  21.274  27.233  1.00  0.00    -0.376 OA
BRANCH   3   4
ATOM      4  C   UNL A   1      40.091  22.500  26.529  1.00  0.00     0.202 C 
BRANCH   4   5
ATOM      5  C   UNL A   1      38.966  23.510  26.742  1.00  0.00     0.261 C 
BRANCH   5   6
ATOM      6  O   UNL A   1      38.039  23.776  25.598  1.00  0.00    -0.463 OA
BRANCH   6   7
ATOM      7  C   UNL A   1      36.888  23.067  24.957  1.00  0.00     0.308 C 
ATOM      8  O   UNL A   1      37.502  22.206  24.256  1.00  0.00    -0.252 OA
BRANCH   7   9
ATOM      9  C   UNL A   1      34.781  23.263  25.472  1.00  0.00     0.151 C 
BRANCH   9  10
ATOM     10  C   UNL A   1      33.363  22.214  24.985  1.00  0.00     0.051 C 
ATOM     11  C   UNL A   1      33.918  20.886  24.378  1.00  0.00     0.029 C 
ATOM     12  C   UNL A   1      32.596  21.292  26.052  1.00  0.00     0.029 C 
ATOM     13  C   UNL A   1      33.212  20.050  25.448  1.00  0.00     0.005 C 
BRANCH  10  14
ATOM     14  N   UNL A   1      32.299  22.794  24.023  1.00  0.00    -0.349 N 
ATOM     15  C   UNL A   1      31.332  23.782  24.088  1.00  0.00     0.231 C 
ATOM     16  H   UNL A   1      32.314  22.350  23.144  1.00  0.00     0.164 HD
ATOM     17  O   UNL A   1      30.464  23.827  23.218  1.00  0.00    -0.274 OA
BRANCH  15  18
ATOM     18  C   UNL A   1      31.359  24.781  25.196  1.00  0.00     0.074 C 
ATOM     19  C   UNL A   1      30.238  24.595  26.232  1.00  0.00     0.023 C 
ATOM     20  C   UNL A   1      31.656  24.402  26.633  1.00  0.00     0.023 C 
BRANCH  18  21
ATOM     21  C   UNL A   1      31.802  26.139  24.723  1.00  0.00    -0.032 A 
ATOM     22  C   UNL A   1      33.552  26.496  24.634  1.00  0.00     0.005 A 
ATOM     23  C   UNL A   1      30.620  27.525  24.886  1.00  0.00     0.005 A 
ATOM     24  C   UNL A   1      34.129  28.181  24.752  1.00  0.00     0.000 A 
ATOM     25  C   UNL A   1      31.243  29.251  24.979  1.00  0.00     0.000 A 
ATOM     26  C   UNL A   1      32.993  29.548  24.838  1.00  0.00     0.000 A 
ENDBRANCH  18  21
ENDBRANCH  15  18
ENDBRANCH  10  14
ENDBRANCH   9  10
ENDBRANCH   7   9
ENDBRANCH   6   7
ENDBRANCH   5   6
ENDBRANCH   4   5
ENDBRANCH   3   4
ENDBRANCH   2   3
ENDBRANCH   1   2
BRANCH   1  27
ATOM     27  O   UNL A   1      42.420  19.372  25.380  1.00  0.00    -0.377 OA
BRANCH  27  28
ATOM     28  C   UNL A   1      43.750  18.919  25.299  1.00  0.00     0.188 C 
BRANCH  28  29
ATOM     29  C   UNL A   1      44.825  19.618  24.418  1.00  0.00     0.188 C 
BRANCH  29  30
ATOM     30  O   UNL A   1      44.613  20.672  23.489  1.00  0.00    -0.376 OA
BRANCH  30  31
ATOM     31  C   UNL A   1      45.030  21.992  23.748  1.00  0.00     0.202 C 
BRANCH  31  32
ATOM     32  C   UNL A   1      43.949  22.899  24.358  1.00  0.00     0.261 C 
BRANCH  32  33
ATOM     33  O   UNL A   1      44.439  24.067  25.033  1.00  0.00    -0.460 OA
BRANCH  33  34
ATOM     34  C   UNL A   1      44.867  23.921  26.312  1.00  0.00     0.338 C 
ATOM     35  O   UNL A   1      45.813  23.263  26.706  1.00  0.00    -0.246 OA
BRANCH  34  36
ATOM     36  C   UNL A   1      44.101  24.878  27.157  1.00  0.00     0.060 A 
ATOM     37  C   UNL A   1      44.409  26.251  27.068  1.00  0.00     0.016 A 
ATOM     38  C   UNL A   1      42.961  24.463  27.858  1.00  0.00     0.016 A 
ATOM     39  C   UNL A   1      43.570  27.201  27.655  1.00  0.00     0.010 A 
ATOM     40  C   UNL A   1      42.160  25.408  28.501  1.00  0.00     0.010 A 
ATOM     41  C   UNL A   1      42.481  26.775  28.426  1.00  0.00    -0.014 A 
BRANCH  41  42
ATOM     42  C   UNL A   1      41.927  27.696  29.443  1.00  0.00     0.031 A 
ATOM     43  C   UNL A   1      42.613  27.680  30.781  1.00  0.00     0.074 A 
ATOM     44  C   UNL A   1      40.887  28.511  29.206  1.00  0.00     0.049 A 
ATOM     45  N   UNL A   1      42.303  28.298  31.887  1.00  0.00    -0.248 NA
ATOM     46  C   UNL A   1      43.817  26.832  30.881  1.00  0.00     0.031 C 
ATOM     47  C   UNL A   1      40.187  28.652  27.932  1.00  0.00     0.029 A 
ATOM     48  N   UNL A   1      40.231  29.371  30.050  1.00  0.00    -0.354 N 
ATOM     49  C   UNL A   1      43.261  27.903  32.811  1.00  0.00     0.074 A 
ATOM     50  C   UNL A   1      44.141  26.967  32.154  1.00  0.00     0.031 C 
ATOM     51  C   UNL A   1      39.182  29.534  28.084  1.00  0.00     0.029 A 
ATOM     52  C   UNL A   1      39.145  29.985  29.476  1.00  0.00     0.049 A 
ATOM     53  H   UNL A   1      40.512  29.533  30.981  1.00  0.00     0.167 HD
ATOM     54  C   UNL A   1      43.399  28.292  34.097  1.00  0.00     0.037 A 
ATOM     55  C   UNL A   1      38.216  30.790  30.030  1.00  0.00     0.037 A 
ATOM     56  C   UNL A   1      42.506  29.209  34.744  1.00  0.00     0.049 A 
ATOM     57  C   UNL A   1      38.332  31.134  31.496  1.00  0.00     0.074 A 
ATOM     58  C   UNL A   1      42.546  29.679  36.043  1.00  0.00     0.029 A 
ATOM     59  N   UNL A   1      41.396  29.782  34.139  1.00  0.00    -0.354 N 
ATOM     60  N   UNL A   1      39.249  30.774  32.364  1.00  0.00    -0.248 NA
ATOM     61  C   UNL A   1      37.285  31.998  32.059  1.00  0.00     0.031 C 
ATOM     62  C   UNL A   1      41.418  30.477  36.246  1.00  0.00     0.029 A 
ATOM     63  C   UNL A   1      40.724  30.577  35.050  1.00  0.00     0.049 A 
ATOM     64  H   UNL A   1      41.128  29.645  33.202  1.00  0.00     0.167 HD
ATOM     65  C   UNL A   1      38.912  31.397  33.561  1.00  0.00     0.074 A 
ATOM     66  C   UNL A   1      37.713  32.168  33.302  1.00  0.00     0.031 C 
ATOM     67  C   UNL A   1      39.537  31.343  34.764  1.00  0.00     0.037 A 
BRANCH  54  68
ATOM     68  C   UNL A   1      44.522  27.684  34.887  1.00  0.00     0.057 A 
ATOM     69  C   UNL A   1      44.353  26.526  35.659  1.00  0.00     0.134 A 
ATOM     70  C   UNL A   1      45.795  28.268  34.870  1.00  0.00     0.134 A 
ATOM     71  F   UNL A   1      43.154  25.930  35.739  1.00  0.00    -0.206 F 
ATOM     72  C   UNL A   1      45.402  25.987  36.405  1.00  0.00     0.040 A 
ATOM     73  C   UNL A   1      46.860  27.718  35.583  1.00  0.00     0.040 A 
ATOM     74  F   UNL A   1      46.025  29.382  34.158  1.00  0.00    -0.206 F 
ATOM     75  C   UNL A   1      46.663  26.578  36.360  1.00  0.00     0.006 A 
ENDBRANCH  54  68
BRANCH  55  76
ATOM     76  C   UNL A   1      37.085  31.309  29.215  1.00  0.00     0.057 A 
ATOM     77  C   UNL A   1      37.052  32.638  28.775  1.00  0.00     0.134 A 
ATOM     78  C   UNL A   1      35.989  30.500  28.887  1.00  0.00     0.134 A 
ATOM     79  F   UNL A   1      38.058  33.473  29.075  1.00  0.00    -0.206 F 
ATOM     80  C   UNL A   1      35.965  33.149  28.063  1.00  0.00     0.040 A 
ATOM     81  C   UNL A   1      34.911  30.988  28.147  1.00  0.00     0.040 A 
ATOM     82  F   UNL A   1      35.953  29.216  29.275  1.00  0.00    -0.206 F 
ATOM     83  C   UNL A   1      34.892  32.320  27.742  1.00  0.00     0.006 A 
ENDBRANCH  55  76
BRANCH  67  84
ATOM     84  C   UNL A   1      38.975  32.183  35.876  1.00  0.00     0.057 A 
ATOM     85  C   UNL A   1      38.134  31.654  36.864  1.00  0.00     0.134 A 
ATOM     86  C   UNL A   1      39.329  33.535  35.988  1.00  0.00     0.134 A 
ATOM     87  F   UNL A   1      37.751  30.369  36.815  1.00  0.00    -0.206 F 
ATOM     88  C   UNL A   1      37.639  32.448  37.900  1.00  0.00     0.040 A 
ATOM     89  C   UNL A   1      38.873  34.327  37.041  1.00  0.00     0.040 A 
ATOM     90  F   UNL A   1      40.146  34.103  35.087  1.00  0.00    -0.206 F 
ATOM     91  C   UNL A   1      38.016  33.786  37.996  1.00  0.00     0.006 A 
ENDBRANCH  67  84
ENDBRANCH  41  42
ENDBRANCH  34  36
ENDBRANCH  33  34
ENDBRANCH  32  33
ENDBRANCH  31  32
ENDBRANCH  30  31
ENDBRANCH  29  30
ENDBRANCH  28  29
ENDBRANCH  27  28
ENDBRANCH   1  27
TORSDOF 24
ENDMDL
MODEL 3
REMARK VINA RESULT:     -10.7      0.819      6.124
REMARK SMILES O=C(CC1(NC(=O)C2(c3ccccc3)CC2)CCC1)OCCOCCOCCOCCOC(=O)c1ccc(-c2c3nc(c(-c4c(F)cccc4F)c4ccc([nH]4)c(-c4c(F)cccc4F)c4nc(c(-c5c(F)cccc5F)c5ccc2[nH]5)C=C4)C=C3)cc1
REMARK SMILES IDX 25 1 24 2 23 3 22 4 21 5 20 6 2 7 1 8 3 9 4 10 17 11 19 12
REMARK SMILES IDX 18 13 5 14 6 15 7 17 8 18 15 19 16 20 9 21 10 22 14 23 11 24
REMARK SMILES IDX 13 25 12 26 26 27 27 28 28 29 29 30 30 31 31 32 32 33 33 34
REMARK SMILES IDX 34 35 35 36 36 37 88 38 37 39 87 40 38 41 39 42 40 43 81 44
REMARK SMILES IDX 41 45 86 46 80 47 82 48 42 49 85 50 79 51 78 52 43 54 69 55
REMARK SMILES IDX 52 56 68 57 53 58 56 59 67 60 83 61 54 62 55 63 66 65 84 66
REMARK SMILES IDX 57 67 44 68 45 69 50 70 46 71 47 72 49 73 51 74 48 75 70 76
REMARK SMILES IDX 71 77 76 78 72 79 73 80 75 81 77 82 74 83 58 84 59 85 64 86
REMARK SMILES IDX 60 87 61 88 63 89 65 90 62 91
REMARK H PARENT 5 16 82 53 56 64
REMARK Flexibility Score: inf
ROOT
ATOM      1  C   UNL A   1      42.072  20.271  26.417  1.00  0.00     0.188 C 
ENDROOT
BRANCH   1   2
ATOM      2  C   UNL A   1      40.746  20.998  26.460  1.00  0.00     0.188 C 
BRANCH   2   3
ATOM      3  O   UNL A   1      40.751  22.411  26.446  1.00  0.00    -0.376 OA
BRANCH   3   4
ATOM      4  C   UNL A   1      40.081  23.112  27.482  1.00  0.00     0.202 C 
BRANCH   4   5
ATOM      5  C   UNL A   1      39.006  24.102  27.041  1.00  0.00     0.261 C 
BRANCH   5   6
ATOM      6  O   UNL A   1      38.276  23.820  25.766  1.00  0.00    -0.463 OA
BRANCH   6   7
ATOM      7  C   UNL A   1      37.035  23.080  25.376  1.00  0.00     0.308 C 
ATOM      8  O   UNL A   1      37.122  22.062  26.128  1.00  0.00    -0.252 OA
BRANCH   7   9
ATOM      9  C   UNL A   1      35.395  23.830  24.155  1.00  0.00     0.151 C 
BRANCH   9  10
ATOM     10  C   UNL A   1      33.805  24.572  24.673  1.00  0.00     0.051 C 
ATOM     11  C   UNL A   1      34.108  25.780  25.616  1.00  0.00     0.029 C 
ATOM     12  C   UNL A   1      33.025  25.621  23.741  1.00  0.00     0.029 C 
ATOM     13  C   UNL A   1      33.401  26.754  24.670  1.00  0.00     0.005 C 
BRANCH  10  14
ATOM     14  N   UNL A   1      32.742  23.671  25.346  1.00  0.00    -0.349 N 
ATOM     15  C   UNL A   1      32.020  22.547  24.987  1.00  0.00     0.231 C 
ATOM     16  H   UNL A   1      32.527  23.972  26.259  1.00  0.00     0.164 HD
ATOM     17  O   UNL A   1      31.053  22.214  25.670  1.00  0.00    -0.274 OA
BRANCH  15  18
ATOM     18  C   UNL A   1      32.426  21.748  23.794  1.00  0.00     0.074 C 
ATOM     19  C   UNL A   1      31.541  21.979  22.558  1.00  0.00     0.023 C 
ATOM     20  C   UNL A   1      32.971  22.384  22.530  1.00  0.00     0.023 C 
BRANCH  18  21
ATOM     21  C   UNL A   1      32.943  20.387  24.173  1.00  0.00    -0.032 A 
ATOM     22  C   UNL A   1      34.579  20.247  24.879  1.00  0.00     0.005 A 
ATOM     23  C   UNL A   1      32.210  18.934  23.334  1.00  0.00     0.005 A 
ATOM     24  C   UNL A   1      35.496  18.723  24.721  1.00  0.00     0.000 A 
ATOM     25  C   UNL A   1      33.169  17.372  23.211  1.00  0.00     0.000 A 
ATOM     26  C   UNL A   1      34.775  17.279  23.974  1.00  0.00     0.000 A 
ENDBRANCH  18  21
ENDBRANCH  15  18
ENDBRANCH  10  14
ENDBRANCH   9  10
ENDBRANCH   7   9
ENDBRANCH   6   7
ENDBRANCH   5   6
ENDBRANCH   4   5
ENDBRANCH   3   4
ENDBRANCH   2   3
ENDBRANCH   1   2
BRANCH   1  27
ATOM     27  O   UNL A   1      42.376  19.401  25.359  1.00  0.00    -0.377 OA
BRANCH  27  28
ATOM     28  C   UNL A   1      43.719  19.089  25.079  1.00  0.00     0.188 C 
BRANCH  28  29
ATOM     29  C   UNL A   1      44.752  20.156  24.617  1.00  0.00     0.188 C 
BRANCH  29  30
ATOM     30  O   UNL A   1      44.654  21.004  23.481  1.00  0.00    -0.376 OA
BRANCH  30  31
ATOM     31  C   UNL A   1      44.697  22.407  23.588  1.00  0.00     0.202 C 
BRANCH  31  32
ATOM     32  C   UNL A   1      44.034  22.975  24.854  1.00  0.00     0.261 C 
BRANCH  32  33
ATOM     33  O   UNL A   1      43.721  24.375  24.807  1.00  0.00    -0.460 OA
BRANCH  33  34
ATOM     34  C   UNL A   1      44.608  25.237  25.363  1.00  0.00     0.338 C 
ATOM     35  O   UNL A   1      45.705  25.549  24.935  1.00  0.00    -0.246 OA
BRANCH  34  36
ATOM     36  C   UNL A   1      43.929  25.912  26.503  1.00  0.00     0.060 A 
ATOM     37  C   UNL A   1      43.980  27.318  26.580  1.00  0.00     0.016 A 
ATOM     38  C   UNL A   1      43.078  25.197  27.356  1.00  0.00     0.016 A 
ATOM     39  C   UNL A   1      43.169  28.005  27.487  1.00  0.00     0.010 A 
ATOM     40  C   UNL A   1      42.318  25.879  28.308  1.00  0.00     0.010 A 
ATOM     41  C   UNL A   1      42.386  27.281  28.395  1.00  0.00    -0.014 A 
BRANCH  41  42
ATOM     42  C   UNL A   1      41.958  27.940  29.647  1.00  0.00     0.031 A 
ATOM     43  C   UNL A   1      40.712  28.777  29.553  1.00  0.00     0.074 A 
ATOM     44  C   UNL A   1      42.617  27.807  30.809  1.00  0.00     0.049 A 
ATOM     45  N   UNL A   1      40.148  29.542  30.447  1.00  0.00    -0.248 NA
ATOM     46  C   UNL A   1      40.010  28.749  28.255  1.00  0.00     0.031 C 
ATOM     47  C   UNL A   1      43.798  26.976  31.029  1.00  0.00     0.029 A 
ATOM     48  N   UNL A   1      42.382  28.390  32.029  1.00  0.00    -0.354 N 
ATOM     49  C   UNL A   1      39.042  30.093  29.814  1.00  0.00     0.074 A 
ATOM     50  C   UNL A   1      39.029  29.609  28.456  1.00  0.00     0.031 C 
ATOM     51  C   UNL A   1      44.198  27.119  32.306  1.00  0.00     0.029 A 
ATOM     52  C   UNL A   1      43.326  28.082  32.978  1.00  0.00     0.049 A 
ATOM     53  H   UNL A   1      41.609  28.974  32.207  1.00  0.00     0.167 HD
ATOM     54  C   UNL A   1      38.111  30.929  30.325  1.00  0.00     0.037 A 
ATOM     55  C   UNL A   1      43.476  28.557  34.230  1.00  0.00     0.037 A 
ATOM     56  C   UNL A   1      38.147  31.418  31.674  1.00  0.00     0.049 A 
ATOM     57  C   UNL A   1      42.481  29.567  34.750  1.00  0.00     0.074 A 
ATOM     58  C   UNL A   1      37.259  32.269  32.304  1.00  0.00     0.029 A 
ATOM     59  N   UNL A   1      39.140  31.112  32.594  1.00  0.00    -0.354 N 
ATOM     60  N   UNL A   1      41.425  30.074  34.158  1.00  0.00    -0.248 NA
ATOM     61  C   UNL A   1      42.698  30.071  36.114  1.00  0.00     0.031 C 
ATOM     62  C   UNL A   1      37.754  32.537  33.582  1.00  0.00     0.029 A 
ATOM     63  C   UNL A   1      38.902  31.784  33.779  1.00  0.00     0.049 A 
ATOM     64  H   UNL A   1      39.897  30.507  32.429  1.00  0.00     0.167 HD
ATOM     65  C   UNL A   1      40.832  30.923  35.087  1.00  0.00     0.074 A 
ATOM     66  C   UNL A   1      41.640  30.851  36.286  1.00  0.00     0.031 C 
ATOM     67  C   UNL A   1      39.718  31.689  34.964  1.00  0.00     0.037 A 
BRANCH  54  68
ATOM     68  C   UNL A   1      37.021  31.396  29.406  1.00  0.00     0.057 A 
ATOM     69  C   UNL A   1      37.025  32.673  28.828  1.00  0.00     0.134 A 
ATOM     70  C   UNL A   1      35.951  30.549  29.091  1.00  0.00     0.134 A 
ATOM     71  F   UNL A   1      38.007  33.544  29.106  1.00  0.00    -0.206 F 
ATOM     72  C   UNL A   1      35.991  33.099  27.992  1.00  0.00     0.040 A 
ATOM     73  C   UNL A   1      34.931  30.951  28.229  1.00  0.00     0.040 A 
ATOM     74  F   UNL A   1      35.880  29.316  29.615  1.00  0.00    -0.206 F 
ATOM     75  C   UNL A   1      34.945  32.233  27.683  1.00  0.00     0.006 A 
ENDBRANCH  54  68
BRANCH  55  76
ATOM     76  C   UNL A   1      44.616  28.111  35.075  1.00  0.00     0.057 A 
ATOM     77  C   UNL A   1      45.838  28.795  35.073  1.00  0.00     0.134 A 
ATOM     78  C   UNL A   1      44.526  26.967  35.879  1.00  0.00     0.134 A 
ATOM     79  F   UNL A   1      45.999  29.885  34.307  1.00  0.00    -0.206 F 
ATOM     80  C   UNL A   1      46.932  28.347  35.816  1.00  0.00     0.040 A 
ATOM     81  C   UNL A   1      45.601  26.527  36.653  1.00  0.00     0.040 A 
ATOM     82  F   UNL A   1      43.386  26.262  35.931  1.00  0.00    -0.206 F 
ATOM     83  C   UNL A   1      46.813  27.212  36.614  1.00  0.00     0.006 A 
ENDBRANCH  55  76
BRANCH  67  84
ATOM     84  C   UNL A   1      39.272  32.463  36.172  1.00  0.00     0.057 A 
ATOM     85  C   UNL A   1      39.741  33.753  36.450  1.00  0.00     0.134 A 
ATOM     86  C   UNL A   1      38.313  31.924  37.041  1.00  0.00     0.134 A 
ATOM     87  F   UNL A   1      40.664  34.327  35.663  1.00  0.00    -0.206 F 
ATOM     88  C   UNL A   1      39.298  34.464  37.567  1.00  0.00     0.040 A 
ATOM     89  C   UNL A   1      37.833  32.641  38.137  1.00  0.00     0.040 A 
ATOM     90  F   UNL A   1      37.806  30.701  36.824  1.00  0.00    -0.206 F 
ATOM     91  C   UNL A   1      38.334  33.911  38.409  1.00  0.00     0.006 A 
ENDBRANCH  67  84
ENDBRANCH  41  42
ENDBRANCH  34  36
ENDBRANCH  33  34
ENDBRANCH  32  33
ENDBRANCH  31  32
ENDBRANCH  30  31
ENDBRANCH  29  30
ENDBRANCH  28  29
ENDBRANCH  27  28
ENDBRANCH   1  27
TORSDOF 24
ENDMDL
