MODEL 1
REMARK VINA RESULT:     -10.4      0.000      0.000
REMARK SMILES CS(=O)(=O)c1ccc(/C=C(/C(=O)OCCOCCOCCOCCOC(=O)c2ccc(-c3c4nc(c(-c5c(F)cccc5F)c5ccc([nH]5)c(-c5c(F)cccc5F)c5nc(c(-c6c(F)cccc6F)c6ccc3[nH]6)C=C5)C=C4)cc2)c2cccc(Br)c2)cc1
REMARK SMILES IDX 19 1 18 2 17 3 16 4 15 5 14 6 13 7 11 8 12 9 10 10 9 11 8 12
REMARK SMILES IDX 5 13 6 14 90 15 7 16 89 17 2 18 1 19 3 20 4 21 82 22 83 23
REMARK SMILES IDX 88 24 84 25 86 26 85 27 87 28 20 29 21 30 22 31 23 32 24 33
REMARK SMILES IDX 25 34 26 35 27 36 28 37 29 38 81 39 30 40 80 41 31 42 32 43
REMARK SMILES IDX 33 44 74 45 34 46 79 47 73 48 75 49 35 50 78 51 72 52 71 53
REMARK SMILES IDX 36 55 62 56 45 57 61 58 46 59 49 60 60 61 76 62 47 63 48 64
REMARK SMILES IDX 59 66 77 67 50 68 37 69 38 70 43 71 39 72 40 73 42 74 44 75
REMARK SMILES IDX 41 76 63 77 64 78 69 79 65 80 66 81 68 82 70 83 67 84 51 85
REMARK SMILES IDX 52 86 57 87 53 88 54 89 56 90 58 91 55 92
REMARK H PARENT 75 54 49 65
REMARK Flexibility Score: inf
ROOT
ATOM      1  O   UNL A   1      34.157  23.303  27.003  1.00  0.00    -0.377 OA
ENDROOT
BRANCH   1   2
ATOM      2  C   UNL A   1      33.223  22.295  27.349  1.00  0.00     0.188 C 
BRANCH   2   3
ATOM      3  C   UNL A   1      32.691  21.368  26.232  1.00  0.00     0.188 C 
BRANCH   3   4
ATOM      4  O   UNL A   1      31.599  21.918  25.517  1.00  0.00    -0.376 OA
BRANCH   4   5
ATOM      5  C   UNL A   1      31.857  22.442  24.227  1.00  0.00     0.202 C 
BRANCH   5   6
ATOM      6  C   UNL A   1      31.644  23.945  23.981  1.00  0.00     0.261 C 
BRANCH   6   7
ATOM      7  O   UNL A   1      32.291  24.846  24.896  1.00  0.00    -0.460 OA
BRANCH   7   8
ATOM      8  C   UNL A   1      31.514  25.497  25.794  1.00  0.00     0.338 C 
ATOM      9  O   UNL A   1      30.750  24.961  26.582  1.00  0.00    -0.246 OA
BRANCH   8  10
ATOM     10  C   UNL A   1      31.834  26.969  25.802  1.00  0.00     0.067 C 
ATOM     11  C   UNL A   1      32.506  27.497  26.857  1.00  0.00     0.024 C 
BRANCH  11  12
ATOM     12  C   UNL A   1      33.085  28.858  27.005  1.00  0.00    -0.025 A 
ATOM     13  C   UNL A   1      33.950  31.427  27.740  1.00  0.00     0.067 A 
ATOM     14  C   UNL A   1      34.867  30.384  27.671  1.00  0.00     0.021 A 
ATOM     15  C   UNL A   1      32.637  31.238  27.314  1.00  0.00     0.021 A 
ATOM     16  C   UNL A   1      34.437  29.120  27.266  1.00  0.00     0.009 A 
ATOM     17  C   UNL A   1      32.210  29.955  26.947  1.00  0.00     0.009 A 
BRANCH  13  18
ATOM     18  S   UNL A   1      34.475  32.988  28.404  1.00  0.00     0.175 S 
ATOM     19  C   UNL A   1      33.132  34.088  28.020  1.00  0.00     0.163 C 
ATOM     20  O   UNL A   1      35.628  33.426  27.642  1.00  0.00    -0.224 OA
ATOM     21  O   UNL A   1      34.541  32.831  29.844  1.00  0.00    -0.224 OA
ENDBRANCH  13  18
ENDBRANCH  11  12
BRANCH  10  22
ATOM     22  C   UNL A   1      31.417  27.774  24.634  1.00  0.00    -0.010 A 
ATOM     23  C   UNL A   1      32.355  28.118  23.640  1.00  0.00     0.009 A 
ATOM     24  C   UNL A   1      30.069  28.070  24.421  1.00  0.00     0.024 A 
ATOM     25  C   UNL A   1      31.955  28.726  22.450  1.00  0.00     0.002 A 
ATOM     26  C   UNL A   1      29.672  28.655  23.217  1.00  0.00     0.018 A 
ATOM     27  C   UNL A   1      30.605  28.984  22.233  1.00  0.00     0.016 A 
ATOM     28  Br  UNL A   1      27.832  28.927  22.880  1.00  0.00    -0.051 Br
ENDBRANCH  10  22
ENDBRANCH   8  10
ENDBRANCH   7   8
ENDBRANCH   6   7
ENDBRANCH   5   6
ENDBRANCH   4   5
ENDBRANCH   3   4
ENDBRANCH   2   3
ENDBRANCH   1   2
BRANCH   1  29
ATOM     29  C   UNL A   1      35.385  22.934  26.381  1.00  0.00     0.188 C 
BRANCH  29  30
ATOM     30  C   UNL A   1      35.574  23.027  24.848  1.00  0.00     0.188 C 
BRANCH  30  31
ATOM     31  O   UNL A   1      35.813  21.792  24.193  1.00  0.00    -0.376 OA
BRANCH  31  32
ATOM     32  C   UNL A   1      35.886  20.619  24.983  1.00  0.00     0.202 C 
BRANCH  32  33
ATOM     33  C   UNL A   1      37.231  19.879  25.002  1.00  0.00     0.261 C 
BRANCH  33  34
ATOM     34  O   UNL A   1      38.401  20.709  24.956  1.00  0.00    -0.460 OA
BRANCH  34  35
ATOM     35  C   UNL A   1      39.407  20.384  25.791  1.00  0.00     0.338 C 
ATOM     36  O   UNL A   1      39.943  19.292  25.913  1.00  0.00    -0.246 OA
BRANCH  35  37
ATOM     37  C   UNL A   1      39.905  21.626  26.414  1.00  0.00     0.060 A 
ATOM     38  C   UNL A   1      39.188  22.812  26.216  1.00  0.00     0.016 A 
ATOM     39  C   UNL A   1      41.072  21.619  27.180  1.00  0.00     0.016 A 
ATOM     40  C   UNL A   1      39.672  24.011  26.730  1.00  0.00     0.010 A 
ATOM     41  C   UNL A   1      41.571  22.826  27.676  1.00  0.00     0.010 A 
ATOM     42  C   UNL A   1      40.900  24.031  27.406  1.00  0.00    -0.014 A 
BRANCH  42  43
ATOM     43  C   UNL A   1      41.583  25.333  27.593  1.00  0.00     0.031 A 
ATOM     44  C   UNL A   1      40.882  26.389  28.405  1.00  0.00     0.074 A 
ATOM     45  C   UNL A   1      42.824  25.550  27.126  1.00  0.00     0.049 A 
ATOM     46  N   UNL A   1      41.283  27.588  28.739  1.00  0.00    -0.248 NA
ATOM     47  C   UNL A   1      39.543  26.041  28.912  1.00  0.00     0.031 C 
ATOM     48  C   UNL A   1      43.622  24.590  26.365  1.00  0.00     0.029 A 
ATOM     49  N   UNL A   1      43.631  26.653  27.233  1.00  0.00    -0.354 N 
ATOM     50  C   UNL A   1      40.249  28.135  29.490  1.00  0.00     0.074 A 
ATOM     51  C   UNL A   1      39.185  27.157  29.527  1.00  0.00     0.031 C 
ATOM     52  C   UNL A   1      44.809  25.150  26.072  1.00  0.00     0.029 A 
ATOM     53  C   UNL A   1      44.842  26.513  26.601  1.00  0.00     0.049 A 
ATOM     54  H   UNL A   1      43.368  27.469  27.717  1.00  0.00     0.167 HD
ATOM     55  C   UNL A   1      40.194  29.339  30.106  1.00  0.00     0.037 A 
ATOM     56  C   UNL A   1      45.852  27.391  26.459  1.00  0.00     0.037 A 
ATOM     57  C   UNL A   1      41.252  30.313  30.065  1.00  0.00     0.049 A 
ATOM     58  C   UNL A   1      45.740  28.755  27.095  1.00  0.00     0.074 A 
ATOM     59  C   UNL A   1      41.301  31.559  30.662  1.00  0.00     0.029 A 
ATOM     60  N   UNL A   1      42.447  30.151  29.378  1.00  0.00    -0.354 N 
ATOM     61  N   UNL A   1      44.769  29.253  27.823  1.00  0.00    -0.248 NA
ATOM     62  C   UNL A   1      46.870  29.672  26.896  1.00  0.00     0.031 C 
ATOM     63  C   UNL A   1      42.499  32.176  30.287  1.00  0.00     0.029 A 
ATOM     64  C   UNL A   1      43.229  31.286  29.515  1.00  0.00     0.049 A 
ATOM     65  H   UNL A   1      42.701  29.347  28.869  1.00  0.00     0.167 HD
ATOM     66  C   UNL A   1      45.187  30.525  28.198  1.00  0.00     0.074 A 
ATOM     67  C   UNL A   1      46.507  30.712  27.630  1.00  0.00     0.031 C 
ATOM     68  C   UNL A   1      44.542  31.455  28.947  1.00  0.00     0.037 A 
BRANCH  55  69
ATOM     69  C   UNL A   1      38.934  29.677  30.848  1.00  0.00     0.057 A 
ATOM     70  C   UNL A   1      37.856  30.326  30.230  1.00  0.00     0.134 A 
ATOM     71  C   UNL A   1      38.790  29.333  32.198  1.00  0.00     0.134 A 
ATOM     72  F   UNL A   1      37.933  30.701  28.943  1.00  0.00    -0.206 F 
ATOM     73  C   UNL A   1      36.692  30.644  30.935  1.00  0.00     0.040 A 
ATOM     74  C   UNL A   1      37.619  29.618  32.905  1.00  0.00     0.040 A 
ATOM     75  F   UNL A   1      39.781  28.711  32.852  1.00  0.00    -0.206 F 
ATOM     76  C   UNL A   1      36.570  30.282  32.275  1.00  0.00     0.006 A 
ENDBRANCH  55  69
BRANCH  56  77
ATOM     77  C   UNL A   1      47.063  27.021  25.681  1.00  0.00     0.057 A 
ATOM     78  C   UNL A   1      48.131  26.336  26.273  1.00  0.00     0.134 A 
ATOM     79  C   UNL A   1      47.195  27.376  24.332  1.00  0.00     0.134 A 
ATOM     80  F   UNL A   1      48.076  25.989  27.567  1.00  0.00    -0.206 F 
ATOM     81  C   UNL A   1      49.295  26.039  25.561  1.00  0.00     0.040 A 
ATOM     82  C   UNL A   1      48.340  27.058  23.600  1.00  0.00     0.040 A 
ATOM     83  F   UNL A   1      46.209  28.032  23.705  1.00  0.00    -0.206 F 
ATOM     84  C   UNL A   1      49.399  26.397  24.218  1.00  0.00     0.006 A 
ENDBRANCH  56  77
BRANCH  68  85
ATOM     85  C   UNL A   1      45.275  32.736  29.236  1.00  0.00     0.057 A 
ATOM     86  C   UNL A   1      46.122  32.879  30.344  1.00  0.00     0.134 A 
ATOM     87  C   UNL A   1      45.141  33.840  28.383  1.00  0.00     0.134 A 
ATOM     88  F   UNL A   1      46.290  31.865  31.208  1.00  0.00    -0.206 F 
ATOM     89  C   UNL A   1      46.774  34.083  30.614  1.00  0.00     0.040 A 
ATOM     90  C   UNL A   1      45.816  35.038  28.623  1.00  0.00     0.040 A 
ATOM     91  F   UNL A   1      44.360  33.770  27.295  1.00  0.00    -0.206 F 
ATOM     92  C   UNL A   1      46.626  35.165  29.749  1.00  0.00     0.006 A 
ENDBRANCH  68  85
ENDBRANCH  42  43
ENDBRANCH  35  37
ENDBRANCH  34  35
ENDBRANCH  33  34
ENDBRANCH  32  33
ENDBRANCH  31  32
ENDBRANCH  30  31
ENDBRANCH  29  30
ENDBRANCH   1  29
TORSDOF 23
ENDMDL
MODEL 2
REMARK VINA RESULT:     -10.1      0.778      5.903
REMARK SMILES CS(=O)(=O)c1ccc(/C=C(/C(=O)OCCOCCOCCOCCOC(=O)c2ccc(-c3c4nc(c(-c5c(F)cccc5F)c5ccc([nH]5)c(-c5c(F)cccc5F)c5nc(c(-c6c(F)cccc6F)c6ccc3[nH]6)C=C5)C=C4)cc2)c2cccc(Br)c2)cc1
REMARK SMILES IDX 19 1 18 2 17 3 16 4 15 5 14 6 13 7 11 8 12 9 10 10 9 11 8 12
REMARK SMILES IDX 5 13 6 14 90 15 7 16 89 17 2 18 1 19 3 20 4 21 82 22 83 23
REMARK SMILES IDX 88 24 84 25 86 26 85 27 87 28 20 29 21 30 22 31 23 32 24 33
REMARK SMILES IDX 25 34 26 35 27 36 28 37 29 38 81 39 30 40 80 41 31 42 32 43
REMARK SMILES IDX 33 44 74 45 34 46 79 47 73 48 75 49 35 50 78 51 72 52 71 53
REMARK SMILES IDX 36 55 62 56 45 57 61 58 46 59 49 60 60 61 76 62 47 63 48 64
REMARK SMILES IDX 59 66 77 67 50 68 37 69 38 70 43 71 39 72 40 73 42 74 44 75
REMARK SMILES IDX 41 76 63 77 64 78 69 79 65 80 66 81 68 82 70 83 67 84 51 85
REMARK SMILES IDX 52 86 57 87 53 88 54 89 56 90 58 91 55 92
REMARK H PARENT 75 54 49 65
REMARK Flexibility Score: inf
ROOT
ATOM      1  O   UNL A   1      34.268  22.975  26.284  1.00  0.00    -0.377 OA
ENDROOT
BRANCH   1   2
ATOM      2  C   UNL A   1      33.762  21.653  26.362  1.00  0.00     0.188 C 
BRANCH   2   3
ATOM      3  C   UNL A   1      33.054  21.060  25.122  1.00  0.00     0.188 C 
BRANCH   3   4
ATOM      4  O   UNL A   1      31.805  21.666  24.844  1.00  0.00    -0.376 OA
BRANCH   4   5
ATOM      5  C   UNL A   1      31.758  22.626  23.804  1.00  0.00     0.202 C 
BRANCH   5   6
ATOM      6  C   UNL A   1      31.157  24.010  24.100  1.00  0.00     0.261 C 
BRANCH   6   7
ATOM      7  O   UNL A   1      31.648  24.690  25.269  1.00  0.00    -0.460 OA
BRANCH   7   8
ATOM      8  C   UNL A   1      30.797  25.517  25.920  1.00  0.00     0.338 C 
ATOM      9  O   UNL A   1      29.831  25.158  26.577  1.00  0.00    -0.246 OA
BRANCH   8  10
ATOM     10  C   UNL A   1      31.291  26.939  25.861  1.00  0.00     0.067 C 
ATOM     11  C   UNL A   1      31.925  27.468  26.939  1.00  0.00     0.024 C 
BRANCH  11  12
ATOM     12  C   UNL A   1      32.649  28.760  27.051  1.00  0.00    -0.025 A 
ATOM     13  C   UNL A   1      33.787  31.242  27.716  1.00  0.00     0.067 A 
ATOM     14  C   UNL A   1      34.584  30.102  27.692  1.00  0.00     0.021 A 
ATOM     15  C   UNL A   1      32.464  31.185  27.279  1.00  0.00     0.021 A 
ATOM     16  C   UNL A   1      34.020  28.881  27.322  1.00  0.00     0.009 A 
ATOM     17  C   UNL A   1      31.902  29.945  26.948  1.00  0.00     0.009 A 
BRANCH  13  18
ATOM     18  S   UNL A   1      34.474  32.756  28.337  1.00  0.00     0.175 S 
ATOM     19  C   UNL A   1      33.223  33.969  27.983  1.00  0.00     0.163 C 
ATOM     20  O   UNL A   1      35.634  33.079  27.528  1.00  0.00    -0.224 OA
ATOM     21  O   UNL A   1      34.578  32.612  29.776  1.00  0.00    -0.224 OA
ENDBRANCH  13  18
ENDBRANCH  11  12
BRANCH  10  22
ATOM     22  C   UNL A   1      31.081  27.693  24.607  1.00  0.00    -0.010 A 
ATOM     23  C   UNL A   1      32.098  27.746  23.633  1.00  0.00     0.009 A 
ATOM     24  C   UNL A   1      29.827  28.228  24.302  1.00  0.00     0.024 A 
ATOM     25  C   UNL A   1      31.866  28.302  22.375  1.00  0.00     0.002 A 
ATOM     26  C   UNL A   1      29.593  28.759  23.032  1.00  0.00     0.018 A 
ATOM     27  C   UNL A   1      30.603  28.800  22.070  1.00  0.00     0.016 A 
ATOM     28  Br  UNL A   1      27.858  29.356  22.583  1.00  0.00    -0.051 Br
ENDBRANCH  10  22
ENDBRANCH   8  10
ENDBRANCH   7   8
ENDBRANCH   6   7
ENDBRANCH   5   6
ENDBRANCH   4   5
ENDBRANCH   3   4
ENDBRANCH   2   3
ENDBRANCH   1   2
BRANCH   1  29
ATOM     29  C   UNL A   1      35.637  23.180  25.948  1.00  0.00     0.188 C 
BRANCH  29  30
ATOM     30  C   UNL A   1      36.147  23.015  24.496  1.00  0.00     0.188 C 
BRANCH  30  31
ATOM     31  O   UNL A   1      37.032  21.926  24.288  1.00  0.00    -0.376 OA
BRANCH  31  32
ATOM     32  C   UNL A   1      37.162  20.962  25.317  1.00  0.00     0.202 C 
BRANCH  32  33
ATOM     33  C   UNL A   1      38.404  20.062  25.272  1.00  0.00     0.261 C 
BRANCH  33  34
ATOM     34  O   UNL A   1      39.668  20.738  25.333  1.00  0.00    -0.460 OA
BRANCH  34  35
ATOM     35  C   UNL A   1      40.376  20.597  26.471  1.00  0.00     0.338 C 
ATOM     36  O   UNL A   1      40.891  19.574  26.899  1.00  0.00    -0.246 OA
BRANCH  35  37
ATOM     37  C   UNL A   1      40.604  21.940  27.039  1.00  0.00     0.060 A 
ATOM     38  C   UNL A   1      39.984  23.040  26.435  1.00  0.00     0.016 A 
ATOM     39  C   UNL A   1      41.430  22.110  28.151  1.00  0.00     0.016 A 
ATOM     40  C   UNL A   1      40.239  24.325  26.903  1.00  0.00     0.010 A 
ATOM     41  C   UNL A   1      41.705  23.403  28.607  1.00  0.00     0.010 A 
ATOM     42  C   UNL A   1      41.152  24.515  27.949  1.00  0.00    -0.014 A 
BRANCH  42  43
ATOM     43  C   UNL A   1      41.706  25.872  28.167  1.00  0.00     0.031 A 
ATOM     44  C   UNL A   1      43.045  26.195  27.560  1.00  0.00     0.074 A 
ATOM     45  C   UNL A   1      41.009  26.820  28.816  1.00  0.00     0.049 A 
ATOM     46  N   UNL A   1      43.721  27.314  27.578  1.00  0.00    -0.248 NA
ATOM     47  C   UNL A   1      43.711  25.103  26.829  1.00  0.00     0.031 C 
ATOM     48  C   UNL A   1      39.685  26.642  29.408  1.00  0.00     0.029 A 
ATOM     49  N   UNL A   1      41.324  28.129  29.077  1.00  0.00    -0.354 N 
ATOM     50  C   UNL A   1      44.888  27.060  26.867  1.00  0.00     0.074 A 
ATOM     51  C   UNL A   1      44.849  25.671  26.467  1.00  0.00     0.031 C 
ATOM     52  C   UNL A   1      39.300  27.804  29.967  1.00  0.00     0.029 A 
ATOM     53  C   UNL A   1      40.361  28.795  29.794  1.00  0.00     0.049 A 
ATOM     54  H   UNL A   1      42.162  28.552  28.779  1.00  0.00     0.167 HD
ATOM     55  C   UNL A   1      45.896  27.910  26.561  1.00  0.00     0.037 A 
ATOM     56  C   UNL A   1      40.347  30.057  30.264  1.00  0.00     0.037 A 
ATOM     57  C   UNL A   1      45.934  29.291  26.963  1.00  0.00     0.049 A 
ATOM     58  C   UNL A   1      41.515  30.966  29.971  1.00  0.00     0.074 A 
ATOM     59  C   UNL A   1      46.905  30.239  26.698  1.00  0.00     0.029 A 
ATOM     60  N   UNL A   1      44.959  29.917  27.726  1.00  0.00    -0.354 N 
ATOM     61  N   UNL A   1      42.602  30.724  29.277  1.00  0.00    -0.248 NA
ATOM     62  C   UNL A   1      41.446  32.327  30.519  1.00  0.00     0.031 C 
ATOM     63  C   UNL A   1      46.547  31.424  27.351  1.00  0.00     0.029 A 
ATOM     64  C   UNL A   1      45.318  31.234  27.963  1.00  0.00     0.049 A 
ATOM     65  H   UNL A   1      44.134  29.489  28.049  1.00  0.00     0.167 HD
ATOM     66  C   UNL A   1      43.326  31.911  29.276  1.00  0.00     0.074 A 
ATOM     67  C   UNL A   1      42.545  32.875  30.024  1.00  0.00     0.031 C 
ATOM     68  C   UNL A   1      44.527  32.182  28.706  1.00  0.00     0.037 A 
BRANCH  55  69
ATOM     69  C   UNL A   1      47.053  27.355  25.780  1.00  0.00     0.057 A 
ATOM     70  C   UNL A   1      47.143  27.485  24.388  1.00  0.00     0.134 A 
ATOM     71  C   UNL A   1      48.101  26.696  26.435  1.00  0.00     0.134 A 
ATOM     72  F   UNL A   1      46.164  28.089  23.695  1.00  0.00    -0.206 F 
ATOM     73  C   UNL A   1      48.219  26.955  23.672  1.00  0.00     0.040 A 
ATOM     74  C   UNL A   1      49.198  26.190  25.734  1.00  0.00     0.040 A 
ATOM     75  F   UNL A   1      48.081  26.538  27.766  1.00  0.00    -0.206 F 
ATOM     76  C   UNL A   1      49.254  26.312  24.348  1.00  0.00     0.006 A 
ENDBRANCH  55  69
BRANCH  56  77
ATOM     77  C   UNL A   1      39.195  30.545  31.065  1.00  0.00     0.057 A 
ATOM     78  C   UNL A   1      38.123  31.218  30.469  1.00  0.00     0.134 A 
ATOM     79  C   UNL A   1      39.157  30.380  32.456  1.00  0.00     0.134 A 
ATOM     80  F   UNL A   1      38.111  31.429  29.145  1.00  0.00    -0.206 F 
ATOM     81  C   UNL A   1      37.067  31.731  31.226  1.00  0.00     0.040 A 
ATOM     82  C   UNL A   1      38.094  30.860  33.222  1.00  0.00     0.040 A 
ATOM     83  F   UNL A   1      40.152  29.743  33.090  1.00  0.00    -0.206 F 
ATOM     84  C   UNL A   1      37.049  31.548  32.607  1.00  0.00     0.006 A 
ENDBRANCH  56  77
BRANCH  68  85
ATOM     85  C   UNL A   1      45.045  33.590  28.826  1.00  0.00     0.057 A 
ATOM     86  C   UNL A   1      45.892  33.988  29.869  1.00  0.00     0.134 A 
ATOM     87  C   UNL A   1      44.700  34.557  27.873  1.00  0.00     0.134 A 
ATOM     88  F   UNL A   1      46.255  33.116  30.822  1.00  0.00    -0.206 F 
ATOM     89  C   UNL A   1      46.342  35.304  29.981  1.00  0.00     0.040 A 
ATOM     90  C   UNL A   1      45.172  35.867  27.954  1.00  0.00     0.040 A 
ATOM     91  F   UNL A   1      43.905  34.243  26.838  1.00  0.00    -0.206 F 
ATOM     92  C   UNL A   1      45.986  36.247  29.019  1.00  0.00     0.006 A 
ENDBRANCH  68  85
ENDBRANCH  42  43
ENDBRANCH  35  37
ENDBRANCH  34  35
ENDBRANCH  33  34
ENDBRANCH  32  33
ENDBRANCH  31  32
ENDBRANCH  30  31
ENDBRANCH  29  30
ENDBRANCH   1  29
TORSDOF 23
ENDMDL
MODEL 3
REMARK VINA RESULT:      -9.3      3.797      4.843
REMARK SMILES CS(=O)(=O)c1ccc(/C=C(/C(=O)OCCOCCOCCOCCOC(=O)c2ccc(-c3c4nc(c(-c5c(F)cccc5F)c5ccc([nH]5)c(-c5c(F)cccc5F)c5nc(c(-c6c(F)cccc6F)c6ccc3[nH]6)C=C5)C=C4)cc2)c2cccc(Br)c2)cc1
REMARK SMILES IDX 19 1 18 2 17 3 16 4 15 5 14 6 13 7 11 8 12 9 10 10 9 11 8 12
REMARK SMILES IDX 5 13 6 14 90 15 7 16 89 17 2 18 1 19 3 20 4 21 82 22 83 23
REMARK SMILES IDX 88 24 84 25 86 26 85 27 87 28 20 29 21 30 22 31 23 32 24 33
REMARK SMILES IDX 25 34 26 35 27 36 28 37 29 38 81 39 30 40 80 41 31 42 32 43
REMARK SMILES IDX 33 44 74 45 34 46 79 47 73 48 75 49 35 50 78 51 72 52 71 53
REMARK SMILES IDX 36 55 62 56 45 57 61 58 46 59 49 60 60 61 76 62 47 63 48 64
REMARK SMILES IDX 59 66 77 67 50 68 37 69 38 70 43 71 39 72 40 73 42 74 44 75
REMARK SMILES IDX 41 76 63 77 64 78 69 79 65 80 66 81 68 82 70 83 67 84 51 85
REMARK SMILES IDX 52 86 57 87 53 88 54 89 56 90 58 91 55 92
REMARK H PARENT 75 54 49 65
REMARK Flexibility Score: inf
ROOT
ATOM      1  O   UNL A   1      33.341  22.937  26.721  1.00  0.00    -0.377 OA
ENDROOT
BRANCH   1   2
ATOM      2  C   UNL A   1      33.023  21.574  26.495  1.00  0.00     0.188 C 
BRANCH   2   3
ATOM      3  C   UNL A   1      32.730  21.116  25.047  1.00  0.00     0.188 C 
BRANCH   3   4
ATOM      4  O   UNL A   1      31.584  21.728  24.484  1.00  0.00    -0.376 OA
BRANCH   4   5
ATOM      5  C   UNL A   1      31.781  22.615  23.399  1.00  0.00     0.202 C 
BRANCH   5   6
ATOM      6  C   UNL A   1      31.330  24.078  23.547  1.00  0.00     0.261 C 
BRANCH   6   7
ATOM      7  O   UNL A   1      32.048  24.881  24.500  1.00  0.00    -0.460 OA
BRANCH   7   8
ATOM      8  C   UNL A   1      31.334  25.490  25.475  1.00  0.00     0.338 C 
ATOM      9  O   UNL A   1      30.594  24.923  26.265  1.00  0.00    -0.246 OA
BRANCH   8  10
ATOM     10  C   UNL A   1      31.694  26.950  25.562  1.00  0.00     0.067 C 
ATOM     11  C   UNL A   1      32.423  27.394  26.618  1.00  0.00     0.024 C 
BRANCH  11  12
ATOM     12  C   UNL A   1      33.044  28.727  26.825  1.00  0.00    -0.025 A 
ATOM     13  C   UNL A   1      34.012  31.221  27.683  1.00  0.00     0.067 A 
ATOM     14  C   UNL A   1      34.897  30.164  27.502  1.00  0.00     0.021 A 
ATOM     15  C   UNL A   1      32.676  31.092  27.311  1.00  0.00     0.021 A 
ATOM     16  C   UNL A   1      34.414  28.940  27.037  1.00  0.00     0.009 A 
ATOM     17  C   UNL A   1      32.198  29.847  26.882  1.00  0.00     0.009 A 
BRANCH  13  18
ATOM     18  S   UNL A   1      34.610  32.722  28.421  1.00  0.00     0.175 S 
ATOM     19  C   UNL A   1      33.325  33.904  28.083  1.00  0.00     0.163 C 
ATOM     20  O   UNL A   1      35.788  33.137  27.685  1.00  0.00    -0.224 OA
ATOM     21  O   UNL A   1      34.659  32.496  29.852  1.00  0.00    -0.224 OA
ENDBRANCH  13  18
ENDBRANCH  11  12
BRANCH  10  22
ATOM     22  C   UNL A   1      31.251  27.839  24.465  1.00  0.00    -0.010 A 
ATOM     23  C   UNL A   1      32.174  28.281  23.496  1.00  0.00     0.009 A 
ATOM     24  C   UNL A   1      29.896  28.123  24.286  1.00  0.00     0.024 A 
ATOM     25  C   UNL A   1      31.752  28.974  22.362  1.00  0.00     0.002 A 
ATOM     26  C   UNL A   1      29.477  28.794  23.136  1.00  0.00     0.018 A 
ATOM     27  C   UNL A   1      30.395  29.221  22.176  1.00  0.00     0.016 A 
ATOM     28  Br  UNL A   1      27.630  29.055  22.835  1.00  0.00    -0.051 Br
ENDBRANCH  10  22
ENDBRANCH   8  10
ENDBRANCH   7   8
ENDBRANCH   6   7
ENDBRANCH   5   6
ENDBRANCH   4   5
ENDBRANCH   3   4
ENDBRANCH   2   3
ENDBRANCH   1   2
BRANCH   1  29
ATOM     29  C   UNL A   1      34.700  23.358  26.650  1.00  0.00     0.188 C 
BRANCH  29  30
ATOM     30  C   UNL A   1      35.306  23.914  25.339  1.00  0.00     0.188 C 
BRANCH  30  31
ATOM     31  O   UNL A   1      36.323  23.115  24.757  1.00  0.00    -0.376 OA
BRANCH  31  32
ATOM     32  C   UNL A   1      36.447  21.772  25.188  1.00  0.00     0.202 C 
BRANCH  32  33
ATOM     33  C   UNL A   1      37.827  21.118  25.032  1.00  0.00     0.261 C 
BRANCH  33  34
ATOM     34  O   UNL A   1      38.865  21.643  25.872  1.00  0.00    -0.460 OA
BRANCH  34  35
ATOM     35  C   UNL A   1      39.899  20.821  26.141  1.00  0.00     0.338 C 
ATOM     36  O   UNL A   1      40.088  19.700  25.692  1.00  0.00    -0.246 OA
BRANCH  35  37
ATOM     37  C   UNL A   1      40.891  21.576  26.930  1.00  0.00     0.060 A 
ATOM     38  C   UNL A   1      40.658  22.934  27.183  1.00  0.00     0.016 A 
ATOM     39  C   UNL A   1      42.044  20.951  27.408  1.00  0.00     0.016 A 
ATOM     40  C   UNL A   1      41.611  23.688  27.861  1.00  0.00     0.010 A 
ATOM     41  C   UNL A   1      43.012  21.713  28.068  1.00  0.00     0.010 A 
ATOM     42  C   UNL A   1      42.820  23.094  28.248  1.00  0.00    -0.014 A 
BRANCH  42  43
ATOM     43  C   UNL A   1      43.959  23.974  28.600  1.00  0.00     0.031 A 
ATOM     44  C   UNL A   1      44.316  24.120  30.056  1.00  0.00     0.074 A 
ATOM     45  C   UNL A   1      44.709  24.566  27.655  1.00  0.00     0.049 A 
ATOM     46  N   UNL A   1      45.285  24.799  30.613  1.00  0.00    -0.248 NA
ATOM     47  C   UNL A   1      43.461  23.397  31.013  1.00  0.00     0.031 C 
ATOM     48  C   UNL A   1      44.491  24.463  26.214  1.00  0.00     0.029 A 
ATOM     49  N   UNL A   1      45.815  25.367  27.775  1.00  0.00    -0.354 N 
ATOM     50  C   UNL A   1      45.155  24.587  31.980  1.00  0.00     0.074 A 
ATOM     51  C   UNL A   1      43.989  23.754  32.173  1.00  0.00     0.031 C 
ATOM     52  C   UNL A   1      45.437  25.179  25.581  1.00  0.00     0.029 A 
ATOM     53  C   UNL A   1      46.307  25.809  26.572  1.00  0.00     0.049 A 
ATOM     54  H   UNL A   1      46.219  25.604  28.641  1.00  0.00     0.167 HD
ATOM     55  C   UNL A   1      45.942  25.035  32.986  1.00  0.00     0.037 A 
ATOM     56  C   UNL A   1      47.336  26.637  26.308  1.00  0.00     0.037 A 
ATOM     57  C   UNL A   1      47.099  25.867  32.792  1.00  0.00     0.049 A 
ATOM     58  C   UNL A   1      48.157  27.182  27.450  1.00  0.00     0.074 A 
ATOM     59  C   UNL A   1      47.970  26.368  33.743  1.00  0.00     0.029 A 
ATOM     60  N   UNL A   1      47.541  26.330  31.561  1.00  0.00    -0.354 N 
ATOM     61  N   UNL A   1      48.041  26.956  28.737  1.00  0.00    -0.248 NA
ATOM     62  C   UNL A   1      49.259  28.087  27.099  1.00  0.00     0.031 C 
ATOM     63  C   UNL A   1      48.903  27.183  33.093  1.00  0.00     0.029 A 
ATOM     64  C   UNL A   1      48.658  27.132  31.730  1.00  0.00     0.049 A 
ATOM     65  H   UNL A   1      47.123  26.118  30.695  1.00  0.00     0.167 HD
ATOM     66  C   UNL A   1      49.075  27.661  29.344  1.00  0.00     0.074 A 
ATOM     67  C   UNL A   1      49.816  28.307  28.280  1.00  0.00     0.031 C 
ATOM     68  C   UNL A   1      49.387  27.765  30.660  1.00  0.00     0.037 A 
BRANCH  55  69
ATOM     69  C   UNL A   1      45.555  24.656  34.386  1.00  0.00     0.057 A 
ATOM     70  C   UNL A   1      44.755  25.483  35.188  1.00  0.00     0.134 A 
ATOM     71  C   UNL A   1      45.973  23.437  34.935  1.00  0.00     0.134 A 
ATOM     72  F   UNL A   1      44.335  26.673  34.732  1.00  0.00    -0.206 F 
ATOM     73  C   UNL A   1      44.410  25.124  36.493  1.00  0.00     0.040 A 
ATOM     74  C   UNL A   1      45.609  23.053  36.227  1.00  0.00     0.040 A 
ATOM     75  F   UNL A   1      46.739  22.597  34.224  1.00  0.00    -0.206 F 
ATOM     76  C   UNL A   1      44.832  23.901  37.012  1.00  0.00     0.006 A 
ENDBRANCH  55  69
BRANCH  56  77
ATOM     77  C   UNL A   1      47.654  27.012  24.906  1.00  0.00     0.057 A 
ATOM     78  C   UNL A   1      46.867  27.929  24.198  1.00  0.00     0.134 A 
ATOM     79  C   UNL A   1      48.733  26.433  24.226  1.00  0.00     0.134 A 
ATOM     80  F   UNL A   1      45.805  28.501  24.784  1.00  0.00    -0.206 F 
ATOM     81  C   UNL A   1      47.127  28.239  22.861  1.00  0.00     0.040 A 
ATOM     82  C   UNL A   1      49.023  26.756  22.900  1.00  0.00     0.040 A 
ATOM     83  F   UNL A   1      49.527  25.548  24.846  1.00  0.00    -0.206 F 
ATOM     84  C   UNL A   1      48.211  27.654  22.210  1.00  0.00     0.006 A 
ENDBRANCH  56  77
BRANCH  68  85
ATOM     85  C   UNL A   1      50.610  28.564  31.018  1.00  0.00     0.057 A 
ATOM     86  C   UNL A   1      50.545  29.928  31.330  1.00  0.00     0.134 A 
ATOM     87  C   UNL A   1      51.870  27.953  31.064  1.00  0.00     0.134 A 
ATOM     88  F   UNL A   1      49.372  30.580  31.297  1.00  0.00    -0.206 F 
ATOM     89  C   UNL A   1      51.693  30.663  31.635  1.00  0.00     0.040 A 
ATOM     90  C   UNL A   1      53.019  28.668  31.402  1.00  0.00     0.040 A 
ATOM     91  F   UNL A   1      52.004  26.646  30.792  1.00  0.00    -0.206 F 
ATOM     92  C   UNL A   1      52.934  30.031  31.676  1.00  0.00     0.006 A 
ENDBRANCH  68  85
ENDBRANCH  42  43
ENDBRANCH  35  37
ENDBRANCH  34  35
ENDBRANCH  33  34
ENDBRANCH  32  33
ENDBRANCH  31  32
ENDBRANCH  30  31
ENDBRANCH  29  30
ENDBRANCH   1  29
TORSDOF 23
ENDMDL
