MODEL 1
REMARK VINA RESULT:      -9.4      0.000      0.000
REMARK SMILES CC(C)[C@@](C)(CC(=O)N[C@H]1CCCC1(C)C)C(=O)OCCOCCOCCOCCOC(=O)c1ccc(-c2c3nc(c(-c4c(F)cccc4F)c4ccc([nH]4)c(-c4c(F)cccc4F)c4nc(c(-c5c(F)cccc5F)c5ccc2[nH]5)C=C4)C=C3)cc1
REMARK SMILES IDX 24 1 23 2 22 3 21 4 20 5 19 6 17 7 18 8 4 9 5 10 2 11 1 12
REMARK SMILES IDX 3 13 6 14 7 15 8 16 9 17 10 19 11 20 14 21 12 22 13 23 15 24
REMARK SMILES IDX 16 25 25 26 26 27 27 28 28 29 29 30 30 31 31 32 32 33 33 34
REMARK SMILES IDX 34 35 35 36 87 37 36 38 86 39 37 40 38 41 39 42 80 43 40 44
REMARK SMILES IDX 85 45 79 46 81 47 41 48 84 49 78 50 77 51 42 53 68 54 51 55
REMARK SMILES IDX 67 56 52 57 55 58 66 59 82 60 53 61 54 62 65 64 83 65 56 66
REMARK SMILES IDX 43 67 44 68 49 69 45 70 46 71 48 72 50 73 47 74 69 75 70 76
REMARK SMILES IDX 75 77 71 78 72 79 74 80 76 81 73 82 57 83 58 84 63 85 59 86
REMARK SMILES IDX 60 87 62 88 64 89 61 90
REMARK H PARENT 9 18 81 52 55 63
REMARK Flexibility Score: inf
ROOT
ATOM      1  C   UNL A   1      35.258  32.423  27.972  1.00  0.00     0.188 C 
ENDROOT
BRANCH   1   2
ATOM      2  C   UNL A   1      34.157  31.363  27.741  1.00  0.00     0.188 C 
BRANCH   2   3
ATOM      3  O   UNL A   1      34.567  30.271  26.936  1.00  0.00    -0.376 OA
BRANCH   3   4
ATOM      4  C   UNL A   1      33.516  29.415  26.516  1.00  0.00     0.202 C 
BRANCH   4   5
ATOM      5  C   UNL A   1      33.857  27.960  26.125  1.00  0.00     0.261 C 
BRANCH   5   6
ATOM      6  O   UNL A   1      33.117  27.424  24.994  1.00  0.00    -0.463 OA
BRANCH   6   7
ATOM      7  C   UNL A   1      32.053  26.642  25.231  1.00  0.00     0.312 C 
ATOM      8  O   UNL A   1      31.757  26.308  26.380  1.00  0.00    -0.252 OA
BRANCH   7   9
ATOM      9  C   UNL A   1      31.133  26.281  24.003  1.00  0.00     0.076 C 
ATOM     10  C   UNL A   1      30.211  25.199  24.677  1.00  0.00     0.024 C 
BRANCH   9  11
ATOM     11  C   UNL A   1      30.356  27.567  23.631  1.00  0.00     0.000 C 
ATOM     12  C   UNL A   1      30.873  28.353  22.421  1.00  0.00     0.008 C 
ATOM     13  C   UNL A   1      28.823  27.445  23.515  1.00  0.00     0.008 C 
ENDBRANCH   9  11
BRANCH   9  14
ATOM     14  C   UNL A   1      31.614  25.513  22.702  1.00  0.00     0.118 C 
BRANCH  14  15
ATOM     15  C   UNL A   1      33.083  25.234  22.279  1.00  0.00     0.221 C 
ATOM     16  O   UNL A   1      33.650  26.161  21.665  1.00  0.00    -0.275 OA
ATOM     17  N   UNL A   1      33.930  24.191  22.447  1.00  0.00    -0.353 N 
ATOM     18  H   UNL A   1      34.460  24.137  21.619  1.00  0.00     0.163 HD
BRANCH  17  19
ATOM     19  C   UNL A   1      34.427  23.073  23.331  1.00  0.00     0.087 C 
ATOM     20  C   UNL A   1      35.410  23.660  24.344  1.00  0.00     0.025 C 
ATOM     21  C   UNL A   1      33.553  22.142  24.231  1.00  0.00    -0.015 C 
ATOM     22  C   UNL A   1      34.553  23.895  25.591  1.00  0.00     0.003 C 
ATOM     23  C   UNL A   1      33.231  23.126  25.361  1.00  0.00     0.008 C 
ATOM     24  C   UNL A   1      32.479  21.308  23.521  1.00  0.00     0.013 C 
ATOM     25  C   UNL A   1      34.374  20.982  24.892  1.00  0.00     0.013 C 
ENDBRANCH  17  19
ENDBRANCH  14  15
ENDBRANCH   9  14
ENDBRANCH   7   9
ENDBRANCH   6   7
ENDBRANCH   5   6
ENDBRANCH   4   5
ENDBRANCH   3   4
ENDBRANCH   2   3
ENDBRANCH   1   2
BRANCH   1  26
ATOM     26  O   UNL A   1      34.897  33.786  27.938  1.00  0.00    -0.377 OA
BRANCH  26  27
ATOM     27  C   UNL A   1      33.739  34.150  28.655  1.00  0.00     0.188 C 
BRANCH  27  28
ATOM     28  C   UNL A   1      33.891  34.893  29.999  1.00  0.00     0.188 C 
BRANCH  28  29
ATOM     29  O   UNL A   1      33.982  34.070  31.155  1.00  0.00    -0.376 OA
BRANCH  29  30
ATOM     30  C   UNL A   1      35.163  34.165  31.941  1.00  0.00     0.202 C 
BRANCH  30  31
ATOM     31  C   UNL A   1      36.493  33.750  31.294  1.00  0.00     0.261 C 
BRANCH  31  32
ATOM     32  O   UNL A   1      37.080  32.533  31.772  1.00  0.00    -0.460 OA
BRANCH  32  33
ATOM     33  C   UNL A   1      36.758  31.376  31.159  1.00  0.00     0.338 C 
ATOM     34  O   UNL A   1      35.643  30.944  30.926  1.00  0.00    -0.246 OA
BRANCH  33  35
ATOM     35  C   UNL A   1      38.018  30.827  30.617  1.00  0.00     0.060 A 
ATOM     36  C   UNL A   1      38.960  30.294  31.511  1.00  0.00     0.016 A 
ATOM     37  C   UNL A   1      38.201  30.706  29.237  1.00  0.00     0.016 A 
ATOM     38  C   UNL A   1      40.066  29.603  31.023  1.00  0.00     0.010 A 
ATOM     39  C   UNL A   1      39.347  30.076  28.749  1.00  0.00     0.010 A 
ATOM     40  C   UNL A   1      40.288  29.535  29.641  1.00  0.00    -0.014 A 
BRANCH  40  41
ATOM     41  C   UNL A   1      41.640  29.179  29.160  1.00  0.00     0.031 A 
ATOM     42  C   UNL A   1      41.848  27.755  28.729  1.00  0.00     0.074 A 
ATOM     43  C   UNL A   1      42.637  30.077  29.074  1.00  0.00     0.049 A 
ATOM     44  N   UNL A   1      42.924  27.166  28.280  1.00  0.00    -0.248 NA
ATOM     45  C   UNL A   1      40.669  26.873  28.815  1.00  0.00     0.031 C 
ATOM     46  C   UNL A   1      42.540  31.493  29.419  1.00  0.00     0.029 A 
ATOM     47  N   UNL A   1      43.939  29.916  28.670  1.00  0.00    -0.354 N 
ATOM     48  C   UNL A   1      42.549  25.854  28.024  1.00  0.00     0.074 A 
ATOM     49  C   UNL A   1      41.158  25.720  28.392  1.00  0.00     0.031 C 
ATOM     50  C   UNL A   1      43.742  32.070  29.227  1.00  0.00     0.029 A 
ATOM     51  C   UNL A   1      44.695  31.058  28.772  1.00  0.00     0.049 A 
ATOM     52  H   UNL A   1      44.298  29.061  28.338  1.00  0.00     0.167 HD
ATOM     53  C   UNL A   1      43.296  24.847  27.518  1.00  0.00     0.037 A 
ATOM     54  C   UNL A   1      46.010  31.246  28.545  1.00  0.00     0.037 A 
ATOM     55  C   UNL A   1      44.685  24.976  27.182  1.00  0.00     0.049 A 
ATOM     56  C   UNL A   1      46.847  30.082  28.072  1.00  0.00     0.074 A 
ATOM     57  C   UNL A   1      45.542  24.017  26.675  1.00  0.00     0.029 A 
ATOM     58  N   UNL A   1      45.426  26.138  27.339  1.00  0.00    -0.354 N 
ATOM     59  N   UNL A   1      46.482  28.850  27.806  1.00  0.00    -0.248 NA
ATOM     60  C   UNL A   1      48.281  30.336  27.865  1.00  0.00     0.031 C 
ATOM     61  C   UNL A   1      46.815  24.584  26.573  1.00  0.00     0.029 A 
ATOM     62  C   UNL A   1      46.737  25.914  26.959  1.00  0.00     0.049 A 
ATOM     63  H   UNL A   1      45.072  26.995  27.670  1.00  0.00     0.167 HD
ATOM     64  C   UNL A   1      47.628  28.194  27.372  1.00  0.00     0.074 A 
ATOM     65  C   UNL A   1      48.700  29.168  27.399  1.00  0.00     0.031 C 
ATOM     66  C   UNL A   1      47.784  26.904  26.985  1.00  0.00     0.037 A 
BRANCH  53  67
ATOM     67  C   UNL A   1      42.624  23.519  27.342  1.00  0.00     0.057 A 
ATOM     68  C   UNL A   1      42.428  22.641  28.416  1.00  0.00     0.134 A 
ATOM     69  C   UNL A   1      42.169  23.113  26.082  1.00  0.00     0.134 A 
ATOM     70  F   UNL A   1      42.867  22.959  29.644  1.00  0.00    -0.206 F 
ATOM     71  C   UNL A   1      41.819  21.397  28.238  1.00  0.00     0.040 A 
ATOM     72  C   UNL A   1      41.535  21.884  25.897  1.00  0.00     0.040 A 
ATOM     73  F   UNL A   1      42.334  23.904  25.011  1.00  0.00    -0.206 F 
ATOM     74  C   UNL A   1      41.364  21.021  26.977  1.00  0.00     0.006 A 
ENDBRANCH  53  67
BRANCH  54  75
ATOM     75  C   UNL A   1      46.632  32.576  28.778  1.00  0.00     0.057 A 
ATOM     76  C   UNL A   1      47.112  32.948  30.040  1.00  0.00     0.134 A 
ATOM     77  C   UNL A   1      46.720  33.526  27.753  1.00  0.00     0.134 A 
ATOM     78  F   UNL A   1      47.030  32.094  31.071  1.00  0.00    -0.206 F 
ATOM     79  C   UNL A   1      47.638  34.220  30.279  1.00  0.00     0.040 A 
ATOM     80  C   UNL A   1      47.268  34.793  27.971  1.00  0.00     0.040 A 
ATOM     81  F   UNL A   1      46.274  33.240  26.522  1.00  0.00    -0.206 F 
ATOM     82  C   UNL A   1      47.720  35.145  29.241  1.00  0.00     0.006 A 
ENDBRANCH  54  75
BRANCH  66  83
ATOM     83  C   UNL A   1      49.146  26.480  26.516  1.00  0.00     0.057 A 
ATOM     84  C   UNL A   1      49.995  25.699  27.309  1.00  0.00     0.134 A 
ATOM     85  C   UNL A   1      49.589  26.814  25.229  1.00  0.00     0.134 A 
ATOM     86  F   UNL A   1      49.634  25.352  28.554  1.00  0.00    -0.206 F 
ATOM     87  C   UNL A   1      51.245  25.283  26.847  1.00  0.00     0.040 A 
ATOM     88  C   UNL A   1      50.822  26.380  24.745  1.00  0.00     0.040 A 
ATOM     89  F   UNL A   1      48.819  27.548  24.412  1.00  0.00    -0.206 F 
ATOM     90  C   UNL A   1      51.658  25.618  25.559  1.00  0.00     0.006 A 
ENDBRANCH  66  83
ENDBRANCH  40  41
ENDBRANCH  33  35
ENDBRANCH  32  33
ENDBRANCH  31  32
ENDBRANCH  30  31
ENDBRANCH  29  30
ENDBRANCH  28  29
ENDBRANCH  27  28
ENDBRANCH  26  27
ENDBRANCH   1  26
TORSDOF 24
ENDMDL
MODEL 2
REMARK VINA RESULT:      -9.0      5.004     10.310
REMARK SMILES CC(C)[C@@](C)(CC(=O)N[C@H]1CCCC1(C)C)C(=O)OCCOCCOCCOCCOC(=O)c1ccc(-c2c3nc(c(-c4c(F)cccc4F)c4ccc([nH]4)c(-c4c(F)cccc4F)c4nc(c(-c5c(F)cccc5F)c5ccc2[nH]5)C=C4)C=C3)cc1
REMARK SMILES IDX 24 1 23 2 22 3 21 4 20 5 19 6 17 7 18 8 4 9 5 10 2 11 1 12
REMARK SMILES IDX 3 13 6 14 7 15 8 16 9 17 10 19 11 20 14 21 12 22 13 23 15 24
REMARK SMILES IDX 16 25 25 26 26 27 27 28 28 29 29 30 30 31 31 32 32 33 33 34
REMARK SMILES IDX 34 35 35 36 87 37 36 38 86 39 37 40 38 41 39 42 80 43 40 44
REMARK SMILES IDX 85 45 79 46 81 47 41 48 84 49 78 50 77 51 42 53 68 54 51 55
REMARK SMILES IDX 67 56 52 57 55 58 66 59 82 60 53 61 54 62 65 64 83 65 56 66
REMARK SMILES IDX 43 67 44 68 49 69 45 70 46 71 48 72 50 73 47 74 69 75 70 76
REMARK SMILES IDX 75 77 71 78 72 79 74 80 76 81 73 82 57 83 58 84 63 85 59 86
REMARK SMILES IDX 60 87 62 88 64 89 61 90
REMARK H PARENT 9 18 81 52 55 63
REMARK Flexibility Score: inf
ROOT
ATOM      1  C   UNL A   1      41.849  21.244  26.072  1.00  0.00     0.188 C 
ENDROOT
BRANCH   1   2
ATOM      2  C   UNL A   1      41.246  21.631  27.440  1.00  0.00     0.188 C 
BRANCH   2   3
ATOM      3  O   UNL A   1      39.847  21.860  27.410  1.00  0.00    -0.376 OA
BRANCH   3   4
ATOM      4  C   UNL A   1      39.324  22.176  26.128  1.00  0.00     0.202 C 
BRANCH   4   5
ATOM      5  C   UNL A   1      38.108  23.125  26.038  1.00  0.00     0.261 C 
BRANCH   5   6
ATOM      6  O   UNL A   1      36.905  22.548  25.459  1.00  0.00    -0.463 OA
BRANCH   6   7
ATOM      7  C   UNL A   1      35.804  23.311  25.369  1.00  0.00     0.312 C 
ATOM      8  O   UNL A   1      35.886  24.540  25.346  1.00  0.00    -0.252 OA
BRANCH   7   9
ATOM      9  C   UNL A   1      34.428  22.571  25.162  1.00  0.00     0.076 C 
ATOM     10  C   UNL A   1      34.955  21.122  24.852  1.00  0.00     0.024 C 
BRANCH   9  11
ATOM     11  C   UNL A   1      33.670  22.646  26.510  1.00  0.00     0.000 C 
ATOM     12  C   UNL A   1      32.140  22.591  26.438  1.00  0.00     0.008 C 
ATOM     13  C   UNL A   1      34.142  21.694  27.627  1.00  0.00     0.008 C 
ENDBRANCH   9  11
BRANCH   9  14
ATOM     14  C   UNL A   1      33.442  22.811  23.943  1.00  0.00     0.118 C 
BRANCH  14  15
ATOM     15  C   UNL A   1      33.575  23.899  22.841  1.00  0.00     0.221 C 
ATOM     16  O   UNL A   1      33.887  23.480  21.708  1.00  0.00    -0.275 OA
ATOM     17  N   UNL A   1      33.403  25.242  22.817  1.00  0.00    -0.353 N 
ATOM     18  H   UNL A   1      34.092  25.592  22.209  1.00  0.00     0.163 HD
BRANCH  17  19
ATOM     19  C   UNL A   1      32.630  26.443  23.305  1.00  0.00     0.087 C 
ATOM     20  C   UNL A   1      31.638  25.979  24.371  1.00  0.00     0.025 C 
ATOM     21  C   UNL A   1      33.229  27.729  23.958  1.00  0.00    -0.015 C 
ATOM     22  C   UNL A   1      32.366  26.255  25.691  1.00  0.00     0.003 C 
ATOM     23  C   UNL A   1      33.566  27.167  25.343  1.00  0.00     0.008 C 
ATOM     24  C   UNL A   1      34.235  28.526  23.117  1.00  0.00     0.013 C 
ATOM     25  C   UNL A   1      32.160  28.850  24.198  1.00  0.00     0.013 C 
ENDBRANCH  17  19
ENDBRANCH  14  15
ENDBRANCH   9  14
ENDBRANCH   7   9
ENDBRANCH   6   7
ENDBRANCH   5   6
ENDBRANCH   4   5
ENDBRANCH   3   4
ENDBRANCH   2   3
ENDBRANCH   1   2
BRANCH   1  26
ATOM     26  O   UNL A   1      42.538  22.231  25.337  1.00  0.00    -0.377 OA
BRANCH  26  27
ATOM     27  C   UNL A   1      43.735  21.830  24.710  1.00  0.00     0.188 C 
BRANCH  27  28
ATOM     28  C   UNL A   1      44.819  21.118  25.547  1.00  0.00     0.188 C 
BRANCH  28  29
ATOM     29  O   UNL A   1      45.913  21.927  25.961  1.00  0.00    -0.376 OA
BRANCH  29  30
ATOM     30  C   UNL A   1      45.620  23.099  26.709  1.00  0.00     0.202 C 
BRANCH  30  31
ATOM     31  C   UNL A   1      46.599  24.279  26.609  1.00  0.00     0.261 C 
BRANCH  31  32
ATOM     32  O   UNL A   1      46.157  25.408  25.844  1.00  0.00    -0.460 OA
BRANCH  32  33
ATOM     33  C   UNL A   1      44.855  25.489  25.507  1.00  0.00     0.338 C 
ATOM     34  O   UNL A   1      44.293  24.945  24.573  1.00  0.00    -0.246 OA
BRANCH  33  35
ATOM     35  C   UNL A   1      44.179  26.190  26.620  1.00  0.00     0.060 A 
ATOM     36  C   UNL A   1      44.503  27.534  26.866  1.00  0.00     0.016 A 
ATOM     37  C   UNL A   1      43.136  25.573  27.314  1.00  0.00     0.016 A 
ATOM     38  C   UNL A   1      43.754  28.272  27.778  1.00  0.00     0.010 A 
ATOM     39  C   UNL A   1      42.433  26.294  28.281  1.00  0.00     0.010 A 
ATOM     40  C   UNL A   1      42.750  27.641  28.524  1.00  0.00    -0.014 A 
BRANCH  40  41
ATOM     41  C   UNL A   1      42.261  28.304  29.752  1.00  0.00     0.031 A 
ATOM     42  C   UNL A   1      40.979  29.079  29.634  1.00  0.00     0.074 A 
ATOM     43  C   UNL A   1      42.898  28.203  30.931  1.00  0.00     0.049 A 
ATOM     44  N   UNL A   1      40.331  29.764  30.537  1.00  0.00    -0.248 NA
ATOM     45  C   UNL A   1      40.339  29.075  28.306  1.00  0.00     0.031 C 
ATOM     46  C   UNL A   1      44.121  27.442  31.176  1.00  0.00     0.029 A 
ATOM     47  N   UNL A   1      42.596  28.758  32.149  1.00  0.00    -0.354 N 
ATOM     48  C   UNL A   1      39.208  30.261  29.889  1.00  0.00     0.074 A 
ATOM     49  C   UNL A   1      39.273  29.828  28.513  1.00  0.00     0.031 C 
ATOM     50  C   UNL A   1      44.476  27.594  32.467  1.00  0.00     0.029 A 
ATOM     51  C   UNL A   1      43.519  28.482  33.127  1.00  0.00     0.049 A 
ATOM     52  H   UNL A   1      41.792  29.305  32.308  1.00  0.00     0.167 HD
ATOM     53  C   UNL A   1      38.203  31.010  30.399  1.00  0.00     0.037 A 
ATOM     54  C   UNL A   1      43.587  28.921  34.400  1.00  0.00     0.037 A 
ATOM     55  C   UNL A   1      38.158  31.464  31.759  1.00  0.00     0.049 A 
ATOM     56  C   UNL A   1      42.504  29.834  34.920  1.00  0.00     0.074 A 
ATOM     57  C   UNL A   1      37.194  32.238  32.377  1.00  0.00     0.029 A 
ATOM     58  N   UNL A   1      39.133  31.197  32.708  1.00  0.00    -0.354 N 
ATOM     59  N   UNL A   1      41.431  30.281  34.311  1.00  0.00    -0.248 NA
ATOM     60  C   UNL A   1      42.642  30.306  36.306  1.00  0.00     0.031 C 
ATOM     61  C   UNL A   1      37.612  32.484  33.688  1.00  0.00     0.029 A 
ATOM     62  C   UNL A   1      38.805  31.812  33.904  1.00  0.00     0.049 A 
ATOM     63  H   UNL A   1      39.938  30.652  32.555  1.00  0.00     0.167 HD
ATOM     64  C   UNL A   1      40.751  31.054  35.246  1.00  0.00     0.074 A 
ATOM     65  C   UNL A   1      41.529  31.008  36.467  1.00  0.00     0.031 C 
ATOM     66  C   UNL A   1      39.591  31.741  35.110  1.00  0.00     0.037 A 
BRANCH  53  67
ATOM     67  C   UNL A   1      37.105  31.408  29.461  1.00  0.00     0.057 A 
ATOM     68  C   UNL A   1      37.061  32.676  28.867  1.00  0.00     0.134 A 
ATOM     69  C   UNL A   1      36.076  30.511  29.149  1.00  0.00     0.134 A 
ATOM     70  F   UNL A   1      38.002  33.591  29.147  1.00  0.00    -0.206 F 
ATOM     71  C   UNL A   1      36.022  33.044  28.010  1.00  0.00     0.040 A 
ATOM     72  C   UNL A   1      35.047  30.858  28.272  1.00  0.00     0.040 A 
ATOM     73  F   UNL A   1      36.053  29.284  29.690  1.00  0.00    -0.206 F 
ATOM     74  C   UNL A   1      35.016  32.130  27.705  1.00  0.00     0.006 A 
ENDBRANCH  53  67
BRANCH  54  75
ATOM     75  C   UNL A   1      44.725  28.528  35.273  1.00  0.00     0.057 A 
ATOM     76  C   UNL A   1      45.904  29.283  35.323  1.00  0.00     0.134 A 
ATOM     77  C   UNL A   1      44.679  27.361  36.045  1.00  0.00     0.134 A 
ATOM     78  F   UNL A   1      46.023  30.396  34.584  1.00  0.00    -0.206 F 
ATOM     79  C   UNL A   1      47.000  28.882  36.091  1.00  0.00     0.040 A 
ATOM     80  C   UNL A   1      45.757  26.962  36.839  1.00  0.00     0.040 A 
ATOM     81  F   UNL A   1      43.584  26.587  36.040  1.00  0.00    -0.206 F 
ATOM     82  C   UNL A   1      46.926  27.720  36.855  1.00  0.00     0.006 A 
ENDBRANCH  54  75
BRANCH  66  83
ATOM     83  C   UNL A   1      39.064  32.459  36.319  1.00  0.00     0.057 A 
ATOM     84  C   UNL A   1      39.426  33.779  36.616  1.00  0.00     0.134 A 
ATOM     85  C   UNL A   1      38.137  31.837  37.166  1.00  0.00     0.134 A 
ATOM     86  F   UNL A   1      40.316  34.429  35.850  1.00  0.00    -0.206 F 
ATOM     87  C   UNL A   1      38.902  34.446  37.725  1.00  0.00     0.040 A 
ATOM     88  C   UNL A   1      37.584  32.502  38.259  1.00  0.00     0.040 A 
ATOM     89  F   UNL A   1      37.737  30.578  36.930  1.00  0.00    -0.206 F 
ATOM     90  C   UNL A   1      37.973  33.810  38.546  1.00  0.00     0.006 A 
ENDBRANCH  66  83
ENDBRANCH  40  41
ENDBRANCH  33  35
ENDBRANCH  32  33
ENDBRANCH  31  32
ENDBRANCH  30  31
ENDBRANCH  29  30
ENDBRANCH  28  29
ENDBRANCH  27  28
ENDBRANCH  26  27
ENDBRANCH   1  26
TORSDOF 24
ENDMDL
MODEL 3
REMARK VINA RESULT:      -8.7      5.450     10.718
REMARK SMILES CC(C)[C@@](C)(CC(=O)N[C@H]1CCCC1(C)C)C(=O)OCCOCCOCCOCCOC(=O)c1ccc(-c2c3nc(c(-c4c(F)cccc4F)c4ccc([nH]4)c(-c4c(F)cccc4F)c4nc(c(-c5c(F)cccc5F)c5ccc2[nH]5)C=C4)C=C3)cc1
REMARK SMILES IDX 24 1 23 2 22 3 21 4 20 5 19 6 17 7 18 8 4 9 5 10 2 11 1 12
REMARK SMILES IDX 3 13 6 14 7 15 8 16 9 17 10 19 11 20 14 21 12 22 13 23 15 24
REMARK SMILES IDX 16 25 25 26 26 27 27 28 28 29 29 30 30 31 31 32 32 33 33 34
REMARK SMILES IDX 34 35 35 36 87 37 36 38 86 39 37 40 38 41 39 42 80 43 40 44
REMARK SMILES IDX 85 45 79 46 81 47 41 48 84 49 78 50 77 51 42 53 68 54 51 55
REMARK SMILES IDX 67 56 52 57 55 58 66 59 82 60 53 61 54 62 65 64 83 65 56 66
REMARK SMILES IDX 43 67 44 68 49 69 45 70 46 71 48 72 50 73 47 74 69 75 70 76
REMARK SMILES IDX 75 77 71 78 72 79 74 80 76 81 73 82 57 83 58 84 63 85 59 86
REMARK SMILES IDX 60 87 62 88 64 89 61 90
REMARK H PARENT 9 18 81 52 55 63
REMARK Flexibility Score: inf
ROOT
ATOM      1  C   UNL A   1      41.623  24.458  27.862  1.00  0.00     0.188 C 
ENDROOT
BRANCH   1   2
ATOM      2  C   UNL A   1      40.617  25.597  28.138  1.00  0.00     0.188 C 
BRANCH   2   3
ATOM      3  O   UNL A   1      41.108  26.603  29.008  1.00  0.00    -0.376 OA
BRANCH   3   4
ATOM      4  C   UNL A   1      40.136  27.546  29.434  1.00  0.00     0.202 C 
BRANCH   4   5
ATOM      5  C   UNL A   1      40.162  28.964  28.821  1.00  0.00     0.261 C 
BRANCH   5   6
ATOM      6  O   UNL A   1      39.219  29.912  29.391  1.00  0.00    -0.463 OA
BRANCH   6   7
ATOM      7  C   UNL A   1      39.640  30.734  30.365  1.00  0.00     0.312 C 
ATOM      8  O   UNL A   1      40.792  31.168  30.372  1.00  0.00    -0.252 OA
BRANCH   7   9
ATOM      9  C   UNL A   1      38.568  31.218  31.415  1.00  0.00     0.076 C 
ATOM     10  C   UNL A   1      37.259  31.002  30.570  1.00  0.00     0.024 C 
BRANCH   9  11
ATOM     11  C   UNL A   1      38.655  30.255  32.624  1.00  0.00     0.000 C 
ATOM     12  C   UNL A   1      38.432  30.873  34.008  1.00  0.00     0.008 C 
ATOM     13  C   UNL A   1      37.838  28.950  32.533  1.00  0.00     0.008 C 
ENDBRANCH   9  11
BRANCH   9  14
ATOM     14  C   UNL A   1      38.382  32.718  31.897  1.00  0.00     0.118 C 
BRANCH  14  15
ATOM     15  C   UNL A   1      37.668  33.860  31.123  1.00  0.00     0.221 C 
ATOM     16  O   UNL A   1      38.259  34.269  30.103  1.00  0.00    -0.275 OA
ATOM     17  N   UNL A   1      36.500  34.524  31.290  1.00  0.00    -0.353 N 
ATOM     18  H   UNL A   1      36.677  35.454  31.023  1.00  0.00     0.163 HD
BRANCH  17  19
ATOM     19  C   UNL A   1      35.048  34.480  31.702  1.00  0.00     0.087 C 
ATOM     20  C   UNL A   1      34.757  33.102  32.297  1.00  0.00     0.025 C 
ATOM     21  C   UNL A   1      34.344  35.428  32.724  1.00  0.00    -0.015 C 
ATOM     22  C   UNL A   1      34.895  33.320  33.806  1.00  0.00     0.003 C 
ATOM     23  C   UNL A   1      34.911  34.850  34.026  1.00  0.00     0.008 C 
ATOM     24  C   UNL A   1      34.365  36.928  32.401  1.00  0.00     0.013 C 
ATOM     25  C   UNL A   1      32.794  35.210  32.797  1.00  0.00     0.013 C 
ENDBRANCH  17  19
ENDBRANCH  14  15
ENDBRANCH   9  14
ENDBRANCH   7   9
ENDBRANCH   6   7
ENDBRANCH   5   6
ENDBRANCH   4   5
ENDBRANCH   3   4
ENDBRANCH   2   3
ENDBRANCH   1   2
BRANCH   1  26
ATOM     26  O   UNL A   1      41.249  23.137  28.185  1.00  0.00    -0.377 OA
BRANCH  26  27
ATOM     27  C   UNL A   1      40.767  22.341  27.127  1.00  0.00     0.188 C 
BRANCH  27  28
ATOM     28  C   UNL A   1      41.754  21.433  26.362  1.00  0.00     0.188 C 
BRANCH  28  29
ATOM     29  O   UNL A   1      42.412  22.030  25.251  1.00  0.00    -0.376 OA
BRANCH  29  30
ATOM     30  C   UNL A   1      43.814  21.829  25.130  1.00  0.00     0.202 C 
BRANCH  30  31
ATOM     31  C   UNL A   1      44.678  23.029  24.712  1.00  0.00     0.261 C 
BRANCH  31  32
ATOM     32  O   UNL A   1      44.558  24.209  25.516  1.00  0.00    -0.460 OA
BRANCH  32  33
ATOM     33  C   UNL A   1      45.474  25.188  25.366  1.00  0.00     0.338 C 
ATOM     34  O   UNL A   1      46.348  25.266  24.521  1.00  0.00    -0.246 OA
BRANCH  33  35
ATOM     35  C   UNL A   1      45.079  26.272  26.290  1.00  0.00     0.060 A 
ATOM     36  C   UNL A   1      46.065  26.862  27.096  1.00  0.00     0.016 A 
ATOM     37  C   UNL A   1      43.785  26.797  26.252  1.00  0.00     0.016 A 
ATOM     38  C   UNL A   1      45.766  28.004  27.835  1.00  0.00     0.010 A 
ATOM     39  C   UNL A   1      43.467  27.899  27.048  1.00  0.00     0.010 A 
ATOM     40  C   UNL A   1      44.454  28.496  27.851  1.00  0.00    -0.014 A 
BRANCH  40  41
ATOM     41  C   UNL A   1      44.062  29.424  28.933  1.00  0.00     0.031 A 
ATOM     42  C   UNL A   1      43.778  28.812  30.276  1.00  0.00     0.074 A 
ATOM     43  C   UNL A   1      43.988  30.754  28.754  1.00  0.00     0.049 A 
ATOM     44  N   UNL A   1      43.405  29.379  31.391  1.00  0.00    -0.248 NA
ATOM     45  C   UNL A   1      43.944  27.349  30.369  1.00  0.00     0.031 C 
ATOM     46  C   UNL A   1      44.286  31.464  27.513  1.00  0.00     0.029 A 
ATOM     47  N   UNL A   1      43.631  31.746  29.633  1.00  0.00    -0.354 N 
ATOM     48  C   UNL A   1      43.302  28.348  32.315  1.00  0.00     0.074 A 
ATOM     49  C   UNL A   1      43.620  27.117  31.629  1.00  0.00     0.031 C 
ATOM     50  C   UNL A   1      44.080  32.781  27.706  1.00  0.00     0.029 A 
ATOM     51  C   UNL A   1      43.614  33.000  29.074  1.00  0.00     0.049 A 
ATOM     52  H   UNL A   1      43.408  31.574  30.577  1.00  0.00     0.167 HD
ATOM     53  C   UNL A   1      42.975  28.420  33.625  1.00  0.00     0.037 A 
ATOM     54  C   UNL A   1      43.239  34.179  29.610  1.00  0.00     0.037 A 
ATOM     55  C   UNL A   1      42.629  29.640  34.295  1.00  0.00     0.049 A 
ATOM     56  C   UNL A   1      42.785  34.220  31.049  1.00  0.00     0.074 A 
ATOM     57  C   UNL A   1      42.270  29.826  35.617  1.00  0.00     0.029 A 
ATOM     58  N   UNL A   1      42.583  30.885  33.685  1.00  0.00    -0.354 N 
ATOM     59  N   UNL A   1      42.714  33.247  31.925  1.00  0.00    -0.248 NA
ATOM     60  C   UNL A   1      42.361  35.527  31.574  1.00  0.00     0.031 C 
ATOM     61  C   UNL A   1      41.955  31.176  35.794  1.00  0.00     0.029 A 
ATOM     62  C   UNL A   1      42.178  31.841  34.598  1.00  0.00     0.049 A 
ATOM     63  H   UNL A   1      42.805  31.061  32.742  1.00  0.00     0.167 HD
ATOM     64  C   UNL A   1      42.271  33.826  33.110  1.00  0.00     0.074 A 
ATOM     65  C   UNL A   1      42.100  35.239  32.842  1.00  0.00     0.031 C 
ATOM     66  C   UNL A   1      42.027  33.245  34.310  1.00  0.00     0.037 A 
BRANCH  53  67
ATOM     67  C   UNL A   1      42.942  27.133  34.393  1.00  0.00     0.057 A 
ATOM     68  C   UNL A   1      41.746  26.446  34.636  1.00  0.00     0.134 A 
ATOM     69  C   UNL A   1      44.124  26.575  34.897  1.00  0.00     0.134 A 
ATOM     70  F   UNL A   1      40.576  26.943  34.204  1.00  0.00    -0.206 F 
ATOM     71  C   UNL A   1      41.723  25.258  35.369  1.00  0.00     0.040 A 
ATOM     72  C   UNL A   1      44.116  25.374  35.607  1.00  0.00     0.040 A 
ATOM     73  F   UNL A   1      45.302  27.187  34.706  1.00  0.00    -0.206 F 
ATOM     74  C   UNL A   1      42.913  24.716  35.849  1.00  0.00     0.006 A 
ENDBRANCH  53  67
BRANCH  54  75
ATOM     75  C   UNL A   1      43.250  35.418  28.788  1.00  0.00     0.057 A 
ATOM     76  C   UNL A   1      44.424  36.155  28.592  1.00  0.00     0.134 A 
ATOM     77  C   UNL A   1      42.075  35.920  28.214  1.00  0.00     0.134 A 
ATOM     78  F   UNL A   1      45.577  35.744  29.139  1.00  0.00    -0.206 F 
ATOM     79  C   UNL A   1      44.426  37.354  27.874  1.00  0.00     0.040 A 
ATOM     80  C   UNL A   1      42.067  37.103  27.472  1.00  0.00     0.040 A 
ATOM     81  F   UNL A   1      40.913  35.268  28.368  1.00  0.00    -0.206 F 
ATOM     82  C   UNL A   1      43.245  37.829  27.309  1.00  0.00     0.006 A 
ENDBRANCH  54  75
BRANCH  66  83
ATOM     83  C   UNL A   1      41.594  34.138  35.437  1.00  0.00     0.057 A 
ATOM     84  C   UNL A   1      42.512  34.707  36.329  1.00  0.00     0.134 A 
ATOM     85  C   UNL A   1      40.243  34.475  35.597  1.00  0.00     0.134 A 
ATOM     86  F   UNL A   1      43.818  34.419  36.236  1.00  0.00    -0.206 F 
ATOM     87  C   UNL A   1      42.098  35.562  37.352  1.00  0.00     0.040 A 
ATOM     88  C   UNL A   1      39.821  35.351  36.595  1.00  0.00     0.040 A 
ATOM     89  F   UNL A   1      39.314  33.975  34.768  1.00  0.00    -0.206 F 
ATOM     90  C   UNL A   1      40.750  35.892  37.482  1.00  0.00     0.006 A 
ENDBRANCH  66  83
ENDBRANCH  40  41
ENDBRANCH  33  35
ENDBRANCH  32  33
ENDBRANCH  31  32
ENDBRANCH  30  31
ENDBRANCH  29  30
ENDBRANCH  28  29
ENDBRANCH  27  28
ENDBRANCH  26  27
ENDBRANCH   1  26
TORSDOF 24
ENDMDL
