MODEL 1
REMARK VINA RESULT:      -9.3      0.000      0.000
REMARK SMILES Cc1c(CC(=O)OCCOCCOCCOCCOC(=O)c2ccc(-c3c4nc(c(-c5c(F)cccc5F)c5ccc([nH]5)c(-c5c(F)cccc5F)c5nc(c(-c6c(F)cccc6F)c6ccc3[nH]6)C=C5)C=C4)cc2)cc(-c2ccc(S(C)(=O)=O)cc2)n1-c1cccc(F)c1
REMARK SMILES IDX 12 1 11 2 10 3 9 4 8 5 7 6 5 7 6 8 4 9 3 10 1 11 2 12 88 13
REMARK SMILES IDX 76 14 77 15 89 16 90 17 95 18 91 19 93 20 92 21 94 22 78 23
REMARK SMILES IDX 79 24 87 25 80 26 86 27 81 28 82 29 83 30 84 31 85 32 13 33
REMARK SMILES IDX 14 34 15 35 16 36 17 37 18 38 19 39 20 40 21 41 22 42 23 43
REMARK SMILES IDX 75 44 24 45 74 46 25 47 26 48 27 49 68 50 28 51 73 52 67 53
REMARK SMILES IDX 69 54 29 55 72 56 66 57 65 58 30 60 56 61 39 62 55 63 40 64
REMARK SMILES IDX 43 65 54 66 70 67 41 68 42 69 53 71 71 72 44 73 31 74 32 75
REMARK SMILES IDX 37 76 33 77 34 78 36 79 38 80 35 81 57 82 58 83 63 84 59 85
REMARK SMILES IDX 60 86 62 87 64 88 61 89 45 90 46 91 51 92 47 93 48 94 50 95
REMARK SMILES IDX 52 96 49 97
REMARK H PARENT 69 59 43 70
REMARK Flexibility Score: inf
ROOT
ATOM      1  C   UNL A   1      39.443  22.330  26.427  1.00  0.00     0.188 C 
ENDROOT
BRANCH   1   2
ATOM      2  C   UNL A   1      38.054  22.464  25.768  1.00  0.00     0.188 C 
BRANCH   2   3
ATOM      3  O   UNL A   1      37.055  21.455  25.891  1.00  0.00    -0.376 OA
BRANCH   3   4
ATOM      4  C   UNL A   1      36.269  21.122  24.763  1.00  0.00     0.202 C 
BRANCH   4   5
ATOM      5  C   UNL A   1      35.158  20.074  24.971  1.00  0.00     0.261 C 
BRANCH   5   6
ATOM      6  O   UNL A   1      33.900  20.340  24.303  1.00  0.00    -0.463 OA
BRANCH   6   7
ATOM      7  C   UNL A   1      32.828  20.581  25.093  1.00  0.00     0.310 C 
ATOM      8  O   UNL A   1      31.773  19.952  25.004  1.00  0.00    -0.252 OA
BRANCH   7   9
ATOM      9  C   UNL A   1      32.961  21.705  26.113  1.00  0.00     0.160 C 
BRANCH   9  10
ATOM     10  C   UNL A   1      32.538  23.139  25.846  1.00  0.00    -0.015 A 
ATOM     11  C   UNL A   1      31.599  23.045  23.395  1.00  0.00     0.065 C 
ATOM     12  C   UNL A   1      31.989  23.694  24.682  1.00  0.00     0.024 A 
ATOM     13  N   UNL A   1      31.905  25.074  24.842  1.00  0.00    -0.313 N 
ATOM     14  C   UNL A   1      32.851  24.253  26.688  1.00  0.00     0.033 A 
ATOM     15  C   UNL A   1      32.514  25.427  26.036  1.00  0.00     0.053 A 
BRANCH  13  16
ATOM     16  C   UNL A   1      31.292  26.003  23.957  1.00  0.00     0.049 A 
ATOM     17  C   UNL A   1      32.076  26.850  23.164  1.00  0.00     0.027 A 
ATOM     18  C   UNL A   1      29.918  26.219  24.070  1.00  0.00     0.065 A 
ATOM     19  C   UNL A   1      31.472  27.895  22.452  1.00  0.00     0.005 A 
ATOM     20  C   UNL A   1      29.346  27.279  23.369  1.00  0.00     0.125 A 
ATOM     21  C   UNL A   1      30.102  28.109  22.558  1.00  0.00     0.039 A 
ATOM     22  F   UNL A   1      28.046  27.560  23.495  1.00  0.00    -0.207 F 
ENDBRANCH  13  16
BRANCH  15  23
ATOM     23  C   UNL A   1      32.734  26.817  26.440  1.00  0.00    -0.001 A 
ATOM     24  C   UNL A   1      31.681  27.591  26.946  1.00  0.00     0.011 A 
ATOM     25  C   UNL A   1      33.991  27.407  26.247  1.00  0.00     0.011 A 
ATOM     26  C   UNL A   1      31.873  28.944  27.242  1.00  0.00     0.021 A 
ATOM     27  C   UNL A   1      34.192  28.760  26.539  1.00  0.00     0.021 A 
ATOM     28  C   UNL A   1      33.129  29.522  27.027  1.00  0.00     0.067 A 
BRANCH  28  29
ATOM     29  S   UNL A   1      33.369  31.230  27.452  1.00  0.00     0.175 S 
ATOM     30  C   UNL A   1      31.788  31.983  27.172  1.00  0.00     0.163 C 
ATOM     31  O   UNL A   1      33.664  31.284  28.857  1.00  0.00    -0.224 OA
ATOM     32  O   UNL A   1      34.294  31.798  26.466  1.00  0.00    -0.224 OA
ENDBRANCH  28  29
ENDBRANCH  15  23
ENDBRANCH   9  10
ENDBRANCH   7   9
ENDBRANCH   6   7
ENDBRANCH   5   6
ENDBRANCH   4   5
ENDBRANCH   3   4
ENDBRANCH   2   3
ENDBRANCH   1   2
BRANCH   1  33
ATOM     33  O   UNL A   1      40.169  21.173  26.062  1.00  0.00    -0.377 OA
BRANCH  33  34
ATOM     34  C   UNL A   1      40.838  20.489  27.107  1.00  0.00     0.188 C 
BRANCH  34  35
ATOM     35  C   UNL A   1      42.283  20.148  26.769  1.00  0.00     0.188 C 
BRANCH  35  36
ATOM     36  O   UNL A   1      42.667  20.443  25.439  1.00  0.00    -0.376 OA
BRANCH  36  37
ATOM     37  C   UNL A   1      43.820  21.239  25.172  1.00  0.00     0.202 C 
BRANCH  37  38
ATOM     38  C   UNL A   1      44.766  21.772  26.294  1.00  0.00     0.261 C 
BRANCH  38  39
ATOM     39  O   UNL A   1      45.483  23.073  26.158  1.00  0.00    -0.460 OA
BRANCH  39  40
ATOM     40  C   UNL A   1      44.838  23.996  25.334  1.00  0.00     0.338 C 
ATOM     41  O   UNL A   1      45.316  24.314  24.248  1.00  0.00    -0.246 OA
BRANCH  40  42
ATOM     42  C   UNL A   1      43.513  24.696  25.769  1.00  0.00     0.060 A 
ATOM     43  C   UNL A   1      43.049  25.843  25.126  1.00  0.00     0.016 A 
ATOM     44  C   UNL A   1      42.954  24.530  27.064  1.00  0.00     0.016 A 
ATOM     45  C   UNL A   1      42.072  26.741  25.743  1.00  0.00     0.010 A 
ATOM     46  C   UNL A   1      41.996  25.475  27.709  1.00  0.00     0.010 A 
ATOM     47  C   UNL A   1      41.520  26.644  27.081  1.00  0.00    -0.014 A 
BRANCH  47  48
ATOM     48  C   UNL A   1      40.942  28.046  27.791  1.00  0.00     0.031 A 
ATOM     49  C   UNL A   1      42.180  28.871  27.851  1.00  0.00     0.074 A 
ATOM     50  C   UNL A   1      39.855  28.694  28.427  1.00  0.00     0.049 A 
ATOM     51  N   UNL A   1      43.247  28.402  28.438  1.00  0.00    -0.248 NA
ATOM     52  C   UNL A   1      42.408  30.028  26.987  1.00  0.00     0.031 C 
ATOM     53  C   UNL A   1      38.523  28.149  28.754  1.00  0.00     0.029 A 
ATOM     54  N   UNL A   1      39.665  30.042  28.950  1.00  0.00    -0.354 N 
ATOM     55  C   UNL A   1      44.202  29.373  28.291  1.00  0.00     0.074 A 
ATOM     56  C   UNL A   1      43.716  30.206  27.201  1.00  0.00     0.031 C 
ATOM     57  C   UNL A   1      37.672  29.099  29.255  1.00  0.00     0.029 A 
ATOM     58  C   UNL A   1      38.324  30.404  29.390  1.00  0.00     0.049 A 
ATOM     59  H   UNL A   1      40.413  30.681  29.004  1.00  0.00     0.167 HD
ATOM     60  C   UNL A   1      44.833  29.758  29.437  1.00  0.00     0.037 A 
ATOM     61  C   UNL A   1      37.766  31.599  29.882  1.00  0.00     0.037 A 
ATOM     62  C   UNL A   1      44.405  31.052  29.881  1.00  0.00     0.049 A 
ATOM     63  C   UNL A   1      38.865  32.428  30.386  1.00  0.00     0.074 A 
ATOM     64  C   UNL A   1      44.228  32.258  29.233  1.00  0.00     0.029 A 
ATOM     65  N   UNL A   1      43.657  31.106  31.035  1.00  0.00    -0.354 N 
ATOM     66  N   UNL A   1      39.344  32.243  31.575  1.00  0.00    -0.248 NA
ATOM     67  C   UNL A   1      39.385  33.596  29.684  1.00  0.00     0.031 C 
ATOM     68  C   UNL A   1      43.038  32.794  29.770  1.00  0.00     0.029 A 
ATOM     69  C   UNL A   1      42.717  32.108  30.933  1.00  0.00     0.049 A 
ATOM     70  H   UNL A   1      43.777  30.518  31.816  1.00  0.00     0.167 HD
ATOM     71  C   UNL A   1      40.542  32.870  31.529  1.00  0.00     0.074 A 
ATOM     72  C   UNL A   1      40.392  33.893  30.511  1.00  0.00     0.031 C 
ATOM     73  C   UNL A   1      41.601  32.088  31.844  1.00  0.00     0.037 A 
BRANCH  60  74
ATOM     74  C   UNL A   1      45.187  28.604  30.329  1.00  0.00     0.057 A 
ATOM     75  C   UNL A   1      46.455  28.028  30.215  1.00  0.00     0.134 A 
ATOM     76  C   UNL A   1      44.243  27.924  31.119  1.00  0.00     0.134 A 
ATOM     77  F   UNL A   1      47.415  28.641  29.506  1.00  0.00    -0.206 F 
ATOM     78  C   UNL A   1      46.749  26.795  30.802  1.00  0.00     0.040 A 
ATOM     79  C   UNL A   1      44.508  26.670  31.667  1.00  0.00     0.040 A 
ATOM     80  F   UNL A   1      43.026  28.450  31.337  1.00  0.00    -0.206 F 
ATOM     81  C   UNL A   1      45.764  26.095  31.498  1.00  0.00     0.006 A 
ENDBRANCH  60  74
BRANCH  61  82
ATOM     82  C   UNL A   1      36.423  32.325  30.272  1.00  0.00     0.057 A 
ATOM     83  C   UNL A   1      35.840  32.203  31.590  1.00  0.00     0.134 A 
ATOM     84  C   UNL A   1      35.900  33.409  29.564  1.00  0.00     0.134 A 
ATOM     85  F   UNL A   1      36.147  31.195  32.417  1.00  0.00    -0.206 F 
ATOM     86  C   UNL A   1      34.943  33.125  32.172  1.00  0.00     0.040 A 
ATOM     87  C   UNL A   1      34.965  34.328  30.132  1.00  0.00     0.040 A 
ATOM     88  F   UNL A   1      36.324  33.668  28.321  1.00  0.00    -0.206 F 
ATOM     89  C   UNL A   1      34.515  34.214  31.447  1.00  0.00     0.006 A 
ENDBRANCH  61  82
BRANCH  73  90
ATOM     90  C   UNL A   1      41.423  31.125  33.019  1.00  0.00     0.057 A 
ATOM     91  C   UNL A   1      40.649  29.939  33.059  1.00  0.00     0.134 A 
ATOM     92  C   UNL A   1      42.022  31.481  34.234  1.00  0.00     0.134 A 
ATOM     93  F   UNL A   1      40.135  29.365  31.961  1.00  0.00    -0.206 F 
ATOM     94  C   UNL A   1      40.394  29.244  34.249  1.00  0.00     0.040 A 
ATOM     95  C   UNL A   1      41.835  30.751  35.413  1.00  0.00     0.040 A 
ATOM     96  F   UNL A   1      42.822  32.556  34.301  1.00  0.00    -0.206 F 
ATOM     97  C   UNL A   1      40.990  29.648  35.433  1.00  0.00     0.006 A 
ENDBRANCH  73  90
ENDBRANCH  47  48
ENDBRANCH  40  42
ENDBRANCH  39  40
ENDBRANCH  38  39
ENDBRANCH  37  38
ENDBRANCH  36  37
ENDBRANCH  35  36
ENDBRANCH  34  35
ENDBRANCH  33  34
ENDBRANCH   1  33
TORSDOF 24
ENDMDL
MODEL 2
REMARK VINA RESULT:      -9.0      5.407     10.814
REMARK SMILES Cc1c(CC(=O)OCCOCCOCCOCCOC(=O)c2ccc(-c3c4nc(c(-c5c(F)cccc5F)c5ccc([nH]5)c(-c5c(F)cccc5F)c5nc(c(-c6c(F)cccc6F)c6ccc3[nH]6)C=C5)C=C4)cc2)cc(-c2ccc(S(C)(=O)=O)cc2)n1-c1cccc(F)c1
REMARK SMILES IDX 12 1 11 2 10 3 9 4 8 5 7 6 5 7 6 8 4 9 3 10 1 11 2 12 88 13
REMARK SMILES IDX 76 14 77 15 89 16 90 17 95 18 91 19 93 20 92 21 94 22 78 23
REMARK SMILES IDX 79 24 87 25 80 26 86 27 81 28 82 29 83 30 84 31 85 32 13 33
REMARK SMILES IDX 14 34 15 35 16 36 17 37 18 38 19 39 20 40 21 41 22 42 23 43
REMARK SMILES IDX 75 44 24 45 74 46 25 47 26 48 27 49 68 50 28 51 73 52 67 53
REMARK SMILES IDX 69 54 29 55 72 56 66 57 65 58 30 60 56 61 39 62 55 63 40 64
REMARK SMILES IDX 43 65 54 66 70 67 41 68 42 69 53 71 71 72 44 73 31 74 32 75
REMARK SMILES IDX 37 76 33 77 34 78 36 79 38 80 35 81 57 82 58 83 63 84 59 85
REMARK SMILES IDX 60 86 62 87 64 88 61 89 45 90 46 91 51 92 47 93 48 94 50 95
REMARK SMILES IDX 52 96 49 97
REMARK H PARENT 69 59 43 70
REMARK Flexibility Score: inf
ROOT
ATOM      1  C   UNL A   1      47.660  29.248  26.744  1.00  0.00     0.188 C 
ENDROOT
BRANCH   1   2
ATOM      2  C   UNL A   1      47.205  30.673  27.122  1.00  0.00     0.188 C 
BRANCH   2   3
ATOM      3  O   UNL A   1      46.754  31.608  26.147  1.00  0.00    -0.376 OA
BRANCH   3   4
ATOM      4  C   UNL A   1      45.389  31.980  26.126  1.00  0.00     0.202 C 
BRANCH   4   5
ATOM      5  C   UNL A   1      45.070  33.448  25.781  1.00  0.00     0.261 C 
BRANCH   5   6
ATOM      6  O   UNL A   1      44.697  34.296  26.896  1.00  0.00    -0.463 OA
BRANCH   6   7
ATOM      7  C   UNL A   1      45.640  35.151  27.354  1.00  0.00     0.310 C 
ATOM      8  O   UNL A   1      46.789  35.183  26.911  1.00  0.00    -0.252 OA
BRANCH   7   9
ATOM      9  C   UNL A   1      45.234  36.088  28.484  1.00  0.00     0.160 C 
BRANCH   9  10
ATOM     10  C   UNL A   1      44.940  37.565  28.289  1.00  0.00    -0.015 A 
ATOM     11  C   UNL A   1      44.512  38.424  30.735  1.00  0.00     0.065 C 
ATOM     12  C   UNL A   1      44.612  38.533  29.249  1.00  0.00     0.024 A 
ATOM     13  N   UNL A   1      44.278  39.715  28.594  1.00  0.00    -0.313 N 
ATOM     14  C   UNL A   1      44.719  38.194  27.023  1.00  0.00     0.033 A 
ATOM     15  C   UNL A   1      44.258  39.483  27.228  1.00  0.00     0.053 A 
BRANCH  13  16
ATOM     16  C   UNL A   1      44.007  40.977  29.190  1.00  0.00     0.049 A 
ATOM     17  C   UNL A   1      44.980  41.985  29.190  1.00  0.00     0.027 A 
ATOM     18  C   UNL A   1      42.861  41.108  29.976  1.00  0.00     0.065 A 
ATOM     19  C   UNL A   1      44.784  43.144  29.951  1.00  0.00     0.005 A 
ATOM     20  C   UNL A   1      42.701  42.262  30.740  1.00  0.00     0.125 A 
ATOM     21  C   UNL A   1      43.639  43.281  30.730  1.00  0.00     0.039 A 
ATOM     22  F   UNL A   1      41.650  42.403  31.553  1.00  0.00    -0.207 F 
ENDBRANCH  13  16
BRANCH  15  23
ATOM     23  C   UNL A   1      43.799  40.477  26.255  1.00  0.00    -0.001 A 
ATOM     24  C   UNL A   1      42.432  40.638  25.986  1.00  0.00     0.011 A 
ATOM     25  C   UNL A   1      44.736  41.224  25.528  1.00  0.00     0.011 A 
ATOM     26  C   UNL A   1      42.004  41.521  24.991  1.00  0.00     0.021 A 
ATOM     27  C   UNL A   1      44.316  42.109  24.530  1.00  0.00     0.021 A 
ATOM     28  C   UNL A   1      42.953  42.246  24.262  1.00  0.00     0.067 A 
BRANCH  28  29
ATOM     29  S   UNL A   1      42.391  43.400  23.033  1.00  0.00     0.175 S 
ATOM     30  C   UNL A   1      43.564  43.245  21.712  1.00  0.00     0.163 C 
ATOM     31  O   UNL A   1      41.111  42.941  22.570  1.00  0.00    -0.224 OA
ATOM     32  O   UNL A   1      42.553  44.745  23.592  1.00  0.00    -0.224 OA
ENDBRANCH  28  29
ENDBRANCH  15  23
ENDBRANCH   9  10
ENDBRANCH   7   9
ENDBRANCH   6   7
ENDBRANCH   5   6
ENDBRANCH   4   5
ENDBRANCH   3   4
ENDBRANCH   2   3
ENDBRANCH   1   2
BRANCH   1  33
ATOM     33  O   UNL A   1      47.554  28.929  25.370  1.00  0.00    -0.377 OA
BRANCH  33  34
ATOM     34  C   UNL A   1      46.380  28.247  24.967  1.00  0.00     0.188 C 
BRANCH  34  35
ATOM     35  C   UNL A   1      46.195  26.909  25.669  1.00  0.00     0.188 C 
BRANCH  35  36
ATOM     36  O   UNL A   1      45.421  25.964  24.953  1.00  0.00    -0.376 OA
BRANCH  36  37
ATOM     37  C   UNL A   1      45.614  24.565  25.148  1.00  0.00     0.202 C 
BRANCH  37  38
ATOM     38  C   UNL A   1      45.290  23.840  26.493  1.00  0.00     0.261 C 
BRANCH  38  39
ATOM     39  O   UNL A   1      44.303  22.723  26.560  1.00  0.00    -0.460 OA
BRANCH  39  40
ATOM     40  C   UNL A   1      43.136  22.950  25.829  1.00  0.00     0.338 C 
ATOM     41  O   UNL A   1      42.970  22.431  24.728  1.00  0.00    -0.246 OA
BRANCH  40  42
ATOM     42  C   UNL A   1      42.015  23.902  26.351  1.00  0.00     0.060 A 
ATOM     43  C   UNL A   1      41.748  25.122  25.733  1.00  0.00     0.016 A 
ATOM     44  C   UNL A   1      41.528  23.845  27.684  1.00  0.00     0.016 A 
ATOM     45  C   UNL A   1      41.020  26.196  26.409  1.00  0.00     0.010 A 
ATOM     46  C   UNL A   1      40.830  24.960  28.387  1.00  0.00     0.010 A 
ATOM     47  C   UNL A   1      40.557  26.205  27.785  1.00  0.00    -0.014 A 
BRANCH  47  48
ATOM     48  C   UNL A   1      40.327  27.691  28.521  1.00  0.00     0.031 A 
ATOM     49  C   UNL A   1      41.671  28.309  28.352  1.00  0.00     0.074 A 
ATOM     50  C   UNL A   1      39.472  28.513  29.295  1.00  0.00     0.049 A 
ATOM     51  N   UNL A   1      42.733  27.683  28.781  1.00  0.00    -0.248 NA
ATOM     52  C   UNL A   1      41.933  29.403  27.418  1.00  0.00     0.031 C 
ATOM     53  C   UNL A   1      38.142  28.192  29.850  1.00  0.00     0.029 A 
ATOM     54  N   UNL A   1      39.582  29.881  29.789  1.00  0.00    -0.354 N 
ATOM     55  C   UNL A   1      43.791  28.487  28.446  1.00  0.00     0.074 A 
ATOM     56  C   UNL A   1      43.269  29.372  27.415  1.00  0.00     0.031 C 
ATOM     57  C   UNL A   1      37.542  29.273  30.443  1.00  0.00     0.029 A 
ATOM     58  C   UNL A   1      38.402  30.459  30.420  1.00  0.00     0.049 A 
ATOM     59  H   UNL A   1      40.418  30.394  29.698  1.00  0.00     0.167 HD
ATOM     60  C   UNL A   1      44.652  28.782  29.462  1.00  0.00     0.037 A 
ATOM     61  C   UNL A   1      38.125  31.734  30.948  1.00  0.00     0.037 A 
ATOM     62  C   UNL A   1      44.508  30.134  29.916  1.00  0.00     0.049 A 
ATOM     63  C   UNL A   1      39.406  32.384  31.238  1.00  0.00     0.074 A 
ATOM     64  C   UNL A   1      44.418  31.344  29.258  1.00  0.00     0.029 A 
ATOM     65  N   UNL A   1      43.976  30.323  31.171  1.00  0.00    -0.354 N 
ATOM     66  N   UNL A   1      40.038  32.141  32.343  1.00  0.00    -0.248 NA
ATOM     67  C   UNL A   1      39.980  33.444  30.418  1.00  0.00     0.031 C 
ATOM     68  C   UNL A   1      43.429  32.070  29.955  1.00  0.00     0.029 A 
ATOM     69  C   UNL A   1      43.199  31.460  31.180  1.00  0.00     0.049 A 
ATOM     70  H   UNL A   1      44.128  29.734  31.946  1.00  0.00     0.167 HD
ATOM     71  C   UNL A   1      41.295  32.568  32.083  1.00  0.00     0.074 A 
ATOM     72  C   UNL A   1      41.142  33.588  31.062  1.00  0.00     0.031 C 
ATOM     73  C   UNL A   1      42.256  31.631  32.257  1.00  0.00     0.037 A 
BRANCH  60  74
ATOM     74  C   UNL A   1      44.963  27.599  30.331  1.00  0.00     0.057 A 
ATOM     75  C   UNL A   1      46.108  26.846  30.061  1.00  0.00     0.134 A 
ATOM     76  C   UNL A   1      44.053  27.069  31.264  1.00  0.00     0.134 A 
ATOM     77  F   UNL A   1      47.035  27.308  29.209  1.00  0.00    -0.206 F 
ATOM     78  C   UNL A   1      46.306  25.590  30.639  1.00  0.00     0.040 A 
ATOM     79  C   UNL A   1      44.214  25.796  31.808  1.00  0.00     0.040 A 
ATOM     80  F   UNL A   1      42.964  27.766  31.631  1.00  0.00    -0.206 F 
ATOM     81  C   UNL A   1      45.341  25.045  31.485  1.00  0.00     0.006 A 
ENDBRANCH  60  74
BRANCH  61  82
ATOM     82  C   UNL A   1      36.993  32.671  31.517  1.00  0.00     0.057 A 
ATOM     83  C   UNL A   1      36.291  33.621  30.681  1.00  0.00     0.134 A 
ATOM     84  C   UNL A   1      36.315  32.423  32.713  1.00  0.00     0.134 A 
ATOM     85  F   UNL A   1      36.793  34.055  29.517  1.00  0.00    -0.206 F 
ATOM     86  C   UNL A   1      35.013  34.155  30.951  1.00  0.00     0.040 A 
ATOM     87  C   UNL A   1      35.037  32.985  33.011  1.00  0.00     0.040 A 
ATOM     88  F   UNL A   1      36.827  31.571  33.610  1.00  0.00    -0.206 F 
ATOM     89  C   UNL A   1      34.364  33.818  32.118  1.00  0.00     0.006 A 
ENDBRANCH  61  82
BRANCH  73  90
ATOM     90  C   UNL A   1      42.124  30.726  33.482  1.00  0.00     0.057 A 
ATOM     91  C   UNL A   1      41.280  29.599  33.641  1.00  0.00     0.134 A 
ATOM     92  C   UNL A   1      42.856  31.081  34.622  1.00  0.00     0.134 A 
ATOM     93  F   UNL A   1      40.629  29.024  32.619  1.00  0.00    -0.206 F 
ATOM     94  C   UNL A   1      41.091  28.966  34.877  1.00  0.00     0.040 A 
ATOM     95  C   UNL A   1      42.731  30.408  35.843  1.00  0.00     0.040 A 
ATOM     96  F   UNL A   1      43.729  32.099  34.572  1.00  0.00    -0.206 F 
ATOM     97  C   UNL A   1      41.819  29.369  35.984  1.00  0.00     0.006 A 
ENDBRANCH  73  90
ENDBRANCH  47  48
ENDBRANCH  40  42
ENDBRANCH  39  40
ENDBRANCH  38  39
ENDBRANCH  37  38
ENDBRANCH  36  37
ENDBRANCH  35  36
ENDBRANCH  34  35
ENDBRANCH  33  34
ENDBRANCH   1  33
TORSDOF 24
ENDMDL
MODEL 3
REMARK VINA RESULT:      -8.4      5.646     10.845
REMARK SMILES Cc1c(CC(=O)OCCOCCOCCOCCOC(=O)c2ccc(-c3c4nc(c(-c5c(F)cccc5F)c5ccc([nH]5)c(-c5c(F)cccc5F)c5nc(c(-c6c(F)cccc6F)c6ccc3[nH]6)C=C5)C=C4)cc2)cc(-c2ccc(S(C)(=O)=O)cc2)n1-c1cccc(F)c1
REMARK SMILES IDX 12 1 11 2 10 3 9 4 8 5 7 6 5 7 6 8 4 9 3 10 1 11 2 12 88 13
REMARK SMILES IDX 76 14 77 15 89 16 90 17 95 18 91 19 93 20 92 21 94 22 78 23
REMARK SMILES IDX 79 24 87 25 80 26 86 27 81 28 82 29 83 30 84 31 85 32 13 33
REMARK SMILES IDX 14 34 15 35 16 36 17 37 18 38 19 39 20 40 21 41 22 42 23 43
REMARK SMILES IDX 75 44 24 45 74 46 25 47 26 48 27 49 68 50 28 51 73 52 67 53
REMARK SMILES IDX 69 54 29 55 72 56 66 57 65 58 30 60 56 61 39 62 55 63 40 64
REMARK SMILES IDX 43 65 54 66 70 67 41 68 42 69 53 71 71 72 44 73 31 74 32 75
REMARK SMILES IDX 37 76 33 77 34 78 36 79 38 80 35 81 57 82 58 83 63 84 59 85
REMARK SMILES IDX 60 86 62 87 64 88 61 89 45 90 46 91 51 92 47 93 48 94 50 95
REMARK SMILES IDX 52 96 49 97
REMARK H PARENT 69 59 43 70
REMARK Flexibility Score: inf
ROOT
ATOM      1  C   UNL A   1      46.260  20.770  25.032  1.00  0.00     0.188 C 
ENDROOT
BRANCH   1   2
ATOM      2  C   UNL A   1      46.218  22.090  24.236  1.00  0.00     0.188 C 
BRANCH   2   3
ATOM      3  O   UNL A   1      46.516  23.348  24.836  1.00  0.00    -0.376 OA
BRANCH   3   4
ATOM      4  C   UNL A   1      45.451  24.185  25.247  1.00  0.00     0.202 C 
BRANCH   4   5
ATOM      5  C   UNL A   1      45.721  25.703  25.258  1.00  0.00     0.261 C 
BRANCH   5   6
ATOM      6  O   UNL A   1      46.675  26.186  24.280  1.00  0.00    -0.463 OA
BRANCH   6   7
ATOM      7  C   UNL A   1      47.831  26.703  24.758  1.00  0.00     0.310 C 
ATOM      8  O   UNL A   1      48.184  27.864  24.548  1.00  0.00    -0.252 OA
BRANCH   7   9
ATOM      9  C   UNL A   1      48.721  25.771  25.571  1.00  0.00     0.160 C 
BRANCH   9  10
ATOM     10  C   UNL A   1      48.896  25.875  27.076  1.00  0.00    -0.015 A 
ATOM     11  C   UNL A   1      47.131  27.694  27.766  1.00  0.00     0.065 C 
ATOM     12  C   UNL A   1      48.234  26.712  27.985  1.00  0.00     0.024 A 
ATOM     13  N   UNL A   1      48.829  26.570  29.236  1.00  0.00    -0.313 N 
ATOM     14  C   UNL A   1      49.964  25.277  27.816  1.00  0.00     0.033 A 
ATOM     15  C   UNL A   1      49.945  25.757  29.115  1.00  0.00     0.053 A 
BRANCH  13  16
ATOM     16  C   UNL A   1      48.387  27.138  30.463  1.00  0.00     0.049 A 
ATOM     17  C   UNL A   1      48.768  28.437  30.821  1.00  0.00     0.027 A 
ATOM     18  C   UNL A   1      47.778  26.302  31.400  1.00  0.00     0.065 A 
ATOM     19  C   UNL A   1      48.502  28.912  32.111  1.00  0.00     0.005 A 
ATOM     20  C   UNL A   1      47.545  26.791  32.683  1.00  0.00     0.125 A 
ATOM     21  C   UNL A   1      47.889  28.083  33.045  1.00  0.00     0.039 A 
ATOM     22  F   UNL A   1      47.020  26.007  33.629  1.00  0.00    -0.207 F 
ENDBRANCH  13  16
BRANCH  15  23
ATOM     23  C   UNL A   1      50.886  25.525  30.213  1.00  0.00    -0.001 A 
ATOM     24  C   UNL A   1      50.594  24.596  31.221  1.00  0.00     0.011 A 
ATOM     25  C   UNL A   1      52.055  26.292  30.302  1.00  0.00     0.011 A 
ATOM     26  C   UNL A   1      51.450  24.444  32.316  1.00  0.00     0.021 A 
ATOM     27  C   UNL A   1      52.916  26.148  31.394  1.00  0.00     0.021 A 
ATOM     28  C   UNL A   1      52.604  25.230  32.398  1.00  0.00     0.067 A 
BRANCH  28  29
ATOM     29  S   UNL A   1      53.706  24.993  33.772  1.00  0.00     0.175 S 
ATOM     30  C   UNL A   1      53.234  23.424  34.452  1.00  0.00     0.163 C 
ATOM     31  O   UNL A   1      55.035  24.884  33.239  1.00  0.00    -0.224 OA
ATOM     32  O   UNL A   1      53.377  26.009  34.775  1.00  0.00    -0.224 OA
ENDBRANCH  28  29
ENDBRANCH  15  23
ENDBRANCH   9  10
ENDBRANCH   7   9
ENDBRANCH   6   7
ENDBRANCH   5   6
ENDBRANCH   4   5
ENDBRANCH   3   4
ENDBRANCH   2   3
ENDBRANCH   1   2
BRANCH   1  33
ATOM     33  O   UNL A   1      46.215  19.594  24.247  1.00  0.00    -0.377 OA
BRANCH  33  34
ATOM     34  C   UNL A   1      44.930  19.116  23.895  1.00  0.00     0.188 C 
BRANCH  34  35
ATOM     35  C   UNL A   1      44.132  18.611  25.090  1.00  0.00     0.188 C 
BRANCH  35  36
ATOM     36  O   UNL A   1      43.303  19.580  25.703  1.00  0.00    -0.376 OA
BRANCH  36  37
ATOM     37  C   UNL A   1      42.124  19.193  26.406  1.00  0.00     0.202 C 
BRANCH  37  38
ATOM     38  C   UNL A   1      41.108  20.222  26.996  1.00  0.00     0.261 C 
BRANCH  38  39
ATOM     39  O   UNL A   1      40.436  21.237  26.135  1.00  0.00    -0.460 OA
BRANCH  39  40
ATOM     40  C   UNL A   1      41.114  22.456  26.056  1.00  0.00     0.338 C 
ATOM     41  O   UNL A   1      42.271  22.509  25.648  1.00  0.00    -0.246 OA
BRANCH  40  42
ATOM     42  C   UNL A   1      40.454  23.791  26.523  1.00  0.00     0.060 A 
ATOM     43  C   UNL A   1      41.026  25.027  26.231  1.00  0.00     0.016 A 
ATOM     44  C   UNL A   1      39.548  23.851  27.615  1.00  0.00     0.016 A 
ATOM     45  C   UNL A   1      40.684  26.240  26.975  1.00  0.00     0.010 A 
ATOM     46  C   UNL A   1      39.240  25.079  28.404  1.00  0.00     0.010 A 
ATOM     47  C   UNL A   1      39.811  26.338  28.131  1.00  0.00    -0.014 A 
BRANCH  47  48
ATOM     48  C   UNL A   1      40.041  27.627  29.175  1.00  0.00     0.031 A 
ATOM     49  C   UNL A   1      41.506  27.854  29.036  1.00  0.00     0.074 A 
ATOM     50  C   UNL A   1      39.476  28.468  30.165  1.00  0.00     0.049 A 
ATOM     51  N   UNL A   1      42.339  26.871  29.244  1.00  0.00    -0.248 NA
ATOM     52  C   UNL A   1      42.070  29.005  28.333  1.00  0.00     0.031 C 
ATOM     53  C   UNL A   1      38.118  28.427  30.741  1.00  0.00     0.029 A 
ATOM     54  N   UNL A   1      39.993  29.603  30.922  1.00  0.00    -0.354 N 
ATOM     55  C   UNL A   1      43.584  27.391  29.005  1.00  0.00     0.074 A 
ATOM     56  C   UNL A   1      43.337  28.593  28.223  1.00  0.00     0.031 C 
ATOM     57  C   UNL A   1      37.872  29.476  31.588  1.00  0.00     0.029 A 
ATOM     58  C   UNL A   1      39.044  30.340  31.747  1.00  0.00     0.049 A 
ATOM     59  H   UNL A   1      40.942  29.860  30.877  1.00  0.00     0.167 HD
ATOM     60  C   UNL A   1      44.504  27.195  29.992  1.00  0.00     0.037 A 
ATOM     61  C   UNL A   1      39.163  31.492  32.548  1.00  0.00     0.037 A 
ATOM     62  C   UNL A   1      44.773  28.396  30.727  1.00  0.00     0.049 A 
ATOM     63  C   UNL A   1      40.583  31.666  32.868  1.00  0.00     0.074 A 
ATOM     64  C   UNL A   1      45.039  29.695  30.343  1.00  0.00     0.029 A 
ATOM     65  N   UNL A   1      44.334  28.448  32.030  1.00  0.00    -0.354 N 
ATOM     66  N   UNL A   1      41.126  31.015  33.848  1.00  0.00    -0.248 NA
ATOM     67  C   UNL A   1      41.436  32.671  32.245  1.00  0.00     0.031 C 
ATOM     68  C   UNL A   1      44.318  30.502  31.248  1.00  0.00     0.029 A 
ATOM     69  C   UNL A   1      43.930  29.729  32.334  1.00  0.00     0.049 A 
ATOM     70  H   UNL A   1      44.314  27.684  32.652  1.00  0.00     0.167 HD
ATOM     71  C   UNL A   1      42.450  31.109  33.588  1.00  0.00     0.074 A 
ATOM     72  C   UNL A   1      42.595  32.329  32.816  1.00  0.00     0.031 C 
ATOM     73  C   UNL A   1      43.092  29.921  33.491  1.00  0.00     0.037 A 
BRANCH  60  74
ATOM     74  C   UNL A   1      44.460  25.811  30.570  1.00  0.00     0.057 A 
ATOM     75  C   UNL A   1      44.461  24.716  29.702  1.00  0.00     0.134 A 
ATOM     76  C   UNL A   1      44.194  25.553  31.928  1.00  0.00     0.134 A 
ATOM     77  F   UNL A   1      44.742  24.885  28.402  1.00  0.00    -0.206 F 
ATOM     78  C   UNL A   1      44.141  23.432  30.151  1.00  0.00     0.040 A 
ATOM     79  C   UNL A   1      43.824  24.286  32.377  1.00  0.00     0.040 A 
ATOM     80  F   UNL A   1      44.247  26.541  32.836  1.00  0.00    -0.206 F 
ATOM     81  C   UNL A   1      43.784  23.221  31.482  1.00  0.00     0.006 A 
ENDBRANCH  60  74
BRANCH  61  82
ATOM     82  C   UNL A   1      38.366  32.565  33.382  1.00  0.00     0.057 A 
ATOM     83  C   UNL A   1      37.884  33.793  32.791  1.00  0.00     0.134 A 
ATOM     84  C   UNL A   1      37.737  32.284  34.597  1.00  0.00     0.134 A 
ATOM     85  F   UNL A   1      38.396  34.289  31.657  1.00  0.00    -0.206 F 
ATOM     86  C   UNL A   1      36.817  34.572  33.288  1.00  0.00     0.040 A 
ATOM     87  C   UNL A   1      36.679  33.085  35.126  1.00  0.00     0.040 A 
ATOM     88  F   UNL A   1      38.067  31.184  35.286  1.00  0.00    -0.206 F 
ATOM     89  C   UNL A   1      36.188  34.205  34.457  1.00  0.00     0.006 A 
ENDBRANCH  61  82
BRANCH  73  90
ATOM     90  C   UNL A   1      42.711  28.845  34.508  1.00  0.00     0.057 A 
ATOM     91  C   UNL A   1      43.161  28.717  35.845  1.00  0.00     0.134 A 
ATOM     92  C   UNL A   1      41.883  27.807  34.061  1.00  0.00     0.134 A 
ATOM     93  F   UNL A   1      43.828  29.687  36.487  1.00  0.00    -0.206 F 
ATOM     94  C   UNL A   1      42.906  27.578  36.621  1.00  0.00     0.040 A 
ATOM     95  C   UNL A   1      41.560  26.701  34.855  1.00  0.00     0.040 A 
ATOM     96  F   UNL A   1      41.352  27.851  32.829  1.00  0.00    -0.206 F 
ATOM     97  C   UNL A   1      42.101  26.565  36.127  1.00  0.00     0.006 A 
ENDBRANCH  73  90
ENDBRANCH  47  48
ENDBRANCH  40  42
ENDBRANCH  39  40
ENDBRANCH  38  39
ENDBRANCH  37  38
ENDBRANCH  36  37
ENDBRANCH  35  36
ENDBRANCH  34  35
ENDBRANCH  33  34
ENDBRANCH   1  33
TORSDOF 24
ENDMDL
