MODEL 1
REMARK VINA RESULT:      -9.8      0.000      0.000
REMARK SMILES COCc1ccccc1C(=O)N1CCC[C@@H](C(=O)OCCOCCOCCOCCOC(=O)c2ccc(-c3c4nc(c(-c5c(F)cccc5F)c5ccc([nH]5)c(-c5c(F)cccc5F)c5nc(c(-c6c(F)cccc6F)c6ccc3[nH]6)C=C5)C=C4)cc2)C1
REMARK SMILES IDX 24 1 23 2 22 3 21 4 20 5 19 6 17 7 18 8 16 9 12 10 13 11
REMARK SMILES IDX 88 12 14 13 15 14 10 15 11 16 9 17 4 18 5 19 6 20 8 21 7 22
REMARK SMILES IDX 3 23 2 24 1 25 25 26 26 27 27 28 28 29 29 30 30 31 31 32
REMARK SMILES IDX 32 33 33 34 34 35 35 36 87 37 36 38 86 39 37 40 38 41 39 42
REMARK SMILES IDX 80 43 40 44 85 45 79 46 81 47 41 48 84 49 78 50 77 51 42 53
REMARK SMILES IDX 68 54 51 55 67 56 52 57 55 58 66 59 82 60 53 61 54 62 65 64
REMARK SMILES IDX 83 65 56 66 43 67 44 68 49 69 45 70 46 71 48 72 50 73 47 74
REMARK SMILES IDX 69 75 70 76 75 77 71 78 72 79 74 80 76 81 73 82 57 83 58 84
REMARK SMILES IDX 63 85 59 86 60 87 62 88 64 89 61 90
REMARK H PARENT 81 52 55 63
REMARK Flexibility Score: inf
ROOT
ATOM      1  C   UNL A   1      35.180  31.858  27.616  1.00  0.00     0.188 C 
ENDROOT
BRANCH   1   2
ATOM      2  C   UNL A   1      34.060  31.071  28.331  1.00  0.00     0.188 C 
BRANCH   2   3
ATOM      3  O   UNL A   1      33.254  30.132  27.630  1.00  0.00    -0.376 OA
BRANCH   3   4
ATOM      4  C   UNL A   1      32.856  30.389  26.293  1.00  0.00     0.202 C 
BRANCH   4   5
ATOM      5  C   UNL A   1      33.224  29.406  25.164  1.00  0.00     0.261 C 
BRANCH   5   6
ATOM      6  O   UNL A   1      32.983  28.015  25.440  1.00  0.00    -0.463 OA
BRANCH   6   7
ATOM      7  C   UNL A   1      32.260  27.334  24.519  1.00  0.00     0.310 C 
ATOM      8  O   UNL A   1      31.840  27.824  23.476  1.00  0.00    -0.252 OA
BRANCH   7   9
ATOM      9  C   UNL A   1      32.011  25.877  24.900  1.00  0.00     0.119 C 
ATOM     10  N   UNL A   1      32.852  24.186  26.508  1.00  0.00    -0.338 N 
ATOM     11  C   UNL A   1      31.512  23.771  26.907  1.00  0.00     0.120 C 
ATOM     12  C   UNL A   1      33.003  25.557  26.021  1.00  0.00     0.135 C 
ATOM     13  C   UNL A   1      30.497  24.046  25.809  1.00  0.00     0.022 C 
ATOM     14  C   UNL A   1      30.601  25.504  25.377  1.00  0.00     0.019 C 
BRANCH  10  15
ATOM     15  C   UNL A   1      33.884  23.273  26.628  1.00  0.00     0.254 C 
ATOM     16  O   UNL A   1      34.095  22.662  27.677  1.00  0.00    -0.269 OA
BRANCH  15  17
ATOM     17  C   UNL A   1      34.819  23.019  25.499  1.00  0.00     0.045 A 
ATOM     18  C   UNL A   1      34.423  22.552  24.227  1.00  0.00    -0.010 A 
ATOM     19  C   UNL A   1      35.357  22.632  23.174  1.00  0.00     0.007 A 
ATOM     20  C   UNL A   1      36.643  23.131  23.375  1.00  0.00     0.000 A 
ATOM     21  C   UNL A   1      36.125  23.506  25.693  1.00  0.00     0.014 A 
ATOM     22  C   UNL A   1      37.033  23.556  24.638  1.00  0.00     0.001 A 
BRANCH  18  23
ATOM     23  C   UNL A   1      33.053  22.013  23.889  1.00  0.00     0.196 C 
BRANCH  23  24
ATOM     24  O   UNL A   1      33.012  20.583  23.871  1.00  0.00    -0.380 OA
ATOM     25  C   UNL A   1      32.575  19.978  25.079  1.00  0.00     0.195 C 
ENDBRANCH  23  24
ENDBRANCH  18  23
ENDBRANCH  15  17
ENDBRANCH  10  15
ENDBRANCH   7   9
ENDBRANCH   6   7
ENDBRANCH   5   6
ENDBRANCH   4   5
ENDBRANCH   3   4
ENDBRANCH   2   3
ENDBRANCH   1   2
BRANCH   1  26
ATOM     26  O   UNL A   1      34.995  33.261  27.615  1.00  0.00    -0.377 OA
BRANCH  26  27
ATOM     27  C   UNL A   1      33.702  33.666  28.017  1.00  0.00     0.188 C 
BRANCH  27  28
ATOM     28  C   UNL A   1      33.667  34.899  28.934  1.00  0.00     0.188 C 
BRANCH  28  29
ATOM     29  O   UNL A   1      33.289  34.589  30.274  1.00  0.00    -0.376 OA
BRANCH  29  30
ATOM     30  C   UNL A   1      33.872  35.355  31.321  1.00  0.00     0.202 C 
BRANCH  30  31
ATOM     31  C   UNL A   1      34.728  34.576  32.334  1.00  0.00     0.261 C 
BRANCH  31  32
ATOM     32  O   UNL A   1      35.443  33.438  31.823  1.00  0.00    -0.460 OA
BRANCH  32  33
ATOM     33  C   UNL A   1      36.070  32.633  32.708  1.00  0.00     0.338 C 
ATOM     34  O   UNL A   1      35.732  32.397  33.854  1.00  0.00    -0.246 OA
BRANCH  33  35
ATOM     35  C   UNL A   1      37.122  31.893  31.972  1.00  0.00     0.060 A 
ATOM     36  C   UNL A   1      38.031  31.116  32.705  1.00  0.00     0.016 A 
ATOM     37  C   UNL A   1      37.173  31.904  30.575  1.00  0.00     0.016 A 
ATOM     38  C   UNL A   1      38.996  30.353  32.044  1.00  0.00     0.010 A 
ATOM     39  C   UNL A   1      38.164  31.171  29.915  1.00  0.00     0.010 A 
ATOM     40  C   UNL A   1      39.094  30.412  30.648  1.00  0.00    -0.014 A 
BRANCH  40  41
ATOM     41  C   UNL A   1      40.303  29.875  29.977  1.00  0.00     0.031 A 
ATOM     42  C   UNL A   1      41.453  30.816  29.748  1.00  0.00     0.074 A 
ATOM     43  C   UNL A   1      40.396  28.589  29.594  1.00  0.00     0.049 A 
ATOM     44  N   UNL A   1      42.587  30.614  29.131  1.00  0.00    -0.248 NA
ATOM     45  C   UNL A   1      41.296  32.175  30.292  1.00  0.00     0.031 C 
ATOM     46  C   UNL A   1      39.377  27.563  29.806  1.00  0.00     0.029 A 
ATOM     47  N   UNL A   1      41.404  27.931  28.932  1.00  0.00    -0.354 N 
ATOM     48  C   UNL A   1      43.276  31.818  29.209  1.00  0.00     0.074 A 
ATOM     49  C   UNL A   1      42.422  32.753  29.906  1.00  0.00     0.031 C 
ATOM     50  C   UNL A   1      39.807  26.407  29.269  1.00  0.00     0.029 A 
ATOM     51  C   UNL A   1      41.113  26.620  28.645  1.00  0.00     0.049 A 
ATOM     52  H   UNL A   1      42.256  28.359  28.687  1.00  0.00     0.167 HD
ATOM     53  C   UNL A   1      44.511  32.116  28.747  1.00  0.00     0.037 A 
ATOM     54  C   UNL A   1      41.809  25.710  27.935  1.00  0.00     0.037 A 
ATOM     55  C   UNL A   1      45.355  31.188  28.043  1.00  0.00     0.049 A 
ATOM     56  C   UNL A   1      43.142  26.095  27.342  1.00  0.00     0.074 A 
ATOM     57  C   UNL A   1      46.627  31.393  27.539  1.00  0.00     0.029 A 
ATOM     58  N   UNL A   1      45.005  29.883  27.734  1.00  0.00    -0.354 N 
ATOM     59  N   UNL A   1      43.795  27.229  27.436  1.00  0.00    -0.248 NA
ATOM     60  C   UNL A   1      43.834  25.074  26.541  1.00  0.00     0.031 C 
ATOM     61  C   UNL A   1      47.024  30.228  26.876  1.00  0.00     0.029 A 
ATOM     62  C   UNL A   1      46.025  29.279  27.018  1.00  0.00     0.049 A 
ATOM     63  H   UNL A   1      44.158  29.450  27.986  1.00  0.00     0.167 HD
ATOM     64  C   UNL A   1      44.983  27.047  26.737  1.00  0.00     0.074 A 
ATOM     65  C   UNL A   1      44.967  25.690  26.232  1.00  0.00     0.031 C 
ATOM     66  C   UNL A   1      45.998  27.924  26.533  1.00  0.00     0.037 A 
BRANCH  53  67
ATOM     67  C   UNL A   1      45.005  33.517  28.957  1.00  0.00     0.057 A 
ATOM     68  C   UNL A   1      44.737  34.543  28.042  1.00  0.00     0.134 A 
ATOM     69  C   UNL A   1      45.744  33.846  30.100  1.00  0.00     0.134 A 
ATOM     70  F   UNL A   1      44.051  34.289  26.917  1.00  0.00    -0.206 F 
ATOM     71  C   UNL A   1      45.204  35.843  28.246  1.00  0.00     0.040 A 
ATOM     72  C   UNL A   1      46.194  35.147  30.329  1.00  0.00     0.040 A 
ATOM     73  F   UNL A   1      46.038  32.910  31.014  1.00  0.00    -0.206 F 
ATOM     74  C   UNL A   1      45.929  36.149  29.396  1.00  0.00     0.006 A 
ENDBRANCH  53  67
BRANCH  54  75
ATOM     75  C   UNL A   1      41.258  24.347  27.716  1.00  0.00     0.057 A 
ATOM     76  C   UNL A   1      41.763  23.238  28.404  1.00  0.00     0.134 A 
ATOM     77  C   UNL A   1      40.240  24.115  26.782  1.00  0.00     0.134 A 
ATOM     78  F   UNL A   1      42.759  23.389  29.289  1.00  0.00    -0.206 F 
ATOM     79  C   UNL A   1      41.291  21.946  28.160  1.00  0.00     0.040 A 
ATOM     80  C   UNL A   1      39.738  22.833  26.548  1.00  0.00     0.040 A 
ATOM     81  F   UNL A   1      39.716  25.132  26.084  1.00  0.00    -0.206 F 
ATOM     82  C   UNL A   1      40.270  21.742  27.233  1.00  0.00     0.006 A 
ENDBRANCH  54  75
BRANCH  66  83
ATOM     83  C   UNL A   1      47.195  27.437  25.766  1.00  0.00     0.057 A 
ATOM     84  C   UNL A   1      48.239  26.738  26.386  1.00  0.00     0.134 A 
ATOM     85  C   UNL A   1      47.272  27.615  24.379  1.00  0.00     0.134 A 
ATOM     86  F   UNL A   1      48.233  26.541  27.713  1.00  0.00    -0.206 F 
ATOM     87  C   UNL A   1      49.326  26.252  25.656  1.00  0.00     0.040 A 
ATOM     88  C   UNL A   1      48.337  27.108  23.633  1.00  0.00     0.040 A 
ATOM     89  F   UNL A   1      46.299  28.264  23.721  1.00  0.00    -0.206 F 
ATOM     90  C   UNL A   1      49.372  26.429  24.273  1.00  0.00     0.006 A 
ENDBRANCH  66  83
ENDBRANCH  40  41
ENDBRANCH  33  35
ENDBRANCH  32  33
ENDBRANCH  31  32
ENDBRANCH  30  31
ENDBRANCH  29  30
ENDBRANCH  28  29
ENDBRANCH  27  28
ENDBRANCH  26  27
ENDBRANCH   1  26
TORSDOF 24
ENDMDL
MODEL 2
REMARK VINA RESULT:      -9.4      3.552      9.220
REMARK SMILES COCc1ccccc1C(=O)N1CCC[C@@H](C(=O)OCCOCCOCCOCCOC(=O)c2ccc(-c3c4nc(c(-c5c(F)cccc5F)c5ccc([nH]5)c(-c5c(F)cccc5F)c5nc(c(-c6c(F)cccc6F)c6ccc3[nH]6)C=C5)C=C4)cc2)C1
REMARK SMILES IDX 24 1 23 2 22 3 21 4 20 5 19 6 17 7 18 8 16 9 12 10 13 11
REMARK SMILES IDX 88 12 14 13 15 14 10 15 11 16 9 17 4 18 5 19 6 20 8 21 7 22
REMARK SMILES IDX 3 23 2 24 1 25 25 26 26 27 27 28 28 29 29 30 30 31 31 32
REMARK SMILES IDX 32 33 33 34 34 35 35 36 87 37 36 38 86 39 37 40 38 41 39 42
REMARK SMILES IDX 80 43 40 44 85 45 79 46 81 47 41 48 84 49 78 50 77 51 42 53
REMARK SMILES IDX 68 54 51 55 67 56 52 57 55 58 66 59 82 60 53 61 54 62 65 64
REMARK SMILES IDX 83 65 56 66 43 67 44 68 49 69 45 70 46 71 48 72 50 73 47 74
REMARK SMILES IDX 69 75 70 76 75 77 71 78 72 79 74 80 76 81 73 82 57 83 58 84
REMARK SMILES IDX 63 85 59 86 60 87 62 88 64 89 61 90
REMARK H PARENT 81 52 55 63
REMARK Flexibility Score: inf
ROOT
ATOM      1  C   UNL A   1      40.362  22.669  27.667  1.00  0.00     0.188 C 
ENDROOT
BRANCH   1   2
ATOM      2  C   UNL A   1      39.424  22.878  26.458  1.00  0.00     0.188 C 
BRANCH   2   3
ATOM      3  O   UNL A   1      38.384  23.848  26.489  1.00  0.00    -0.376 OA
BRANCH   3   4
ATOM      4  C   UNL A   1      37.183  23.633  25.766  1.00  0.00     0.202 C 
BRANCH   4   5
ATOM      5  C   UNL A   1      36.807  22.221  25.274  1.00  0.00     0.261 C 
BRANCH   5   6
ATOM      6  O   UNL A   1      35.817  22.162  24.233  1.00  0.00    -0.463 OA
BRANCH   6   7
ATOM      7  C   UNL A   1      34.607  21.660  24.578  1.00  0.00     0.310 C 
ATOM      8  O   UNL A   1      34.414  20.492  24.896  1.00  0.00    -0.252 OA
BRANCH   7   9
ATOM      9  C   UNL A   1      33.486  22.696  24.538  1.00  0.00     0.119 C 
ATOM     10  N   UNL A   1      32.710  24.568  23.108  1.00  0.00    -0.338 N 
ATOM     11  C   UNL A   1      31.323  24.119  23.121  1.00  0.00     0.120 C 
ATOM     12  C   UNL A   1      33.739  23.544  23.289  1.00  0.00     0.135 C 
ATOM     13  C   UNL A   1      31.020  23.293  24.361  1.00  0.00     0.022 C 
ATOM     14  C   UNL A   1      32.044  22.171  24.485  1.00  0.00     0.019 C 
BRANCH  10  15
ATOM     15  C   UNL A   1      32.962  25.913  22.913  1.00  0.00     0.254 C 
ATOM     16  O   UNL A   1      33.384  26.348  21.839  1.00  0.00    -0.269 OA
BRANCH  15  17
ATOM     17  C   UNL A   1      32.774  26.898  24.011  1.00  0.00     0.045 A 
ATOM     18  C   UNL A   1      31.570  27.594  24.259  1.00  0.00    -0.010 A 
ATOM     19  C   UNL A   1      31.439  28.268  25.490  1.00  0.00     0.007 A 
ATOM     20  C   UNL A   1      32.465  28.274  26.433  1.00  0.00     0.000 A 
ATOM     21  C   UNL A   1      33.809  26.925  24.965  1.00  0.00     0.014 A 
ATOM     22  C   UNL A   1      33.657  27.614  26.166  1.00  0.00     0.001 A 
BRANCH  18  23
ATOM     23  C   UNL A   1      30.386  27.639  23.322  1.00  0.00     0.196 C 
BRANCH  23  24
ATOM     24  O   UNL A   1      30.648  28.397  22.138  1.00  0.00    -0.380 OA
ATOM     25  C   UNL A   1      29.893  29.594  22.011  1.00  0.00     0.195 C 
ENDBRANCH  23  24
ENDBRANCH  18  23
ENDBRANCH  15  17
ENDBRANCH  10  15
ENDBRANCH   7   9
ENDBRANCH   6   7
ENDBRANCH   5   6
ENDBRANCH   4   5
ENDBRANCH   3   4
ENDBRANCH   2   3
ENDBRANCH   1   2
BRANCH   1  26
ATOM     26  O   UNL A   1      40.826  21.342  27.820  1.00  0.00    -0.377 OA
BRANCH  26  27
ATOM     27  C   UNL A   1      41.395  20.797  26.646  1.00  0.00     0.188 C 
BRANCH  27  28
ATOM     28  C   UNL A   1      40.663  19.568  26.084  1.00  0.00     0.188 C 
BRANCH  28  29
ATOM     29  O   UNL A   1      41.543  18.491  25.764  1.00  0.00    -0.376 OA
BRANCH  29  30
ATOM     30  C   UNL A   1      42.737  18.362  26.525  1.00  0.00     0.202 C 
BRANCH  30  31
ATOM     31  C   UNL A   1      44.024  18.095  25.725  1.00  0.00     0.261 C 
BRANCH  31  32
ATOM     32  O   UNL A   1      44.108  18.711  24.429  1.00  0.00    -0.460 OA
BRANCH  32  33
ATOM     33  C   UNL A   1      45.254  19.347  24.102  1.00  0.00     0.338 C 
ATOM     34  O   UNL A   1      46.137  18.939  23.368  1.00  0.00    -0.246 OA
BRANCH  33  35
ATOM     35  C   UNL A   1      45.153  20.737  24.604  1.00  0.00     0.060 A 
ATOM     36  C   UNL A   1      44.796  21.750  23.702  1.00  0.00     0.016 A 
ATOM     37  C   UNL A   1      45.336  21.034  25.957  1.00  0.00     0.016 A 
ATOM     38  C   UNL A   1      44.627  23.062  24.149  1.00  0.00     0.010 A 
ATOM     39  C   UNL A   1      45.205  22.355  26.397  1.00  0.00     0.010 A 
ATOM     40  C   UNL A   1      44.873  23.378  25.491  1.00  0.00    -0.014 A 
BRANCH  40  41
ATOM     41  C   UNL A   1      45.016  24.798  25.894  1.00  0.00     0.031 A 
ATOM     42  C   UNL A   1      46.379  25.423  25.786  1.00  0.00     0.074 A 
ATOM     43  C   UNL A   1      43.971  25.526  26.326  1.00  0.00     0.049 A 
ATOM     44  N   UNL A   1      46.779  26.618  26.131  1.00  0.00    -0.248 NA
ATOM     45  C   UNL A   1      47.436  24.577  25.206  1.00  0.00     0.031 C 
ATOM     46  C   UNL A   1      42.591  25.057  26.426  1.00  0.00     0.029 A 
ATOM     47  N   UNL A   1      43.920  26.823  26.775  1.00  0.00    -0.354 N 
ATOM     48  C   UNL A   1      48.132  26.666  25.817  1.00  0.00     0.074 A 
ATOM     49  C   UNL A   1      48.490  25.373  25.280  1.00  0.00     0.031 C 
ATOM     50  C   UNL A   1      41.830  26.049  26.921  1.00  0.00     0.029 A 
ATOM     51  C   UNL A   1      42.674  27.209  27.208  1.00  0.00     0.049 A 
ATOM     52  H   UNL A   1      44.702  27.421  26.786  1.00  0.00     0.167 HD
ATOM     53  C   UNL A   1      48.996  27.697  25.957  1.00  0.00     0.037 A 
ATOM     54  C   UNL A   1      42.273  28.356  27.792  1.00  0.00     0.037 A 
ATOM     55  C   UNL A   1      48.641  28.979  26.502  1.00  0.00     0.049 A 
ATOM     56  C   UNL A   1      43.277  29.456  28.030  1.00  0.00     0.074 A 
ATOM     57  C   UNL A   1      49.443  30.092  26.680  1.00  0.00     0.029 A 
ATOM     58  N   UNL A   1      47.379  29.315  26.968  1.00  0.00    -0.354 N 
ATOM     59  N   UNL A   1      44.550  29.502  27.712  1.00  0.00    -0.248 NA
ATOM     60  C   UNL A   1      42.790  30.665  28.711  1.00  0.00     0.031 C 
ATOM     61  C   UNL A   1      48.681  31.082  27.306  1.00  0.00     0.029 A 
ATOM     62  C   UNL A   1      47.389  30.608  27.463  1.00  0.00     0.049 A 
ATOM     63  H   UNL A   1      46.593  28.722  26.950  1.00  0.00     0.167 HD
ATOM     64  C   UNL A   1      45.004  30.749  28.124  1.00  0.00     0.074 A 
ATOM     65  C   UNL A   1      43.869  31.436  28.706  1.00  0.00     0.031 C 
ATOM     66  C   UNL A   1      46.248  31.281  28.028  1.00  0.00     0.037 A 
BRANCH  53  67
ATOM     67  C   UNL A   1      50.420  27.462  25.546  1.00  0.00     0.057 A 
ATOM     68  C   UNL A   1      50.834  27.573  24.212  1.00  0.00     0.134 A 
ATOM     69  C   UNL A   1      51.391  27.139  26.500  1.00  0.00     0.134 A 
ATOM     70  F   UNL A   1      49.948  27.860  23.246  1.00  0.00    -0.206 F 
ATOM     71  C   UNL A   1      52.160  27.349  23.840  1.00  0.00     0.040 A 
ATOM     72  C   UNL A   1      52.725  26.940  26.145  1.00  0.00     0.040 A 
ATOM     73  F   UNL A   1      51.060  27.015  27.795  1.00  0.00    -0.206 F 
ATOM     74  C   UNL A   1      53.112  27.039  24.809  1.00  0.00     0.006 A 
ENDBRANCH  53  67
BRANCH  54  75
ATOM     75  C   UNL A   1      40.860  28.525  28.222  1.00  0.00     0.057 A 
ATOM     76  C   UNL A   1      40.449  28.190  29.517  1.00  0.00     0.134 A 
ATOM     77  C   UNL A   1      39.880  28.988  27.336  1.00  0.00     0.134 A 
ATOM     78  F   UNL A   1      41.334  27.712  30.405  1.00  0.00    -0.206 F 
ATOM     79  C   UNL A   1      39.113  28.290  29.912  1.00  0.00     0.040 A 
ATOM     80  C   UNL A   1      38.545  29.121  27.724  1.00  0.00     0.040 A 
ATOM     81  F   UNL A   1      40.204  29.321  26.079  1.00  0.00    -0.206 F 
ATOM     82  C   UNL A   1      38.157  28.764  29.014  1.00  0.00     0.006 A 
ENDBRANCH  54  75
BRANCH  66  83
ATOM     83  C   UNL A   1      46.445  32.686  28.523  1.00  0.00     0.057 A 
ATOM     84  C   UNL A   1      46.857  32.960  29.833  1.00  0.00     0.134 A 
ATOM     85  C   UNL A   1      46.280  33.774  27.656  1.00  0.00     0.134 A 
ATOM     86  F   UNL A   1      47.024  31.965  30.717  1.00  0.00    -0.206 F 
ATOM     87  C   UNL A   1      47.079  34.269  30.268  1.00  0.00     0.040 A 
ATOM     88  C   UNL A   1      46.528  35.084  28.070  1.00  0.00     0.040 A 
ATOM     89  F   UNL A   1      45.899  33.580  26.384  1.00  0.00    -0.206 F 
ATOM     90  C   UNL A   1      46.922  35.334  29.382  1.00  0.00     0.006 A 
ENDBRANCH  66  83
ENDBRANCH  40  41
ENDBRANCH  33  35
ENDBRANCH  32  33
ENDBRANCH  31  32
ENDBRANCH  30  31
ENDBRANCH  29  30
ENDBRANCH  28  29
ENDBRANCH  27  28
ENDBRANCH  26  27
ENDBRANCH   1  26
TORSDOF 24
ENDMDL
MODEL 3
REMARK VINA RESULT:      -9.2      4.338      9.917
REMARK SMILES COCc1ccccc1C(=O)N1CCC[C@@H](C(=O)OCCOCCOCCOCCOC(=O)c2ccc(-c3c4nc(c(-c5c(F)cccc5F)c5ccc([nH]5)c(-c5c(F)cccc5F)c5nc(c(-c6c(F)cccc6F)c6ccc3[nH]6)C=C5)C=C4)cc2)C1
REMARK SMILES IDX 24 1 23 2 22 3 21 4 20 5 19 6 17 7 18 8 16 9 12 10 13 11
REMARK SMILES IDX 88 12 14 13 15 14 10 15 11 16 9 17 4 18 5 19 6 20 8 21 7 22
REMARK SMILES IDX 3 23 2 24 1 25 25 26 26 27 27 28 28 29 29 30 30 31 31 32
REMARK SMILES IDX 32 33 33 34 34 35 35 36 87 37 36 38 86 39 37 40 38 41 39 42
REMARK SMILES IDX 80 43 40 44 85 45 79 46 81 47 41 48 84 49 78 50 77 51 42 53
REMARK SMILES IDX 68 54 51 55 67 56 52 57 55 58 66 59 82 60 53 61 54 62 65 64
REMARK SMILES IDX 83 65 56 66 43 67 44 68 49 69 45 70 46 71 48 72 50 73 47 74
REMARK SMILES IDX 69 75 70 76 75 77 71 78 72 79 74 80 76 81 73 82 57 83 58 84
REMARK SMILES IDX 63 85 59 86 60 87 62 88 64 89 61 90
REMARK H PARENT 81 52 55 63
REMARK Flexibility Score: inf
ROOT
ATOM      1  C   UNL A   1      40.710  23.491  27.673  1.00  0.00     0.188 C 
ENDROOT
BRANCH   1   2
ATOM      2  C   UNL A   1      39.853  23.886  26.451  1.00  0.00     0.188 C 
BRANCH   2   3
ATOM      3  O   UNL A   1      38.437  23.981  26.542  1.00  0.00    -0.376 OA
BRANCH   3   4
ATOM      4  C   UNL A   1      37.613  23.292  25.616  1.00  0.00     0.202 C 
BRANCH   4   5
ATOM      5  C   UNL A   1      36.114  23.634  25.497  1.00  0.00     0.261 C 
BRANCH   5   6
ATOM      6  O   UNL A   1      35.422  23.039  24.385  1.00  0.00    -0.463 OA
BRANCH   6   7
ATOM      7  C   UNL A   1      34.413  23.764  23.845  1.00  0.00     0.310 C 
ATOM      8  O   UNL A   1      34.379  24.129  22.675  1.00  0.00    -0.252 OA
BRANCH   7   9
ATOM      9  C   UNL A   1      33.301  24.091  24.839  1.00  0.00     0.119 C 
ATOM     10  N   UNL A   1      30.985  24.979  24.841  1.00  0.00    -0.338 N 
ATOM     11  C   UNL A   1      30.491  23.933  25.729  1.00  0.00     0.120 C 
ATOM     12  C   UNL A   1      32.143  24.650  24.009  1.00  0.00     0.135 C 
ATOM     13  C   UNL A   1      31.606  23.367  26.593  1.00  0.00     0.022 C 
ATOM     14  C   UNL A   1      32.768  22.940  25.704  1.00  0.00     0.019 C 
BRANCH  10  15
ATOM     15  C   UNL A   1      30.328  26.196  24.831  1.00  0.00     0.254 C 
ATOM     16  O   UNL A   1      29.176  26.311  24.409  1.00  0.00    -0.269 OA
BRANCH  15  17
ATOM     17  C   UNL A   1      31.003  27.437  25.295  1.00  0.00     0.045 A 
ATOM     18  C   UNL A   1      30.986  28.663  24.592  1.00  0.00    -0.010 A 
ATOM     19  C   UNL A   1      31.410  29.821  25.275  1.00  0.00     0.007 A 
ATOM     20  C   UNL A   1      31.858  29.769  26.594  1.00  0.00     0.000 A 
ATOM     21  C   UNL A   1      31.472  27.395  26.621  1.00  0.00     0.014 A 
ATOM     22  C   UNL A   1      31.902  28.554  27.265  1.00  0.00     0.001 A 
BRANCH  18  23
ATOM     23  C   UNL A   1      30.502  28.841  23.172  1.00  0.00     0.196 C 
BRANCH  23  24
ATOM     24  O   UNL A   1      29.940  30.135  22.940  1.00  0.00    -0.380 OA
ATOM     25  C   UNL A   1      28.816  30.157  22.073  1.00  0.00     0.195 C 
ENDBRANCH  23  24
ENDBRANCH  18  23
ENDBRANCH  15  17
ENDBRANCH  10  15
ENDBRANCH   7   9
ENDBRANCH   6   7
ENDBRANCH   5   6
ENDBRANCH   4   5
ENDBRANCH   3   4
ENDBRANCH   2   3
ENDBRANCH   1   2
BRANCH   1  26
ATOM     26  O   UNL A   1      41.567  22.387  27.451  1.00  0.00    -0.377 OA
BRANCH  26  27
ATOM     27  C   UNL A   1      41.402  21.784  26.183  1.00  0.00     0.188 C 
BRANCH  27  28
ATOM     28  C   UNL A   1      42.217  20.498  25.969  1.00  0.00     0.188 C 
BRANCH  28  29
ATOM     29  O   UNL A   1      43.289  20.663  25.042  1.00  0.00    -0.376 OA
BRANCH  29  30
ATOM     30  C   UNL A   1      44.327  21.572  25.385  1.00  0.00     0.202 C 
BRANCH  30  31
ATOM     31  C   UNL A   1      44.627  22.677  24.357  1.00  0.00     0.261 C 
BRANCH  31  32
ATOM     32  O   UNL A   1      44.084  23.977  24.642  1.00  0.00    -0.460 OA
BRANCH  32  33
ATOM     33  C   UNL A   1      44.909  24.906  25.171  1.00  0.00     0.338 C 
ATOM     34  O   UNL A   1      46.023  25.207  24.782  1.00  0.00    -0.246 OA
BRANCH  33  35
ATOM     35  C   UNL A   1      44.133  25.673  26.174  1.00  0.00     0.060 A 
ATOM     36  C   UNL A   1      43.924  27.043  25.953  1.00  0.00     0.016 A 
ATOM     37  C   UNL A   1      43.556  25.044  27.280  1.00  0.00     0.016 A 
ATOM     38  C   UNL A   1      43.144  27.786  26.841  1.00  0.00     0.010 A 
ATOM     39  C   UNL A   1      42.808  25.797  28.190  1.00  0.00     0.010 A 
ATOM     40  C   UNL A   1      42.618  27.176  27.987  1.00  0.00    -0.014 A 
BRANCH  40  41
ATOM     41  C   UNL A   1      42.078  28.017  29.082  1.00  0.00     0.031 A 
ATOM     42  C   UNL A   1      42.818  28.021  30.392  1.00  0.00     0.074 A 
ATOM     43  C   UNL A   1      40.978  28.773  28.926  1.00  0.00     0.049 A 
ATOM     44  N   UNL A   1      42.521  28.616  31.516  1.00  0.00    -0.248 NA
ATOM     45  C   UNL A   1      44.067  27.242  30.432  1.00  0.00     0.031 C 
ATOM     46  C   UNL A   1      40.201  28.901  27.695  1.00  0.00     0.029 A 
ATOM     47  N   UNL A   1      40.315  29.573  29.826  1.00  0.00    -0.354 N 
ATOM     48  C   UNL A   1      43.541  28.281  32.398  1.00  0.00     0.074 A 
ATOM     49  C   UNL A   1      44.448  27.408  31.689  1.00  0.00     0.031 C 
ATOM     50  C   UNL A   1      39.158  29.718  27.921  1.00  0.00     0.029 A 
ATOM     51  C   UNL A   1      39.172  30.143  29.322  1.00  0.00     0.049 A 
ATOM     52  H   UNL A   1      40.631  29.723  30.746  1.00  0.00     0.167 HD
ATOM     53  C   UNL A   1      43.709  28.670  33.683  1.00  0.00     0.037 A 
ATOM     54  C   UNL A   1      38.234  30.895  29.931  1.00  0.00     0.037 A 
ATOM     55  C   UNL A   1      42.799  29.529  34.391  1.00  0.00     0.049 A 
ATOM     56  C   UNL A   1      38.391  31.235  31.393  1.00  0.00     0.074 A 
ATOM     57  C   UNL A   1      42.884  29.987  35.694  1.00  0.00     0.029 A 
ATOM     58  N   UNL A   1      41.630  30.050  33.858  1.00  0.00    -0.354 N 
ATOM     59  N   UNL A   1      39.367  30.930  32.215  1.00  0.00    -0.248 NA
ATOM     60  C   UNL A   1      37.314  32.020  32.013  1.00  0.00     0.031 C 
ATOM     61  C   UNL A   1      41.738  30.738  35.967  1.00  0.00     0.029 A 
ATOM     62  C   UNL A   1      40.968  30.799  34.816  1.00  0.00     0.049 A 
ATOM     63  H   UNL A   1      41.317  29.908  32.936  1.00  0.00     0.167 HD
ATOM     64  C   UNL A   1      39.038  31.512  33.434  1.00  0.00     0.074 A 
ATOM     65  C   UNL A   1      37.776  32.196  33.242  1.00  0.00     0.031 C 
ATOM     66  C   UNL A   1      39.719  31.484  34.607  1.00  0.00     0.037 A 
BRANCH  53  67
ATOM     67  C   UNL A   1      44.906  28.137  34.412  1.00  0.00     0.057 A 
ATOM     68  C   UNL A   1      44.867  26.924  35.113  1.00  0.00     0.134 A 
ATOM     69  C   UNL A   1      46.118  28.837  34.397  1.00  0.00     0.134 A 
ATOM     70  F   UNL A   1      43.731  26.215  35.183  1.00  0.00    -0.206 F 
ATOM     71  C   UNL A   1      45.986  26.438  35.792  1.00  0.00     0.040 A 
ATOM     72  C   UNL A   1      47.251  28.349  35.048  1.00  0.00     0.040 A 
ATOM     73  F   UNL A   1      46.222  30.005  33.746  1.00  0.00    -0.206 F 
ATOM     74  C   UNL A   1      47.185  27.148  35.754  1.00  0.00     0.006 A 
ENDBRANCH  53  67
BRANCH  54  75
ATOM     75  C   UNL A   1      37.041  31.364  29.177  1.00  0.00     0.057 A 
ATOM     76  C   UNL A   1      36.978  32.658  28.648  1.00  0.00     0.134 A 
ATOM     77  C   UNL A   1      35.921  30.542  29.003  1.00  0.00     0.134 A 
ATOM     78  F   UNL A   1      38.006  33.505  28.808  1.00  0.00    -0.206 F 
ATOM     79  C   UNL A   1      35.838  33.126  27.990  1.00  0.00     0.040 A 
ATOM     80  C   UNL A   1      34.785  30.986  28.322  1.00  0.00     0.040 A 
ATOM     81  F   UNL A   1      35.914  29.294  29.489  1.00  0.00    -0.206 F 
ATOM     82  C   UNL A   1      34.739  32.286  27.821  1.00  0.00     0.006 A 
ENDBRANCH  54  75
BRANCH  66  83
ATOM     83  C   UNL A   1      39.142  32.247  35.765  1.00  0.00     0.057 A 
ATOM     84  C   UNL A   1      38.247  31.660  36.668  1.00  0.00     0.134 A 
ATOM     85  C   UNL A   1      39.537  33.568  36.014  1.00  0.00     0.134 A 
ATOM     86  F   UNL A   1      37.819  30.402  36.482  1.00  0.00    -0.206 F 
ATOM     87  C   UNL A   1      37.751  32.366  37.766  1.00  0.00     0.040 A 
ATOM     88  C   UNL A   1      39.073  34.273  37.125  1.00  0.00     0.040 A 
ATOM     89  F   UNL A   1      40.403  34.185  35.196  1.00  0.00    -0.206 F 
ATOM     90  C   UNL A   1      38.171  33.674  38.002  1.00  0.00     0.006 A 
ENDBRANCH  66  83
ENDBRANCH  40  41
ENDBRANCH  33  35
ENDBRANCH  32  33
ENDBRANCH  31  32
ENDBRANCH  30  31
ENDBRANCH  29  30
ENDBRANCH  28  29
ENDBRANCH  27  28
ENDBRANCH  26  27
ENDBRANCH   1  26
TORSDOF 24
ENDMDL
