MODEL 1
REMARK VINA RESULT:      -9.5      0.000      0.000
REMARK SMILES COCC[C@]1(C(=O)OCCOCCOCCOCCOC(=O)c2ccc(-c3c4nc(c(-c5c(F)cccc5F)c5ccc([nH]5)c(-c5c(F)cccc5F)c5nc(c(-c6c(F)cccc6F)c6ccc3[nH]6)C=C5)C=C4)cc2)CCCN(C(=O)Cc2c(C)nc(C)[nH]c2=O)C1
REMARK SMILES IDX 13 1 12 2 11 3 10 4 9 5 8 6 6 7 7 8 5 9 77 10 93 11 78 12
REMARK SMILES IDX 80 13 79 14 4 15 3 16 2 17 1 18 81 19 82 20 83 21 84 22
REMARK SMILES IDX 85 23 91 24 86 25 87 26 90 27 92 28 88 29 89 31 14 32 15 33
REMARK SMILES IDX 16 34 17 35 18 36 19 37 20 38 21 39 22 40 23 41 24 42 76 43
REMARK SMILES IDX 25 44 75 45 26 46 27 47 28 48 69 49 29 50 74 51 68 52 70 53
REMARK SMILES IDX 30 54 73 55 67 56 66 57 31 59 57 60 40 61 56 62 41 63 44 64
REMARK SMILES IDX 55 65 71 66 42 67 43 68 54 70 72 71 45 72 32 73 33 74 38 75
REMARK SMILES IDX 34 76 35 77 37 78 39 79 36 80 58 81 59 82 64 83 60 84 61 85
REMARK SMILES IDX 63 86 65 87 62 88 46 89 47 90 52 91 48 92 49 93 51 94 53 95
REMARK SMILES IDX 50 96
REMARK H PARENT 90 30 70 58 44 69
REMARK Flexibility Score: inf
ROOT
ATOM      1  C   UNL A   1      32.637  20.985  25.775  1.00  0.00     0.188 C 
ENDROOT
BRANCH   1   2
ATOM      2  C   UNL A   1      31.730  21.713  24.767  1.00  0.00     0.188 C 
BRANCH   2   3
ATOM      3  O   UNL A   1      31.010  22.880  25.132  1.00  0.00    -0.376 OA
BRANCH   3   4
ATOM      4  C   UNL A   1      30.594  23.096  26.470  1.00  0.00     0.202 C 
BRANCH   4   5
ATOM      5  C   UNL A   1      29.866  24.393  26.867  1.00  0.00     0.261 C 
BRANCH   5   6
ATOM      6  O   UNL A   1      29.792  25.443  25.881  1.00  0.00    -0.463 OA
BRANCH   6   7
ATOM      7  C   UNL A   1      30.611  26.502  26.099  1.00  0.00     0.314 C 
ATOM      8  O   UNL A   1      30.689  27.077  27.180  1.00  0.00    -0.252 OA
BRANCH   7   9
ATOM      9  C   UNL A   1      31.384  26.976  24.853  1.00  0.00     0.088 C 
ATOM     10  C   UNL A   1      31.904  28.440  24.844  1.00  0.00     0.022 C 
ATOM     11  C   UNL A   1      32.642  26.071  24.935  1.00  0.00     0.138 C 
ATOM     12  C   UNL A   1      32.928  28.703  23.729  1.00  0.00     0.023 C 
ATOM     13  N   UNL A   1      33.556  26.347  23.832  1.00  0.00    -0.341 N 
ATOM     14  C   UNL A   1      34.077  27.710  23.796  1.00  0.00     0.119 C 
BRANCH   9  15
ATOM     15  C   UNL A   1      30.544  26.601  23.575  1.00  0.00     0.049 C 
BRANCH  15  16
ATOM     16  C   UNL A   1      29.115  27.133  23.408  1.00  0.00     0.161 C 
BRANCH  16  17
ATOM     17  O   UNL A   1      29.131  28.530  23.125  1.00  0.00    -0.385 OA
ATOM     18  C   UNL A   1      27.888  29.074  22.714  1.00  0.00     0.194 C 
ENDBRANCH  16  17
ENDBRANCH  15  16
ENDBRANCH   9  15
BRANCH  13  19
ATOM     19  C   UNL A   1      33.749  25.355  22.888  1.00  0.00     0.227 C 
ATOM     20  O   UNL A   1      33.781  25.619  21.681  1.00  0.00    -0.275 OA
BRANCH  19  21
ATOM     21  C   UNL A   1      33.959  23.916  23.335  1.00  0.00     0.143 C 
BRANCH  21  22
ATOM     22  C   UNL A   1      35.161  23.720  24.223  1.00  0.00     0.048 A 
ATOM     23  C   UNL A   1      35.249  23.891  25.562  1.00  0.00     0.049 A 
ATOM     24  C   UNL A   1      36.423  23.351  23.527  1.00  0.00     0.254 A 
ATOM     25  C   UNL A   1      34.096  24.288  26.450  1.00  0.00     0.067 C 
ATOM     26  N   UNL A   1      36.414  23.738  26.283  1.00  0.00    -0.240 NA
ATOM     27  N   UNL A   1      37.527  23.218  24.307  1.00  0.00    -0.311 N 
ATOM     28  O   UNL A   1      36.487  23.178  22.314  1.00  0.00    -0.269 OA
ATOM     29  C   UNL A   1      37.490  23.416  25.649  1.00  0.00     0.105 A 
ATOM     30  H   UNL A   1      38.382  22.972  23.884  1.00  0.00     0.171 HD
ATOM     31  C   UNL A   1      38.786  23.257  26.386  1.00  0.00     0.087 C 
ENDBRANCH  21  22
ENDBRANCH  19  21
ENDBRANCH  13  19
ENDBRANCH   7   9
ENDBRANCH   6   7
ENDBRANCH   5   6
ENDBRANCH   4   5
ENDBRANCH   3   4
ENDBRANCH   2   3
ENDBRANCH   1   2
BRANCH   1  32
ATOM     32  O   UNL A   1      33.169  19.746  25.358  1.00  0.00    -0.377 OA
BRANCH  32  33
ATOM     33  C   UNL A   1      34.362  19.807  24.594  1.00  0.00     0.188 C 
BRANCH  33  34
ATOM     34  C   UNL A   1      35.634  20.249  25.335  1.00  0.00     0.188 C 
BRANCH  34  35
ATOM     35  O   UNL A   1      36.817  20.133  24.550  1.00  0.00    -0.376 OA
BRANCH  35  36
ATOM     36  C   UNL A   1      37.907  19.379  25.061  1.00  0.00     0.202 C 
BRANCH  36  37
ATOM     37  C   UNL A   1      39.221  20.137  25.318  1.00  0.00     0.261 C 
BRANCH  37  38
ATOM     38  O   UNL A   1      40.028  19.661  26.408  1.00  0.00    -0.460 OA
BRANCH  38  39
ATOM     39  C   UNL A   1      41.350  19.495  26.177  1.00  0.00     0.338 C 
ATOM     40  O   UNL A   1      41.881  18.566  25.606  1.00  0.00    -0.246 OA
BRANCH  39  41
ATOM     41  C   UNL A   1      42.043  20.751  26.541  1.00  0.00     0.060 A 
ATOM     42  C   UNL A   1      42.168  21.065  27.899  1.00  0.00     0.016 A 
ATOM     43  C   UNL A   1      42.552  21.615  25.566  1.00  0.00     0.016 A 
ATOM     44  C   UNL A   1      42.753  22.268  28.287  1.00  0.00     0.010 A 
ATOM     45  C   UNL A   1      43.118  22.834  25.957  1.00  0.00     0.010 A 
ATOM     46  C   UNL A   1      43.179  23.184  27.318  1.00  0.00    -0.014 A 
BRANCH  46  47
ATOM     47  C   UNL A   1      43.478  24.573  27.744  1.00  0.00     0.031 A 
ATOM     48  C   UNL A   1      44.906  25.051  27.674  1.00  0.00     0.074 A 
ATOM     49  C   UNL A   1      42.496  25.426  28.085  1.00  0.00     0.049 A 
ATOM     50  N   UNL A   1      45.400  26.236  27.924  1.00  0.00    -0.248 NA
ATOM     51  C   UNL A   1      45.909  24.057  27.255  1.00  0.00     0.031 C 
ATOM     52  C   UNL A   1      41.073  25.099  28.142  1.00  0.00     0.029 A 
ATOM     53  N   UNL A   1      42.551  26.753  28.432  1.00  0.00    -0.354 N 
ATOM     54  C   UNL A   1      46.765  26.133  27.679  1.00  0.00     0.074 A 
ATOM     55  C   UNL A   1      47.029  24.762  27.309  1.00  0.00     0.031 C 
ATOM     56  C   UNL A   1      40.387  26.199  28.498  1.00  0.00     0.029 A 
ATOM     57  C   UNL A   1      41.325  27.300  28.717  1.00  0.00     0.049 A 
ATOM     58  H   UNL A   1      43.391  27.264  28.473  1.00  0.00     0.167 HD
ATOM     59  C   UNL A   1      47.711  27.100  27.739  1.00  0.00     0.037 A 
ATOM     60  C   UNL A   1      41.001  28.546  29.116  1.00  0.00     0.037 A 
ATOM     61  C   UNL A   1      47.452  28.465  28.116  1.00  0.00     0.049 A 
ATOM     62  C   UNL A   1      42.091  29.577  29.265  1.00  0.00     0.074 A 
ATOM     63  C   UNL A   1      48.345  29.515  28.220  1.00  0.00     0.029 A 
ATOM     64  N   UNL A   1      46.205  28.965  28.456  1.00  0.00    -0.354 N 
ATOM     65  N   UNL A   1      43.374  29.475  29.013  1.00  0.00    -0.248 NA
ATOM     66  C   UNL A   1      41.681  30.906  29.744  1.00  0.00     0.031 C 
ATOM     67  C   UNL A   1      47.647  30.640  28.671  1.00  0.00     0.029 A 
ATOM     68  C   UNL A   1      46.308  30.305  28.790  1.00  0.00     0.049 A 
ATOM     69  H   UNL A   1      45.369  28.444  28.460  1.00  0.00     0.167 HD
ATOM     70  C   UNL A   1      43.915  30.731  29.269  1.00  0.00     0.074 A 
ATOM     71  C   UNL A   1      42.816  31.583  29.672  1.00  0.00     0.031 C 
ATOM     72  C   UNL A   1      45.205  31.143  29.180  1.00  0.00     0.037 A 
BRANCH  59  73
ATOM     73  C   UNL A   1      49.121  26.712  27.400  1.00  0.00     0.057 A 
ATOM     74  C   UNL A   1      50.033  26.304  28.384  1.00  0.00     0.134 A 
ATOM     75  C   UNL A   1      49.561  26.703  26.070  1.00  0.00     0.134 A 
ATOM     76  F   UNL A   1      49.682  26.307  29.679  1.00  0.00    -0.206 F 
ATOM     77  C   UNL A   1      51.334  25.917  28.058  1.00  0.00     0.040 A 
ATOM     78  C   UNL A   1      50.851  26.291  25.729  1.00  0.00     0.040 A 
ATOM     79  F   UNL A   1      48.739  27.080  25.079  1.00  0.00    -0.206 F 
ATOM     80  C   UNL A   1      51.742  25.901  26.727  1.00  0.00     0.006 A 
ENDBRANCH  59  73
BRANCH  60  81
ATOM     81  C   UNL A   1      39.589  28.902  29.421  1.00  0.00     0.057 A 
ATOM     82  C   UNL A   1      39.065  28.768  30.713  1.00  0.00     0.134 A 
ATOM     83  C   UNL A   1      38.712  29.318  28.413  1.00  0.00     0.134 A 
ATOM     84  F   UNL A   1      39.848  28.349  31.719  1.00  0.00    -0.206 F 
ATOM     85  C   UNL A   1      37.715  29.000  30.984  1.00  0.00     0.040 A 
ATOM     86  C   UNL A   1      37.367  29.583  28.675  1.00  0.00     0.040 A 
ATOM     87  F   UNL A   1      39.147  29.466  27.153  1.00  0.00    -0.206 F 
ATOM     88  C   UNL A   1      36.861  29.411  29.962  1.00  0.00     0.006 A 
ENDBRANCH  60  81
BRANCH  72  89
ATOM     89  C   UNL A   1      45.483  32.590  29.480  1.00  0.00     0.057 A 
ATOM     90  C   UNL A   1      45.910  33.019  30.743  1.00  0.00     0.134 A 
ATOM     91  C   UNL A   1      45.333  33.564  28.484  1.00  0.00     0.134 A 
ATOM     92  F   UNL A   1      46.066  32.141  31.745  1.00  0.00    -0.206 F 
ATOM     93  C   UNL A   1      46.134  34.371  31.017  1.00  0.00     0.040 A 
ATOM     94  C   UNL A   1      45.586  34.913  28.738  1.00  0.00     0.040 A 
ATOM     95  F   UNL A   1      44.943  33.222  27.247  1.00  0.00    -0.206 F 
ATOM     96  C   UNL A   1      45.975  35.321  30.011  1.00  0.00     0.006 A 
ENDBRANCH  72  89
ENDBRANCH  46  47
ENDBRANCH  39  41
ENDBRANCH  38  39
ENDBRANCH  37  38
ENDBRANCH  36  37
ENDBRANCH  35  36
ENDBRANCH  34  35
ENDBRANCH  33  34
ENDBRANCH  32  33
ENDBRANCH   1  32
TORSDOF 26
ENDMDL
MODEL 2
REMARK VINA RESULT:      -9.2      0.510      5.821
REMARK SMILES COCC[C@]1(C(=O)OCCOCCOCCOCCOC(=O)c2ccc(-c3c4nc(c(-c5c(F)cccc5F)c5ccc([nH]5)c(-c5c(F)cccc5F)c5nc(c(-c6c(F)cccc6F)c6ccc3[nH]6)C=C5)C=C4)cc2)CCCN(C(=O)Cc2c(C)nc(C)[nH]c2=O)C1
REMARK SMILES IDX 13 1 12 2 11 3 10 4 9 5 8 6 6 7 7 8 5 9 77 10 93 11 78 12
REMARK SMILES IDX 80 13 79 14 4 15 3 16 2 17 1 18 81 19 82 20 83 21 84 22
REMARK SMILES IDX 85 23 91 24 86 25 87 26 90 27 92 28 88 29 89 31 14 32 15 33
REMARK SMILES IDX 16 34 17 35 18 36 19 37 20 38 21 39 22 40 23 41 24 42 76 43
REMARK SMILES IDX 25 44 75 45 26 46 27 47 28 48 69 49 29 50 74 51 68 52 70 53
REMARK SMILES IDX 30 54 73 55 67 56 66 57 31 59 57 60 40 61 56 62 41 63 44 64
REMARK SMILES IDX 55 65 71 66 42 67 43 68 54 70 72 71 45 72 32 73 33 74 38 75
REMARK SMILES IDX 34 76 35 77 37 78 39 79 36 80 58 81 59 82 64 83 60 84 61 85
REMARK SMILES IDX 63 86 65 87 62 88 46 89 47 90 52 91 48 92 49 93 51 94 53 95
REMARK SMILES IDX 50 96
REMARK H PARENT 90 30 70 58 44 69
REMARK Flexibility Score: inf
ROOT
ATOM      1  C   UNL A   1      32.663  20.979  25.764  1.00  0.00     0.188 C 
ENDROOT
BRANCH   1   2
ATOM      2  C   UNL A   1      31.740  21.695  24.760  1.00  0.00     0.188 C 
BRANCH   2   3
ATOM      3  O   UNL A   1      31.005  22.851  25.129  1.00  0.00    -0.376 OA
BRANCH   3   4
ATOM      4  C   UNL A   1      30.598  23.063  26.470  1.00  0.00     0.202 C 
BRANCH   4   5
ATOM      5  C   UNL A   1      29.861  24.353  26.872  1.00  0.00     0.261 C 
BRANCH   5   6
ATOM      6  O   UNL A   1      29.771  25.403  25.887  1.00  0.00    -0.463 OA
BRANCH   6   7
ATOM      7  C   UNL A   1      30.589  26.465  26.094  1.00  0.00     0.314 C 
ATOM      8  O   UNL A   1      30.674  27.045  27.172  1.00  0.00    -0.252 OA
BRANCH   7   9
ATOM      9  C   UNL A   1      31.352  26.935  24.840  1.00  0.00     0.088 C 
ATOM     10  C   UNL A   1      31.849  28.407  24.811  1.00  0.00     0.022 C 
ATOM     11  C   UNL A   1      32.624  26.051  24.933  1.00  0.00     0.138 C 
ATOM     12  C   UNL A   1      32.866  28.672  23.690  1.00  0.00     0.023 C 
ATOM     13  N   UNL A   1      33.532  26.327  23.824  1.00  0.00    -0.341 N 
ATOM     14  C   UNL A   1      34.031  27.697  23.769  1.00  0.00     0.119 C 
BRANCH   9  15
ATOM     15  C   UNL A   1      30.516  26.529  23.569  1.00  0.00     0.049 C 
BRANCH  15  16
ATOM     16  C   UNL A   1      29.070  27.018  23.409  1.00  0.00     0.161 C 
BRANCH  16  17
ATOM     17  O   UNL A   1      29.042  28.420  23.155  1.00  0.00    -0.385 OA
ATOM     18  C   UNL A   1      27.788  28.927  22.729  1.00  0.00     0.194 C 
ENDBRANCH  16  17
ENDBRANCH  15  16
ENDBRANCH   9  15
BRANCH  13  19
ATOM     19  C   UNL A   1      33.740  25.326  22.892  1.00  0.00     0.227 C 
ATOM     20  O   UNL A   1      33.752  25.572  21.682  1.00  0.00    -0.275 OA
BRANCH  19  21
ATOM     21  C   UNL A   1      33.990  23.900  23.358  1.00  0.00     0.143 C 
BRANCH  21  22
ATOM     22  C   UNL A   1      35.191  23.752  24.258  1.00  0.00     0.048 A 
ATOM     23  C   UNL A   1      35.257  23.916  25.599  1.00  0.00     0.049 A 
ATOM     24  C   UNL A   1      36.474  23.445  23.573  1.00  0.00     0.254 A 
ATOM     25  C   UNL A   1      34.079  24.254  26.478  1.00  0.00     0.067 C 
ATOM     26  N   UNL A   1      36.421  23.811  26.331  1.00  0.00    -0.240 NA
ATOM     27  N   UNL A   1      37.576  23.356  24.363  1.00  0.00    -0.311 N 
ATOM     28  O   UNL A   1      36.559  23.283  22.359  1.00  0.00    -0.269 OA
ATOM     29  C   UNL A   1      37.516  23.541  25.706  1.00  0.00     0.105 A 
ATOM     30  H   UNL A   1      38.445  23.151  23.948  1.00  0.00     0.171 HD
ATOM     31  C   UNL A   1      38.811  23.436  26.456  1.00  0.00     0.087 C 
ENDBRANCH  21  22
ENDBRANCH  19  21
ENDBRANCH  13  19
ENDBRANCH   7   9
ENDBRANCH   6   7
ENDBRANCH   5   6
ENDBRANCH   4   5
ENDBRANCH   3   4
ENDBRANCH   2   3
ENDBRANCH   1   2
BRANCH   1  32
ATOM     32  O   UNL A   1      33.234  19.763  25.333  1.00  0.00    -0.377 OA
BRANCH  32  33
ATOM     33  C   UNL A   1      34.431  19.869  24.581  1.00  0.00     0.188 C 
BRANCH  33  34
ATOM     34  C   UNL A   1      35.678  20.358  25.335  1.00  0.00     0.188 C 
BRANCH  34  35
ATOM     35  O   UNL A   1      36.876  20.264  24.570  1.00  0.00    -0.376 OA
BRANCH  35  36
ATOM     36  C   UNL A   1      37.986  19.567  25.118  1.00  0.00     0.202 C 
BRANCH  36  37
ATOM     37  C   UNL A   1      39.276  20.375  25.343  1.00  0.00     0.261 C 
BRANCH  37  38
ATOM     38  O   UNL A   1      40.082  19.987  26.468  1.00  0.00    -0.460 OA
BRANCH  38  39
ATOM     39  C   UNL A   1      41.386  19.716  26.233  1.00  0.00     0.338 C 
ATOM     40  O   UNL A   1      41.842  18.731  25.692  1.00  0.00    -0.246 OA
BRANCH  39  41
ATOM     41  C   UNL A   1      42.174  20.929  26.548  1.00  0.00     0.060 A 
ATOM     42  C   UNL A   1      42.224  21.354  27.882  1.00  0.00     0.016 A 
ATOM     43  C   UNL A   1      42.842  21.647  25.552  1.00  0.00     0.016 A 
ATOM     44  C   UNL A   1      42.897  22.527  28.215  1.00  0.00     0.010 A 
ATOM     45  C   UNL A   1      43.497  22.838  25.885  1.00  0.00     0.010 A 
ATOM     46  C   UNL A   1      43.488  23.305  27.212  1.00  0.00    -0.014 A 
BRANCH  46  47
ATOM     47  C   UNL A   1      43.893  24.693  27.545  1.00  0.00     0.031 A 
ATOM     48  C   UNL A   1      42.814  25.692  27.875  1.00  0.00     0.074 A 
ATOM     49  C   UNL A   1      45.188  25.035  27.656  1.00  0.00     0.049 A 
ATOM     50  N   UNL A   1      42.923  26.937  28.262  1.00  0.00    -0.248 NA
ATOM     51  C   UNL A   1      41.424  25.217  27.761  1.00  0.00     0.031 C 
ATOM     52  C   UNL A   1      46.323  24.146  27.413  1.00  0.00     0.029 A 
ATOM     53  N   UNL A   1      45.765  26.226  28.020  1.00  0.00    -0.354 N 
ATOM     54  C   UNL A   1      41.621  27.388  28.451  1.00  0.00     0.074 A 
ATOM     55  C   UNL A   1      40.738  26.302  28.091  1.00  0.00     0.031 C 
ATOM     56  C   UNL A   1      47.462  24.822  27.641  1.00  0.00     0.029 A 
ATOM     57  C   UNL A   1      47.138  26.196  28.022  1.00  0.00     0.049 A 
ATOM     58  H   UNL A   1      45.244  27.026  28.258  1.00  0.00     0.167 HD
ATOM     59  C   UNL A   1      41.199  28.592  28.903  1.00  0.00     0.037 A 
ATOM     60  C   UNL A   1      48.027  27.172  28.292  1.00  0.00     0.037 A 
ATOM     61  C   UNL A   1      42.076  29.678  29.254  1.00  0.00     0.049 A 
ATOM     62  C   UNL A   1      47.524  28.533  28.703  1.00  0.00     0.074 A 
ATOM     63  C   UNL A   1      41.745  30.941  29.708  1.00  0.00     0.029 A 
ATOM     64  N   UNL A   1      43.459  29.628  29.183  1.00  0.00    -0.354 N 
ATOM     65  N   UNL A   1      46.293  28.942  28.897  1.00  0.00    -0.248 NA
ATOM     66  C   UNL A   1      48.542  29.567  28.944  1.00  0.00     0.031 C 
ATOM     67  C   UNL A   1      42.927  31.673  29.866  1.00  0.00     0.029 A 
ATOM     68  C   UNL A   1      43.997  30.846  29.567  1.00  0.00     0.049 A 
ATOM     69  H   UNL A   1      43.983  28.843  28.901  1.00  0.00     0.167 HD
ATOM     70  C   UNL A   1      46.392  30.265  29.315  1.00  0.00     0.074 A 
ATOM     71  C   UNL A   1      47.803  30.581  29.369  1.00  0.00     0.031 C 
ATOM     72  C   UNL A   1      45.404  31.142  29.625  1.00  0.00     0.037 A 
BRANCH  59  73
ATOM     73  C   UNL A   1      39.719  28.803  29.032  1.00  0.00     0.057 A 
ATOM     74  C   UNL A   1      39.044  28.596  30.243  1.00  0.00     0.134 A 
ATOM     75  C   UNL A   1      38.964  29.262  27.944  1.00  0.00     0.134 A 
ATOM     76  F   UNL A   1      39.704  28.139  31.319  1.00  0.00    -0.206 F 
ATOM     77  C   UNL A   1      37.672  28.822  30.363  1.00  0.00     0.040 A 
ATOM     78  C   UNL A   1      37.596  29.518  28.059  1.00  0.00     0.040 A 
ATOM     79  F   UNL A   1      39.546  29.482  26.756  1.00  0.00    -0.206 F 
ATOM     80  C   UNL A   1      36.946  29.294  29.271  1.00  0.00     0.006 A 
ENDBRANCH  59  73
BRANCH  60  81
ATOM     81  C   UNL A   1      49.488  26.919  28.177  1.00  0.00     0.057 A 
ATOM     82  C   UNL A   1      50.170  27.114  26.968  1.00  0.00     0.134 A 
ATOM     83  C   UNL A   1      50.225  26.411  29.253  1.00  0.00     0.134 A 
ATOM     84  F   UNL A   1      49.516  27.576  25.892  1.00  0.00    -0.206 F 
ATOM     85  C   UNL A   1      51.518  26.779  26.825  1.00  0.00     0.040 A 
ATOM     86  C   UNL A   1      51.580  26.101  29.133  1.00  0.00     0.040 A 
ATOM     87  F   UNL A   1      49.634  26.199  30.439  1.00  0.00    -0.206 F 
ATOM     88  C   UNL A   1      52.228  26.272  27.911  1.00  0.00     0.006 A 
ENDBRANCH  60  81
BRANCH  72  89
ATOM     89  C   UNL A   1      45.823  32.507  30.095  1.00  0.00     0.057 A 
ATOM     90  C   UNL A   1      45.982  33.583  29.212  1.00  0.00     0.134 A 
ATOM     91  C   UNL A   1      46.058  32.750  31.455  1.00  0.00     0.134 A 
ATOM     92  F   UNL A   1      45.783  33.418  27.896  1.00  0.00    -0.206 F 
ATOM     93  C   UNL A   1      46.404  34.837  29.658  1.00  0.00     0.040 A 
ATOM     94  C   UNL A   1      46.447  34.009  31.917  1.00  0.00     0.040 A 
ATOM     95  F   UNL A   1      45.908  31.770  32.360  1.00  0.00    -0.206 F 
ATOM     96  C   UNL A   1      46.633  35.053  31.015  1.00  0.00     0.006 A 
ENDBRANCH  72  89
ENDBRANCH  46  47
ENDBRANCH  39  41
ENDBRANCH  38  39
ENDBRANCH  37  38
ENDBRANCH  36  37
ENDBRANCH  35  36
ENDBRANCH  34  35
ENDBRANCH  33  34
ENDBRANCH  32  33
ENDBRANCH   1  32
TORSDOF 26
ENDMDL
MODEL 3
REMARK VINA RESULT:      -9.1      2.405      7.817
REMARK SMILES COCC[C@]1(C(=O)OCCOCCOCCOCCOC(=O)c2ccc(-c3c4nc(c(-c5c(F)cccc5F)c5ccc([nH]5)c(-c5c(F)cccc5F)c5nc(c(-c6c(F)cccc6F)c6ccc3[nH]6)C=C5)C=C4)cc2)CCCN(C(=O)Cc2c(C)nc(C)[nH]c2=O)C1
REMARK SMILES IDX 13 1 12 2 11 3 10 4 9 5 8 6 6 7 7 8 5 9 77 10 93 11 78 12
REMARK SMILES IDX 80 13 79 14 4 15 3 16 2 17 1 18 81 19 82 20 83 21 84 22
REMARK SMILES IDX 85 23 91 24 86 25 87 26 90 27 92 28 88 29 89 31 14 32 15 33
REMARK SMILES IDX 16 34 17 35 18 36 19 37 20 38 21 39 22 40 23 41 24 42 76 43
REMARK SMILES IDX 25 44 75 45 26 46 27 47 28 48 69 49 29 50 74 51 68 52 70 53
REMARK SMILES IDX 30 54 73 55 67 56 66 57 31 59 57 60 40 61 56 62 41 63 44 64
REMARK SMILES IDX 55 65 71 66 42 67 43 68 54 70 72 71 45 72 32 73 33 74 38 75
REMARK SMILES IDX 34 76 35 77 37 78 39 79 36 80 58 81 59 82 64 83 60 84 61 85
REMARK SMILES IDX 63 86 65 87 62 88 46 89 47 90 52 91 48 92 49 93 51 94 53 95
REMARK SMILES IDX 50 96
REMARK H PARENT 90 30 70 58 44 69
REMARK Flexibility Score: inf
ROOT
ATOM      1  C   UNL A   1      32.100  29.103  26.794  1.00  0.00     0.188 C 
ENDROOT
BRANCH   1   2
ATOM      2  C   UNL A   1      32.128  29.594  25.335  1.00  0.00     0.188 C 
BRANCH   2   3
ATOM      3  O   UNL A   1      30.940  29.691  24.566  1.00  0.00    -0.376 OA
BRANCH   3   4
ATOM      4  C   UNL A   1      30.943  29.423  23.174  1.00  0.00     0.202 C 
BRANCH   4   5
ATOM      5  C   UNL A   1      30.213  28.190  22.611  1.00  0.00     0.261 C 
BRANCH   5   6
ATOM      6  O   UNL A   1      30.498  26.913  23.217  1.00  0.00    -0.463 OA
BRANCH   6   7
ATOM      7  C   UNL A   1      31.465  26.183  22.606  1.00  0.00     0.314 C 
ATOM      8  O   UNL A   1      32.044  26.554  21.591  1.00  0.00    -0.252 OA
BRANCH   7   9
ATOM      9  C   UNL A   1      31.727  24.808  23.251  1.00  0.00     0.088 C 
ATOM     10  C   UNL A   1      30.586  23.755  23.189  1.00  0.00     0.022 C 
ATOM     11  C   UNL A   1      32.858  24.273  22.333  1.00  0.00     0.138 C 
ATOM     12  C   UNL A   1      31.058  22.339  23.554  1.00  0.00     0.023 C 
ATOM     13  N   UNL A   1      33.284  22.941  22.752  1.00  0.00    -0.341 N 
ATOM     14  C   UNL A   1      32.242  21.921  22.696  1.00  0.00     0.119 C 
BRANCH   9  15
ATOM     15  C   UNL A   1      32.288  25.039  24.704  1.00  0.00     0.049 C 
BRANCH  15  16
ATOM     16  C   UNL A   1      31.332  25.376  25.856  1.00  0.00     0.161 C 
BRANCH  16  17
ATOM     17  O   UNL A   1      31.000  24.200  26.590  1.00  0.00    -0.385 OA
ATOM     18  C   UNL A   1      32.109  23.426  27.016  1.00  0.00     0.194 C 
ENDBRANCH  16  17
ENDBRANCH  15  16
ENDBRANCH   9  15
BRANCH  13  19
ATOM     19  C   UNL A   1      34.564  22.799  23.255  1.00  0.00     0.227 C 
ATOM     20  O   UNL A   1      35.549  23.174  22.611  1.00  0.00    -0.275 OA
BRANCH  19  21
ATOM     21  C   UNL A   1      34.770  22.201  24.639  1.00  0.00     0.143 C 
BRANCH  21  22
ATOM     22  C   UNL A   1      36.117  22.510  25.244  1.00  0.00     0.048 A 
ATOM     23  C   UNL A   1      37.197  21.701  25.339  1.00  0.00     0.049 A 
ATOM     24  C   UNL A   1      36.250  23.853  25.868  1.00  0.00     0.254 A 
ATOM     25  C   UNL A   1      37.261  20.295  24.795  1.00  0.00     0.067 C 
ATOM     26  N   UNL A   1      38.374  22.057  25.962  1.00  0.00    -0.240 NA
ATOM     27  N   UNL A   1      37.440  24.130  26.461  1.00  0.00    -0.311 N 
ATOM     28  O   UNL A   1      35.344  24.681  25.865  1.00  0.00    -0.269 OA
ATOM     29  C   UNL A   1      38.456  23.231  26.491  1.00  0.00     0.105 A 
ATOM     30  H   UNL A   1      37.570  25.010  26.883  1.00  0.00     0.171 HD
ATOM     31  C   UNL A   1      39.709  23.658  27.197  1.00  0.00     0.087 C 
ENDBRANCH  21  22
ENDBRANCH  19  21
ENDBRANCH  13  19
ENDBRANCH   7   9
ENDBRANCH   6   7
ENDBRANCH   5   6
ENDBRANCH   4   5
ENDBRANCH   3   4
ENDBRANCH   2   3
ENDBRANCH   1   2
BRANCH   1  32
ATOM     32  O   UNL A   1      32.927  29.794  27.704  1.00  0.00    -0.377 OA
BRANCH  32  33
ATOM     33  C   UNL A   1      33.747  30.811  27.152  1.00  0.00     0.188 C 
BRANCH  33  34
ATOM     34  C   UNL A   1      33.569  32.226  27.725  1.00  0.00     0.188 C 
BRANCH  34  35
ATOM     35  O   UNL A   1      34.793  32.836  28.122  1.00  0.00    -0.376 OA
BRANCH  35  36
ATOM     36  C   UNL A   1      35.009  33.108  29.499  1.00  0.00     0.202 C 
BRANCH  36  37
ATOM     37  C   UNL A   1      35.611  31.974  30.348  1.00  0.00     0.261 C 
BRANCH  37  38
ATOM     38  O   UNL A   1      36.352  30.970  29.636  1.00  0.00    -0.460 OA
BRANCH  38  39
ATOM     39  C   UNL A   1      36.954  30.005  30.368  1.00  0.00     0.338 C 
ATOM     40  O   UNL A   1      36.414  29.169  31.061  1.00  0.00    -0.246 OA
BRANCH  39  41
ATOM     41  C   UNL A   1      38.392  29.989  30.017  1.00  0.00     0.060 A 
ATOM     42  C   UNL A   1      38.739  29.836  28.669  1.00  0.00     0.016 A 
ATOM     43  C   UNL A   1      39.385  30.107  30.994  1.00  0.00     0.016 A 
ATOM     44  C   UNL A   1      40.079  29.748  28.299  1.00  0.00     0.010 A 
ATOM     45  C   UNL A   1      40.730  29.993  30.623  1.00  0.00     0.010 A 
ATOM     46  C   UNL A   1      41.079  29.768  29.279  1.00  0.00    -0.014 A 
BRANCH  46  47
ATOM     47  C   UNL A   1      42.447  29.337  28.899  1.00  0.00     0.031 A 
ATOM     48  C   UNL A   1      42.655  27.902  28.487  1.00  0.00     0.074 A 
ATOM     49  C   UNL A   1      43.459  30.218  28.818  1.00  0.00     0.049 A 
ATOM     50  N   UNL A   1      43.736  27.312  28.048  1.00  0.00    -0.248 NA
ATOM     51  C   UNL A   1      41.479  27.019  28.573  1.00  0.00     0.031 C 
ATOM     52  C   UNL A   1      43.372  31.641  29.140  1.00  0.00     0.029 A 
ATOM     53  N   UNL A   1      44.762  30.041  28.421  1.00  0.00    -0.354 N 
ATOM     54  C   UNL A   1      43.368  25.995  27.793  1.00  0.00     0.074 A 
ATOM     55  C   UNL A   1      41.980  25.860  28.171  1.00  0.00     0.031 C 
ATOM     56  C   UNL A   1      44.570  32.211  28.922  1.00  0.00     0.029 A 
ATOM     57  C   UNL A   1      45.513  31.190  28.468  1.00  0.00     0.049 A 
ATOM     58  H   UNL A   1      45.122  29.174  28.129  1.00  0.00     0.167 HD
ATOM     59  C   UNL A   1      44.115  24.993  27.272  1.00  0.00     0.037 A 
ATOM     60  C   UNL A   1      46.815  31.387  28.185  1.00  0.00     0.037 A 
ATOM     61  C   UNL A   1      45.500  25.122  26.904  1.00  0.00     0.049 A 
ATOM     62  C   UNL A   1      47.646  30.228  27.696  1.00  0.00     0.074 A 
ATOM     63  C   UNL A   1      46.346  24.162  26.381  1.00  0.00     0.029 A 
ATOM     64  N   UNL A   1      46.243  26.286  27.025  1.00  0.00    -0.354 N 
ATOM     65  N   UNL A   1      47.284  28.993  27.441  1.00  0.00    -0.248 NA
ATOM     66  C   UNL A   1      49.070  30.496  27.444  1.00  0.00     0.031 C 
ATOM     67  C   UNL A   1      47.616  24.731  26.232  1.00  0.00     0.029 A 
ATOM     68  C   UNL A   1      47.544  26.063  26.606  1.00  0.00     0.049 A 
ATOM     69  H   UNL A   1      45.896  27.145  27.360  1.00  0.00     0.167 HD
ATOM     70  C   UNL A   1      48.423  28.351  26.967  1.00  0.00     0.074 A 
ATOM     71  C   UNL A   1      49.481  29.339  26.948  1.00  0.00     0.031 C 
ATOM     72  C   UNL A   1      48.583  27.059  26.583  1.00  0.00     0.037 A 
BRANCH  59  73
ATOM     73  C   UNL A   1      43.450  23.661  27.083  1.00  0.00     0.057 A 
ATOM     74  C   UNL A   1      43.032  23.215  25.820  1.00  0.00     0.134 A 
ATOM     75  C   UNL A   1      43.263  22.793  28.166  1.00  0.00     0.134 A 
ATOM     76  F   UNL A   1      43.164  24.005  24.743  1.00  0.00    -0.206 F 
ATOM     77  C   UNL A   1      42.440  21.963  25.647  1.00  0.00     0.040 A 
ATOM     78  C   UNL A   1      42.698  21.527  28.001  1.00  0.00     0.040 A 
ATOM     79  F   UNL A   1      43.641  23.156  29.402  1.00  0.00    -0.206 F 
ATOM     80  C   UNL A   1      42.281  21.112  26.738  1.00  0.00     0.006 A 
ENDBRANCH  59  73
BRANCH  60  81
ATOM     81  C   UNL A   1      47.435  32.727  28.363  1.00  0.00     0.057 A 
ATOM     82  C   UNL A   1      48.001  33.114  29.585  1.00  0.00     0.134 A 
ATOM     83  C   UNL A   1      47.415  33.679  27.337  1.00  0.00     0.134 A 
ATOM     84  F   UNL A   1      48.030  32.257  30.616  1.00  0.00    -0.206 F 
ATOM     85  C   UNL A   1      48.490  34.406  29.790  1.00  0.00     0.040 A 
ATOM     86  C   UNL A   1      47.928  34.964  27.517  1.00  0.00     0.040 A 
ATOM     87  F   UNL A   1      46.887  33.376  26.141  1.00  0.00    -0.206 F 
ATOM     88  C   UNL A   1      48.455  35.335  28.753  1.00  0.00     0.006 A 
ENDBRANCH  60  81
BRANCH  72  89
ATOM     89  C   UNL A   1      49.937  26.660  26.067  1.00  0.00     0.057 A 
ATOM     90  C   UNL A   1      50.345  26.938  24.755  1.00  0.00     0.134 A 
ATOM     91  C   UNL A   1      50.849  25.999  26.900  1.00  0.00     0.134 A 
ATOM     92  F   UNL A   1      49.518  27.559  23.902  1.00  0.00    -0.206 F 
ATOM     93  C   UNL A   1      51.594  26.532  24.279  1.00  0.00     0.040 A 
ATOM     94  C   UNL A   1      52.113  25.619  26.444  1.00  0.00     0.040 A 
ATOM     95  F   UNL A   1      50.531  25.715  28.172  1.00  0.00    -0.206 F 
ATOM     96  C   UNL A   1      52.483  25.874  25.126  1.00  0.00     0.006 A 
ENDBRANCH  72  89
ENDBRANCH  46  47
ENDBRANCH  39  41
ENDBRANCH  38  39
ENDBRANCH  37  38
ENDBRANCH  36  37
ENDBRANCH  35  36
ENDBRANCH  34  35
ENDBRANCH  33  34
ENDBRANCH  32  33
ENDBRANCH   1  32
TORSDOF 26
ENDMDL
