MODEL 1
REMARK VINA RESULT:      -9.6      0.000      0.000
REMARK SMILES COc1ccc(-c2nc(SCC(=O)OCCOCCOCCOCCOC(=O)c3ccc(-c4c5nc(c(-c6c(F)cccc6F)c6ccc([nH]6)c(-c6c(F)cccc6F)c6nc(c(-c7c(F)cccc7F)c7ccc4[nH]7)C=C6)C=C5)cc3)cc(-c3ccncc3)n2)cc1
REMARK SMILES IDX 19 1 18 2 17 3 16 4 15 5 14 6 12 7 13 8 11 9 10 10 9 11 7 12
REMARK SMILES IDX 8 13 91 14 84 15 83 16 6 17 3 18 4 19 93 20 5 21 92 22 2 23
REMARK SMILES IDX 1 24 85 25 86 26 90 27 87 28 89 29 88 30 20 31 21 32 22 33
REMARK SMILES IDX 23 34 24 35 25 36 26 37 27 38 28 39 29 40 30 41 82 42 31 43
REMARK SMILES IDX 81 44 32 45 33 46 34 47 75 48 35 49 80 50 74 51 76 52 36 53
REMARK SMILES IDX 79 54 73 55 72 56 37 58 63 59 46 60 62 61 47 62 50 63 61 64
REMARK SMILES IDX 77 65 48 66 49 67 60 69 78 70 51 71 38 72 39 73 44 74 40 75
REMARK SMILES IDX 41 76 43 77 45 78 42 79 64 80 65 81 70 82 66 83 67 84 69 85
REMARK SMILES IDX 71 86 68 87 52 88 53 89 58 90 54 91 55 92 57 93 59 94 56 95
REMARK H PARENT 76 57 50 68
REMARK Flexibility Score: inf
ROOT
ATOM      1  C   UNL A   1      35.491  22.525  25.411  1.00  0.00     0.188 C 
ENDROOT
BRANCH   1   2
ATOM      2  C   UNL A   1      35.131  23.979  25.055  1.00  0.00     0.188 C 
BRANCH   2   3
ATOM      3  O   UNL A   1      34.888  24.332  23.715  1.00  0.00    -0.376 OA
BRANCH   3   4
ATOM      4  C   UNL A   1      34.043  25.408  23.372  1.00  0.00     0.202 C 
BRANCH   4   5
ATOM      5  C   UNL A   1      33.129  25.413  22.128  1.00  0.00     0.261 C 
BRANCH   5   6
ATOM      6  O   UNL A   1      31.710  25.227  22.351  1.00  0.00    -0.463 OA
BRANCH   6   7
ATOM      7  C   UNL A   1      31.312  24.198  23.132  1.00  0.00     0.316 C 
ATOM      8  O   UNL A   1      31.689  23.044  22.939  1.00  0.00    -0.251 OA
BRANCH   7   9
ATOM      9  C   UNL A   1      30.437  24.533  24.347  1.00  0.00     0.199 C 
BRANCH   9  10
ATOM     10  S   UNL A   1      29.100  25.780  24.260  1.00  0.00    -0.094 SA
BRANCH  10  11
ATOM     11  C   UNL A   1      29.801  27.430  23.905  1.00  0.00     0.101 A 
ATOM     12  C   UNL A   1      31.327  28.999  24.718  1.00  0.00     0.161 A 
ATOM     13  N   UNL A   1      30.892  27.719  24.664  1.00  0.00    -0.222 NA
ATOM     14  N   UNL A   1      30.741  30.012  24.041  1.00  0.00    -0.228 NA
ATOM     15  C   UNL A   1      29.680  29.705  23.244  1.00  0.00     0.076 A 
ATOM     16  C   UNL A   1      29.190  28.404  23.135  1.00  0.00     0.064 A 
BRANCH  12  17
ATOM     17  C   UNL A   1      32.413  29.318  25.701  1.00  0.00     0.019 A 
ATOM     18  C   UNL A   1      34.625  29.999  27.424  1.00  0.00     0.118 A 
ATOM     19  C   UNL A   1      33.489  30.810  27.336  1.00  0.00     0.047 A 
ATOM     20  C   UNL A   1      34.640  28.824  26.693  1.00  0.00     0.047 A 
ATOM     21  C   UNL A   1      32.415  30.490  26.471  1.00  0.00     0.016 A 
ATOM     22  C   UNL A   1      33.534  28.485  25.885  1.00  0.00     0.016 A 
BRANCH  18  23
ATOM     23  O   UNL A   1      35.601  30.420  28.284  1.00  0.00    -0.497 OA
ATOM     24  C   UNL A   1      36.046  29.498  29.279  1.00  0.00     0.278 C 
ENDBRANCH  18  23
ENDBRANCH  12  17
BRANCH  15  25
ATOM     25  C   UNL A   1      29.007  30.863  22.587  1.00  0.00     0.003 A 
ATOM     26  C   UNL A   1      28.827  32.099  23.231  1.00  0.00     0.030 A 
ATOM     27  C   UNL A   1      28.554  30.797  21.265  1.00  0.00     0.030 A 
ATOM     28  C   UNL A   1      28.310  33.191  22.548  1.00  0.00     0.111 A 
ATOM     29  C   UNL A   1      27.988  31.926  20.675  1.00  0.00     0.111 A 
ATOM     30  N   UNL A   1      27.872  33.125  21.282  1.00  0.00    -0.265 NA
ENDBRANCH  15  25
ENDBRANCH  10  11
ENDBRANCH   9  10
ENDBRANCH   7   9
ENDBRANCH   6   7
ENDBRANCH   5   6
ENDBRANCH   4   5
ENDBRANCH   3   4
ENDBRANCH   2   3
ENDBRANCH   1   2
BRANCH   1  31
ATOM     31  O   UNL A   1      36.614  22.235  26.208  1.00  0.00    -0.377 OA
BRANCH  31  32
ATOM     32  C   UNL A   1      37.835  22.762  25.757  1.00  0.00     0.188 C 
BRANCH  32  33
ATOM     33  C   UNL A   1      38.959  21.733  25.904  1.00  0.00     0.188 C 
BRANCH  33  34
ATOM     34  O   UNL A   1      39.796  21.948  27.025  1.00  0.00    -0.376 OA
BRANCH  34  35
ATOM     35  C   UNL A   1      40.498  23.176  27.168  1.00  0.00     0.202 C 
BRANCH  35  36
ATOM     36  C   UNL A   1      41.745  23.602  26.391  1.00  0.00     0.261 C 
BRANCH  36  37
ATOM     37  O   UNL A   1      42.300  24.886  26.621  1.00  0.00    -0.460 OA
BRANCH  37  38
ATOM     38  C   UNL A   1      41.573  25.969  26.338  1.00  0.00     0.338 C 
ATOM     39  O   UNL A   1      40.825  26.156  25.392  1.00  0.00    -0.246 OA
BRANCH  38  40
ATOM     40  C   UNL A   1      41.686  26.800  27.539  1.00  0.00     0.060 A 
ATOM     41  C   UNL A   1      40.745  26.586  28.549  1.00  0.00     0.016 A 
ATOM     42  C   UNL A   1      42.756  27.688  27.712  1.00  0.00     0.016 A 
ATOM     43  C   UNL A   1      40.853  27.282  29.739  1.00  0.00     0.010 A 
ATOM     44  C   UNL A   1      42.837  28.424  28.893  1.00  0.00     0.010 A 
ATOM     45  C   UNL A   1      41.861  28.244  29.885  1.00  0.00    -0.014 A 
BRANCH  45  46
ATOM     46  C   UNL A   1      41.680  29.226  30.965  1.00  0.00     0.031 A 
ATOM     47  C   UNL A   1      40.508  30.158  30.850  1.00  0.00     0.074 A 
ATOM     48  C   UNL A   1      42.443  29.172  32.068  1.00  0.00     0.049 A 
ATOM     49  N   UNL A   1      40.064  31.040  31.702  1.00  0.00    -0.248 NA
ATOM     50  C   UNL A   1      39.717  30.065  29.609  1.00  0.00     0.031 C 
ATOM     51  C   UNL A   1      43.556  28.248  32.282  1.00  0.00     0.029 A 
ATOM     52  N   UNL A   1      42.378  29.900  33.224  1.00  0.00    -0.354 N 
ATOM     53  C   UNL A   1      38.941  31.600  31.103  1.00  0.00     0.074 A 
ATOM     54  C   UNL A   1      38.790  30.989  29.805  1.00  0.00     0.031 C 
ATOM     55  C   UNL A   1      44.074  28.467  33.503  1.00  0.00     0.029 A 
ATOM     56  C   UNL A   1      43.344  29.562  34.138  1.00  0.00     0.049 A 
ATOM     57  H   UNL A   1      41.703  30.598  33.387  1.00  0.00     0.167 HD
ATOM     58  C   UNL A   1      38.104  32.533  31.609  1.00  0.00     0.037 A 
ATOM     59  C   UNL A   1      43.608  30.101  35.342  1.00  0.00     0.037 A 
ATOM     60  C   UNL A   1      38.284  33.134  32.901  1.00  0.00     0.049 A 
ATOM     61  C   UNL A   1      42.711  31.205  35.841  1.00  0.00     0.074 A 
ATOM     62  C   UNL A   1      37.521  34.108  33.514  1.00  0.00     0.029 A 
ATOM     63  N   UNL A   1      39.312  32.814  33.778  1.00  0.00    -0.354 N 
ATOM     64  N   UNL A   1      41.650  31.731  35.274  1.00  0.00    -0.248 NA
ATOM     65  C   UNL A   1      43.042  31.782  37.149  1.00  0.00     0.031 C 
ATOM     66  C   UNL A   1      38.120  34.418  34.738  1.00  0.00     0.029 A 
ATOM     67  C   UNL A   1      39.216  33.589  34.919  1.00  0.00     0.049 A 
ATOM     68  H   UNL A   1      40.008  32.137  33.610  1.00  0.00     0.167 HD
ATOM     69  C   UNL A   1      41.168  32.678  36.168  1.00  0.00     0.074 A 
ATOM     70  C   UNL A   1      42.042  32.635  37.323  1.00  0.00     0.031 C 
ATOM     71  C   UNL A   1      40.103  33.509  36.053  1.00  0.00     0.037 A 
BRANCH  58  72
ATOM     72  C   UNL A   1      36.958  32.976  30.749  1.00  0.00     0.057 A 
ATOM     73  C   UNL A   1      37.147  33.766  29.606  1.00  0.00     0.134 A 
ATOM     74  C   UNL A   1      35.648  32.589  31.056  1.00  0.00     0.134 A 
ATOM     75  F   UNL A   1      38.373  34.194  29.270  1.00  0.00    -0.206 F 
ATOM     76  C   UNL A   1      36.072  34.167  28.810  1.00  0.00     0.040 A 
ATOM     77  C   UNL A   1      34.569  32.959  30.252  1.00  0.00     0.040 A 
ATOM     78  F   UNL A   1      35.395  31.840  32.140  1.00  0.00    -0.206 F 
ATOM     79  C   UNL A   1      34.779  33.754  29.127  1.00  0.00     0.006 A 
ENDBRANCH  58  72
BRANCH  59  80
ATOM     80  C   UNL A   1      44.772  29.634  36.139  1.00  0.00     0.057 A 
ATOM     81  C   UNL A   1      46.032  30.233  36.024  1.00  0.00     0.134 A 
ATOM     82  C   UNL A   1      44.659  28.543  37.010  1.00  0.00     0.134 A 
ATOM     83  F   UNL A   1      46.213  31.272  35.195  1.00  0.00    -0.206 F 
ATOM     84  C   UNL A   1      47.141  29.746  36.720  1.00  0.00     0.040 A 
ATOM     85  C   UNL A   1      45.751  28.066  37.737  1.00  0.00     0.040 A 
ATOM     86  F   UNL A   1      43.480  27.925  37.174  1.00  0.00    -0.206 F 
ATOM     87  C   UNL A   1      47.001  28.660  37.582  1.00  0.00     0.006 A 
ENDBRANCH  59  80
BRANCH  71  88
ATOM     88  C   UNL A   1      39.804  34.397  37.226  1.00  0.00     0.057 A 
ATOM     89  C   UNL A   1      39.109  33.935  38.351  1.00  0.00     0.134 A 
ATOM     90  C   UNL A   1      40.245  35.727  37.236  1.00  0.00     0.134 A 
ATOM     91  F   UNL A   1      38.653  32.675  38.399  1.00  0.00    -0.206 F 
ATOM     92  C   UNL A   1      38.828  34.778  39.427  1.00  0.00     0.040 A 
ATOM     93  C   UNL A   1      40.001  36.567  38.322  1.00  0.00     0.040 A 
ATOM     94  F   UNL A   1      40.930  36.227  36.198  1.00  0.00    -0.206 F 
ATOM     95  C   UNL A   1      39.280  36.096  39.416  1.00  0.00     0.006 A 
ENDBRANCH  71  88
ENDBRANCH  45  46
ENDBRANCH  38  40
ENDBRANCH  37  38
ENDBRANCH  36  37
ENDBRANCH  35  36
ENDBRANCH  34  35
ENDBRANCH  33  34
ENDBRANCH  32  33
ENDBRANCH  31  32
ENDBRANCH   1  31
TORSDOF 25
ENDMDL
MODEL 2
REMARK VINA RESULT:      -9.6      6.614     10.059
REMARK SMILES COc1ccc(-c2nc(SCC(=O)OCCOCCOCCOCCOC(=O)c3ccc(-c4c5nc(c(-c6c(F)cccc6F)c6ccc([nH]6)c(-c6c(F)cccc6F)c6nc(c(-c7c(F)cccc7F)c7ccc4[nH]7)C=C6)C=C5)cc3)cc(-c3ccncc3)n2)cc1
REMARK SMILES IDX 19 1 18 2 17 3 16 4 15 5 14 6 12 7 13 8 11 9 10 10 9 11 7 12
REMARK SMILES IDX 8 13 91 14 84 15 83 16 6 17 3 18 4 19 93 20 5 21 92 22 2 23
REMARK SMILES IDX 1 24 85 25 86 26 90 27 87 28 89 29 88 30 20 31 21 32 22 33
REMARK SMILES IDX 23 34 24 35 25 36 26 37 27 38 28 39 29 40 30 41 82 42 31 43
REMARK SMILES IDX 81 44 32 45 33 46 34 47 75 48 35 49 80 50 74 51 76 52 36 53
REMARK SMILES IDX 79 54 73 55 72 56 37 58 63 59 46 60 62 61 47 62 50 63 61 64
REMARK SMILES IDX 77 65 48 66 49 67 60 69 78 70 51 71 38 72 39 73 44 74 40 75
REMARK SMILES IDX 41 76 43 77 45 78 42 79 64 80 65 81 70 82 66 83 67 84 69 85
REMARK SMILES IDX 71 86 68 87 52 88 53 89 58 90 54 91 55 92 57 93 59 94 56 95
REMARK H PARENT 76 57 50 68
REMARK Flexibility Score: inf
ROOT
ATOM      1  C   UNL A   1      34.774  22.228  25.804  1.00  0.00     0.188 C 
ENDROOT
BRANCH   1   2
ATOM      2  C   UNL A   1      33.370  22.728  25.415  1.00  0.00     0.188 C 
BRANCH   2   3
ATOM      3  O   UNL A   1      33.051  24.091  25.550  1.00  0.00    -0.376 OA
BRANCH   3   4
ATOM      4  C   UNL A   1      32.043  24.699  24.773  1.00  0.00     0.202 C 
BRANCH   4   5
ATOM      5  C   UNL A   1      31.210  25.908  25.249  1.00  0.00     0.261 C 
BRANCH   5   6
ATOM      6  O   UNL A   1      31.268  26.235  26.659  1.00  0.00    -0.463 OA
BRANCH   6   7
ATOM      7  C   UNL A   1      31.737  27.451  27.017  1.00  0.00     0.316 C 
ATOM      8  O   UNL A   1      31.227  28.111  27.920  1.00  0.00    -0.251 OA
BRANCH   7   9
ATOM      9  C   UNL A   1      33.007  27.951  26.317  1.00  0.00     0.199 C 
BRANCH   9  10
ATOM     10  S   UNL A   1      33.378  29.736  26.148  1.00  0.00    -0.094 SA
BRANCH  10  11
ATOM     11  C   UNL A   1      34.494  30.277  27.491  1.00  0.00     0.101 A 
ATOM     12  C   UNL A   1      34.850  32.019  29.004  1.00  0.00     0.161 A 
ATOM     13  N   UNL A   1      34.011  31.339  28.190  1.00  0.00    -0.222 NA
ATOM     14  N   UNL A   1      36.149  31.688  29.175  1.00  0.00    -0.228 NA
ATOM     15  C   UNL A   1      36.612  30.593  28.511  1.00  0.00     0.076 A 
ATOM     16  C   UNL A   1      35.796  29.842  27.665  1.00  0.00     0.064 A 
BRANCH  12  17
ATOM     17  C   UNL A   1      34.339  33.288  29.617  1.00  0.00     0.019 A 
ATOM     18  C   UNL A   1      33.158  35.638  30.802  1.00  0.00     0.118 A 
ATOM     19  C   UNL A   1      33.938  34.754  31.553  1.00  0.00     0.047 A 
ATOM     20  C   UNL A   1      33.008  35.382  29.450  1.00  0.00     0.047 A 
ATOM     21  C   UNL A   1      34.495  33.586  30.979  1.00  0.00     0.016 A 
ATOM     22  C   UNL A   1      33.624  34.250  28.878  1.00  0.00     0.016 A 
BRANCH  18  23
ATOM     23  O   UNL A   1      32.664  36.723  31.471  1.00  0.00    -0.497 OA
ATOM     24  C   UNL A   1      33.575  37.775  31.788  1.00  0.00     0.278 C 
ENDBRANCH  18  23
ENDBRANCH  12  17
BRANCH  15  25
ATOM     25  C   UNL A   1      38.072  30.317  28.655  1.00  0.00     0.003 A 
ATOM     26  C   UNL A   1      38.856  30.899  29.664  1.00  0.00     0.030 A 
ATOM     27  C   UNL A   1      38.735  29.419  27.813  1.00  0.00     0.030 A 
ATOM     28  C   UNL A   1      40.181  30.524  29.845  1.00  0.00     0.111 A 
ATOM     29  C   UNL A   1      40.086  29.146  28.027  1.00  0.00     0.111 A 
ATOM     30  N   UNL A   1      40.817  29.666  29.034  1.00  0.00    -0.265 NA
ENDBRANCH  15  25
ENDBRANCH  10  11
ENDBRANCH   9  10
ENDBRANCH   7   9
ENDBRANCH   6   7
ENDBRANCH   5   6
ENDBRANCH   4   5
ENDBRANCH   3   4
ENDBRANCH   2   3
ENDBRANCH   1   2
BRANCH   1  31
ATOM     31  O   UNL A   1      35.676  21.777  24.822  1.00  0.00    -0.377 OA
BRANCH  31  32
ATOM     32  C   UNL A   1      36.738  22.646  24.525  1.00  0.00     0.188 C 
BRANCH  32  33
ATOM     33  C   UNL A   1      37.730  22.712  25.689  1.00  0.00     0.188 C 
BRANCH  33  34
ATOM     34  O   UNL A   1      38.221  24.012  25.958  1.00  0.00    -0.376 OA
BRANCH  34  35
ATOM     35  C   UNL A   1      39.213  24.209  26.957  1.00  0.00     0.202 C 
BRANCH  35  36
ATOM     36  C   UNL A   1      40.238  23.178  27.431  1.00  0.00     0.261 C 
BRANCH  36  37
ATOM     37  O   UNL A   1      41.599  23.555  27.547  1.00  0.00    -0.460 OA
BRANCH  37  38
ATOM     38  C   UNL A   1      42.404  23.415  26.492  1.00  0.00     0.338 C 
ATOM     39  O   UNL A   1      42.341  22.596  25.590  1.00  0.00    -0.246 OA
BRANCH  38  40
ATOM     40  C   UNL A   1      43.248  24.613  26.525  1.00  0.00     0.060 A 
ATOM     41  C   UNL A   1      43.468  25.267  25.310  1.00  0.00     0.016 A 
ATOM     42  C   UNL A   1      43.718  25.140  27.735  1.00  0.00     0.016 A 
ATOM     43  C   UNL A   1      44.186  26.449  25.293  1.00  0.00     0.010 A 
ATOM     44  C   UNL A   1      44.482  26.305  27.712  1.00  0.00     0.010 A 
ATOM     45  C   UNL A   1      44.744  26.932  26.484  1.00  0.00    -0.014 A 
BRANCH  45  46
ATOM     46  C   UNL A   1      45.821  27.926  26.349  1.00  0.00     0.031 A 
ATOM     47  C   UNL A   1      45.439  29.370  26.506  1.00  0.00     0.074 A 
ATOM     48  C   UNL A   1      47.100  27.534  26.247  1.00  0.00     0.049 A 
ATOM     49  N   UNL A   1      46.198  30.430  26.535  1.00  0.00    -0.248 NA
ATOM     50  C   UNL A   1      44.001  29.653  26.674  1.00  0.00     0.031 C 
ATOM     51  C   UNL A   1      47.554  26.146  26.159  1.00  0.00     0.029 A 
ATOM     52  N   UNL A   1      48.251  28.271  26.224  1.00  0.00    -0.354 N 
ATOM     53  C   UNL A   1      45.334  31.500  26.732  1.00  0.00     0.074 A 
ATOM     54  C   UNL A   1      43.992  30.972  26.777  1.00  0.00     0.031 C 
ATOM     55  C   UNL A   1      48.896  26.132  26.089  1.00  0.00     0.029 A 
ATOM     56  C   UNL A   1      49.386  27.509  26.101  1.00  0.00     0.049 A 
ATOM     57  H   UNL A   1      48.266  29.253  26.290  1.00  0.00     0.167 HD
ATOM     58  C   UNL A   1      45.644  32.807  26.876  1.00  0.00     0.037 A 
ATOM     59  C   UNL A   1      50.669  27.898  25.992  1.00  0.00     0.037 A 
ATOM     60  C   UNL A   1      46.989  33.308  26.814  1.00  0.00     0.049 A 
ATOM     61  C   UNL A   1      50.976  29.371  26.064  1.00  0.00     0.074 A 
ATOM     62  C   UNL A   1      47.430  34.613  26.919  1.00  0.00     0.029 A 
ATOM     63  N   UNL A   1      48.112  32.515  26.625  1.00  0.00    -0.354 N 
ATOM     64  N   UNL A   1      50.157  30.380  26.251  1.00  0.00    -0.248 NA
ATOM     65  C   UNL A   1      52.384  29.759  25.921  1.00  0.00     0.031 C 
ATOM     66  C   UNL A   1      48.816  34.616  26.736  1.00  0.00     0.029 A 
ATOM     67  C   UNL A   1      49.246  33.306  26.587  1.00  0.00     0.049 A 
ATOM     68  H   UNL A   1      48.103  31.535  26.530  1.00  0.00     0.167 HD
ATOM     69  C   UNL A   1      50.952  31.519  26.279  1.00  0.00     0.074 A 
ATOM     70  C   UNL A   1      52.320  31.069  26.112  1.00  0.00     0.031 C 
ATOM     71  C   UNL A   1      50.593  32.818  26.428  1.00  0.00     0.037 A 
BRANCH  58  72
ATOM     72  C   UNL A   1      44.512  33.772  27.072  1.00  0.00     0.057 A 
ATOM     73  C   UNL A   1      44.040  34.117  28.346  1.00  0.00     0.134 A 
ATOM     74  C   UNL A   1      43.898  34.380  25.970  1.00  0.00     0.134 A 
ATOM     75  F   UNL A   1      44.565  33.551  29.443  1.00  0.00    -0.206 F 
ATOM     76  C   UNL A   1      42.989  35.021  28.515  1.00  0.00     0.040 A 
ATOM     77  C   UNL A   1      42.867  35.306  26.128  1.00  0.00     0.040 A 
ATOM     78  F   UNL A   1      44.295  34.088  24.723  1.00  0.00    -0.206 F 
ATOM     79  C   UNL A   1      42.407  35.627  27.403  1.00  0.00     0.006 A 
ENDBRANCH  58  72
BRANCH  59  80
ATOM     80  C   UNL A   1      51.745  26.895  25.777  1.00  0.00     0.057 A 
ATOM     81  C   UNL A   1      52.127  26.488  24.493  1.00  0.00     0.134 A 
ATOM     82  C   UNL A   1      52.393  26.288  26.860  1.00  0.00     0.134 A 
ATOM     83  F   UNL A   1      51.536  27.018  23.412  1.00  0.00    -0.206 F 
ATOM     84  C   UNL A   1      53.089  25.494  24.296  1.00  0.00     0.040 A 
ATOM     85  C   UNL A   1      53.378  25.317  26.678  1.00  0.00     0.040 A 
ATOM     86  F   UNL A   1      52.081  26.636  28.118  1.00  0.00    -0.206 F 
ATOM     87  C   UNL A   1      53.719  24.907  25.392  1.00  0.00     0.006 A 
ENDBRANCH  59  80
BRANCH  71  88
ATOM     88  C   UNL A   1      51.702  33.829  26.467  1.00  0.00     0.057 A 
ATOM     89  C   UNL A   1      52.226  34.404  25.302  1.00  0.00     0.134 A 
ATOM     90  C   UNL A   1      52.232  34.251  27.694  1.00  0.00     0.134 A 
ATOM     91  F   UNL A   1      51.768  34.036  24.096  1.00  0.00    -0.206 F 
ATOM     92  C   UNL A   1      53.266  35.333  25.354  1.00  0.00     0.040 A 
ATOM     93  C   UNL A   1      53.246  35.206  27.759  1.00  0.00     0.040 A 
ATOM     94  F   UNL A   1      51.763  33.753  28.847  1.00  0.00    -0.206 F 
ATOM     95  C   UNL A   1      53.773  35.741  26.587  1.00  0.00     0.006 A 
ENDBRANCH  71  88
ENDBRANCH  45  46
ENDBRANCH  38  40
ENDBRANCH  37  38
ENDBRANCH  36  37
ENDBRANCH  35  36
ENDBRANCH  34  35
ENDBRANCH  33  34
ENDBRANCH  32  33
ENDBRANCH  31  32
ENDBRANCH   1  31
TORSDOF 25
ENDMDL
MODEL 3
REMARK VINA RESULT:      -8.7      4.418      7.512
REMARK SMILES COc1ccc(-c2nc(SCC(=O)OCCOCCOCCOCCOC(=O)c3ccc(-c4c5nc(c(-c6c(F)cccc6F)c6ccc([nH]6)c(-c6c(F)cccc6F)c6nc(c(-c7c(F)cccc7F)c7ccc4[nH]7)C=C6)C=C5)cc3)cc(-c3ccncc3)n2)cc1
REMARK SMILES IDX 19 1 18 2 17 3 16 4 15 5 14 6 12 7 13 8 11 9 10 10 9 11 7 12
REMARK SMILES IDX 8 13 91 14 84 15 83 16 6 17 3 18 4 19 93 20 5 21 92 22 2 23
REMARK SMILES IDX 1 24 85 25 86 26 90 27 87 28 89 29 88 30 20 31 21 32 22 33
REMARK SMILES IDX 23 34 24 35 25 36 26 37 27 38 28 39 29 40 30 41 82 42 31 43
REMARK SMILES IDX 81 44 32 45 33 46 34 47 75 48 35 49 80 50 74 51 76 52 36 53
REMARK SMILES IDX 79 54 73 55 72 56 37 58 63 59 46 60 62 61 47 62 50 63 61 64
REMARK SMILES IDX 77 65 48 66 49 67 60 69 78 70 51 71 38 72 39 73 44 74 40 75
REMARK SMILES IDX 41 76 43 77 45 78 42 79 64 80 65 81 70 82 66 83 67 84 69 85
REMARK SMILES IDX 71 86 68 87 52 88 53 89 58 90 54 91 55 92 57 93 59 94 56 95
REMARK H PARENT 76 57 50 68
REMARK Flexibility Score: inf
ROOT
ATOM      1  C   UNL A   1      45.869  22.686  25.087  1.00  0.00     0.188 C 
ENDROOT
BRANCH   1   2
ATOM      2  C   UNL A   1      45.753  21.306  24.412  1.00  0.00     0.188 C 
BRANCH   2   3
ATOM      3  O   UNL A   1      46.767  20.349  24.599  1.00  0.00    -0.376 OA
BRANCH   3   4
ATOM      4  C   UNL A   1      46.571  19.205  25.400  1.00  0.00     0.202 C 
BRANCH   4   5
ATOM      5  C   UNL A   1      45.232  18.441  25.484  1.00  0.00     0.261 C 
BRANCH   5   6
ATOM      6  O   UNL A   1      44.044  19.140  25.038  1.00  0.00    -0.463 OA
BRANCH   6   7
ATOM      7  C   UNL A   1      42.874  18.882  25.664  1.00  0.00     0.316 C 
ATOM      8  O   UNL A   1      42.618  17.781  26.148  1.00  0.00    -0.251 OA
BRANCH   7   9
ATOM      9  C   UNL A   1      41.897  20.051  25.842  1.00  0.00     0.199 C 
BRANCH   9  10
ATOM     10  S   UNL A   1      41.605  20.826  27.474  1.00  0.00    -0.094 SA
BRANCH  10  11
ATOM     11  C   UNL A   1      40.656  22.376  27.274  1.00  0.00     0.101 A 
ATOM     12  C   UNL A   1      38.703  23.233  26.323  1.00  0.00     0.161 A 
ATOM     13  N   UNL A   1      39.400  22.172  26.792  1.00  0.00    -0.222 NA
ATOM     14  N   UNL A   1      39.185  24.496  26.321  1.00  0.00    -0.228 NA
ATOM     15  C   UNL A   1      40.423  24.698  26.851  1.00  0.00     0.076 A 
ATOM     16  C   UNL A   1      41.188  23.650  27.362  1.00  0.00     0.064 A 
BRANCH  12  17
ATOM     17  C   UNL A   1      37.402  22.953  25.634  1.00  0.00     0.019 A 
ATOM     18  C   UNL A   1      34.822  22.336  24.499  1.00  0.00     0.118 A 
ATOM     19  C   UNL A   1      35.186  23.647  24.819  1.00  0.00     0.047 A 
ATOM     20  C   UNL A   1      35.760  21.337  24.695  1.00  0.00     0.047 A 
ATOM     21  C   UNL A   1      36.440  23.947  25.401  1.00  0.00     0.016 A 
ATOM     22  C   UNL A   1      37.031  21.660  25.215  1.00  0.00     0.016 A 
BRANCH  18  23
ATOM     23  O   UNL A   1      33.579  22.170  23.954  1.00  0.00    -0.497 OA
ATOM     24  C   UNL A   1      32.548  23.061  24.379  1.00  0.00     0.278 C 
ENDBRANCH  18  23
ENDBRANCH  12  17
BRANCH  15  25
ATOM     25  C   UNL A   1      40.953  26.089  26.746  1.00  0.00     0.003 A 
ATOM     26  C   UNL A   1      40.730  27.061  27.736  1.00  0.00     0.030 A 
ATOM     27  C   UNL A   1      41.748  26.492  25.668  1.00  0.00     0.030 A 
ATOM     28  C   UNL A   1      41.343  28.305  27.665  1.00  0.00     0.111 A 
ATOM     29  C   UNL A   1      42.273  27.783  25.646  1.00  0.00     0.111 A 
ATOM     30  N   UNL A   1      42.101  28.691  26.628  1.00  0.00    -0.265 NA
ENDBRANCH  15  25
ENDBRANCH  10  11
ENDBRANCH   9  10
ENDBRANCH   7   9
ENDBRANCH   6   7
ENDBRANCH   5   6
ENDBRANCH   4   5
ENDBRANCH   3   4
ENDBRANCH   2   3
ENDBRANCH   1   2
BRANCH   1  31
ATOM     31  O   UNL A   1      45.764  23.869  24.331  1.00  0.00    -0.377 OA
BRANCH  31  32
ATOM     32  C   UNL A   1      45.355  25.010  25.039  1.00  0.00     0.188 C 
BRANCH  32  33
ATOM     33  C   UNL A   1      46.479  26.048  25.095  1.00  0.00     0.188 C 
BRANCH  33  34
ATOM     34  O   UNL A   1      46.209  27.232  24.367  1.00  0.00    -0.376 OA
BRANCH  34  35
ATOM     35  C   UNL A   1      46.349  28.501  24.991  1.00  0.00     0.202 C 
BRANCH  35  36
ATOM     36  C   UNL A   1      46.593  28.757  26.479  1.00  0.00     0.261 C 
BRANCH  36  37
ATOM     37  O   UNL A   1      45.513  28.635  27.390  1.00  0.00    -0.460 OA
BRANCH  37  38
ATOM     38  C   UNL A   1      45.659  27.866  28.471  1.00  0.00     0.338 C 
ATOM     39  O   UNL A   1      46.445  26.950  28.653  1.00  0.00    -0.246 OA
BRANCH  38  40
ATOM     40  C   UNL A   1      44.827  28.516  29.487  1.00  0.00     0.060 A 
ATOM     41  C   UNL A   1      44.978  29.896  29.643  1.00  0.00     0.016 A 
ATOM     42  C   UNL A   1      43.846  27.804  30.189  1.00  0.00     0.016 A 
ATOM     43  C   UNL A   1      44.159  30.576  30.526  1.00  0.00     0.010 A 
ATOM     44  C   UNL A   1      43.053  28.481  31.115  1.00  0.00     0.010 A 
ATOM     45  C   UNL A   1      43.242  29.858  31.305  1.00  0.00    -0.014 A 
BRANCH  45  46
ATOM     46  C   UNL A   1      42.714  30.544  32.495  1.00  0.00     0.031 A 
ATOM     47  C   UNL A   1      41.319  31.092  32.403  1.00  0.00     0.074 A 
ATOM     48  C   UNL A   1      43.400  30.530  33.648  1.00  0.00     0.049 A 
ATOM     49  N   UNL A   1      40.582  31.645  33.326  1.00  0.00    -0.248 NA
ATOM     50  C   UNL A   1      40.658  30.983  31.088  1.00  0.00     0.031 C 
ATOM     51  C   UNL A   1      44.731  29.954  33.834  1.00  0.00     0.029 A 
ATOM     52  N   UNL A   1      43.056  30.997  34.887  1.00  0.00    -0.354 N 
ATOM     53  C   UNL A   1      39.373  31.940  32.708  1.00  0.00     0.074 A 
ATOM     54  C   UNL A   1      39.483  31.543  31.325  1.00  0.00     0.031 C 
ATOM     55  C   UNL A   1      45.095  30.105  35.119  1.00  0.00     0.029 A 
ATOM     56  C   UNL A   1      44.032  30.809  35.833  1.00  0.00     0.049 A 
ATOM     57  H   UNL A   1      42.191  31.426  35.082  1.00  0.00     0.167 HD
ATOM     58  C   UNL A   1      38.265  32.483  33.260  1.00  0.00     0.037 A 
ATOM     59  C   UNL A   1      44.056  31.189  37.124  1.00  0.00     0.037 A 
ATOM     60  C   UNL A   1      38.186  32.881  34.637  1.00  0.00     0.049 A 
ATOM     61  C   UNL A   1      42.839  31.875  37.688  1.00  0.00     0.074 A 
ATOM     62  C   UNL A   1      37.130  33.466  35.308  1.00  0.00     0.029 A 
ATOM     63  N   UNL A   1      39.217  32.735  35.555  1.00  0.00    -0.354 N 
ATOM     64  N   UNL A   1      41.698  32.153  37.102  1.00  0.00    -0.248 NA
ATOM     65  C   UNL A   1      42.909  32.292  39.093  1.00  0.00     0.031 C 
ATOM     66  C   UNL A   1      37.542  33.726  36.618  1.00  0.00     0.029 A 
ATOM     67  C   UNL A   1      38.830  33.239  36.783  1.00  0.00     0.049 A 
ATOM     68  H   UNL A   1      40.095  32.333  35.360  1.00  0.00     0.167 HD
ATOM     69  C   UNL A   1      40.902  32.747  38.073  1.00  0.00     0.074 A 
ATOM     70  C   UNL A   1      41.688  32.768  39.290  1.00  0.00     0.031 C 
ATOM     71  C   UNL A   1      39.640  33.233  37.976  1.00  0.00     0.037 A 
BRANCH  58  72
ATOM     72  C   UNL A   1      37.083  32.707  32.364  1.00  0.00     0.057 A 
ATOM     73  C   UNL A   1      36.135  31.704  32.116  1.00  0.00     0.134 A 
ATOM     74  C   UNL A   1      36.878  33.952  31.757  1.00  0.00     0.134 A 
ATOM     75  F   UNL A   1      36.286  30.480  32.644  1.00  0.00    -0.206 F 
ATOM     76  C   UNL A   1      35.035  31.928  31.285  1.00  0.00     0.040 A 
ATOM     77  C   UNL A   1      35.767  34.196  30.948  1.00  0.00     0.040 A 
ATOM     78  F   UNL A   1      37.751  34.953  31.945  1.00  0.00    -0.206 F 
ATOM     79  C   UNL A   1      34.844  33.182  30.707  1.00  0.00     0.006 A 
ENDBRANCH  58  72
BRANCH  59  80
ATOM     80  C   UNL A   1      45.266  30.958  37.955  1.00  0.00     0.057 A 
ATOM     81  C   UNL A   1      46.208  31.968  38.182  1.00  0.00     0.134 A 
ATOM     82  C   UNL A   1      45.530  29.700  38.512  1.00  0.00     0.134 A 
ATOM     83  F   UNL A   1      46.024  33.192  37.665  1.00  0.00    -0.206 F 
ATOM     84  C   UNL A   1      47.379  31.728  38.904  1.00  0.00     0.040 A 
ATOM     85  C   UNL A   1      46.680  29.455  39.262  1.00  0.00     0.040 A 
ATOM     86  F   UNL A   1      44.667  28.687  38.339  1.00  0.00    -0.206 F 
ATOM     87  C   UNL A   1      47.617  30.468  39.449  1.00  0.00     0.006 A 
ENDBRANCH  59  80
BRANCH  71  88
ATOM     88  C   UNL A   1      39.024  33.779  39.231  1.00  0.00     0.057 A 
ATOM     89  C   UNL A   1      39.250  35.093  39.661  1.00  0.00     0.134 A 
ATOM     90  C   UNL A   1      38.168  32.982  40.003  1.00  0.00     0.134 A 
ATOM     91  F   UNL A   1      40.066  35.904  38.971  1.00  0.00    -0.206 F 
ATOM     92  C   UNL A   1      38.680  35.580  40.838  1.00  0.00     0.040 A 
ATOM     93  C   UNL A   1      37.564  33.470  41.161  1.00  0.00     0.040 A 
ATOM     94  F   UNL A   1      37.896  31.720  39.638  1.00  0.00    -0.206 F 
ATOM     95  C   UNL A   1      37.829  34.769  41.587  1.00  0.00     0.006 A 
ENDBRANCH  71  88
ENDBRANCH  45  46
ENDBRANCH  38  40
ENDBRANCH  37  38
ENDBRANCH  36  37
ENDBRANCH  35  36
ENDBRANCH  34  35
ENDBRANCH  33  34
ENDBRANCH  32  33
ENDBRANCH  31  32
ENDBRANCH   1  31
TORSDOF 25
ENDMDL
