MODEL 1
REMARK VINA RESULT:      -9.6      0.000      0.000
REMARK SMILES CC(C)CCc1cc2c(cc1Cl)C=C(C(=O)OCCOCCOCCOCCOC(=O)c1ccc(-c3c4nc(c(-c5c(F)cccc5F)c5ccc([nH]5)c(-c5c(F)cccc5F)c5nc(c(-c6c(F)cccc6F)c6ccc3[nH]6)C=C5)C=C4)cc1)[C@@H](C(F)(F)F)O2
REMARK SMILES IDX 22 1 21 2 20 3 19 4 18 5 17 6 15 7 16 8 14 9 6 10 7 11 11 12
REMARK SMILES IDX 8 13 10 14 12 15 9 16 91 17 13 18 86 19 5 20 4 21 2 22 1 23
REMARK SMILES IDX 3 24 87 25 88 26 89 27 90 28 23 29 24 30 25 31 26 32 27 33
REMARK SMILES IDX 28 34 29 35 30 36 31 37 32 38 33 39 85 40 34 41 84 42 35 43
REMARK SMILES IDX 36 44 37 45 78 46 38 47 83 48 77 49 79 50 39 51 82 52 76 53
REMARK SMILES IDX 75 54 40 56 66 57 49 58 65 59 50 60 53 61 64 62 80 63 51 64
REMARK SMILES IDX 52 65 63 67 81 68 54 69 41 70 42 71 47 72 43 73 44 74 46 75
REMARK SMILES IDX 48 76 45 77 67 78 68 79 73 80 69 81 70 82 72 83 74 84 71 85
REMARK SMILES IDX 55 86 56 87 61 88 57 89 58 90 60 91 62 92 59 93
REMARK H PARENT 79 55 53 66
REMARK Flexibility Score: inf
ROOT
ATOM      1  C   UNL A   1      32.999  29.582  27.150  1.00  0.00     0.188 C 
ENDROOT
BRANCH   1   2
ATOM      2  C   UNL A   1      33.978  28.691  26.365  1.00  0.00     0.188 C 
BRANCH   2   3
ATOM      3  O   UNL A   1      33.842  28.804  24.951  1.00  0.00    -0.376 OA
BRANCH   3   4
ATOM      4  C   UNL A   1      32.558  29.163  24.457  1.00  0.00     0.202 C 
BRANCH   4   5
ATOM      5  C   UNL A   1      32.071  28.378  23.228  1.00  0.00     0.261 C 
BRANCH   5   6
ATOM      6  O   UNL A   1      32.486  27.005  23.198  1.00  0.00    -0.460 OA
BRANCH   6   7
ATOM      7  C   UNL A   1      31.502  26.097  23.059  1.00  0.00     0.338 C 
ATOM      8  O   UNL A   1      30.489  26.220  22.391  1.00  0.00    -0.246 OA
BRANCH   7   9
ATOM      9  C   UNL A   1      31.940  24.835  23.678  1.00  0.00     0.087 C 
ATOM     10  C   UNL A   1      32.731  19.932  24.531  1.00  0.00    -0.026 A 
ATOM     11  C   UNL A   1      32.904  21.120  25.296  1.00  0.00     0.052 A 
ATOM     12  C   UNL A   1      32.399  20.095  23.176  1.00  0.00     0.045 A 
ATOM     13  C   UNL A   1      32.676  22.391  24.757  1.00  0.00     0.128 A 
ATOM     14  C   UNL A   1      32.249  21.372  22.625  1.00  0.00     0.032 A 
ATOM     15  Cl  UNL A   1      32.036  18.846  22.050  1.00  0.00    -0.084 Cl
ATOM     16  C   UNL A   1      32.333  22.506  23.421  1.00  0.00     0.019 A 
ATOM     17  O   UNL A   1      32.783  23.462  25.599  1.00  0.00    -0.475 OA
ATOM     18  C   UNL A   1      31.959  23.781  22.857  1.00  0.00     0.027 C 
ATOM     19  C   UNL A   1      32.373  24.782  25.119  1.00  0.00     0.316 C 
BRANCH  10  20
ATOM     20  C   UNL A   1      32.964  18.633  25.291  1.00  0.00     0.037 C 
BRANCH  20  21
ATOM     21  C   UNL A   1      32.406  17.295  24.782  1.00  0.00     0.008 C 
BRANCH  21  22
ATOM     22  C   UNL A   1      33.462  16.284  24.283  1.00  0.00    -0.017 C 
ATOM     23  C   UNL A   1      34.265  16.786  23.085  1.00  0.00     0.007 C 
ATOM     24  C   UNL A   1      34.402  15.914  25.433  1.00  0.00     0.007 C 
ENDBRANCH  21  22
ENDBRANCH  20  21
ENDBRANCH  10  20
BRANCH  19  25
ATOM     25  C   UNL A   1      31.280  25.329  26.048  1.00  0.00     0.430 C 
ATOM     26  F   UNL A   1      31.399  24.830  27.301  1.00  0.00    -0.167 F 
ATOM     27  F   UNL A   1      31.346  26.677  26.159  1.00  0.00    -0.167 F 
ATOM     28  F   UNL A   1      30.040  25.022  25.604  1.00  0.00    -0.167 F 
ENDBRANCH  19  25
ENDBRANCH   7   9
ENDBRANCH   6   7
ENDBRANCH   5   6
ENDBRANCH   4   5
ENDBRANCH   3   4
ENDBRANCH   2   3
ENDBRANCH   1   2
BRANCH   1  29
ATOM     29  O   UNL A   1      33.558  30.785  27.646  1.00  0.00    -0.377 OA
BRANCH  29  30
ATOM     30  C   UNL A   1      34.979  30.933  27.638  1.00  0.00     0.188 C 
BRANCH  30  31
ATOM     31  C   UNL A   1      35.872  30.551  28.843  1.00  0.00     0.188 C 
BRANCH  31  32
ATOM     32  O   UNL A   1      35.402  31.013  30.102  1.00  0.00    -0.376 OA
BRANCH  32  33
ATOM     33  C   UNL A   1      34.878  32.332  30.144  1.00  0.00     0.202 C 
BRANCH  33  34
ATOM     34  C   UNL A   1      34.954  32.984  31.528  1.00  0.00     0.261 C 
BRANCH  34  35
ATOM     35  O   UNL A   1      36.175  33.690  31.801  1.00  0.00    -0.460 OA
BRANCH  35  36
ATOM     36  C   UNL A   1      37.023  33.154  32.707  1.00  0.00     0.338 C 
ATOM     37  O   UNL A   1      36.901  33.146  33.920  1.00  0.00    -0.246 OA
BRANCH  36  38
ATOM     38  C   UNL A   1      38.039  32.388  31.957  1.00  0.00     0.060 A 
ATOM     39  C   UNL A   1      38.319  32.707  30.625  1.00  0.00     0.016 A 
ATOM     40  C   UNL A   1      38.682  31.309  32.579  1.00  0.00     0.016 A 
ATOM     41  C   UNL A   1      39.271  31.967  29.926  1.00  0.00     0.010 A 
ATOM     42  C   UNL A   1      39.631  30.564  31.874  1.00  0.00     0.010 A 
ATOM     43  C   UNL A   1      39.952  30.907  30.552  1.00  0.00    -0.014 A 
BRANCH  43  44
ATOM     44  C   UNL A   1      41.134  30.311  29.887  1.00  0.00     0.031 A 
ATOM     45  C   UNL A   1      41.152  28.900  29.388  1.00  0.00     0.074 A 
ATOM     46  C   UNL A   1      42.220  31.094  29.743  1.00  0.00     0.049 A 
ATOM     47  N   UNL A   1      42.086  28.286  28.704  1.00  0.00    -0.248 NA
ATOM     48  C   UNL A   1      39.982  28.068  29.697  1.00  0.00     0.031 C 
ATOM     49  C   UNL A   1      42.328  32.473  30.227  1.00  0.00     0.029 A 
ATOM     50  N   UNL A   1      43.430  30.852  29.149  1.00  0.00    -0.354 N 
ATOM     51  C   UNL A   1      41.611  27.001  28.477  1.00  0.00     0.074 A 
ATOM     52  C   UNL A   1      40.323  26.911  29.140  1.00  0.00     0.031 C 
ATOM     53  C   UNL A   1      43.532  32.961  29.892  1.00  0.00     0.029 A 
ATOM     54  C   UNL A   1      44.283  31.926  29.190  1.00  0.00     0.049 A 
ATOM     55  H   UNL A   1      43.665  29.990  28.734  1.00  0.00     0.167 HD
ATOM     56  C   UNL A   1      42.192  26.001  27.770  1.00  0.00     0.037 A 
ATOM     57  C   UNL A   1      45.532  32.065  28.712  1.00  0.00     0.037 A 
ATOM     58  C   UNL A   1      43.486  26.090  27.138  1.00  0.00     0.049 A 
ATOM     59  C   UNL A   1      46.165  30.923  27.973  1.00  0.00     0.074 A 
ATOM     60  C   UNL A   1      44.137  25.145  26.360  1.00  0.00     0.029 A 
ATOM     61  N   UNL A   1      44.339  27.181  27.226  1.00  0.00    -0.354 N 
ATOM     62  N   UNL A   1      45.665  29.747  27.680  1.00  0.00    -0.248 NA
ATOM     63  C   UNL A   1      47.536  31.132  27.489  1.00  0.00     0.031 C 
ATOM     64  C   UNL A   1      45.401  25.643  26.023  1.00  0.00     0.029 A 
ATOM     65  C   UNL A   1      45.521  26.920  26.547  1.00  0.00     0.049 A 
ATOM     66  H   UNL A   1      44.137  28.019  27.703  1.00  0.00     0.167 HD
ATOM     67  C   UNL A   1      46.649  29.086  26.957  1.00  0.00     0.074 A 
ATOM     68  C   UNL A   1      47.764  30.003  26.836  1.00  0.00     0.031 C 
ATOM     69  C   UNL A   1      46.630  27.833  26.441  1.00  0.00     0.037 A 
BRANCH  56  70
ATOM     70  C   UNL A   1      41.431  24.712  27.635  1.00  0.00     0.057 A 
ATOM     71  C   UNL A   1      41.774  23.588  28.399  1.00  0.00     0.134 A 
ATOM     72  C   UNL A   1      40.400  24.563  26.698  1.00  0.00     0.134 A 
ATOM     73  F   UNL A   1      42.761  23.656  29.305  1.00  0.00    -0.206 F 
ATOM     74  C   UNL A   1      41.121  22.365  28.233  1.00  0.00     0.040 A 
ATOM     75  C   UNL A   1      39.724  23.352  26.540  1.00  0.00     0.040 A 
ATOM     76  F   UNL A   1      40.021  25.600  25.935  1.00  0.00    -0.206 F 
ATOM     77  C   UNL A   1      40.090  22.245  27.305  1.00  0.00     0.006 A 
ENDBRANCH  56  70
BRANCH  57  78
ATOM     78  C   UNL A   1      46.261  33.342  28.896  1.00  0.00     0.057 A 
ATOM     79  C   UNL A   1      46.145  34.387  27.972  1.00  0.00     0.134 A 
ATOM     80  C   UNL A   1      47.072  33.556  30.016  1.00  0.00     0.134 A 
ATOM     81  F   UNL A   1      45.390  34.238  26.872  1.00  0.00    -0.206 F 
ATOM     82  C   UNL A   1      46.806  35.601  28.157  1.00  0.00     0.040 A 
ATOM     83  C   UNL A   1      47.718  34.774  30.226  1.00  0.00     0.040 A 
ATOM     84  F   UNL A   1      47.210  32.596  30.942  1.00  0.00    -0.206 F 
ATOM     85  C   UNL A   1      47.587  35.801  29.293  1.00  0.00     0.006 A 
ENDBRANCH  57  78
BRANCH  69  86
ATOM     86  C   UNL A   1      47.851  27.397  25.682  1.00  0.00     0.057 A 
ATOM     87  C   UNL A   1      47.911  27.523  24.289  1.00  0.00     0.134 A 
ATOM     88  C   UNL A   1      48.973  26.862  26.331  1.00  0.00     0.134 A 
ATOM     89  F   UNL A   1      46.871  28.022  23.604  1.00  0.00    -0.206 F 
ATOM     90  C   UNL A   1      49.043  27.137  23.569  1.00  0.00     0.040 A 
ATOM     91  C   UNL A   1      50.121  26.501  25.624  1.00  0.00     0.040 A 
ATOM     92  F   UNL A   1      48.988  26.733  27.666  1.00  0.00    -0.206 F 
ATOM     93  C   UNL A   1      50.157  26.635  24.238  1.00  0.00     0.006 A 
ENDBRANCH  69  86
ENDBRANCH  43  44
ENDBRANCH  36  38
ENDBRANCH  35  36
ENDBRANCH  34  35
ENDBRANCH  33  34
ENDBRANCH  32  33
ENDBRANCH  31  32
ENDBRANCH  30  31
ENDBRANCH  29  30
ENDBRANCH   1  29
TORSDOF 24
ENDMDL
MODEL 2
REMARK VINA RESULT:      -9.6      5.611     11.973
REMARK SMILES CC(C)CCc1cc2c(cc1Cl)C=C(C(=O)OCCOCCOCCOCCOC(=O)c1ccc(-c3c4nc(c(-c5c(F)cccc5F)c5ccc([nH]5)c(-c5c(F)cccc5F)c5nc(c(-c6c(F)cccc6F)c6ccc3[nH]6)C=C5)C=C4)cc1)[C@@H](C(F)(F)F)O2
REMARK SMILES IDX 22 1 21 2 20 3 19 4 18 5 17 6 15 7 16 8 14 9 6 10 7 11 11 12
REMARK SMILES IDX 8 13 10 14 12 15 9 16 91 17 13 18 86 19 5 20 4 21 2 22 1 23
REMARK SMILES IDX 3 24 87 25 88 26 89 27 90 28 23 29 24 30 25 31 26 32 27 33
REMARK SMILES IDX 28 34 29 35 30 36 31 37 32 38 33 39 85 40 34 41 84 42 35 43
REMARK SMILES IDX 36 44 37 45 78 46 38 47 83 48 77 49 79 50 39 51 82 52 76 53
REMARK SMILES IDX 75 54 40 56 66 57 49 58 65 59 50 60 53 61 64 62 80 63 51 64
REMARK SMILES IDX 52 65 63 67 81 68 54 69 41 70 42 71 47 72 43 73 44 74 46 75
REMARK SMILES IDX 48 76 45 77 67 78 68 79 73 80 69 81 70 82 72 83 74 84 71 85
REMARK SMILES IDX 55 86 56 87 61 88 57 89 58 90 60 91 62 92 59 93
REMARK H PARENT 79 55 53 66
REMARK Flexibility Score: inf
ROOT
ATOM      1  C   UNL A   1      42.777  22.344  27.216  1.00  0.00     0.188 C 
ENDROOT
BRANCH   1   2
ATOM      2  C   UNL A   1      41.392  22.617  26.602  1.00  0.00     0.188 C 
BRANCH   2   3
ATOM      3  O   UNL A   1      40.405  22.982  27.563  1.00  0.00    -0.376 OA
BRANCH   3   4
ATOM      4  C   UNL A   1      39.569  24.085  27.236  1.00  0.00     0.202 C 
BRANCH   4   5
ATOM      5  C   UNL A   1      40.041  25.456  27.745  1.00  0.00     0.261 C 
BRANCH   5   6
ATOM      6  O   UNL A   1      39.064  26.501  27.627  1.00  0.00    -0.460 OA
BRANCH   6   7
ATOM      7  C   UNL A   1      39.527  27.757  27.765  1.00  0.00     0.338 C 
ATOM      8  O   UNL A   1      40.402  28.286  27.100  1.00  0.00    -0.246 OA
BRANCH   7   9
ATOM      9  C   UNL A   1      38.663  28.472  28.719  1.00  0.00     0.087 C 
ATOM     10  C   UNL A   1      35.507  31.843  30.735  1.00  0.00    -0.026 A 
ATOM     11  C   UNL A   1      36.300  30.782  31.255  1.00  0.00     0.052 A 
ATOM     12  C   UNL A   1      35.428  31.948  29.336  1.00  0.00     0.045 A 
ATOM     13  C   UNL A   1      37.036  29.928  30.425  1.00  0.00     0.128 A 
ATOM     14  C   UNL A   1      36.105  31.043  28.512  1.00  0.00     0.032 A 
ATOM     15  Cl  UNL A   1      34.630  33.183  28.442  1.00  0.00    -0.084 Cl
ATOM     16  C   UNL A   1      36.944  30.078  29.051  1.00  0.00     0.019 A 
ATOM     17  O   UNL A   1      37.835  28.998  31.026  1.00  0.00    -0.475 OA
ATOM     18  C   UNL A   1      37.785  29.312  28.162  1.00  0.00     0.027 C 
ATOM     19  C   UNL A   1      38.756  28.217  30.199  1.00  0.00     0.316 C 
BRANCH  10  20
ATOM     20  C   UNL A   1      34.820  32.710  31.782  1.00  0.00     0.037 C 
BRANCH  20  21
ATOM     21  C   UNL A   1      35.369  32.830  33.211  1.00  0.00     0.008 C 
BRANCH  21  22
ATOM     22  C   UNL A   1      35.718  34.263  33.669  1.00  0.00    -0.017 C 
ATOM     23  C   UNL A   1      37.211  34.577  33.599  1.00  0.00     0.007 C 
ATOM     24  C   UNL A   1      34.925  35.275  32.838  1.00  0.00     0.007 C 
ENDBRANCH  21  22
ENDBRANCH  20  21
ENDBRANCH  10  20
BRANCH  19  25
ATOM     25  C   UNL A   1      40.186  28.433  30.712  1.00  0.00     0.430 C 
ATOM     26  F   UNL A   1      41.007  27.427  30.331  1.00  0.00    -0.167 F 
ATOM     27  F   UNL A   1      40.724  29.578  30.229  1.00  0.00    -0.167 F 
ATOM     28  F   UNL A   1      40.232  28.507  32.062  1.00  0.00    -0.167 F 
ENDBRANCH  19  25
ENDBRANCH   7   9
ENDBRANCH   6   7
ENDBRANCH   5   6
ENDBRANCH   4   5
ENDBRANCH   3   4
ENDBRANCH   2   3
ENDBRANCH   1   2
BRANCH   1  29
ATOM     29  O   UNL A   1      43.852  23.001  26.571  1.00  0.00    -0.377 OA
BRANCH  29  30
ATOM     30  C   UNL A   1      45.145  22.394  26.609  1.00  0.00     0.188 C 
BRANCH  30  31
ATOM     31  C   UNL A   1      45.707  21.533  25.452  1.00  0.00     0.188 C 
BRANCH  31  32
ATOM     32  O   UNL A   1      46.730  22.159  24.689  1.00  0.00    -0.376 OA
BRANCH  32  33
ATOM     33  C   UNL A   1      46.360  23.316  23.952  1.00  0.00     0.202 C 
BRANCH  33  34
ATOM     34  C   UNL A   1      46.817  24.630  24.594  1.00  0.00     0.261 C 
BRANCH  34  35
ATOM     35  O   UNL A   1      45.789  25.621  24.746  1.00  0.00    -0.460 OA
BRANCH  35  36
ATOM     36  C   UNL A   1      46.169  26.917  24.802  1.00  0.00     0.338 C 
ATOM     37  O   UNL A   1      46.686  27.576  23.917  1.00  0.00    -0.246 OA
BRANCH  36  38
ATOM     38  C   UNL A   1      45.656  27.468  26.074  1.00  0.00     0.060 A 
ATOM     39  C   UNL A   1      46.542  27.962  27.034  1.00  0.00     0.016 A 
ATOM     40  C   UNL A   1      44.278  27.445  26.326  1.00  0.00     0.016 A 
ATOM     41  C   UNL A   1      46.045  28.467  28.235  1.00  0.00     0.010 A 
ATOM     42  C   UNL A   1      43.782  27.944  27.533  1.00  0.00     0.010 A 
ATOM     43  C   UNL A   1      44.661  28.485  28.482  1.00  0.00    -0.014 A 
BRANCH  43  44
ATOM     44  C   UNL A   1      44.139  29.258  29.634  1.00  0.00     0.031 A 
ATOM     45  C   UNL A   1      43.827  30.719  29.549  1.00  0.00     0.074 A 
ATOM     46  C   UNL A   1      43.951  28.591  30.789  1.00  0.00     0.049 A 
ATOM     47  N   UNL A   1      43.276  31.492  30.452  1.00  0.00    -0.248 NA
ATOM     48  C   UNL A   1      44.180  31.405  28.300  1.00  0.00     0.031 C 
ATOM     49  C   UNL A   1      44.259  27.173  30.997  1.00  0.00     0.029 A 
ATOM     50  N   UNL A   1      43.455  29.006  31.995  1.00  0.00    -0.354 N 
ATOM     51  C   UNL A   1      43.192  32.752  29.877  1.00  0.00     0.074 A 
ATOM     52  C   UNL A   1      43.795  32.650  28.561  1.00  0.00     0.031 C 
ATOM     53  C   UNL A   1      43.925  26.833  32.250  1.00  0.00     0.029 A 
ATOM     54  C   UNL A   1      43.401  28.009  32.936  1.00  0.00     0.049 A 
ATOM     55  H   UNL A   1      43.166  29.932  32.171  1.00  0.00     0.167 HD
ATOM     56  C   UNL A   1      42.649  33.882  30.397  1.00  0.00     0.037 A 
ATOM     57  C   UNL A   1      42.973  28.036  34.211  1.00  0.00     0.037 A 
ATOM     58  C   UNL A   1      42.077  33.981  31.718  1.00  0.00     0.049 A 
ATOM     59  C   UNL A   1      42.420  29.314  34.771  1.00  0.00     0.074 A 
ATOM     60  C   UNL A   1      41.461  35.071  32.314  1.00  0.00     0.029 A 
ATOM     61  N   UNL A   1      42.068  32.961  32.658  1.00  0.00    -0.354 N 
ATOM     62  N   UNL A   1      42.255  30.474  34.183  1.00  0.00    -0.248 NA
ATOM     63  C   UNL A   1      41.983  29.282  36.173  1.00  0.00     0.031 C 
ATOM     64  C   UNL A   1      41.128  34.726  33.629  1.00  0.00     0.029 A 
ATOM     65  C   UNL A   1      41.489  33.405  33.839  1.00  0.00     0.049 A 
ATOM     66  H   UNL A   1      42.422  32.054  32.510  1.00  0.00     0.167 HD
ATOM     67  C   UNL A   1      41.674  31.301  35.133  1.00  0.00     0.074 A 
ATOM     68  C   UNL A   1      41.493  30.502  36.328  1.00  0.00     0.031 C 
ATOM     69  C   UNL A   1      41.323  32.607  35.026  1.00  0.00     0.037 A 
BRANCH  56  70
ATOM     70  C   UNL A   1      42.643  35.111  29.532  1.00  0.00     0.057 A 
ATOM     71  C   UNL A   1      41.522  35.442  28.758  1.00  0.00     0.134 A 
ATOM     72  C   UNL A   1      43.773  35.931  29.414  1.00  0.00     0.134 A 
ATOM     73  F   UNL A   1      40.412  34.692  28.812  1.00  0.00    -0.206 F 
ATOM     74  C   UNL A   1      41.528  36.541  27.898  1.00  0.00     0.040 A 
ATOM     75  C   UNL A   1      43.782  37.046  28.574  1.00  0.00     0.040 A 
ATOM     76  F   UNL A   1      44.879  35.671  30.128  1.00  0.00    -0.206 F 
ATOM     77  C   UNL A   1      42.659  37.350  27.807  1.00  0.00     0.006 A 
ENDBRANCH  56  70
BRANCH  57  78
ATOM     78  C   UNL A   1      43.028  26.809  35.040  1.00  0.00     0.057 A 
ATOM     79  C   UNL A   1      44.179  26.469  35.761  1.00  0.00     0.134 A 
ATOM     80  C   UNL A   1      41.921  25.961  35.150  1.00  0.00     0.134 A 
ATOM     81  F   UNL A   1      45.277  27.237  35.687  1.00  0.00    -0.206 F 
ATOM     82  C   UNL A   1      44.225  25.330  36.565  1.00  0.00     0.040 A 
ATOM     83  C   UNL A   1      41.945  24.833  35.971  1.00  0.00     0.040 A 
ATOM     84  F   UNL A   1      40.787  26.244  34.493  1.00  0.00    -0.206 F 
ATOM     85  C   UNL A   1      43.102  24.515  36.681  1.00  0.00     0.006 A 
ENDBRANCH  57  78
BRANCH  69  86
ATOM     86  C   UNL A   1      40.689  33.236  36.233  1.00  0.00     0.057 A 
ATOM     87  C   UNL A   1      41.470  33.895  37.191  1.00  0.00     0.134 A 
ATOM     88  C   UNL A   1      39.304  33.199  36.445  1.00  0.00     0.134 A 
ATOM     89  F   UNL A   1      42.803  33.964  37.053  1.00  0.00    -0.206 F 
ATOM     90  C   UNL A   1      40.897  34.499  38.311  1.00  0.00     0.040 A 
ATOM     91  C   UNL A   1      38.717  33.825  37.546  1.00  0.00     0.040 A 
ATOM     92  F   UNL A   1      38.496  32.601  35.557  1.00  0.00    -0.206 F 
ATOM     93  C   UNL A   1      39.515  34.474  38.485  1.00  0.00     0.006 A 
ENDBRANCH  69  86
ENDBRANCH  43  44
ENDBRANCH  36  38
ENDBRANCH  35  36
ENDBRANCH  34  35
ENDBRANCH  33  34
ENDBRANCH  32  33
ENDBRANCH  31  32
ENDBRANCH  30  31
ENDBRANCH  29  30
ENDBRANCH   1  29
TORSDOF 24
ENDMDL
MODEL 3
REMARK VINA RESULT:      -9.6      4.870     10.337
REMARK SMILES CC(C)CCc1cc2c(cc1Cl)C=C(C(=O)OCCOCCOCCOCCOC(=O)c1ccc(-c3c4nc(c(-c5c(F)cccc5F)c5ccc([nH]5)c(-c5c(F)cccc5F)c5nc(c(-c6c(F)cccc6F)c6ccc3[nH]6)C=C5)C=C4)cc1)[C@@H](C(F)(F)F)O2
REMARK SMILES IDX 22 1 21 2 20 3 19 4 18 5 17 6 15 7 16 8 14 9 6 10 7 11 11 12
REMARK SMILES IDX 8 13 10 14 12 15 9 16 91 17 13 18 86 19 5 20 4 21 2 22 1 23
REMARK SMILES IDX 3 24 87 25 88 26 89 27 90 28 23 29 24 30 25 31 26 32 27 33
REMARK SMILES IDX 28 34 29 35 30 36 31 37 32 38 33 39 85 40 34 41 84 42 35 43
REMARK SMILES IDX 36 44 37 45 78 46 38 47 83 48 77 49 79 50 39 51 82 52 76 53
REMARK SMILES IDX 75 54 40 56 66 57 49 58 65 59 50 60 53 61 64 62 80 63 51 64
REMARK SMILES IDX 52 65 63 67 81 68 54 69 41 70 42 71 47 72 43 73 44 74 46 75
REMARK SMILES IDX 48 76 45 77 67 78 68 79 73 80 69 81 70 82 72 83 74 84 71 85
REMARK SMILES IDX 55 86 56 87 61 88 57 89 58 90 60 91 62 92 59 93
REMARK H PARENT 79 55 53 66
REMARK Flexibility Score: inf
ROOT
ATOM      1  C   UNL A   1      41.035  22.350  27.322  1.00  0.00     0.188 C 
ENDROOT
BRANCH   1   2
ATOM      2  C   UNL A   1      39.639  22.023  26.765  1.00  0.00     0.188 C 
BRANCH   2   3
ATOM      3  O   UNL A   1      38.757  23.143  26.742  1.00  0.00    -0.376 OA
BRANCH   3   4
ATOM      4  C   UNL A   1      38.020  23.354  25.545  1.00  0.00     0.202 C 
BRANCH   4   5
ATOM      5  C   UNL A   1      36.576  22.826  25.547  1.00  0.00     0.261 C 
BRANCH   5   6
ATOM      6  O   UNL A   1      35.604  23.754  25.042  1.00  0.00    -0.460 OA
BRANCH   6   7
ATOM      7  C   UNL A   1      35.416  23.740  23.710  1.00  0.00     0.338 C 
ATOM      8  O   UNL A   1      36.041  23.083  22.894  1.00  0.00    -0.246 OA
BRANCH   7   9
ATOM      9  C   UNL A   1      34.188  24.493  23.403  1.00  0.00     0.087 C 
ATOM     10  C   UNL A   1      30.445  27.859  23.623  1.00  0.00    -0.026 A 
ATOM     11  C   UNL A   1      30.681  26.675  22.869  1.00  0.00     0.052 A 
ATOM     12  C   UNL A   1      31.511  28.336  24.403  1.00  0.00     0.045 A 
ATOM     13  C   UNL A   1      31.884  25.965  22.956  1.00  0.00     0.128 A 
ATOM     14  C   UNL A   1      32.737  27.664  24.424  1.00  0.00     0.032 A 
ATOM     15  Cl  UNL A   1      31.476  29.675  25.482  1.00  0.00    -0.084 Cl
ATOM     16  C   UNL A   1      32.904  26.461  23.751  1.00  0.00     0.019 A 
ATOM     17  O   UNL A   1      31.977  24.794  22.259  1.00  0.00    -0.475 OA
ATOM     18  C   UNL A   1      34.108  25.698  23.976  1.00  0.00     0.027 C 
ATOM     19  C   UNL A   1      33.144  23.937  22.473  1.00  0.00     0.316 C 
BRANCH  10  20
ATOM     20  C   UNL A   1      29.060  28.470  23.453  1.00  0.00     0.037 C 
BRANCH  20  21
ATOM     21  C   UNL A   1      28.700  29.311  22.219  1.00  0.00     0.008 C 
BRANCH  21  22
ATOM     22  C   UNL A   1      29.000  30.822  22.337  1.00  0.00    -0.017 C 
ATOM     23  C   UNL A   1      28.430  31.647  21.186  1.00  0.00     0.007 C 
ATOM     24  C   UNL A   1      28.472  31.346  23.676  1.00  0.00     0.007 C 
ENDBRANCH  21  22
ENDBRANCH  20  21
ENDBRANCH  10  20
BRANCH  19  25
ATOM     25  C   UNL A   1      32.664  22.555  22.938  1.00  0.00     0.430 C 
ATOM     26  F   UNL A   1      32.404  21.740  21.889  1.00  0.00    -0.167 F 
ATOM     27  F   UNL A   1      33.597  21.929  23.695  1.00  0.00    -0.167 F 
ATOM     28  F   UNL A   1      31.535  22.636  23.680  1.00  0.00    -0.167 F 
ENDBRANCH  19  25
ENDBRANCH   7   9
ENDBRANCH   6   7
ENDBRANCH   5   6
ENDBRANCH   4   5
ENDBRANCH   3   4
ENDBRANCH   2   3
ENDBRANCH   1   2
BRANCH   1  29
ATOM     29  O   UNL A   1      41.768  23.300  26.570  1.00  0.00    -0.377 OA
BRANCH  29  30
ATOM     30  C   UNL A   1      42.534  22.843  25.454  1.00  0.00     0.188 C 
BRANCH  30  31
ATOM     31  C   UNL A   1      43.448  21.596  25.514  1.00  0.00     0.188 C 
BRANCH  31  32
ATOM     32  O   UNL A   1      44.298  21.428  24.386  1.00  0.00    -0.376 OA
BRANCH  32  33
ATOM     33  C   UNL A   1      45.500  22.183  24.374  1.00  0.00     0.202 C 
BRANCH  33  34
ATOM     34  C   UNL A   1      45.277  23.697  24.290  1.00  0.00     0.261 C 
BRANCH  34  35
ATOM     35  O   UNL A   1      45.729  24.442  25.432  1.00  0.00    -0.460 OA
BRANCH  35  36
ATOM     36  C   UNL A   1      45.868  25.779  25.296  1.00  0.00     0.338 C 
ATOM     37  O   UNL A   1      46.424  26.377  24.391  1.00  0.00    -0.246 OA
BRANCH  36  38
ATOM     38  C   UNL A   1      45.040  26.414  26.342  1.00  0.00     0.060 A 
ATOM     39  C   UNL A   1      44.201  25.635  27.144  1.00  0.00     0.016 A 
ATOM     40  C   UNL A   1      45.067  27.807  26.487  1.00  0.00     0.016 A 
ATOM     41  C   UNL A   1      43.416  26.249  28.118  1.00  0.00     0.010 A 
ATOM     42  C   UNL A   1      44.274  28.421  27.460  1.00  0.00     0.010 A 
ATOM     43  C   UNL A   1      43.465  27.642  28.300  1.00  0.00    -0.014 A 
BRANCH  43  44
ATOM     44  C   UNL A   1      42.834  28.241  29.500  1.00  0.00     0.031 A 
ATOM     45  C   UNL A   1      43.462  28.179  30.857  1.00  0.00     0.074 A 
ATOM     46  C   UNL A   1      41.648  28.856  29.330  1.00  0.00     0.049 A 
ATOM     47  N   UNL A   1      43.063  28.743  31.970  1.00  0.00    -0.248 NA
ATOM     48  C   UNL A   1      44.687  27.380  30.989  1.00  0.00     0.031 C 
ATOM     49  C   UNL A   1      40.924  28.943  28.059  1.00  0.00     0.029 A 
ATOM     50  N   UNL A   1      40.848  29.525  30.217  1.00  0.00    -0.354 N 
ATOM     51  C   UNL A   1      43.998  28.392  32.933  1.00  0.00     0.074 A 
ATOM     52  C   UNL A   1      44.960  27.523  32.282  1.00  0.00     0.031 C 
ATOM     53  C   UNL A   1      39.796  29.644  28.245  1.00  0.00     0.029 A 
ATOM     54  C   UNL A   1      39.709  30.037  29.647  1.00  0.00     0.049 A 
ATOM     55  H   UNL A   1      41.068  29.628  31.171  1.00  0.00     0.167 HD
ATOM     56  C   UNL A   1      44.051  28.772  34.234  1.00  0.00     0.037 A 
ATOM     57  C   UNL A   1      38.706  30.749  30.191  1.00  0.00     0.037 A 
ATOM     58  C   UNL A   1      43.074  29.614  34.881  1.00  0.00     0.049 A 
ATOM     59  C   UNL A   1      38.773  31.115  31.645  1.00  0.00     0.074 A 
ATOM     60  C   UNL A   1      43.069  30.091  36.183  1.00  0.00     0.029 A 
ATOM     61  N   UNL A   1      41.915  30.088  34.284  1.00  0.00    -0.354 N 
ATOM     62  N   UNL A   1      39.713  30.859  32.522  1.00  0.00    -0.248 NA
ATOM     63  C   UNL A   1      37.640  31.879  32.182  1.00  0.00     0.031 C 
ATOM     64  C   UNL A   1      41.885  30.809  36.387  1.00  0.00     0.029 A 
ATOM     65  C   UNL A   1      41.173  30.823  35.198  1.00  0.00     0.049 A 
ATOM     66  H   UNL A   1      41.655  29.926  33.348  1.00  0.00     0.167 HD
ATOM     67  C   UNL A   1      39.298  31.451  33.706  1.00  0.00     0.074 A 
ATOM     68  C   UNL A   1      38.033  32.099  33.428  1.00  0.00     0.031 C 
ATOM     69  C   UNL A   1      39.910  31.456  34.916  1.00  0.00     0.037 A 
BRANCH  56  70
ATOM     70  C   UNL A   1      45.212  28.283  35.054  1.00  0.00     0.057 A 
ATOM     71  C   UNL A   1      46.420  28.992  35.088  1.00  0.00     0.134 A 
ATOM     72  C   UNL A   1      45.156  27.072  35.757  1.00  0.00     0.134 A 
ATOM     73  F   UNL A   1      46.548  30.152  34.426  1.00  0.00    -0.206 F 
ATOM     74  C   UNL A   1      47.529  28.513  35.788  1.00  0.00     0.040 A 
ATOM     75  C   UNL A   1      46.251  26.595  36.480  1.00  0.00     0.040 A 
ATOM     76  F   UNL A   1      44.029  26.344  35.767  1.00  0.00    -0.206 F 
ATOM     77  C   UNL A   1      47.445  27.313  36.491  1.00  0.00     0.006 A 
ENDBRANCH  56  70
BRANCH  57  78
ATOM     78  C   UNL A   1      37.563  31.182  29.354  1.00  0.00     0.057 A 
ATOM     79  C   UNL A   1      36.500  30.317  29.069  1.00  0.00     0.134 A 
ATOM     80  C   UNL A   1      37.495  32.482  28.841  1.00  0.00     0.134 A 
ATOM     81  F   UNL A   1      36.513  29.054  29.523  1.00  0.00    -0.206 F 
ATOM     82  C   UNL A   1      35.408  30.730  28.306  1.00  0.00     0.040 A 
ATOM     83  C   UNL A   1      36.396  32.917  28.099  1.00  0.00     0.040 A 
ATOM     84  F   UNL A   1      38.477  33.360  29.095  1.00  0.00    -0.206 F 
ATOM     85  C   UNL A   1      35.349  32.038  27.828  1.00  0.00     0.006 A 
ENDBRANCH  57  78
BRANCH  69  86
ATOM     86  C   UNL A   1      39.219  32.206  36.018  1.00  0.00     0.057 A 
ATOM     87  C   UNL A   1      39.550  33.538  36.295  1.00  0.00     0.134 A 
ATOM     88  C   UNL A   1      38.217  31.614  36.801  1.00  0.00     0.134 A 
ATOM     89  F   UNL A   1      40.503  34.165  35.588  1.00  0.00    -0.206 F 
ATOM     90  C   UNL A   1      38.907  34.255  37.305  1.00  0.00     0.040 A 
ATOM     91  C   UNL A   1      37.548  32.331  37.794  1.00  0.00     0.040 A 
ATOM     92  F   UNL A   1      37.838  30.347  36.575  1.00  0.00    -0.206 F 
ATOM     93  C   UNL A   1      37.895  33.655  38.051  1.00  0.00     0.006 A 
ENDBRANCH  69  86
ENDBRANCH  43  44
ENDBRANCH  36  38
ENDBRANCH  35  36
ENDBRANCH  34  35
ENDBRANCH  33  34
ENDBRANCH  32  33
ENDBRANCH  31  32
ENDBRANCH  30  31
ENDBRANCH  29  30
ENDBRANCH   1  29
TORSDOF 24
ENDMDL
