MODEL 1
REMARK VINA RESULT:      -9.9      0.000      0.000
REMARK SMILES O=C(OCCOCCOCCOCCOC(=O)[C@H]1CCCC[C@@H]1C(=O)Nc1ccc(Br)c(Cl)c1)c1ccc(-c2c3nc(c(-c4c(F)cccc4F)c4ccc([nH]4)c(-c4c(F)cccc4F)c4nc(c(-c5c(F)cccc5F)c5ccc2[nH]5)C=C4)C=C3)cc1
REMARK SMILES IDX 9 1 8 2 7 3 6 4 5 5 4 6 3 7 2 8 1 9 35 10 36 11 88 12 37 13
REMARK SMILES IDX 87 14 38 15 39 16 40 17 81 18 41 19 86 20 80 21 82 22 42 23
REMARK SMILES IDX 85 24 79 25 78 26 43 28 69 29 52 30 68 31 53 32 56 33 67 34
REMARK SMILES IDX 83 35 54 36 55 37 66 39 84 40 57 41 44 42 45 43 50 44 46 45
REMARK SMILES IDX 47 46 49 47 51 48 48 49 70 50 71 51 76 52 72 53 73 54 75 55
REMARK SMILES IDX 77 56 74 57 58 58 59 59 64 60 60 61 61 62 63 63 65 64 62 65
REMARK SMILES IDX 10 66 11 67 12 68 13 69 14 70 15 71 16 72 17 73 18 74 19 75
REMARK SMILES IDX 23 76 20 77 22 78 21 79 24 80 25 81 26 82 27 84 28 85 34 86
REMARK SMILES IDX 29 87 32 88 30 89 33 90 31 91
REMARK H PARENT 82 27 56 38 26 83
REMARK Flexibility Score: inf
ROOT
ATOM      1  O   UNL A   1      34.864  32.095  28.867  1.00  0.00    -0.377 OA
ENDROOT
BRANCH   1   2
ATOM      2  C   UNL A   1      35.319  33.438  28.983  1.00  0.00     0.188 C 
BRANCH   2   3
ATOM      3  C   UNL A   1      34.683  34.450  28.023  1.00  0.00     0.188 C 
BRANCH   3   4
ATOM      4  O   UNL A   1      34.118  35.560  28.714  1.00  0.00    -0.376 OA
BRANCH   4   5
ATOM      5  C   UNL A   1      32.882  35.349  29.397  1.00  0.00     0.202 C 
BRANCH   5   6
ATOM      6  C   UNL A   1      32.643  36.311  30.556  1.00  0.00     0.261 C 
BRANCH   6   7
ATOM      7  O   UNL A   1      32.381  35.569  31.751  1.00  0.00    -0.460 OA
BRANCH   7   8
ATOM      8  C   UNL A   1      33.181  35.885  32.797  1.00  0.00     0.338 C 
ATOM      9  O   UNL A   1      33.003  36.801  33.595  1.00  0.00    -0.246 OA
BRANCH   8  10
ATOM     10  C   UNL A   1      34.363  34.998  32.767  1.00  0.00     0.060 A 
ATOM     11  C   UNL A   1      35.561  35.424  32.188  1.00  0.00     0.016 A 
ATOM     12  C   UNL A   1      34.259  33.703  33.297  1.00  0.00     0.016 A 
ATOM     13  C   UNL A   1      36.676  34.585  32.241  1.00  0.00     0.010 A 
ATOM     14  C   UNL A   1      35.338  32.850  33.301  1.00  0.00     0.010 A 
ATOM     15  C   UNL A   1      36.565  33.316  32.831  1.00  0.00    -0.014 A 
BRANCH  15  16
ATOM     16  C   UNL A   1      37.736  32.545  33.270  1.00  0.00     0.031 A 
ATOM     17  C   UNL A   1      38.531  32.951  34.461  1.00  0.00     0.074 A 
ATOM     18  C   UNL A   1      38.189  31.636  32.387  1.00  0.00     0.049 A 
ATOM     19  N   UNL A   1      39.595  32.385  34.963  1.00  0.00    -0.248 NA
ATOM     20  C   UNL A   1      38.101  34.174  35.158  1.00  0.00     0.031 C 
ATOM     21  C   UNL A   1      37.559  31.341  31.093  1.00  0.00     0.029 A 
ATOM     22  N   UNL A   1      39.301  30.845  32.402  1.00  0.00    -0.354 N 
ATOM     23  C   UNL A   1      39.945  33.158  36.061  1.00  0.00     0.074 A 
ATOM     24  C   UNL A   1      39.026  34.277  36.103  1.00  0.00     0.031 C 
ATOM     25  C   UNL A   1      38.299  30.437  30.439  1.00  0.00     0.029 A 
ATOM     26  C   UNL A   1      39.441  30.086  31.269  1.00  0.00     0.049 A 
ATOM     27  H   UNL A   1      39.938  30.822  33.153  1.00  0.00     0.167 HD
ATOM     28  C   UNL A   1      40.936  32.923  36.954  1.00  0.00     0.037 A 
ATOM     29  C   UNL A   1      40.385  29.188  30.949  1.00  0.00     0.037 A 
ATOM     30  C   UNL A   1      41.870  31.830  36.815  1.00  0.00     0.049 A 
ATOM     31  C   UNL A   1      41.444  28.907  31.966  1.00  0.00     0.074 A 
ATOM     32  C   UNL A   1      42.856  31.408  37.686  1.00  0.00     0.029 A 
ATOM     33  N   UNL A   1      41.951  31.008  35.693  1.00  0.00    -0.354 N 
ATOM     34  N   UNL A   1      41.655  29.500  33.119  1.00  0.00    -0.248 NA
ATOM     35  C   UNL A   1      42.374  27.817  31.663  1.00  0.00     0.031 C 
ATOM     36  C   UNL A   1      43.569  30.372  37.067  1.00  0.00     0.029 A 
ATOM     37  C   UNL A   1      42.995  30.109  35.832  1.00  0.00     0.049 A 
ATOM     38  H   UNL A   1      41.352  31.059  34.914  1.00  0.00     0.167 HD
ATOM     39  C   UNL A   1      42.739  28.854  33.687  1.00  0.00     0.074 A 
ATOM     40  C   UNL A   1      43.116  27.799  32.761  1.00  0.00     0.031 C 
ATOM     41  C   UNL A   1      43.371  29.106  34.861  1.00  0.00     0.037 A 
BRANCH  28  42
ATOM     42  C   UNL A   1      41.041  33.851  38.133  1.00  0.00     0.057 A 
ATOM     43  C   UNL A   1      41.931  34.931  38.134  1.00  0.00     0.134 A 
ATOM     44  C   UNL A   1      40.256  33.673  39.284  1.00  0.00     0.134 A 
ATOM     45  F   UNL A   1      42.724  35.164  37.078  1.00  0.00    -0.206 F 
ATOM     46  C   UNL A   1      42.026  35.804  39.223  1.00  0.00     0.040 A 
ATOM     47  C   UNL A   1      40.319  34.555  40.365  1.00  0.00     0.040 A 
ATOM     48  F   UNL A   1      39.378  32.660  39.358  1.00  0.00    -0.206 F 
ATOM     49  C   UNL A   1      41.209  35.625  40.337  1.00  0.00     0.006 A 
ENDBRANCH  28  42
BRANCH  29  50
ATOM     50  C   UNL A   1      40.275  28.447  29.671  1.00  0.00     0.057 A 
ATOM     51  C   UNL A   1      39.506  27.282  29.563  1.00  0.00     0.134 A 
ATOM     52  C   UNL A   1      41.030  28.829  28.557  1.00  0.00     0.134 A 
ATOM     53  F   UNL A   1      38.786  26.845  30.608  1.00  0.00    -0.206 F 
ATOM     54  C   UNL A   1      39.502  26.516  28.396  1.00  0.00     0.040 A 
ATOM     55  C   UNL A   1      41.019  28.085  27.378  1.00  0.00     0.040 A 
ATOM     56  F   UNL A   1      41.791  29.931  28.605  1.00  0.00    -0.206 F 
ATOM     57  C   UNL A   1      40.260  26.918  27.298  1.00  0.00     0.006 A 
ENDBRANCH  29  50
BRANCH  41  58
ATOM     58  C   UNL A   1      44.551  28.233  35.167  1.00  0.00     0.057 A 
ATOM     59  C   UNL A   1      44.389  27.020  35.846  1.00  0.00     0.134 A 
ATOM     60  C   UNL A   1      45.846  28.588  34.767  1.00  0.00     0.134 A 
ATOM     61  F   UNL A   1      43.174  26.627  36.261  1.00  0.00    -0.206 F 
ATOM     62  C   UNL A   1      45.474  26.185  36.111  1.00  0.00     0.040 A 
ATOM     63  C   UNL A   1      46.934  27.745  34.998  1.00  0.00     0.040 A 
ATOM     64  F   UNL A   1      46.063  29.728  34.095  1.00  0.00    -0.206 F 
ATOM     65  C   UNL A   1      46.749  26.542  35.675  1.00  0.00     0.006 A 
ENDBRANCH  41  58
ENDBRANCH  15  16
ENDBRANCH   8  10
ENDBRANCH   7   8
ENDBRANCH   6   7
ENDBRANCH   5   6
ENDBRANCH   4   5
ENDBRANCH   3   4
ENDBRANCH   2   3
ENDBRANCH   1   2
BRANCH   1  66
ATOM     66  C   UNL A   1      35.500  31.283  27.888  1.00  0.00     0.188 C 
BRANCH  66  67
ATOM     67  C   UNL A   1      35.191  29.763  27.838  1.00  0.00     0.188 C 
BRANCH  67  68
ATOM     68  O   UNL A   1      34.330  29.353  26.786  1.00  0.00    -0.376 OA
BRANCH  68  69
ATOM     69  C   UNL A   1      33.270  30.236  26.441  1.00  0.00     0.202 C 
BRANCH  69  70
ATOM     70  C   UNL A   1      31.921  29.591  26.078  1.00  0.00     0.261 C 
BRANCH  70  71
ATOM     71  O   UNL A   1      31.942  28.195  25.732  1.00  0.00    -0.463 OA
BRANCH  71  72
ATOM     72  C   UNL A   1      31.366  27.854  24.558  1.00  0.00     0.309 C 
ATOM     73  O   UNL A   1      30.289  28.288  24.170  1.00  0.00    -0.252 OA
BRANCH  72  74
ATOM     74  C   UNL A   1      32.200  26.828  23.797  1.00  0.00     0.111 C 
ATOM     75  C   UNL A   1      32.886  26.071  24.910  1.00  0.00     0.016 C 
ATOM     76  C   UNL A   1      31.343  25.947  22.863  1.00  0.00     0.093 C 
ATOM     77  C   UNL A   1      31.929  25.209  25.722  1.00  0.00     0.001 C 
ATOM     78  C   UNL A   1      30.396  24.993  23.575  1.00  0.00     0.014 C 
ATOM     79  C   UNL A   1      30.783  24.519  24.975  1.00  0.00     0.001 C 
BRANCH  76  80
ATOM     80  C   UNL A   1      31.992  25.404  21.561  1.00  0.00     0.228 C 
ATOM     81  O   UNL A   1      31.778  26.010  20.499  1.00  0.00    -0.274 OA
ATOM     82  N   UNL A   1      32.832  24.333  21.466  1.00  0.00    -0.326 N 
ATOM     83  H   UNL A   1      33.171  24.147  20.561  1.00  0.00     0.169 HD
BRANCH  82  84
ATOM     84  C   UNL A   1      33.283  23.467  22.454  1.00  0.00     0.042 A 
ATOM     85  C   UNL A   1      32.573  22.320  22.789  1.00  0.00     0.027 A 
ATOM     86  C   UNL A   1      34.440  23.810  23.157  1.00  0.00     0.047 A 
ATOM     87  C   UNL A   1      32.901  21.618  23.953  1.00  0.00     0.019 A 
ATOM     88  C   UNL A   1      34.744  23.140  24.349  1.00  0.00     0.057 A 
ATOM     89  C   UNL A   1      33.943  22.070  24.770  1.00  0.00     0.036 A 
ATOM     90  Cl  UNL A   1      36.023  23.784  25.314  1.00  0.00    -0.083 Cl
ATOM     91  Br  UNL A   1      34.104  21.282  26.490  1.00  0.00    -0.049 Br
ENDBRANCH  82  84
ENDBRANCH  76  80
ENDBRANCH  72  74
ENDBRANCH  71  72
ENDBRANCH  70  71
ENDBRANCH  69  70
ENDBRANCH  68  69
ENDBRANCH  67  68
ENDBRANCH  66  67
ENDBRANCH   1  66
TORSDOF 22
ENDMDL
MODEL 2
REMARK VINA RESULT:      -9.9      1.360      2.476
REMARK SMILES O=C(OCCOCCOCCOCCOC(=O)[C@H]1CCCC[C@@H]1C(=O)Nc1ccc(Br)c(Cl)c1)c1ccc(-c2c3nc(c(-c4c(F)cccc4F)c4ccc([nH]4)c(-c4c(F)cccc4F)c4nc(c(-c5c(F)cccc5F)c5ccc2[nH]5)C=C4)C=C3)cc1
REMARK SMILES IDX 9 1 8 2 7 3 6 4 5 5 4 6 3 7 2 8 1 9 35 10 36 11 88 12 37 13
REMARK SMILES IDX 87 14 38 15 39 16 40 17 81 18 41 19 86 20 80 21 82 22 42 23
REMARK SMILES IDX 85 24 79 25 78 26 43 28 69 29 52 30 68 31 53 32 56 33 67 34
REMARK SMILES IDX 83 35 54 36 55 37 66 39 84 40 57 41 44 42 45 43 50 44 46 45
REMARK SMILES IDX 47 46 49 47 51 48 48 49 70 50 71 51 76 52 72 53 73 54 75 55
REMARK SMILES IDX 77 56 74 57 58 58 59 59 64 60 60 61 61 62 63 63 65 64 62 65
REMARK SMILES IDX 10 66 11 67 12 68 13 69 14 70 15 71 16 72 17 73 18 74 19 75
REMARK SMILES IDX 23 76 20 77 22 78 21 79 24 80 25 81 26 82 27 84 28 85 34 86
REMARK SMILES IDX 29 87 32 88 30 89 33 90 31 91
REMARK H PARENT 82 27 56 38 26 83
REMARK Flexibility Score: inf
ROOT
ATOM      1  O   UNL A   1      34.614  31.001  27.261  1.00  0.00    -0.377 OA
ENDROOT
BRANCH   1   2
ATOM      2  C   UNL A   1      35.229  31.221  28.524  1.00  0.00     0.188 C 
BRANCH   2   3
ATOM      3  C   UNL A   1      35.285  32.676  29.002  1.00  0.00     0.188 C 
BRANCH   3   4
ATOM      4  O   UNL A   1      33.987  33.248  29.127  1.00  0.00    -0.376 OA
BRANCH   4   5
ATOM      5  C   UNL A   1      33.732  34.463  28.420  1.00  0.00     0.202 C 
BRANCH   5   6
ATOM      6  C   UNL A   1      33.007  35.519  29.246  1.00  0.00     0.261 C 
BRANCH   6   7
ATOM      7  O   UNL A   1      33.768  35.815  30.422  1.00  0.00    -0.460 OA
BRANCH   7   8
ATOM      8  C   UNL A   1      33.263  35.291  31.564  1.00  0.00     0.338 C 
ATOM      9  O   UNL A   1      32.098  35.364  31.943  1.00  0.00    -0.246 OA
BRANCH   8  10
ATOM     10  C   UNL A   1      34.373  34.689  32.333  1.00  0.00     0.060 A 
ATOM     11  C   UNL A   1      34.134  33.653  33.240  1.00  0.00     0.016 A 
ATOM     12  C   UNL A   1      35.672  35.195  32.169  1.00  0.00     0.016 A 
ATOM     13  C   UNL A   1      35.216  33.063  33.897  1.00  0.00     0.010 A 
ATOM     14  C   UNL A   1      36.734  34.656  32.856  1.00  0.00     0.010 A 
ATOM     15  C   UNL A   1      36.515  33.546  33.671  1.00  0.00    -0.014 A 
BRANCH  15  16
ATOM     16  C   UNL A   1      37.715  32.765  34.001  1.00  0.00     0.031 A 
ATOM     17  C   UNL A   1      38.593  33.139  35.144  1.00  0.00     0.074 A 
ATOM     18  C   UNL A   1      38.104  31.885  33.061  1.00  0.00     0.049 A 
ATOM     19  N   UNL A   1      39.691  32.561  35.551  1.00  0.00    -0.248 NA
ATOM     20  C   UNL A   1      38.214  34.339  35.905  1.00  0.00     0.031 C 
ATOM     21  C   UNL A   1      37.384  31.627  31.807  1.00  0.00     0.029 A 
ATOM     22  N   UNL A   1      39.215  31.097  32.973  1.00  0.00    -0.354 N 
ATOM     23  C   UNL A   1      40.119  33.301  36.644  1.00  0.00     0.074 A 
ATOM     24  C   UNL A   1      39.205  34.416  36.785  1.00  0.00     0.031 C 
ATOM     25  C   UNL A   1      38.075  30.745  31.075  1.00  0.00     0.029 A 
ATOM     26  C   UNL A   1      39.274  30.372  31.810  1.00  0.00     0.049 A 
ATOM     27  H   UNL A   1      39.905  31.053  33.675  1.00  0.00     0.167 HD
ATOM     28  C   UNL A   1      41.171  33.042  37.456  1.00  0.00     0.037 A 
ATOM     29  C   UNL A   1      40.193  29.487  31.396  1.00  0.00     0.037 A 
ATOM     30  C   UNL A   1      42.093  31.957  37.217  1.00  0.00     0.049 A 
ATOM     31  C   UNL A   1      41.323  29.178  32.327  1.00  0.00     0.074 A 
ATOM     32  C   UNL A   1      43.140  31.512  38.003  1.00  0.00     0.029 A 
ATOM     33  N   UNL A   1      42.094  31.169  36.069  1.00  0.00    -0.354 N 
ATOM     34  N   UNL A   1      41.615  29.737  33.478  1.00  0.00    -0.248 NA
ATOM     35  C   UNL A   1      42.229  28.101  31.925  1.00  0.00     0.031 C 
ATOM     36  C   UNL A   1      43.807  30.497  37.304  1.00  0.00     0.029 A 
ATOM     37  C   UNL A   1      43.146  30.268  36.106  1.00  0.00     0.049 A 
ATOM     38  H   UNL A   1      41.441  31.242  35.336  1.00  0.00     0.167 HD
ATOM     39  C   UNL A   1      42.738  29.077  33.948  1.00  0.00     0.074 A 
ATOM     40  C   UNL A   1      43.048  28.052  32.966  1.00  0.00     0.031 C 
ATOM     41  C   UNL A   1      43.452  29.296  35.081  1.00  0.00     0.037 A 
BRANCH  28  42
ATOM     42  C   UNL A   1      41.360  33.936  38.652  1.00  0.00     0.057 A 
ATOM     43  C   UNL A   1      40.692  33.690  39.858  1.00  0.00     0.134 A 
ATOM     44  C   UNL A   1      42.208  35.054  38.610  1.00  0.00     0.134 A 
ATOM     45  F   UNL A   1      39.857  32.648  39.976  1.00  0.00    -0.206 F 
ATOM     46  C   UNL A   1      40.871  34.511  40.976  1.00  0.00     0.040 A 
ATOM     47  C   UNL A   1      42.419  35.863  39.729  1.00  0.00     0.040 A 
ATOM     48  F   UNL A   1      42.883  35.355  37.489  1.00  0.00    -0.206 F 
ATOM     49  C   UNL A   1      41.747  35.593  40.917  1.00  0.00     0.006 A 
ENDBRANCH  28  42
BRANCH  29  50
ATOM     50  C   UNL A   1      39.992  28.784  30.109  1.00  0.00     0.057 A 
ATOM     51  C   UNL A   1      39.285  27.577  30.034  1.00  0.00     0.134 A 
ATOM     52  C   UNL A   1      40.602  29.249  28.939  1.00  0.00     0.134 A 
ATOM     53  F   UNL A   1      38.706  27.062  31.129  1.00  0.00    -0.206 F 
ATOM     54  C   UNL A   1      39.203  26.853  28.844  1.00  0.00     0.040 A 
ATOM     55  C   UNL A   1      40.510  28.546  27.738  1.00  0.00     0.040 A 
ATOM     56  F   UNL A   1      41.299  30.394  28.952  1.00  0.00    -0.206 F 
ATOM     57  C   UNL A   1      39.816  27.338  27.690  1.00  0.00     0.006 A 
ENDBRANCH  29  50
BRANCH  41  58
ATOM     58  C   UNL A   1      44.651  28.418  35.275  1.00  0.00     0.057 A 
ATOM     59  C   UNL A   1      45.911  28.811  34.811  1.00  0.00     0.134 A 
ATOM     60  C   UNL A   1      44.557  27.189  35.941  1.00  0.00     0.134 A 
ATOM     61  F   UNL A   1      46.066  29.975  34.159  1.00  0.00    -0.206 F 
ATOM     62  C   UNL A   1      47.040  28.017  35.009  1.00  0.00     0.040 A 
ATOM     63  C   UNL A   1      45.685  26.401  36.175  1.00  0.00     0.040 A 
ATOM     64  F   UNL A   1      43.381  26.765  36.427  1.00  0.00    -0.206 F 
ATOM     65  C   UNL A   1      46.930  26.813  35.704  1.00  0.00     0.006 A 
ENDBRANCH  41  58
ENDBRANCH  15  16
ENDBRANCH   8  10
ENDBRANCH   7   8
ENDBRANCH   6   7
ENDBRANCH   5   6
ENDBRANCH   4   5
ENDBRANCH   3   4
ENDBRANCH   2   3
ENDBRANCH   1   2
BRANCH   1  66
ATOM     66  C   UNL A   1      33.449  30.185  27.246  1.00  0.00     0.188 C 
BRANCH  66  67
ATOM     67  C   UNL A   1      32.163  30.702  26.546  1.00  0.00     0.188 C 
BRANCH  67  68
ATOM     68  O   UNL A   1      31.773  29.983  25.385  1.00  0.00    -0.376 OA
BRANCH  68  69
ATOM     69  C   UNL A   1      32.804  29.329  24.657  1.00  0.00     0.202 C 
BRANCH  69  70
ATOM     70  C   UNL A   1      32.450  28.839  23.242  1.00  0.00     0.261 C 
BRANCH  70  71
ATOM     71  O   UNL A   1      31.642  27.653  23.149  1.00  0.00    -0.463 OA
BRANCH  71  72
ATOM     72  C   UNL A   1      32.291  26.500  22.873  1.00  0.00     0.309 C 
ATOM     73  O   UNL A   1      33.118  26.374  21.980  1.00  0.00    -0.252 OA
BRANCH  72  74
ATOM     74  C   UNL A   1      31.833  25.363  23.782  1.00  0.00     0.111 C 
ATOM     75  C   UNL A   1      32.750  24.231  23.379  1.00  0.00     0.016 C 
ATOM     76  C   UNL A   1      31.906  25.737  25.278  1.00  0.00     0.093 C 
ATOM     77  C   UNL A   1      34.195  24.456  23.802  1.00  0.00     0.001 C 
ATOM     78  C   UNL A   1      33.314  25.918  25.824  1.00  0.00     0.014 C 
ATOM     79  C   UNL A   1      34.445  25.147  25.147  1.00  0.00     0.001 C 
BRANCH  76  80
ATOM     80  C   UNL A   1      30.885  25.088  26.251  1.00  0.00     0.228 C 
ATOM     81  O   UNL A   1      29.893  25.751  26.592  1.00  0.00    -0.274 OA
ATOM     82  N   UNL A   1      30.938  23.817  26.743  1.00  0.00    -0.326 N 
ATOM     83  H   UNL A   1      30.189  23.564  27.329  1.00  0.00     0.169 HD
BRANCH  82  84
ATOM     84  C   UNL A   1      31.889  22.824  26.542  1.00  0.00     0.042 A 
ATOM     85  C   UNL A   1      33.051  22.772  27.302  1.00  0.00     0.027 A 
ATOM     86  C   UNL A   1      31.684  21.912  25.505  1.00  0.00     0.047 A 
ATOM     87  C   UNL A   1      34.101  21.939  26.905  1.00  0.00     0.019 A 
ATOM     88  C   UNL A   1      32.748  21.110  25.074  1.00  0.00     0.057 A 
ATOM     89  C   UNL A   1      33.975  21.160  25.749  1.00  0.00     0.036 A 
ATOM     90  Cl  UNL A   1      32.520  20.206  23.620  1.00  0.00    -0.083 Cl
ATOM     91  Br  UNL A   1      35.548  20.328  25.084  1.00  0.00    -0.049 Br
ENDBRANCH  82  84
ENDBRANCH  76  80
ENDBRANCH  72  74
ENDBRANCH  71  72
ENDBRANCH  70  71
ENDBRANCH  69  70
ENDBRANCH  68  69
ENDBRANCH  67  68
ENDBRANCH  66  67
ENDBRANCH   1  66
TORSDOF 22
ENDMDL
MODEL 3
REMARK VINA RESULT:      -9.3      3.658      9.077
REMARK SMILES O=C(OCCOCCOCCOCCOC(=O)[C@H]1CCCC[C@@H]1C(=O)Nc1ccc(Br)c(Cl)c1)c1ccc(-c2c3nc(c(-c4c(F)cccc4F)c4ccc([nH]4)c(-c4c(F)cccc4F)c4nc(c(-c5c(F)cccc5F)c5ccc2[nH]5)C=C4)C=C3)cc1
REMARK SMILES IDX 9 1 8 2 7 3 6 4 5 5 4 6 3 7 2 8 1 9 35 10 36 11 88 12 37 13
REMARK SMILES IDX 87 14 38 15 39 16 40 17 81 18 41 19 86 20 80 21 82 22 42 23
REMARK SMILES IDX 85 24 79 25 78 26 43 28 69 29 52 30 68 31 53 32 56 33 67 34
REMARK SMILES IDX 83 35 54 36 55 37 66 39 84 40 57 41 44 42 45 43 50 44 46 45
REMARK SMILES IDX 47 46 49 47 51 48 48 49 70 50 71 51 76 52 72 53 73 54 75 55
REMARK SMILES IDX 77 56 74 57 58 58 59 59 64 60 60 61 61 62 63 63 65 64 62 65
REMARK SMILES IDX 10 66 11 67 12 68 13 69 14 70 15 71 16 72 17 73 18 74 19 75
REMARK SMILES IDX 23 76 20 77 22 78 21 79 24 80 25 81 26 82 27 84 28 85 34 86
REMARK SMILES IDX 29 87 32 88 30 89 33 90 31 91
REMARK H PARENT 82 27 56 38 26 83
REMARK Flexibility Score: inf
ROOT
ATOM      1  O   UNL A   1      40.587  21.263  26.296  1.00  0.00    -0.377 OA
ENDROOT
BRANCH   1   2
ATOM      2  C   UNL A   1      40.983  21.155  27.658  1.00  0.00     0.188 C 
BRANCH   2   3
ATOM      3  C   UNL A   1      41.903  22.263  28.183  1.00  0.00     0.188 C 
BRANCH   3   4
ATOM      4  O   UNL A   1      43.279  21.949  27.996  1.00  0.00    -0.376 OA
BRANCH   4   5
ATOM      5  C   UNL A   1      43.961  22.593  26.919  1.00  0.00     0.202 C 
BRANCH   5   6
ATOM      6  C   UNL A   1      44.769  23.815  27.341  1.00  0.00     0.261 C 
BRANCH   6   7
ATOM      7  O   UNL A   1      44.697  24.815  26.319  1.00  0.00    -0.460 OA
BRANCH   7   8
ATOM      8  C   UNL A   1      43.469  24.969  25.770  1.00  0.00     0.338 C 
ATOM      9  O   UNL A   1      43.096  24.524  24.689  1.00  0.00    -0.246 OA
BRANCH   8  10
ATOM     10  C   UNL A   1      42.669  25.848  26.651  1.00  0.00     0.060 A 
ATOM     11  C   UNL A   1      41.432  25.429  27.144  1.00  0.00     0.016 A 
ATOM     12  C   UNL A   1      43.153  27.129  26.960  1.00  0.00     0.016 A 
ATOM     13  C   UNL A   1      40.737  26.257  28.028  1.00  0.00     0.010 A 
ATOM     14  C   UNL A   1      42.447  27.972  27.785  1.00  0.00     0.010 A 
ATOM     15  C   UNL A   1      41.270  27.510  28.372  1.00  0.00    -0.014 A 
BRANCH  15  16
ATOM     16  C   UNL A   1      40.825  28.260  29.554  1.00  0.00     0.031 A 
ATOM     17  C   UNL A   1      39.745  29.281  29.464  1.00  0.00     0.074 A 
ATOM     18  C   UNL A   1      41.623  28.160  30.632  1.00  0.00     0.049 A 
ATOM     19  N   UNL A   1      39.254  30.034  30.411  1.00  0.00    -0.248 NA
ATOM     20  C   UNL A   1      39.170  29.520  28.131  1.00  0.00     0.031 C 
ATOM     21  C   UNL A   1      42.829  27.323  30.706  1.00  0.00     0.029 A 
ATOM     22  N   UNL A   1      41.590  28.800  31.837  1.00  0.00    -0.354 N 
ATOM     23  C   UNL A   1      38.280  30.811  29.801  1.00  0.00     0.074 A 
ATOM     24  C   UNL A   1      38.307  30.495  28.388  1.00  0.00     0.031 C 
ATOM     25  C   UNL A   1      43.421  27.506  31.892  1.00  0.00     0.029 A 
ATOM     26  C   UNL A   1      42.634  28.460  32.659  1.00  0.00     0.049 A 
ATOM     27  H   UNL A   1      40.887  29.441  32.090  1.00  0.00     0.167 HD
ATOM     28  C   UNL A   1      37.435  31.689  30.392  1.00  0.00     0.037 A 
ATOM     29  C   UNL A   1      42.910  28.865  33.908  1.00  0.00     0.037 A 
ATOM     30  C   UNL A   1      37.508  32.020  31.796  1.00  0.00     0.049 A 
ATOM     31  C   UNL A   1      41.940  29.798  34.562  1.00  0.00     0.074 A 
ATOM     32  C   UNL A   1      36.662  32.808  32.552  1.00  0.00     0.029 A 
ATOM     33  N   UNL A   1      38.528  31.600  32.647  1.00  0.00    -0.354 N 
ATOM     34  N   UNL A   1      40.882  30.378  34.044  1.00  0.00    -0.248 NA
ATOM     35  C   UNL A   1      42.175  30.107  35.973  1.00  0.00     0.031 C 
ATOM     36  C   UNL A   1      37.201  32.913  33.841  1.00  0.00     0.029 A 
ATOM     37  C   UNL A   1      38.355  32.147  33.908  1.00  0.00     0.049 A 
ATOM     38  H   UNL A   1      39.266  31.002  32.388  1.00  0.00     0.167 HD
ATOM     39  C   UNL A   1      40.316  31.120  35.067  1.00  0.00     0.074 A 
ATOM     40  C   UNL A   1      41.135  30.883  36.243  1.00  0.00     0.031 C 
ATOM     41  C   UNL A   1      39.225  31.926  35.041  1.00  0.00     0.037 A 
BRANCH  28  42
ATOM     42  C   UNL A   1      36.382  32.327  29.527  1.00  0.00     0.057 A 
ATOM     43  C   UNL A   1      35.282  31.599  29.060  1.00  0.00     0.134 A 
ATOM     44  C   UNL A   1      36.460  33.677  29.146  1.00  0.00     0.134 A 
ATOM     45  F   UNL A   1      35.140  30.302  29.370  1.00  0.00    -0.206 F 
ATOM     46  C   UNL A   1      34.295  32.188  28.264  1.00  0.00     0.040 A 
ATOM     47  C   UNL A   1      35.465  34.285  28.377  1.00  0.00     0.040 A 
ATOM     48  F   UNL A   1      37.485  34.442  29.554  1.00  0.00    -0.206 F 
ATOM     49  C   UNL A   1      34.378  33.539  27.931  1.00  0.00     0.006 A 
ENDBRANCH  28  42
BRANCH  29  50
ATOM     50  C   UNL A   1      44.081  28.294  34.612  1.00  0.00     0.057 A 
ATOM     51  C   UNL A   1      43.994  27.092  35.325  1.00  0.00     0.134 A 
ATOM     52  C   UNL A   1      45.287  29.000  34.679  1.00  0.00     0.134 A 
ATOM     53  F   UNL A   1      42.854  26.386  35.326  1.00  0.00    -0.206 F 
ATOM     54  C   UNL A   1      45.062  26.619  36.090  1.00  0.00     0.040 A 
ATOM     55  C   UNL A   1      46.369  28.529  35.423  1.00  0.00     0.040 A 
ATOM     56  F   UNL A   1      45.425  30.161  34.023  1.00  0.00    -0.206 F 
ATOM     57  C   UNL A   1      46.255  27.338  36.139  1.00  0.00     0.006 A 
ENDBRANCH  29  50
BRANCH  41  58
ATOM     58  C   UNL A   1      38.900  32.623  36.328  1.00  0.00     0.057 A 
ATOM     59  C   UNL A   1      38.131  31.991  37.311  1.00  0.00     0.134 A 
ATOM     60  C   UNL A   1      39.368  33.916  36.599  1.00  0.00     0.134 A 
ATOM     61  F   UNL A   1      37.648  30.755  37.111  1.00  0.00    -0.206 F 
ATOM     62  C   UNL A   1      37.845  32.616  38.525  1.00  0.00     0.040 A 
ATOM     63  C   UNL A   1      39.116  34.539  37.821  1.00  0.00     0.040 A 
ATOM     64  F   UNL A   1      40.127  34.566  35.704  1.00  0.00    -0.206 F 
ATOM     65  C   UNL A   1      38.349  33.889  38.786  1.00  0.00     0.006 A 
ENDBRANCH  41  58
ENDBRANCH  15  16
ENDBRANCH   8  10
ENDBRANCH   7   8
ENDBRANCH   6   7
ENDBRANCH   5   6
ENDBRANCH   4   5
ENDBRANCH   3   4
ENDBRANCH   2   3
ENDBRANCH   1   2
BRANCH   1  66
ATOM     66  C   UNL A   1      39.317  21.848  26.041  1.00  0.00     0.188 C 
BRANCH  66  67
ATOM     67  C   UNL A   1      38.287  21.086  25.165  1.00  0.00     0.188 C 
BRANCH  67  68
ATOM     68  O   UNL A   1      37.236  21.880  24.633  1.00  0.00    -0.376 OA
BRANCH  68  69
ATOM     69  C   UNL A   1      37.103  23.199  25.148  1.00  0.00     0.202 C 
BRANCH  69  70
ATOM     70  C   UNL A   1      35.925  23.453  26.105  1.00  0.00     0.261 C 
BRANCH  70  71
ATOM     71  O   UNL A   1      34.631  22.992  25.678  1.00  0.00    -0.463 OA
BRANCH  71  72
ATOM     72  C   UNL A   1      33.784  23.928  25.195  1.00  0.00     0.309 C 
ATOM     73  O   UNL A   1      32.995  24.561  25.884  1.00  0.00    -0.252 OA
BRANCH  72  74
ATOM     74  C   UNL A   1      33.901  24.066  23.680  1.00  0.00     0.111 C 
ATOM     75  C   UNL A   1      33.901  22.628  23.217  1.00  0.00     0.016 C 
ATOM     76  C   UNL A   1      32.769  24.927  23.078  1.00  0.00     0.093 C 
ATOM     77  C   UNL A   1      32.555  21.942  23.402  1.00  0.00     0.001 C 
ATOM     78  C   UNL A   1      31.385  24.302  23.147  1.00  0.00     0.014 C 
ATOM     79  C   UNL A   1      31.291  22.778  23.170  1.00  0.00     0.001 C 
BRANCH  76  80
ATOM     80  C   UNL A   1      33.072  25.751  21.797  1.00  0.00     0.228 C 
ATOM     81  O   UNL A   1      33.272  25.139  20.736  1.00  0.00    -0.274 OA
ATOM     82  N   UNL A   1      33.093  27.112  21.701  1.00  0.00    -0.326 N 
ATOM     83  H   UNL A   1      33.277  27.465  20.802  1.00  0.00     0.169 HD
BRANCH  82  84
ATOM     84  C   UNL A   1      32.891  28.075  22.683  1.00  0.00     0.042 A 
ATOM     85  C   UNL A   1      33.826  28.289  23.688  1.00  0.00     0.027 A 
ATOM     86  C   UNL A   1      31.688  28.784  22.677  1.00  0.00     0.047 A 
ATOM     87  C   UNL A   1      33.482  29.063  24.800  1.00  0.00     0.019 A 
ATOM     88  C   UNL A   1      31.320  29.521  23.809  1.00  0.00     0.057 A 
ATOM     89  C   UNL A   1      32.203  29.621  24.892  1.00  0.00     0.036 A 
ATOM     90  Cl  UNL A   1      29.711  30.146  23.856  1.00  0.00    -0.083 Cl
ATOM     91  Br  UNL A   1      31.694  30.359  26.567  1.00  0.00    -0.049 Br
ENDBRANCH  82  84
ENDBRANCH  76  80
ENDBRANCH  72  74
ENDBRANCH  71  72
ENDBRANCH  70  71
ENDBRANCH  69  70
ENDBRANCH  68  69
ENDBRANCH  67  68
ENDBRANCH  66  67
ENDBRANCH   1  66
TORSDOF 22
ENDMDL
