MODEL 1
REMARK VINA RESULT:      -9.8      0.000      0.000
REMARK SMILES CCc1cc(C[NH+]2CCC(C(=O)OCCOCCOCCOCCOC(=O)c3ccc(-c4c5nc(c(-c6c(F)cccc6F)c6ccc([nH]6)c(-c6c(F)cccc6F)c6nc(c(-c7c(F)cccc7F)c7ccc4[nH]7)C=C6)C=C5)cc3)(n3ccc(-c4ccco4)n3)CC2)on1
REMARK SMILES IDX 18 1 17 2 16 3 15 4 14 5 13 6 11 7 12 8 10 9 7 10 8 11 93 12
REMARK SMILES IDX 9 14 92 15 6 16 5 17 3 18 4 19 95 20 94 21 2 22 1 23 82 24
REMARK SMILES IDX 83 25 91 26 84 27 85 28 86 29 87 30 90 31 88 32 89 33 19 34
REMARK SMILES IDX 20 35 21 36 22 37 23 38 24 39 25 40 26 41 27 42 28 43 29 44
REMARK SMILES IDX 81 45 30 46 80 47 31 48 32 49 33 50 74 51 34 52 79 53 73 54
REMARK SMILES IDX 75 55 35 56 78 57 72 58 71 59 36 61 62 62 45 63 61 64 46 65
REMARK SMILES IDX 49 66 60 67 76 68 47 69 48 70 59 72 77 73 50 74 37 75 38 76
REMARK SMILES IDX 43 77 39 78 40 79 42 80 44 81 41 82 63 83 64 84 69 85 65 86
REMARK SMILES IDX 66 87 68 88 70 89 67 90 51 91 52 92 57 93 53 94 54 95 56 96
REMARK SMILES IDX 58 97 55 98
REMARK H PARENT 7 13 75 60 49 71
REMARK Flexibility Score: inf
ROOT
ATOM      1  C   UNL A   1      37.759  29.108  28.696  1.00  0.00     0.188 C 
ENDROOT
BRANCH   1   2
ATOM      2  C   UNL A   1      37.137  30.501  28.554  1.00  0.00     0.188 C 
BRANCH   2   3
ATOM      3  O   UNL A   1      35.794  30.548  28.126  1.00  0.00    -0.376 OA
BRANCH   3   4
ATOM      4  C   UNL A   1      35.266  29.545  27.276  1.00  0.00     0.202 C 
BRANCH   4   5
ATOM      5  C   UNL A   1      33.803  29.051  27.215  1.00  0.00     0.261 C 
BRANCH   5   6
ATOM      6  O   UNL A   1      33.343  28.347  26.053  1.00  0.00    -0.461 OA
BRANCH   6   7
ATOM      7  C   UNL A   1      32.160  27.689  26.173  1.00  0.00     0.334 C 
ATOM      8  O   UNL A   1      31.412  27.845  27.139  1.00  0.00    -0.249 OA
BRANCH   7   9
ATOM      9  C   UNL A   1      31.898  26.637  25.063  1.00  0.00     0.170 C 
ATOM     10  N   UNL A   1      32.462  23.819  24.207  1.00  0.00    -0.328 N 
ATOM     11  C   UNL A   1      32.872  24.954  23.387  1.00  0.00     0.265 C 
ATOM     12  C   UNL A   1      31.419  24.083  25.194  1.00  0.00     0.265 C 
ATOM     13  H   UNL A   1      33.289  23.628  24.772  1.00  0.00     0.348 HD
ATOM     14  C   UNL A   1      33.104  26.240  24.180  1.00  0.00     0.104 C 
ATOM     15  C   UNL A   1      31.577  25.396  25.939  1.00  0.00     0.104 C 
BRANCH  10  16
ATOM     16  C   UNL A   1      32.160  22.618  23.392  1.00  0.00     0.341 C 
BRANCH  16  17
ATOM     17  C   UNL A   1      32.777  21.343  23.871  1.00  0.00     0.191 A 
ATOM     18  C   UNL A   1      33.444  19.343  24.538  1.00  0.00     0.084 A 
ATOM     19  C   UNL A   1      32.385  20.024  23.887  1.00  0.00     0.078 A 
ATOM     20  N   UNL A   1      34.428  20.192  24.862  1.00  0.00    -0.085 NA
ATOM     21  O   UNL A   1      34.018  21.434  24.424  1.00  0.00    -0.355 OA
BRANCH  18  22
ATOM     22  C   UNL A   1      33.563  17.881  24.812  1.00  0.00     0.056 C 
ATOM     23  C   UNL A   1      34.722  17.192  24.102  1.00  0.00     0.011 C 
ENDBRANCH  18  22
ENDBRANCH  16  17
ENDBRANCH  10  16
BRANCH   9  24
ATOM     24  N   UNL A   1      30.768  27.123  24.237  1.00  0.00    -0.254 N 
ATOM     25  C   UNL A   1      29.585  26.496  23.954  1.00  0.00     0.111 A 
ATOM     26  N   UNL A   1      30.841  28.316  23.574  1.00  0.00    -0.168 NA
ATOM     27  C   UNL A   1      28.753  27.444  23.421  1.00  0.00     0.054 A 
ATOM     28  C   UNL A   1      29.568  28.573  23.233  1.00  0.00     0.128 A 
BRANCH  28  29
ATOM     29  C   UNL A   1      29.045  29.868  22.709  1.00  0.00     0.154 A 
ATOM     30  C   UNL A   1      28.750  31.020  23.412  1.00  0.00     0.052 A 
ATOM     31  O   UNL A   1      28.777  30.076  21.379  1.00  0.00    -0.463 OA
ATOM     32  C   UNL A   1      28.275  31.967  22.465  1.00  0.00     0.043 A 
ATOM     33  C   UNL A   1      28.266  31.324  21.252  1.00  0.00     0.196 A 
ENDBRANCH  28  29
ENDBRANCH   9  24
ENDBRANCH   7   9
ENDBRANCH   6   7
ENDBRANCH   5   6
ENDBRANCH   4   5
ENDBRANCH   3   4
ENDBRANCH   2   3
ENDBRANCH   1   2
BRANCH   1  34
ATOM     34  O   UNL A   1      38.856  28.991  29.587  1.00  0.00    -0.377 OA
BRANCH  34  35
ATOM     35  C   UNL A   1      39.848  28.003  29.327  1.00  0.00     0.188 C 
BRANCH  35  36
ATOM     36  C   UNL A   1      39.874  27.241  27.987  1.00  0.00     0.188 C 
BRANCH  36  37
ATOM     37  O   UNL A   1      40.606  26.029  28.002  1.00  0.00    -0.376 OA
BRANCH  37  38
ATOM     38  C   UNL A   1      39.918  24.796  27.865  1.00  0.00     0.202 C 
BRANCH  38  39
ATOM     39  C   UNL A   1      40.594  23.655  27.088  1.00  0.00     0.261 C 
BRANCH  39  40
ATOM     40  O   UNL A   1      41.829  23.152  27.623  1.00  0.00    -0.460 OA
BRANCH  40  41
ATOM     41  C   UNL A   1      42.884  23.028  26.788  1.00  0.00     0.338 C 
ATOM     42  O   UNL A   1      43.169  22.078  26.091  1.00  0.00    -0.246 OA
BRANCH  41  43
ATOM     43  C   UNL A   1      43.537  24.353  26.714  1.00  0.00     0.060 A 
ATOM     44  C   UNL A   1      43.714  24.955  25.461  1.00  0.00     0.016 A 
ATOM     45  C   UNL A   1      43.961  25.000  27.877  1.00  0.00     0.016 A 
ATOM     46  C   UNL A   1      44.340  26.196  25.363  1.00  0.00     0.010 A 
ATOM     47  C   UNL A   1      44.616  26.230  27.776  1.00  0.00     0.010 A 
ATOM     48  C   UNL A   1      44.835  26.816  26.516  1.00  0.00    -0.014 A 
BRANCH  48  49
ATOM     49  C   UNL A   1      45.758  27.968  26.390  1.00  0.00     0.031 A 
ATOM     50  C   UNL A   1      47.223  27.689  26.213  1.00  0.00     0.074 A 
ATOM     51  C   UNL A   1      45.310  29.235  26.429  1.00  0.00     0.049 A 
ATOM     52  N   UNL A   1      48.230  28.521  26.164  1.00  0.00    -0.248 NA
ATOM     53  C   UNL A   1      47.600  26.272  26.081  1.00  0.00     0.031 C 
ATOM     54  C   UNL A   1      43.911  29.632  26.552  1.00  0.00     0.029 A 
ATOM     55  N   UNL A   1      46.000  30.419  26.388  1.00  0.00    -0.354 N 
ATOM     56  C   UNL A   1      49.362  27.729  26.016  1.00  0.00     0.074 A 
ATOM     57  C   UNL A   1      48.919  26.352  26.008  1.00  0.00     0.031 C 
ATOM     58  C   UNL A   1      43.846  30.973  26.607  1.00  0.00     0.029 A 
ATOM     59  C   UNL A   1      45.201  31.522  26.562  1.00  0.00     0.049 A 
ATOM     60  H   UNL A   1      46.973  30.474  26.247  1.00  0.00     0.167 HD
ATOM     61  C   UNL A   1      50.653  28.116  25.898  1.00  0.00     0.037 A 
ATOM     62  C   UNL A   1      45.531  32.820  26.708  1.00  0.00     0.037 A 
ATOM     63  C   UNL A   1      51.086  29.488  25.913  1.00  0.00     0.049 A 
ATOM     64  C   UNL A   1      46.980  33.228  26.649  1.00  0.00     0.074 A 
ATOM     65  C   UNL A   1      52.365  29.990  25.755  1.00  0.00     0.029 A 
ATOM     66  N   UNL A   1      50.251  30.577  26.119  1.00  0.00    -0.354 N 
ATOM     67  N   UNL A   1      48.042  32.481  26.466  1.00  0.00    -0.248 NA
ATOM     68  C   UNL A   1      47.276  34.658  26.820  1.00  0.00     0.031 C 
ATOM     69  C   UNL A   1      52.314  31.377  25.939  1.00  0.00     0.029 A 
ATOM     70  C   UNL A   1      50.995  31.746  26.144  1.00  0.00     0.049 A 
ATOM     71  H   UNL A   1      49.274  30.526  26.231  1.00  0.00     0.167 HD
ATOM     72  C   UNL A   1      49.129  33.347  26.486  1.00  0.00     0.074 A 
ATOM     73  C   UNL A   1      48.595  34.680  26.679  1.00  0.00     0.031 C 
ATOM     74  C   UNL A   1      50.451  33.066  26.355  1.00  0.00     0.037 A 
BRANCH  61  75
ATOM     75  C   UNL A   1      51.689  27.032  25.804  1.00  0.00     0.057 A 
ATOM     76  C   UNL A   1      52.118  26.508  24.577  1.00  0.00     0.134 A 
ATOM     77  C   UNL A   1      52.255  26.494  26.967  1.00  0.00     0.134 A 
ATOM     78  F   UNL A   1      51.605  26.964  23.425  1.00  0.00    -0.206 F 
ATOM     79  C   UNL A   1      53.041  25.462  24.512  1.00  0.00     0.040 A 
ATOM     80  C   UNL A   1      53.204  25.472  26.914  1.00  0.00     0.040 A 
ATOM     81  F   UNL A   1      51.894  26.951  28.176  1.00  0.00    -0.206 F 
ATOM     82  C   UNL A   1      53.589  24.944  25.684  1.00  0.00     0.006 A 
ENDBRANCH  61  75
BRANCH  62  83
ATOM     83  C   UNL A   1      44.464  33.819  26.963  1.00  0.00     0.057 A 
ATOM     84  C   UNL A   1      44.095  34.177  28.264  1.00  0.00     0.134 A 
ATOM     85  C   UNL A   1      43.802  34.458  25.906  1.00  0.00     0.134 A 
ATOM     86  F   UNL A   1      44.672  33.582  29.318  1.00  0.00    -0.206 F 
ATOM     87  C   UNL A   1      43.105  35.133  28.506  1.00  0.00     0.040 A 
ATOM     88  C   UNL A   1      42.831  35.435  26.133  1.00  0.00     0.040 A 
ATOM     89  F   UNL A   1      44.110  34.160  24.635  1.00  0.00    -0.206 F 
ATOM     90  C   UNL A   1      42.478  35.773  27.437  1.00  0.00     0.006 A 
ENDBRANCH  62  83
BRANCH  74  91
ATOM     91  C   UNL A   1      51.415  34.217  26.412  1.00  0.00     0.057 A 
ATOM     92  C   UNL A   1      51.725  34.979  25.278  1.00  0.00     0.134 A 
ATOM     93  C   UNL A   1      51.994  34.606  27.628  1.00  0.00     0.134 A 
ATOM     94  F   UNL A   1      51.213  34.655  24.081  1.00  0.00    -0.206 F 
ATOM     95  C   UNL A   1      52.590  36.073  25.347  1.00  0.00     0.040 A 
ATOM     96  C   UNL A   1      52.837  35.716  27.715  1.00  0.00     0.040 A 
ATOM     97  F   UNL A   1      51.733  33.928  28.755  1.00  0.00    -0.206 F 
ATOM     98  C   UNL A   1      53.141  36.450  26.570  1.00  0.00     0.006 A 
ENDBRANCH  74  91
ENDBRANCH  48  49
ENDBRANCH  41  43
ENDBRANCH  40  41
ENDBRANCH  39  40
ENDBRANCH  38  39
ENDBRANCH  37  38
ENDBRANCH  36  37
ENDBRANCH  35  36
ENDBRANCH  34  35
ENDBRANCH   1  34
TORSDOF 25
ENDMDL
MODEL 2
REMARK VINA RESULT:      -9.3      6.063     10.314
REMARK SMILES CCc1cc(C[NH+]2CCC(C(=O)OCCOCCOCCOCCOC(=O)c3ccc(-c4c5nc(c(-c6c(F)cccc6F)c6ccc([nH]6)c(-c6c(F)cccc6F)c6nc(c(-c7c(F)cccc7F)c7ccc4[nH]7)C=C6)C=C5)cc3)(n3ccc(-c4ccco4)n3)CC2)on1
REMARK SMILES IDX 18 1 17 2 16 3 15 4 14 5 13 6 11 7 12 8 10 9 7 10 8 11 93 12
REMARK SMILES IDX 9 14 92 15 6 16 5 17 3 18 4 19 95 20 94 21 2 22 1 23 82 24
REMARK SMILES IDX 83 25 91 26 84 27 85 28 86 29 87 30 90 31 88 32 89 33 19 34
REMARK SMILES IDX 20 35 21 36 22 37 23 38 24 39 25 40 26 41 27 42 28 43 29 44
REMARK SMILES IDX 81 45 30 46 80 47 31 48 32 49 33 50 74 51 34 52 79 53 73 54
REMARK SMILES IDX 75 55 35 56 78 57 72 58 71 59 36 61 62 62 45 63 61 64 46 65
REMARK SMILES IDX 49 66 60 67 76 68 47 69 48 70 59 72 77 73 50 74 37 75 38 76
REMARK SMILES IDX 43 77 39 78 40 79 42 80 44 81 41 82 63 83 64 84 69 85 65 86
REMARK SMILES IDX 66 87 68 88 70 89 67 90 51 91 52 92 57 93 53 94 54 95 56 96
REMARK SMILES IDX 58 97 55 98
REMARK H PARENT 7 13 75 60 49 71
REMARK Flexibility Score: inf
ROOT
ATOM      1  C   UNL A   1      37.762  29.223  27.863  1.00  0.00     0.188 C 
ENDROOT
BRANCH   1   2
ATOM      2  C   UNL A   1      36.912  30.427  28.280  1.00  0.00     0.188 C 
BRANCH   2   3
ATOM      3  O   UNL A   1      35.514  30.248  28.251  1.00  0.00    -0.376 OA
BRANCH   3   4
ATOM      4  C   UNL A   1      34.925  29.242  27.445  1.00  0.00     0.202 C 
BRANCH   4   5
ATOM      5  C   UNL A   1      33.426  28.874  27.360  1.00  0.00     0.261 C 
BRANCH   5   6
ATOM      6  O   UNL A   1      32.940  28.154  26.220  1.00  0.00    -0.461 OA
BRANCH   6   7
ATOM      7  C   UNL A   1      31.860  27.355  26.425  1.00  0.00     0.334 C 
ATOM      8  O   UNL A   1      31.180  27.412  27.451  1.00  0.00    -0.249 OA
BRANCH   7   9
ATOM      9  C   UNL A   1      31.637  26.285  25.324  1.00  0.00     0.170 C 
ATOM     10  N   UNL A   1      32.238  23.456  24.530  1.00  0.00    -0.328 N 
ATOM     11  C   UNL A   1      32.670  24.580  23.706  1.00  0.00     0.265 C 
ATOM     12  C   UNL A   1      31.163  23.731  25.479  1.00  0.00     0.265 C 
ATOM     13  H   UNL A   1      33.047  23.277  25.124  1.00  0.00     0.348 HD
ATOM     14  C   UNL A   1      32.872  25.879  24.487  1.00  0.00     0.104 C 
ATOM     15  C   UNL A   1      31.292  25.056  26.209  1.00  0.00     0.104 C 
BRANCH  10  16
ATOM     16  C   UNL A   1      31.967  22.241  23.725  1.00  0.00     0.341 C 
BRANCH  16  17
ATOM     17  C   UNL A   1      32.823  21.056  24.037  1.00  0.00     0.191 A 
ATOM     18  C   UNL A   1      33.889  19.152  24.396  1.00  0.00     0.084 A 
ATOM     19  C   UNL A   1      32.777  19.718  23.723  1.00  0.00     0.078 A 
ATOM     20  N   UNL A   1      34.582  20.095  25.045  1.00  0.00    -0.085 NA
ATOM     21  O   UNL A   1      33.928  21.285  24.801  1.00  0.00    -0.355 OA
BRANCH  18  22
ATOM     22  C   UNL A   1      34.338  17.729  24.388  1.00  0.00     0.056 C 
ATOM     23  C   UNL A   1      33.505  16.802  23.512  1.00  0.00     0.011 C 
ENDBRANCH  18  22
ENDBRANCH  16  17
ENDBRANCH  10  16
BRANCH   9  24
ATOM     24  N   UNL A   1      30.533  26.753  24.454  1.00  0.00    -0.254 N 
ATOM     25  C   UNL A   1      29.337  26.142  24.188  1.00  0.00     0.111 A 
ATOM     26  N   UNL A   1      30.646  27.906  23.729  1.00  0.00    -0.168 NA
ATOM     27  C   UNL A   1      28.538  27.081  23.591  1.00  0.00     0.054 A 
ATOM     28  C   UNL A   1      29.385  28.176  23.354  1.00  0.00     0.128 A 
BRANCH  28  29
ATOM     29  C   UNL A   1      28.904  29.453  22.752  1.00  0.00     0.154 A 
ATOM     30  C   UNL A   1      29.417  30.133  21.664  1.00  0.00     0.052 A 
ATOM     31  O   UNL A   1      27.827  30.146  23.244  1.00  0.00    -0.463 OA
ATOM     32  C   UNL A   1      28.617  31.295  21.493  1.00  0.00     0.043 A 
ATOM     33  C   UNL A   1      27.695  31.278  22.512  1.00  0.00     0.196 A 
ENDBRANCH  28  29
ENDBRANCH   9  24
ENDBRANCH   7   9
ENDBRANCH   6   7
ENDBRANCH   5   6
ENDBRANCH   4   5
ENDBRANCH   3   4
ENDBRANCH   2   3
ENDBRANCH   1   2
BRANCH   1  34
ATOM     34  O   UNL A   1      38.158  28.337  28.897  1.00  0.00    -0.377 OA
BRANCH  34  35
ATOM     35  C   UNL A   1      39.120  27.330  28.607  1.00  0.00     0.188 C 
BRANCH  35  36
ATOM     36  C   UNL A   1      40.262  27.592  27.605  1.00  0.00     0.188 C 
BRANCH  36  37
ATOM     37  O   UNL A   1      41.193  26.533  27.467  1.00  0.00    -0.376 OA
BRANCH  37  38
ATOM     38  C   UNL A   1      41.840  26.331  26.220  1.00  0.00     0.202 C 
BRANCH  38  39
ATOM     39  C   UNL A   1      43.276  26.850  26.041  1.00  0.00     0.261 C 
BRANCH  39  40
ATOM     40  O   UNL A   1      44.262  26.353  26.959  1.00  0.00    -0.460 OA
BRANCH  40  41
ATOM     41  C   UNL A   1      45.103  27.238  27.537  1.00  0.00     0.338 C 
ATOM     42  O   UNL A   1      46.222  27.537  27.180  1.00  0.00    -0.246 OA
BRANCH  41  43
ATOM     43  C   UNL A   1      44.335  27.947  28.585  1.00  0.00     0.060 A 
ATOM     44  C   UNL A   1      44.309  29.348  28.578  1.00  0.00     0.016 A 
ATOM     45  C   UNL A   1      43.638  27.230  29.559  1.00  0.00     0.016 A 
ATOM     46  C   UNL A   1      43.606  30.039  29.563  1.00  0.00     0.010 A 
ATOM     47  C   UNL A   1      42.959  27.923  30.564  1.00  0.00     0.010 A 
ATOM     48  C   UNL A   1      42.967  29.329  30.586  1.00  0.00    -0.014 A 
BRANCH  48  49
ATOM     49  C   UNL A   1      42.485  30.050  31.788  1.00  0.00     0.031 A 
ATOM     50  C   UNL A   1      41.127  30.689  31.736  1.00  0.00     0.074 A 
ATOM     51  C   UNL A   1      43.231  30.134  32.902  1.00  0.00     0.049 A 
ATOM     52  N   UNL A   1      40.525  31.438  32.622  1.00  0.00    -0.248 NA
ATOM     53  C   UNL A   1      40.347  30.454  30.510  1.00  0.00     0.031 C 
ATOM     54  C   UNL A   1      44.542  29.519  33.088  1.00  0.00     0.029 A 
ATOM     55  N   UNL A   1      42.991  30.793  34.080  1.00  0.00    -0.354 N 
ATOM     56  C   UNL A   1      39.305  31.782  32.053  1.00  0.00     0.074 A 
ATOM     57  C   UNL A   1      39.264  31.180  30.738  1.00  0.00     0.031 C 
ATOM     58  C   UNL A   1      45.008  29.856  34.303  1.00  0.00     0.029 A 
ATOM     59  C   UNL A   1      44.044  30.740  34.960  1.00  0.00     0.049 A 
ATOM     60  H   UNL A   1      42.147  31.260  34.277  1.00  0.00     0.167 HD
ATOM     61  C   UNL A   1      38.309  32.532  32.580  1.00  0.00     0.037 A 
ATOM     62  C   UNL A   1      44.223  31.364  36.140  1.00  0.00     0.037 A 
ATOM     63  C   UNL A   1      38.360  33.132  33.886  1.00  0.00     0.049 A 
ATOM     64  C   UNL A   1      43.137  32.257  36.680  1.00  0.00     0.074 A 
ATOM     65  C   UNL A   1      37.386  33.873  34.533  1.00  0.00     0.029 A 
ATOM     66  N   UNL A   1      39.454  33.080  34.737  1.00  0.00    -0.354 N 
ATOM     67  N   UNL A   1      41.967  32.543  36.158  1.00  0.00    -0.248 NA
ATOM     68  C   UNL A   1      43.394  32.914  37.969  1.00  0.00     0.031 C 
ATOM     69  C   UNL A   1      37.920  34.329  35.744  1.00  0.00     0.029 A 
ATOM     70  C   UNL A   1      39.200  33.818  35.882  1.00  0.00     0.049 A 
ATOM     71  H   UNL A   1      40.288  32.590  34.555  1.00  0.00     0.167 HD
ATOM     72  C   UNL A   1      41.346  33.402  37.058  1.00  0.00     0.074 A 
ATOM     73  C   UNL A   1      42.260  33.572  38.169  1.00  0.00     0.031 C 
ATOM     74  C   UNL A   1      40.127  33.994  36.974  1.00  0.00     0.037 A 
BRANCH  61  75
ATOM     75  C   UNL A   1      37.110  32.789  31.711  1.00  0.00     0.057 A 
ATOM     76  C   UNL A   1      37.096  33.787  30.727  1.00  0.00     0.134 A 
ATOM     77  C   UNL A   1      35.944  32.031  31.876  1.00  0.00     0.134 A 
ATOM     78  F   UNL A   1      38.173  34.561  30.527  1.00  0.00    -0.206 F 
ATOM     79  C   UNL A   1      35.954  34.047  29.967  1.00  0.00     0.040 A 
ATOM     80  C   UNL A   1      34.806  32.259  31.100  1.00  0.00     0.040 A 
ATOM     81  F   UNL A   1      35.888  31.057  32.798  1.00  0.00    -0.206 F 
ATOM     82  C   UNL A   1      34.805  33.279  30.152  1.00  0.00     0.006 A 
ENDBRANCH  61  75
BRANCH  62  83
ATOM     83  C   UNL A   1      45.506  31.194  36.867  1.00  0.00     0.057 A 
ATOM     84  C   UNL A   1      45.712  30.122  37.742  1.00  0.00     0.134 A 
ATOM     85  C   UNL A   1      46.566  32.091  36.686  1.00  0.00     0.134 A 
ATOM     86  F   UNL A   1      44.727  29.243  37.978  1.00  0.00    -0.206 F 
ATOM     87  C   UNL A   1      46.926  29.947  38.411  1.00  0.00     0.040 A 
ATOM     88  C   UNL A   1      47.793  31.915  37.327  1.00  0.00     0.040 A 
ATOM     89  F   UNL A   1      46.432  33.141  35.862  1.00  0.00    -0.206 F 
ATOM     90  C   UNL A   1      47.975  30.841  38.195  1.00  0.00     0.006 A 
ENDBRANCH  62  83
BRANCH  74  91
ATOM     91  C   UNL A   1      39.706  34.880  38.111  1.00  0.00     0.057 A 
ATOM     92  C   UNL A   1      39.147  34.359  39.287  1.00  0.00     0.134 A 
ATOM     93  C   UNL A   1      39.916  36.264  38.057  1.00  0.00     0.134 A 
ATOM     94  F   UNL A   1      38.909  33.043  39.401  1.00  0.00    -0.206 F 
ATOM     95  C   UNL A   1      38.796  35.185  40.357  1.00  0.00     0.040 A 
ATOM     96  C   UNL A   1      39.596  37.096  39.132  1.00  0.00     0.040 A 
ATOM     97  F   UNL A   1      40.456  36.829  36.967  1.00  0.00    -0.206 F 
ATOM     98  C   UNL A   1      39.029  36.556  40.285  1.00  0.00     0.006 A 
ENDBRANCH  74  91
ENDBRANCH  48  49
ENDBRANCH  41  43
ENDBRANCH  40  41
ENDBRANCH  39  40
ENDBRANCH  38  39
ENDBRANCH  37  38
ENDBRANCH  36  37
ENDBRANCH  35  36
ENDBRANCH  34  35
ENDBRANCH   1  34
TORSDOF 25
ENDMDL
MODEL 3
REMARK VINA RESULT:      -9.0      6.423     12.582
REMARK SMILES CCc1cc(C[NH+]2CCC(C(=O)OCCOCCOCCOCCOC(=O)c3ccc(-c4c5nc(c(-c6c(F)cccc6F)c6ccc([nH]6)c(-c6c(F)cccc6F)c6nc(c(-c7c(F)cccc7F)c7ccc4[nH]7)C=C6)C=C5)cc3)(n3ccc(-c4ccco4)n3)CC2)on1
REMARK SMILES IDX 18 1 17 2 16 3 15 4 14 5 13 6 11 7 12 8 10 9 7 10 8 11 93 12
REMARK SMILES IDX 9 14 92 15 6 16 5 17 3 18 4 19 95 20 94 21 2 22 1 23 82 24
REMARK SMILES IDX 83 25 91 26 84 27 85 28 86 29 87 30 90 31 88 32 89 33 19 34
REMARK SMILES IDX 20 35 21 36 22 37 23 38 24 39 25 40 26 41 27 42 28 43 29 44
REMARK SMILES IDX 81 45 30 46 80 47 31 48 32 49 33 50 74 51 34 52 79 53 73 54
REMARK SMILES IDX 75 55 35 56 78 57 72 58 71 59 36 61 62 62 45 63 61 64 46 65
REMARK SMILES IDX 49 66 60 67 76 68 47 69 48 70 59 72 77 73 50 74 37 75 38 76
REMARK SMILES IDX 43 77 39 78 40 79 42 80 44 81 41 82 63 83 64 84 69 85 65 86
REMARK SMILES IDX 66 87 68 88 70 89 67 90 51 91 52 92 57 93 53 94 54 95 56 96
REMARK SMILES IDX 58 97 55 98
REMARK H PARENT 7 13 75 60 49 71
REMARK Flexibility Score: inf
ROOT
ATOM      1  C   UNL A   1      46.067  19.181  24.544  1.00  0.00     0.188 C 
ENDROOT
BRANCH   1   2
ATOM      2  C   UNL A   1      44.694  19.284  23.873  1.00  0.00     0.188 C 
BRANCH   2   3
ATOM      3  O   UNL A   1      43.590  18.849  24.635  1.00  0.00    -0.376 OA
BRANCH   3   4
ATOM      4  C   UNL A   1      43.416  19.275  25.974  1.00  0.00     0.202 C 
BRANCH   4   5
ATOM      5  C   UNL A   1      42.164  19.946  26.584  1.00  0.00     0.261 C 
BRANCH   5   6
ATOM      6  O   UNL A   1      42.242  21.303  27.040  1.00  0.00    -0.461 OA
BRANCH   6   7
ATOM      7  C   UNL A   1      42.133  22.267  26.088  1.00  0.00     0.334 C 
ATOM      8  O   UNL A   1      42.514  22.099  24.930  1.00  0.00    -0.249 OA
BRANCH   7   9
ATOM      9  C   UNL A   1      41.609  23.630  26.615  1.00  0.00     0.170 C 
ATOM     10  N   UNL A   1      42.402  26.449  27.260  1.00  0.00    -0.328 N 
ATOM     11  C   UNL A   1      41.871  25.560  28.287  1.00  0.00     0.265 C 
ATOM     12  C   UNL A   1      42.126  26.070  25.877  1.00  0.00     0.265 C 
ATOM     13  H   UNL A   1      43.411  26.330  27.347  1.00  0.00     0.348 HD
ATOM     14  C   UNL A   1      42.111  24.076  28.008  1.00  0.00     0.104 C 
ATOM     15  C   UNL A   1      42.274  24.587  25.590  1.00  0.00     0.104 C 
BRANCH  10  16
ATOM     16  C   UNL A   1      42.070  27.871  27.520  1.00  0.00     0.341 C 
BRANCH  16  17
ATOM     17  C   UNL A   1      43.194  28.839  27.332  1.00  0.00     0.191 A 
ATOM     18  C   UNL A   1      44.743  30.415  27.258  1.00  0.00     0.084 A 
ATOM     19  C   UNL A   1      43.668  29.920  28.038  1.00  0.00     0.078 A 
ATOM     20  N   UNL A   1      44.928  29.659  26.168  1.00  0.00    -0.085 NA
ATOM     21  O   UNL A   1      43.975  28.664  26.229  1.00  0.00    -0.355 OA
BRANCH  18  22
ATOM     22  C   UNL A   1      45.639  31.570  27.558  1.00  0.00     0.056 C 
ATOM     23  C   UNL A   1      46.917  31.619  26.729  1.00  0.00     0.011 C 
ENDBRANCH  18  22
ENDBRANCH  16  17
ENDBRANCH  10  16
BRANCH   9  24
ATOM     24  N   UNL A   1      40.129  23.596  26.566  1.00  0.00    -0.254 N 
ATOM     25  C   UNL A   1      39.249  24.642  26.636  1.00  0.00     0.111 A 
ATOM     26  N   UNL A   1      39.452  22.412  26.504  1.00  0.00    -0.168 NA
ATOM     27  C   UNL A   1      38.029  24.158  26.244  1.00  0.00     0.054 A 
ATOM     28  C   UNL A   1      38.209  22.769  26.140  1.00  0.00     0.128 A 
BRANCH  28  29
ATOM     29  C   UNL A   1      37.129  21.846  25.687  1.00  0.00     0.154 A 
ATOM     30  C   UNL A   1      37.255  20.620  25.064  1.00  0.00     0.052 A 
ATOM     31  O   UNL A   1      35.796  22.130  25.848  1.00  0.00    -0.463 OA
ATOM     32  C   UNL A   1      35.938  20.141  24.830  1.00  0.00     0.043 A 
ATOM     33  C   UNL A   1      35.089  21.121  25.283  1.00  0.00     0.196 A 
ENDBRANCH  28  29
ENDBRANCH   9  24
ENDBRANCH   7   9
ENDBRANCH   6   7
ENDBRANCH   5   6
ENDBRANCH   4   5
ENDBRANCH   3   4
ENDBRANCH   2   3
ENDBRANCH   1   2
BRANCH   1  34
ATOM     34  O   UNL A   1      46.609  20.381  25.069  1.00  0.00    -0.377 OA
BRANCH  34  35
ATOM     35  C   UNL A   1      46.106  21.626  24.596  1.00  0.00     0.188 C 
BRANCH  35  36
ATOM     36  C   UNL A   1      45.785  22.772  25.576  1.00  0.00     0.188 C 
BRANCH  36  37
ATOM     37  O   UNL A   1      45.647  24.049  24.978  1.00  0.00    -0.376 OA
BRANCH  37  38
ATOM     38  C   UNL A   1      46.646  25.033  25.196  1.00  0.00     0.202 C 
BRANCH  38  39
ATOM     39  C   UNL A   1      46.900  25.522  26.631  1.00  0.00     0.261 C 
BRANCH  39  40
ATOM     40  O   UNL A   1      45.743  25.748  27.452  1.00  0.00    -0.460 OA
BRANCH  40  41
ATOM     41  C   UNL A   1      45.556  24.953  28.529  1.00  0.00     0.338 C 
ATOM     42  O   UNL A   1      45.791  23.767  28.623  1.00  0.00    -0.246 OA
BRANCH  41  43
ATOM     43  C   UNL A   1      45.199  25.834  29.662  1.00  0.00     0.060 A 
ATOM     44  C   UNL A   1      44.503  25.292  30.752  1.00  0.00     0.016 A 
ATOM     45  C   UNL A   1      45.558  27.183  29.651  1.00  0.00     0.016 A 
ATOM     46  C   UNL A   1      44.141  26.104  31.824  1.00  0.00     0.010 A 
ATOM     47  C   UNL A   1      45.167  28.004  30.713  1.00  0.00     0.010 A 
ATOM     48  C   UNL A   1      44.431  27.473  31.787  1.00  0.00    -0.014 A 
BRANCH  48  49
ATOM     49  C   UNL A   1      43.790  28.385  32.763  1.00  0.00     0.031 A 
ATOM     50  C   UNL A   1      42.440  28.952  32.426  1.00  0.00     0.074 A 
ATOM     51  C   UNL A   1      44.387  28.704  33.924  1.00  0.00     0.049 A 
ATOM     52  N   UNL A   1      41.720  29.829  33.074  1.00  0.00    -0.248 NA
ATOM     53  C   UNL A   1      41.827  28.464  31.181  1.00  0.00     0.031 C 
ATOM     54  C   UNL A   1      45.673  28.184  34.382  1.00  0.00     0.029 A 
ATOM     55  N   UNL A   1      43.990  29.561  34.918  1.00  0.00    -0.354 N 
ATOM     56  C   UNL A   1      40.578  30.014  32.305  1.00  0.00     0.074 A 
ATOM     57  C   UNL A   1      40.714  29.177  31.133  1.00  0.00     0.031 C 
ATOM     58  C   UNL A   1      45.975  28.758  35.559  1.00  0.00     0.029 A 
ATOM     59  C   UNL A   1      44.923  29.712  35.913  1.00  0.00     0.049 A 
ATOM     60  H   UNL A   1      43.121  30.023  34.918  1.00  0.00     0.167 HD
ATOM     61  C   UNL A   1      39.512  30.810  32.555  1.00  0.00     0.037 A 
ATOM     62  C   UNL A   1      44.942  30.551  36.967  1.00  0.00     0.037 A 
ATOM     63  C   UNL A   1      39.388  31.645  33.720  1.00  0.00     0.049 A 
ATOM     64  C   UNL A   1      43.783  31.486  37.191  1.00  0.00     0.074 A 
ATOM     65  C   UNL A   1      38.330  32.455  34.091  1.00  0.00     0.029 A 
ATOM     66  N   UNL A   1      40.366  31.793  34.693  1.00  0.00    -0.354 N 
ATOM     67  N   UNL A   1      42.686  31.626  36.486  1.00  0.00    -0.248 NA
ATOM     68  C   UNL A   1      43.865  32.381  38.355  1.00  0.00     0.031 C 
ATOM     69  C   UNL A   1      38.698  33.149  35.250  1.00  0.00     0.029 A 
ATOM     70  C   UNL A   1      39.958  32.721  35.638  1.00  0.00     0.049 A 
ATOM     71  H   UNL A   1      41.223  31.310  34.710  1.00  0.00     0.167 HD
ATOM     72  C   UNL A   1      41.942  32.613  37.125  1.00  0.00     0.074 A 
ATOM     73  C   UNL A   1      42.706  33.021  38.286  1.00  0.00     0.031 C 
ATOM     74  C   UNL A   1      40.736  33.132  36.781  1.00  0.00     0.037 A 
BRANCH  61  75
ATOM     75  C   UNL A   1      38.430  30.856  31.514  1.00  0.00     0.057 A 
ATOM     76  C   UNL A   1      38.462  31.752  30.436  1.00  0.00     0.134 A 
ATOM     77  C   UNL A   1      37.329  29.994  31.602  1.00  0.00     0.134 A 
ATOM     78  F   UNL A   1      39.478  32.616  30.300  1.00  0.00    -0.206 F 
ATOM     79  C   UNL A   1      37.419  31.816  29.509  1.00  0.00     0.040 A 
ATOM     80  C   UNL A   1      36.297  30.026  30.663  1.00  0.00     0.040 A 
ATOM     81  F   UNL A   1      37.235  29.108  32.606  1.00  0.00    -0.206 F 
ATOM     82  C   UNL A   1      36.334  30.949  29.621  1.00  0.00     0.006 A 
ENDBRANCH  61  75
BRANCH  62  83
ATOM     83  C   UNL A   1      46.124  30.567  37.865  1.00  0.00     0.057 A 
ATOM     84  C   UNL A   1      47.185  31.455  37.660  1.00  0.00     0.134 A 
ATOM     85  C   UNL A   1      46.208  29.706  38.967  1.00  0.00     0.134 A 
ATOM     86  F   UNL A   1      47.177  32.286  36.607  1.00  0.00    -0.206 F 
ATOM     87  C   UNL A   1      48.288  31.487  38.517  1.00  0.00     0.040 A 
ATOM     88  C   UNL A   1      47.290  29.744  39.847  1.00  0.00     0.040 A 
ATOM     89  F   UNL A   1      45.224  28.830  39.218  1.00  0.00    -0.206 F 
ATOM     90  C   UNL A   1      48.337  30.636  39.621  1.00  0.00     0.006 A 
ENDBRANCH  62  83
BRANCH  74  91
ATOM     91  C   UNL A   1      40.161  34.197  37.671  1.00  0.00     0.057 A 
ATOM     92  C   UNL A   1      39.382  33.883  38.793  1.00  0.00     0.134 A 
ATOM     93  C   UNL A   1      40.438  35.551  37.438  1.00  0.00     0.134 A 
ATOM     94  F   UNL A   1      39.070  32.607  39.069  1.00  0.00    -0.206 F 
ATOM     95  C   UNL A   1      38.885  34.877  39.639  1.00  0.00     0.040 A 
ATOM     96  C   UNL A   1      39.971  36.551  38.293  1.00  0.00     0.040 A 
ATOM     97  F   UNL A   1      41.185  35.923  36.388  1.00  0.00    -0.206 F 
ATOM     98  C   UNL A   1      39.188  36.215  39.395  1.00  0.00     0.006 A 
ENDBRANCH  74  91
ENDBRANCH  48  49
ENDBRANCH  41  43
ENDBRANCH  40  41
ENDBRANCH  39  40
ENDBRANCH  38  39
ENDBRANCH  37  38
ENDBRANCH  36  37
ENDBRANCH  35  36
ENDBRANCH  34  35
ENDBRANCH   1  34
TORSDOF 25
ENDMDL
