MODEL 1
REMARK VINA RESULT:     -10.3      0.000      0.000
REMARK SMILES C=CC[N@H+]1C[C@@H]2CN(C(=O)c3ccc(COC)s3)C[C@@]2(C(=O)OCCOCCOCCOCCOC(=O)c2ccc(-c3c4nc(c(-c5c(F)cccc5F)c5ccc([nH]5)c(-c5c(F)cccc5F)c5nc(c(-c6c(F)cccc6F)c6ccc3[nH]6)C=C5)C=C4)cc2)C1
REMARK SMILES IDX 28 1 27 2 26 3 25 4 24 5 23 6 21 7 22 8 20 9 4 10 5 11 92 12
REMARK SMILES IDX 6 14 7 15 19 16 8 17 3 18 2 19 1 20 9 21 10 22 11 23 12 24
REMARK SMILES IDX 18 25 13 26 14 27 15 28 16 29 17 30 29 31 30 32 31 33 32 34
REMARK SMILES IDX 33 35 34 36 35 37 36 38 37 39 38 40 39 41 91 42 40 43 90 44
REMARK SMILES IDX 41 45 42 46 43 47 84 48 44 49 89 50 83 51 85 52 45 53 88 54
REMARK SMILES IDX 82 55 81 56 46 58 72 59 55 60 71 61 56 62 59 63 70 64 86 65
REMARK SMILES IDX 57 66 58 67 69 69 87 70 60 71 47 72 48 73 53 74 49 75 50 76
REMARK SMILES IDX 52 77 54 78 51 79 73 80 74 81 79 82 75 83 76 84 78 85 80 86
REMARK SMILES IDX 77 87 61 88 62 89 67 90 63 91 64 92 66 93 68 94 65 95
REMARK H PARENT 4 13 85 57 59 68
REMARK Flexibility Score: inf
ROOT
ATOM      1  C   UNL A   1      41.704  19.869  26.341  1.00  0.00     0.188 C 
ENDROOT
BRANCH   1   2
ATOM      2  C   UNL A   1      40.178  20.040  26.129  1.00  0.00     0.188 C 
BRANCH   2   3
ATOM      3  O   UNL A   1      39.416  19.094  25.370  1.00  0.00    -0.376 OA
BRANCH   3   4
ATOM      4  C   UNL A   1      38.052  19.348  25.023  1.00  0.00     0.202 C 
BRANCH   4   5
ATOM      5  C   UNL A   1      37.537  20.796  25.005  1.00  0.00     0.261 C 
BRANCH   5   6
ATOM      6  O   UNL A   1      36.158  20.782  25.356  1.00  0.00    -0.463 OA
BRANCH   6   7
ATOM      7  C   UNL A   1      35.243  21.616  24.798  1.00  0.00     0.320 C 
ATOM      8  O   UNL A   1      35.497  22.453  23.949  1.00  0.00    -0.251 OA
BRANCH   7   9
ATOM      9  C   UNL A   1      33.884  21.246  25.514  1.00  0.00     0.144 C 
ATOM     10  N   UNL A   1      33.545  19.302  24.028  1.00  0.00    -0.330 N 
ATOM     11  C   UNL A   1      32.257  19.964  24.086  1.00  0.00     0.269 C 
ATOM     12  C   UNL A   1      34.296  19.752  25.198  1.00  0.00     0.283 C 
ATOM     13  H   UNL A   1      34.017  19.565  23.162  1.00  0.00     0.348 HD
ATOM     14  C   UNL A   1      32.388  20.784  25.346  1.00  0.00     0.089 C 
ATOM     15  C   UNL A   1      31.380  21.901  25.478  1.00  0.00     0.130 C 
ATOM     16  C   UNL A   1      33.540  22.738  25.157  1.00  0.00     0.145 C 
ATOM     17  N   UNL A   1      32.190  23.059  25.554  1.00  0.00    -0.336 N 
BRANCH  10  18
ATOM     18  C   UNL A   1      33.491  17.851  23.903  1.00  0.00     0.290 C 
BRANCH  18  19
ATOM     19  C   UNL A   1      34.782  17.252  24.374  1.00  0.00     0.025 C 
ATOM     20  C   UNL A   1      34.874  16.098  25.048  1.00  0.00     0.010 C 
ENDBRANCH  18  19
ENDBRANCH  10  18
BRANCH  17  21
ATOM     21  C   UNL A   1      31.654  24.276  25.952  1.00  0.00     0.263 C 
ATOM     22  O   UNL A   1      31.416  24.474  27.146  1.00  0.00    -0.268 OA
BRANCH  21  23
ATOM     23  C   UNL A   1      31.477  25.304  24.940  1.00  0.00     0.092 A 
ATOM     24  C   UNL A   1      31.316  25.226  23.569  1.00  0.00     0.026 A 
ATOM     25  S   UNL A   1      31.500  26.931  25.469  1.00  0.00    -0.133 S 
ATOM     26  C   UNL A   1      31.364  26.505  22.944  1.00  0.00     0.018 A 
ATOM     27  C   UNL A   1      31.476  27.518  23.870  1.00  0.00     0.031 A 
BRANCH  27  28
ATOM     28  C   UNL A   1      31.660  28.968  23.625  1.00  0.00     0.206 C 
BRANCH  28  29
ATOM     29  O   UNL A   1      30.644  29.732  24.266  1.00  0.00    -0.379 OA
ATOM     30  C   UNL A   1      29.486  29.898  23.459  1.00  0.00     0.195 C 
ENDBRANCH  28  29
ENDBRANCH  27  28
ENDBRANCH  21  23
ENDBRANCH  17  21
ENDBRANCH   7   9
ENDBRANCH   6   7
ENDBRANCH   5   6
ENDBRANCH   4   5
ENDBRANCH   3   4
ENDBRANCH   2   3
ENDBRANCH   1   2
BRANCH   1  31
ATOM     31  O   UNL A   1      42.284  18.810  25.598  1.00  0.00    -0.377 OA
BRANCH  31  32
ATOM     32  C   UNL A   1      43.706  18.738  25.639  1.00  0.00     0.188 C 
BRANCH  32  33
ATOM     33  C   UNL A   1      44.464  19.749  24.759  1.00  0.00     0.188 C 
BRANCH  33  34
ATOM     34  O   UNL A   1      45.820  19.910  25.157  1.00  0.00    -0.376 OA
BRANCH  34  35
ATOM     35  C   UNL A   1      46.400  21.207  25.113  1.00  0.00     0.202 C 
BRANCH  35  36
ATOM     36  C   UNL A   1      45.531  22.399  24.682  1.00  0.00     0.261 C 
BRANCH  36  37
ATOM     37  O   UNL A   1      44.648  22.966  25.668  1.00  0.00    -0.460 OA
BRANCH  37  38
ATOM     38  C   UNL A   1      43.363  23.222  25.354  1.00  0.00     0.338 C 
ATOM     39  O   UNL A   1      42.642  22.602  24.595  1.00  0.00    -0.246 OA
BRANCH  38  40
ATOM     40  C   UNL A   1      42.924  24.315  26.247  1.00  0.00     0.060 A 
ATOM     41  C   UNL A   1      43.476  25.600  26.131  1.00  0.00     0.016 A 
ATOM     42  C   UNL A   1      41.922  24.066  27.180  1.00  0.00     0.016 A 
ATOM     43  C   UNL A   1      43.031  26.640  26.961  1.00  0.00     0.010 A 
ATOM     44  C   UNL A   1      41.480  25.106  28.000  1.00  0.00     0.010 A 
ATOM     45  C   UNL A   1      42.042  26.400  27.920  1.00  0.00    -0.014 A 
BRANCH  45  46
ATOM     46  C   UNL A   1      41.680  27.400  28.968  1.00  0.00     0.031 A 
ATOM     47  C   UNL A   1      42.419  27.320  30.282  1.00  0.00     0.074 A 
ATOM     48  C   UNL A   1      40.695  28.310  28.823  1.00  0.00     0.049 A 
ATOM     49  N   UNL A   1      42.191  27.935  31.413  1.00  0.00    -0.248 NA
ATOM     50  C   UNL A   1      43.559  26.386  30.327  1.00  0.00     0.031 C 
ATOM     51  C   UNL A   1      39.903  28.549  27.617  1.00  0.00     0.029 A 
ATOM     52  N   UNL A   1      40.158  29.187  29.742  1.00  0.00    -0.354 N 
ATOM     53  C   UNL A   1      43.144  27.447  32.298  1.00  0.00     0.074 A 
ATOM     54  C   UNL A   1      43.881  26.414  31.607  1.00  0.00     0.031 C 
ATOM     55  C   UNL A   1      38.943  29.452  27.887  1.00  0.00     0.029 A 
ATOM     56  C   UNL A   1      39.057  29.872  29.281  1.00  0.00     0.049 A 
ATOM     57  H   UNL A   1      40.528  29.311  30.645  1.00  0.00     0.167 HD
ATOM     58  C   UNL A   1      43.430  27.853  33.557  1.00  0.00     0.037 A 
ATOM     59  C   UNL A   1      38.232  30.733  29.913  1.00  0.00     0.037 A 
ATOM     60  C   UNL A   1      42.736  28.907  34.239  1.00  0.00     0.049 A 
ATOM     61  C   UNL A   1      38.515  31.126  31.342  1.00  0.00     0.074 A 
ATOM     62  C   UNL A   1      42.994  29.440  35.489  1.00  0.00     0.029 A 
ATOM     63  N   UNL A   1      41.645  29.590  33.726  1.00  0.00    -0.354 N 
ATOM     64  N   UNL A   1      39.471  30.715  32.140  1.00  0.00    -0.248 NA
ATOM     65  C   UNL A   1      37.624  32.129  31.947  1.00  0.00     0.031 C 
ATOM     66  C   UNL A   1      42.027  30.413  35.753  1.00  0.00     0.029 A 
ATOM     67  C   UNL A   1      41.203  30.525  34.644  1.00  0.00     0.049 A 
ATOM     68  H   UNL A   1      41.244  29.432  32.841  1.00  0.00     0.167 HD
ATOM     69  C   UNL A   1      39.333  31.452  33.312  1.00  0.00     0.074 A 
ATOM     70  C   UNL A   1      38.198  32.330  33.124  1.00  0.00     0.031 C 
ATOM     71  C   UNL A   1      40.089  31.415  34.437  1.00  0.00     0.037 A 
BRANCH  58  72
ATOM     72  C   UNL A   1      44.563  27.158  34.254  1.00  0.00     0.057 A 
ATOM     73  C   UNL A   1      44.358  26.005  35.026  1.00  0.00     0.134 A 
ATOM     74  C   UNL A   1      45.869  27.654  34.168  1.00  0.00     0.134 A 
ATOM     75  F   UNL A   1      43.126  25.489  35.164  1.00  0.00    -0.206 F 
ATOM     76  C   UNL A   1      45.401  25.399  35.726  1.00  0.00     0.040 A 
ATOM     77  C   UNL A   1      46.927  27.036  34.835  1.00  0.00     0.040 A 
ATOM     78  F   UNL A   1      46.137  28.750  33.443  1.00  0.00    -0.206 F 
ATOM     79  C   UNL A   1      46.692  25.913  35.627  1.00  0.00     0.006 A 
ENDBRANCH  58  72
BRANCH  59  80
ATOM     80  C   UNL A   1      37.067  31.326  29.201  1.00  0.00     0.057 A 
ATOM     81  C   UNL A   1      35.925  30.563  28.921  1.00  0.00     0.134 A 
ATOM     82  C   UNL A   1      37.089  32.643  28.731  1.00  0.00     0.134 A 
ATOM     83  F   UNL A   1      35.855  29.286  29.323  1.00  0.00    -0.206 F 
ATOM     84  C   UNL A   1      34.863  31.076  28.175  1.00  0.00     0.040 A 
ATOM     85  C   UNL A   1      36.023  33.178  28.001  1.00  0.00     0.040 A 
ATOM     86  F   UNL A   1      38.149  33.429  28.967  1.00  0.00    -0.206 F 
ATOM     87  C   UNL A   1      34.911  32.389  27.712  1.00  0.00     0.006 A 
ENDBRANCH  59  80
BRANCH  71  88
ATOM     88  C   UNL A   1      39.770  32.395  35.530  1.00  0.00     0.057 A 
ATOM     89  C   UNL A   1      38.856  32.105  36.549  1.00  0.00     0.134 A 
ATOM     90  C   UNL A   1      40.441  33.624  35.594  1.00  0.00     0.134 A 
ATOM     91  F   UNL A   1      38.171  30.951  36.542  1.00  0.00    -0.206 F 
ATOM     92  C   UNL A   1      38.604  33.011  37.582  1.00  0.00     0.040 A 
ATOM     93  C   UNL A   1      40.222  34.524  36.638  1.00  0.00     0.040 A 
ATOM     94  F   UNL A   1      41.340  33.960  34.656  1.00  0.00    -0.206 F 
ATOM     95  C   UNL A   1      39.296  34.220  37.633  1.00  0.00     0.006 A 
ENDBRANCH  71  88
ENDBRANCH  45  46
ENDBRANCH  38  40
ENDBRANCH  37  38
ENDBRANCH  36  37
ENDBRANCH  35  36
ENDBRANCH  34  35
ENDBRANCH  33  34
ENDBRANCH  32  33
ENDBRANCH  31  32
ENDBRANCH   1  31
TORSDOF 26
ENDMDL
MODEL 2
REMARK VINA RESULT:      -9.3      6.644      8.324
REMARK SMILES C=CC[N@H+]1C[C@@H]2CN(C(=O)c3ccc(COC)s3)C[C@@]2(C(=O)OCCOCCOCCOCCOC(=O)c2ccc(-c3c4nc(c(-c5c(F)cccc5F)c5ccc([nH]5)c(-c5c(F)cccc5F)c5nc(c(-c6c(F)cccc6F)c6ccc3[nH]6)C=C5)C=C4)cc2)C1
REMARK SMILES IDX 28 1 27 2 26 3 25 4 24 5 23 6 21 7 22 8 20 9 4 10 5 11 92 12
REMARK SMILES IDX 6 14 7 15 19 16 8 17 3 18 2 19 1 20 9 21 10 22 11 23 12 24
REMARK SMILES IDX 18 25 13 26 14 27 15 28 16 29 17 30 29 31 30 32 31 33 32 34
REMARK SMILES IDX 33 35 34 36 35 37 36 38 37 39 38 40 39 41 91 42 40 43 90 44
REMARK SMILES IDX 41 45 42 46 43 47 84 48 44 49 89 50 83 51 85 52 45 53 88 54
REMARK SMILES IDX 82 55 81 56 46 58 72 59 55 60 71 61 56 62 59 63 70 64 86 65
REMARK SMILES IDX 57 66 58 67 69 69 87 70 60 71 47 72 48 73 53 74 49 75 50 76
REMARK SMILES IDX 52 77 54 78 51 79 73 80 74 81 79 82 75 83 76 84 78 85 80 86
REMARK SMILES IDX 77 87 61 88 62 89 67 90 63 91 64 92 66 93 68 94 65 95
REMARK H PARENT 4 13 85 57 59 68
REMARK Flexibility Score: inf
ROOT
ATOM      1  C   UNL A   1      41.421  19.888  26.509  1.00  0.00     0.188 C 
ENDROOT
BRANCH   1   2
ATOM      2  C   UNL A   1      40.055  20.518  26.136  1.00  0.00     0.188 C 
BRANCH   2   3
ATOM      3  O   UNL A   1      39.048  19.770  25.446  1.00  0.00    -0.376 OA
BRANCH   3   4
ATOM      4  C   UNL A   1      37.852  20.395  24.971  1.00  0.00     0.202 C 
BRANCH   4   5
ATOM      5  C   UNL A   1      37.548  21.846  25.382  1.00  0.00     0.261 C 
BRANCH   5   6
ATOM      6  O   UNL A   1      36.169  22.096  25.138  1.00  0.00    -0.463 OA
BRANCH   6   7
ATOM      7  C   UNL A   1      35.705  22.611  23.970  1.00  0.00     0.320 C 
ATOM      8  O   UNL A   1      36.378  22.764  22.966  1.00  0.00    -0.251 OA
BRANCH   7   9
ATOM      9  C   UNL A   1      34.189  22.949  24.264  1.00  0.00     0.144 C 
ATOM     10  N   UNL A   1      33.548  20.570  24.084  1.00  0.00    -0.330 N 
ATOM     11  C   UNL A   1      32.542  21.292  23.330  1.00  0.00     0.269 C 
ATOM     12  C   UNL A   1      34.169  21.541  24.983  1.00  0.00     0.283 C 
ATOM     13  H   UNL A   1      34.232  20.176  23.438  1.00  0.00     0.348 HD
ATOM     14  C   UNL A   1      32.683  22.688  23.885  1.00  0.00     0.089 C 
ATOM     15  C   UNL A   1      32.066  23.770  23.031  1.00  0.00     0.130 C 
ATOM     16  C   UNL A   1      34.399  23.930  23.053  1.00  0.00     0.145 C 
ATOM     17  N   UNL A   1      33.166  24.605  22.724  1.00  0.00    -0.336 N 
BRANCH  10  18
ATOM     18  C   UNL A   1      33.070  19.376  24.770  1.00  0.00     0.290 C 
BRANCH  18  19
ATOM     19  C   UNL A   1      32.562  18.384  23.767  1.00  0.00     0.025 C 
ATOM     20  C   UNL A   1      33.285  17.367  23.282  1.00  0.00     0.010 C 
ENDBRANCH  18  19
ENDBRANCH  10  18
BRANCH  17  21
ATOM     21  C   UNL A   1      32.970  25.867  22.178  1.00  0.00     0.263 C 
ATOM     22  O   UNL A   1      33.338  26.092  21.023  1.00  0.00    -0.268 OA
BRANCH  21  23
ATOM     23  C   UNL A   1      32.251  26.847  22.974  1.00  0.00     0.092 A 
ATOM     24  C   UNL A   1      31.232  27.725  22.653  1.00  0.00     0.026 A 
ATOM     25  S   UNL A   1      32.728  27.024  24.608  1.00  0.00    -0.133 S 
ATOM     26  C   UNL A   1      30.952  28.640  23.707  1.00  0.00     0.018 A 
ATOM     27  C   UNL A   1      31.710  28.374  24.825  1.00  0.00     0.031 A 
BRANCH  27  28
ATOM     28  C   UNL A   1      31.793  29.151  26.084  1.00  0.00     0.206 C 
BRANCH  28  29
ATOM     29  O   UNL A   1      32.706  30.237  25.959  1.00  0.00    -0.379 OA
ATOM     30  C   UNL A   1      33.202  30.687  27.212  1.00  0.00     0.195 C 
ENDBRANCH  28  29
ENDBRANCH  27  28
ENDBRANCH  21  23
ENDBRANCH  17  21
ENDBRANCH   7   9
ENDBRANCH   6   7
ENDBRANCH   5   6
ENDBRANCH   4   5
ENDBRANCH   3   4
ENDBRANCH   2   3
ENDBRANCH   1   2
BRANCH   1  31
ATOM     31  O   UNL A   1      41.801  18.790  25.696  1.00  0.00    -0.377 OA
BRANCH  31  32
ATOM     32  C   UNL A   1      42.949  18.070  26.136  1.00  0.00     0.188 C 
BRANCH  32  33
ATOM     33  C   UNL A   1      44.309  18.757  25.915  1.00  0.00     0.188 C 
BRANCH  33  34
ATOM     34  O   UNL A   1      44.506  19.157  24.563  1.00  0.00    -0.376 OA
BRANCH  34  35
ATOM     35  C   UNL A   1      44.937  20.485  24.294  1.00  0.00     0.202 C 
BRANCH  35  36
ATOM     36  C   UNL A   1      44.171  21.659  24.925  1.00  0.00     0.261 C 
BRANCH  36  37
ATOM     37  O   UNL A   1      44.784  22.325  26.045  1.00  0.00    -0.460 OA
BRANCH  37  38
ATOM     38  C   UNL A   1      44.040  23.100  26.857  1.00  0.00     0.338 C 
ATOM     39  O   UNL A   1      43.184  22.749  27.648  1.00  0.00    -0.246 OA
BRANCH  38  40
ATOM     40  C   UNL A   1      44.580  24.471  26.736  1.00  0.00     0.060 A 
ATOM     41  C   UNL A   1      44.517  25.160  25.515  1.00  0.00     0.016 A 
ATOM     42  C   UNL A   1      45.115  25.089  27.862  1.00  0.00     0.016 A 
ATOM     43  C   UNL A   1      45.002  26.473  25.417  1.00  0.00     0.010 A 
ATOM     44  C   UNL A   1      45.592  26.397  27.759  1.00  0.00     0.010 A 
ATOM     45  C   UNL A   1      45.565  27.099  26.533  1.00  0.00    -0.014 A 
BRANCH  45  46
ATOM     46  C   UNL A   1      46.287  28.403  26.443  1.00  0.00     0.031 A 
ATOM     47  C   UNL A   1      47.792  28.352  26.335  1.00  0.00     0.074 A 
ATOM     48  C   UNL A   1      45.675  29.603  26.521  1.00  0.00     0.049 A 
ATOM     49  N   UNL A   1      48.674  29.314  26.420  1.00  0.00    -0.248 NA
ATOM     50  C   UNL A   1      48.381  27.015  26.134  1.00  0.00     0.031 C 
ATOM     51  C   UNL A   1      44.234  29.839  26.595  1.00  0.00     0.029 A 
ATOM     52  N   UNL A   1      46.216  30.869  26.598  1.00  0.00    -0.354 N 
ATOM     53  C   UNL A   1      49.911  28.693  26.301  1.00  0.00     0.074 A 
ATOM     54  C   UNL A   1      49.672  27.269  26.245  1.00  0.00     0.031 C 
ATOM     55  C   UNL A   1      44.008  31.154  26.775  1.00  0.00     0.029 A 
ATOM     56  C   UNL A   1      45.286  31.860  26.815  1.00  0.00     0.049 A 
ATOM     57  H   UNL A   1      47.179  31.047  26.508  1.00  0.00     0.167 HD
ATOM     58  C   UNL A   1      51.140  29.248  26.189  1.00  0.00     0.037 A 
ATOM     59  C   UNL A   1      45.447  33.183  27.028  1.00  0.00     0.037 A 
ATOM     60  C   UNL A   1      51.387  30.661  26.198  1.00  0.00     0.049 A 
ATOM     61  C   UNL A   1      46.830  33.785  26.974  1.00  0.00     0.074 A 
ATOM     62  C   UNL A   1      52.588  31.327  26.023  1.00  0.00     0.029 A 
ATOM     63  N   UNL A   1      50.415  31.628  26.395  1.00  0.00    -0.354 N 
ATOM     64  N   UNL A   1      47.983  33.193  26.779  1.00  0.00    -0.248 NA
ATOM     65  C   UNL A   1      46.928  35.244  27.135  1.00  0.00     0.031 C 
ATOM     66  C   UNL A   1      52.348  32.697  26.162  1.00  0.00     0.029 A 
ATOM     67  C   UNL A   1      50.990  32.886  26.367  1.00  0.00     0.049 A 
ATOM     68  H   UNL A   1      49.457  31.446  26.534  1.00  0.00     0.167 HD
ATOM     69  C   UNL A   1      48.931  34.211  26.733  1.00  0.00     0.074 A 
ATOM     70  C   UNL A   1      48.220  35.456  26.926  1.00  0.00     0.031 C 
ATOM     71  C   UNL A   1      50.269  34.121  26.532  1.00  0.00     0.037 A 
BRANCH  58  72
ATOM     72  C   UNL A   1      52.297  28.308  26.022  1.00  0.00     0.057 A 
ATOM     73  C   UNL A   1      53.026  27.832  27.123  1.00  0.00     0.134 A 
ATOM     74  C   UNL A   1      52.701  27.888  24.749  1.00  0.00     0.134 A 
ATOM     75  F   UNL A   1      52.702  28.213  28.368  1.00  0.00    -0.206 F 
ATOM     76  C   UNL A   1      54.142  27.012  26.960  1.00  0.00     0.040 A 
ATOM     77  C   UNL A   1      53.794  27.037  24.578  1.00  0.00     0.040 A 
ATOM     78  F   UNL A   1      52.046  28.301  23.655  1.00  0.00    -0.206 F 
ATOM     79  C   UNL A   1      54.526  26.608  25.684  1.00  0.00     0.006 A 
ENDBRANCH  58  72
BRANCH  59  80
ATOM     80  C   UNL A   1      44.269  34.058  27.279  1.00  0.00     0.057 A 
ATOM     81  C   UNL A   1      43.622  34.720  26.227  1.00  0.00     0.134 A 
ATOM     82  C   UNL A   1      43.801  34.302  28.575  1.00  0.00     0.134 A 
ATOM     83  F   UNL A   1      44.040  34.546  24.965  1.00  0.00    -0.206 F 
ATOM     84  C   UNL A   1      42.576  35.615  26.456  1.00  0.00     0.040 A 
ATOM     85  C   UNL A   1      42.740  35.179  28.817  1.00  0.00     0.040 A 
ATOM     86  F   UNL A   1      44.373  33.698  29.627  1.00  0.00    -0.206 F 
ATOM     87  C   UNL A   1      42.131  35.846  27.756  1.00  0.00     0.006 A 
ENDBRANCH  59  80
BRANCH  71  88
ATOM     88  C   UNL A   1      51.052  35.400  26.437  1.00  0.00     0.057 A 
ATOM     89  C   UNL A   1      51.685  35.973  27.546  1.00  0.00     0.134 A 
ATOM     90  C   UNL A   1      51.223  36.032  25.197  1.00  0.00     0.134 A 
ATOM     91  F   UNL A   1      51.552  35.426  28.764  1.00  0.00    -0.206 F 
ATOM     92  C   UNL A   1      52.445  37.139  27.430  1.00  0.00     0.040 A 
ATOM     93  C   UNL A   1      52.006  37.179  25.062  1.00  0.00     0.040 A 
ATOM     94  F   UNL A   1      50.653  35.530  24.091  1.00  0.00    -0.206 F 
ATOM     95  C   UNL A   1      52.615  37.740  26.183  1.00  0.00     0.006 A 
ENDBRANCH  71  88
ENDBRANCH  45  46
ENDBRANCH  38  40
ENDBRANCH  37  38
ENDBRANCH  36  37
ENDBRANCH  35  36
ENDBRANCH  34  35
ENDBRANCH  33  34
ENDBRANCH  32  33
ENDBRANCH  31  32
ENDBRANCH   1  31
TORSDOF 26
ENDMDL
MODEL 3
REMARK VINA RESULT:      -9.2      4.839     10.550
REMARK SMILES C=CC[N@H+]1C[C@@H]2CN(C(=O)c3ccc(COC)s3)C[C@@]2(C(=O)OCCOCCOCCOCCOC(=O)c2ccc(-c3c4nc(c(-c5c(F)cccc5F)c5ccc([nH]5)c(-c5c(F)cccc5F)c5nc(c(-c6c(F)cccc6F)c6ccc3[nH]6)C=C5)C=C4)cc2)C1
REMARK SMILES IDX 28 1 27 2 26 3 25 4 24 5 23 6 21 7 22 8 20 9 4 10 5 11 92 12
REMARK SMILES IDX 6 14 7 15 19 16 8 17 3 18 2 19 1 20 9 21 10 22 11 23 12 24
REMARK SMILES IDX 18 25 13 26 14 27 15 28 16 29 17 30 29 31 30 32 31 33 32 34
REMARK SMILES IDX 33 35 34 36 35 37 36 38 37 39 38 40 39 41 91 42 40 43 90 44
REMARK SMILES IDX 41 45 42 46 43 47 84 48 44 49 89 50 83 51 85 52 45 53 88 54
REMARK SMILES IDX 82 55 81 56 46 58 72 59 55 60 71 61 56 62 59 63 70 64 86 65
REMARK SMILES IDX 57 66 58 67 69 69 87 70 60 71 47 72 48 73 53 74 49 75 50 76
REMARK SMILES IDX 52 77 54 78 51 79 73 80 74 81 79 82 75 83 76 84 78 85 80 86
REMARK SMILES IDX 77 87 61 88 62 89 67 90 63 91 64 92 66 93 68 94 65 95
REMARK H PARENT 4 13 85 57 59 68
REMARK Flexibility Score: inf
ROOT
ATOM      1  C   UNL A   1      36.892  29.324  30.042  1.00  0.00     0.188 C 
ENDROOT
BRANCH   1   2
ATOM      2  C   UNL A   1      36.905  29.717  28.544  1.00  0.00     0.188 C 
BRANCH   2   3
ATOM      3  O   UNL A   1      35.796  29.432  27.684  1.00  0.00    -0.376 OA
BRANCH   3   4
ATOM      4  C   UNL A   1      34.910  30.467  27.247  1.00  0.00     0.202 C 
BRANCH   4   5
ATOM      5  C   UNL A   1      33.393  30.281  27.420  1.00  0.00     0.261 C 
BRANCH   5   6
ATOM      6  O   UNL A   1      32.940  29.370  26.425  1.00  0.00    -0.463 OA
BRANCH   6   7
ATOM      7  C   UNL A   1      32.011  28.410  26.667  1.00  0.00     0.320 C 
ATOM      8  O   UNL A   1      31.311  28.361  27.663  1.00  0.00    -0.251 OA
BRANCH   7   9
ATOM      9  C   UNL A   1      32.105  27.448  25.417  1.00  0.00     0.144 C 
ATOM     10  N   UNL A   1      30.402  28.753  24.193  1.00  0.00    -0.330 N 
ATOM     11  C   UNL A   1      30.031  27.365  23.995  1.00  0.00     0.269 C 
ATOM     12  C   UNL A   1      31.812  28.754  24.576  1.00  0.00     0.283 C 
ATOM     13  H   UNL A   1      29.819  29.153  24.927  1.00  0.00     0.348 HD
ATOM     14  C   UNL A   1      31.325  26.653  24.304  1.00  0.00     0.089 C 
ATOM     15  C   UNL A   1      31.178  25.177  24.589  1.00  0.00     0.130 C 
ATOM     16  C   UNL A   1      31.806  26.356  26.509  1.00  0.00     0.145 C 
ATOM     17  N   UNL A   1      31.685  25.051  25.905  1.00  0.00    -0.336 N 
BRANCH  10  18
ATOM     18  C   UNL A   1      30.110  29.637  23.072  1.00  0.00     0.290 C 
BRANCH  18  19
ATOM     19  C   UNL A   1      28.716  29.391  22.580  1.00  0.00     0.025 C 
ATOM     20  C   UNL A   1      27.655  30.133  22.923  1.00  0.00     0.010 C 
ENDBRANCH  18  19
ENDBRANCH  10  18
BRANCH  17  21
ATOM     21  C   UNL A   1      31.975  23.802  26.438  1.00  0.00     0.263 C 
ATOM     22  O   UNL A   1      31.337  23.393  27.410  1.00  0.00    -0.268 OA
BRANCH  21  23
ATOM     23  C   UNL A   1      32.971  22.990  25.760  1.00  0.00     0.092 A 
ATOM     24  C   UNL A   1      33.715  23.212  24.615  1.00  0.00     0.026 A 
ATOM     25  S   UNL A   1      33.307  21.450  26.426  1.00  0.00    -0.133 S 
ATOM     26  C   UNL A   1      34.443  22.058  24.209  1.00  0.00     0.018 A 
ATOM     27  C   UNL A   1      34.294  21.023  25.104  1.00  0.00     0.031 A 
BRANCH  27  28
ATOM     28  C   UNL A   1      34.798  19.633  24.992  1.00  0.00     0.206 C 
BRANCH  28  29
ATOM     29  O   UNL A   1      33.821  18.777  24.409  1.00  0.00    -0.379 OA
ATOM     30  C   UNL A   1      34.361  17.535  23.981  1.00  0.00     0.195 C 
ENDBRANCH  28  29
ENDBRANCH  27  28
ENDBRANCH  21  23
ENDBRANCH  17  21
ENDBRANCH   7   9
ENDBRANCH   6   7
ENDBRANCH   5   6
ENDBRANCH   4   5
ENDBRANCH   3   4
ENDBRANCH   2   3
ENDBRANCH   1   2
BRANCH   1  31
ATOM     31  O   UNL A   1      36.957  30.421  30.937  1.00  0.00    -0.377 OA
BRANCH  31  32
ATOM     32  C   UNL A   1      35.851  31.318  30.890  1.00  0.00     0.188 C 
BRANCH  32  33
ATOM     33  C   UNL A   1      35.263  31.744  32.249  1.00  0.00     0.188 C 
BRANCH  33  34
ATOM     34  O   UNL A   1      34.251  32.735  32.119  1.00  0.00    -0.376 OA
BRANCH  34  35
ATOM     35  C   UNL A   1      34.583  33.984  31.526  1.00  0.00     0.202 C 
BRANCH  35  36
ATOM     36  C   UNL A   1      35.519  34.942  32.279  1.00  0.00     0.261 C 
BRANCH  36  37
ATOM     37  O   UNL A   1      36.935  34.786  32.071  1.00  0.00    -0.460 OA
BRANCH  37  38
ATOM     38  C   UNL A   1      37.698  34.217  33.024  1.00  0.00     0.338 C 
ATOM     39  O   UNL A   1      37.556  34.280  34.231  1.00  0.00    -0.246 OA
BRANCH  38  40
ATOM     40  C   UNL A   1      38.663  33.344  32.323  1.00  0.00     0.060 A 
ATOM     41  C   UNL A   1      39.437  32.414  33.034  1.00  0.00     0.016 A 
ATOM     42  C   UNL A   1      38.766  33.425  30.937  1.00  0.00     0.016 A 
ATOM     43  C   UNL A   1      40.327  31.567  32.358  1.00  0.00     0.010 A 
ATOM     44  C   UNL A   1      39.649  32.576  30.269  1.00  0.00     0.010 A 
ATOM     45  C   UNL A   1      40.459  31.653  30.968  1.00  0.00    -0.014 A 
BRANCH  45  46
ATOM     46  C   UNL A   1      41.533  30.936  30.219  1.00  0.00     0.031 A 
ATOM     47  C   UNL A   1      42.752  31.735  29.827  1.00  0.00     0.074 A 
ATOM     48  C   UNL A   1      41.437  29.650  29.822  1.00  0.00     0.049 A 
ATOM     49  N   UNL A   1      43.743  31.423  29.032  1.00  0.00    -0.248 NA
ATOM     50  C   UNL A   1      42.845  33.093  30.396  1.00  0.00     0.031 C 
ATOM     51  C   UNL A   1      40.350  28.723  30.137  1.00  0.00     0.029 A 
ATOM     52  N   UNL A   1      42.269  28.909  29.011  1.00  0.00    -0.354 N 
ATOM     53  C   UNL A   1      44.556  32.549  28.995  1.00  0.00     0.074 A 
ATOM     54  C   UNL A   1      43.893  33.582  29.758  1.00  0.00     0.031 C 
ATOM     55  C   UNL A   1      40.545  27.568  29.475  1.00  0.00     0.029 A 
ATOM     56  C   UNL A   1      41.779  27.662  28.699  1.00  0.00     0.049 A 
ATOM     57  H   UNL A   1      43.135  29.242  28.684  1.00  0.00     0.167 HD
ATOM     58  C   UNL A   1      45.775  32.706  28.429  1.00  0.00     0.037 A 
ATOM     59  C   UNL A   1      42.265  26.709  27.876  1.00  0.00     0.037 A 
ATOM     60  C   UNL A   1      46.464  31.676  27.706  1.00  0.00     0.049 A 
ATOM     61  C   UNL A   1      43.592  26.920  27.190  1.00  0.00     0.074 A 
ATOM     62  C   UNL A   1      47.731  31.712  27.152  1.00  0.00     0.029 A 
ATOM     63  N   UNL A   1      45.941  30.422  27.436  1.00  0.00    -0.354 N 
ATOM     64  N   UNL A   1      44.388  27.961  27.230  1.00  0.00    -0.248 NA
ATOM     65  C   UNL A   1      44.103  25.810  26.370  1.00  0.00     0.031 C 
ATOM     66  C   UNL A   1      47.956  30.495  26.505  1.00  0.00     0.029 A 
ATOM     67  C   UNL A   1      46.852  29.681  26.704  1.00  0.00     0.049 A 
ATOM     68  H   UNL A   1      45.053  30.105  27.722  1.00  0.00     0.167 HD
ATOM     69  C   UNL A   1      45.516  27.607  26.496  1.00  0.00     0.074 A 
ATOM     70  C   UNL A   1      45.299  26.259  26.017  1.00  0.00     0.031 C 
ATOM     71  C   UNL A   1      46.638  28.329  26.255  1.00  0.00     0.037 A 
BRANCH  58  72
ATOM     72  C   UNL A   1      46.437  34.041  28.600  1.00  0.00     0.057 A 
ATOM     73  C   UNL A   1      46.267  35.075  27.667  1.00  0.00     0.134 A 
ATOM     74  C   UNL A   1      47.268  34.293  29.699  1.00  0.00     0.134 A 
ATOM     75  F   UNL A   1      45.498  34.891  26.582  1.00  0.00    -0.206 F 
ATOM     76  C   UNL A   1      46.935  36.292  27.795  1.00  0.00     0.040 A 
ATOM     77  C   UNL A   1      47.913  35.520  29.855  1.00  0.00     0.040 A 
ATOM     78  F   UNL A   1      47.471  33.351  30.631  1.00  0.00    -0.206 F 
ATOM     79  C   UNL A   1      47.759  36.519  28.895  1.00  0.00     0.006 A 
ENDBRANCH  58  72
BRANCH  59  80
ATOM     80  C   UNL A   1      41.521  25.436  27.670  1.00  0.00     0.057 A 
ATOM     81  C   UNL A   1      40.413  25.375  26.815  1.00  0.00     0.134 A 
ATOM     82  C   UNL A   1      41.858  24.269  28.366  1.00  0.00     0.134 A 
ATOM     83  F   UNL A   1      40.025  26.466  26.139  1.00  0.00    -0.206 F 
ATOM     84  C   UNL A   1      39.651  24.214  26.681  1.00  0.00     0.040 A 
ATOM     85  C   UNL A   1      41.117  23.092  28.226  1.00  0.00     0.040 A 
ATOM     86  F   UNL A   1      42.910  24.257  29.198  1.00  0.00    -0.206 F 
ATOM     87  C   UNL A   1      40.003  23.067  27.389  1.00  0.00     0.006 A 
ENDBRANCH  59  80
BRANCH  71  88
ATOM     88  C   UNL A   1      47.753  27.663  25.501  1.00  0.00     0.057 A 
ATOM     89  C   UNL A   1      47.814  27.664  24.102  1.00  0.00     0.134 A 
ATOM     90  C   UNL A   1      48.816  27.067  26.193  1.00  0.00     0.134 A 
ATOM     91  F   UNL A   1      46.823  28.207  23.378  1.00  0.00    -0.206 F 
ATOM     92  C   UNL A   1      48.881  27.078  23.418  1.00  0.00     0.040 A 
ATOM     93  C   UNL A   1      49.904  26.506  25.522  1.00  0.00     0.040 A 
ATOM     94  F   UNL A   1      48.828  27.042  27.535  1.00  0.00    -0.206 F 
ATOM     95  C   UNL A   1      49.935  26.505  24.129  1.00  0.00     0.006 A 
ENDBRANCH  71  88
ENDBRANCH  45  46
ENDBRANCH  38  40
ENDBRANCH  37  38
ENDBRANCH  36  37
ENDBRANCH  35  36
ENDBRANCH  34  35
ENDBRANCH  33  34
ENDBRANCH  32  33
ENDBRANCH  31  32
ENDBRANCH   1  31
TORSDOF 26
ENDMDL
