MODEL 1
REMARK VINA RESULT:      -9.8      0.000      0.000
REMARK SMILES CCSc1nc(CC(=O)N[C@@H](C(=O)OCCOCCOCCOCCOC(=O)c2ccc(-c3c4nc(c(-c5c(F)cccc5F)c5ccc([nH]5)c(-c5c(F)cccc5F)c5nc(c(-c6c(F)cccc6F)c6ccc3[nH]6)C=C5)C=C4)cc2)C2=C(C)N=N[C@@H]2C)cs1
REMARK SMILES IDX 18 1 17 2 16 3 15 4 14 5 12 6 13 7 11 8 10 9 8 10 9 11 7 13
REMARK SMILES IDX 6 14 4 15 5 16 91 17 90 18 3 19 2 20 1 21 83 22 84 23 88 24
REMARK SMILES IDX 85 25 86 26 87 27 89 28 19 29 20 30 21 31 22 32 23 33 24 34
REMARK SMILES IDX 25 35 26 36 27 37 28 38 29 39 30 40 82 41 31 42 81 43 32 44
REMARK SMILES IDX 33 45 34 46 75 47 35 48 80 49 74 50 76 51 36 52 79 53 73 54
REMARK SMILES IDX 72 55 37 57 63 58 46 59 62 60 47 61 50 62 61 63 77 64 48 65
REMARK SMILES IDX 49 66 60 68 78 69 51 70 38 71 39 72 44 73 40 74 41 75 43 76
REMARK SMILES IDX 45 77 42 78 64 79 65 80 70 81 66 82 67 83 69 84 71 85 68 86
REMARK SMILES IDX 52 87 53 88 58 89 54 90 55 91 57 92 59 93 56 94
REMARK H PARENT 10 12 76 56 50 67
REMARK Flexibility Score: inf
ROOT
ATOM      1  C   UNL A   1      40.349  21.275  27.151  1.00  0.00     0.188 C 
ENDROOT
BRANCH   1   2
ATOM      2  O   UNL A   1      39.871  21.805  25.926  1.00  0.00    -0.376 OA
BRANCH   2   3
ATOM      3  C   UNL A   1      38.479  21.995  25.752  1.00  0.00     0.202 C 
BRANCH   3   4
ATOM      4  C   UNL A   1      37.617  20.917  25.066  1.00  0.00     0.261 C 
BRANCH   4   5
ATOM      5  O   UNL A   1      36.188  20.949  25.282  1.00  0.00    -0.461 OA
BRANCH   5   6
ATOM      6  C   UNL A   1      35.449  21.738  24.453  1.00  0.00     0.333 C 
ATOM      7  O   UNL A   1      35.940  22.447  23.579  1.00  0.00    -0.249 OA
BRANCH   6   8
ATOM      8  C   UNL A   1      33.895  21.662  24.717  1.00  0.00     0.223 C 
BRANCH   8   9
ATOM      9  N   UNL A   1      33.339  21.865  26.058  1.00  0.00    -0.339 N 
ATOM     10  C   UNL A   1      32.274  22.610  26.469  1.00  0.00     0.226 C 
ATOM     11  O   UNL A   1      31.995  22.599  27.670  1.00  0.00    -0.275 OA
ATOM     12  H   UNL A   1      33.810  21.387  26.777  1.00  0.00     0.164 HD
BRANCH  10  13
ATOM     13  C   UNL A   1      31.418  23.370  25.479  1.00  0.00     0.157 C 
BRANCH  13  14
ATOM     14  C   UNL A   1      32.067  24.632  25.039  1.00  0.00     0.062 A 
ATOM     15  C   UNL A   1      33.101  26.545  25.458  1.00  0.00     0.150 A 
ATOM     16  N   UNL A   1      32.622  25.452  26.009  1.00  0.00    -0.234 NA
ATOM     17  S   UNL A   1      33.000  26.611  23.746  1.00  0.00    -0.116 S 
ATOM     18  C   UNL A   1      32.173  25.110  23.746  1.00  0.00     0.092 A 
BRANCH  15  19
ATOM     19  S   UNL A   1      33.706  27.878  26.412  1.00  0.00    -0.096 SA
BRANCH  19  20
ATOM     20  C   UNL A   1      32.213  28.466  27.264  1.00  0.00     0.074 C 
ATOM     21  C   UNL A   1      31.785  29.872  26.884  1.00  0.00     0.016 C 
ENDBRANCH  19  20
ENDBRANCH  15  19
ENDBRANCH  13  14
ENDBRANCH  10  13
ENDBRANCH   8   9
BRANCH   8  22
ATOM     22  C   UNL A   1      33.275  20.395  24.194  1.00  0.00     0.012 C 
ATOM     23  C   UNL A   1      32.451  20.263  23.148  1.00  0.00     0.064 C 
ATOM     24  C   UNL A   1      33.531  18.988  24.641  1.00  0.00     0.156 C 
ATOM     25  C   UNL A   1      31.775  21.331  22.366  1.00  0.00     0.069 C 
ATOM     26  N   UNL A   1      32.257  18.955  22.788  1.00  0.00    -0.160 NA
ATOM     27  N   UNL A   1      32.934  18.195  23.531  1.00  0.00    -0.181 NA
ATOM     28  C   UNL A   1      32.771  18.566  25.905  1.00  0.00     0.040 C 
ENDBRANCH   8  22
ENDBRANCH   6   8
ENDBRANCH   5   6
ENDBRANCH   4   5
ENDBRANCH   3   4
ENDBRANCH   2   3
ENDBRANCH   1   2
BRANCH   1  29
ATOM     29  C   UNL A   1      41.864  21.101  27.402  1.00  0.00     0.188 C 
BRANCH  29  30
ATOM     30  O   UNL A   1      42.329  19.776  27.262  1.00  0.00    -0.377 OA
BRANCH  30  31
ATOM     31  C   UNL A   1      42.416  19.323  25.922  1.00  0.00     0.188 C 
BRANCH  31  32
ATOM     32  C   UNL A   1      43.789  19.482  25.242  1.00  0.00     0.188 C 
BRANCH  32  33
ATOM     33  O   UNL A   1      44.417  20.730  25.518  1.00  0.00    -0.376 OA
BRANCH  33  34
ATOM     34  C   UNL A   1      44.724  21.630  24.466  1.00  0.00     0.202 C 
BRANCH  34  35
ATOM     35  C   UNL A   1      43.901  22.924  24.336  1.00  0.00     0.261 C 
BRANCH  35  36
ATOM     36  O   UNL A   1      44.553  24.144  24.711  1.00  0.00    -0.460 OA
BRANCH  36  37
ATOM     37  C   UNL A   1      45.031  24.238  25.967  1.00  0.00     0.338 C 
ATOM     38  O   UNL A   1      46.124  23.871  26.366  1.00  0.00    -0.246 OA
BRANCH  37  39
ATOM     39  C   UNL A   1      44.097  25.083  26.743  1.00  0.00     0.060 A 
ATOM     40  C   UNL A   1      44.378  26.451  26.854  1.00  0.00     0.016 A 
ATOM     41  C   UNL A   1      42.949  24.546  27.333  1.00  0.00     0.016 A 
ATOM     42  C   UNL A   1      43.542  27.276  27.599  1.00  0.00     0.010 A 
ATOM     43  C   UNL A   1      42.129  25.369  28.112  1.00  0.00     0.010 A 
ATOM     44  C   UNL A   1      42.455  26.725  28.288  1.00  0.00    -0.014 A 
BRANCH  44  45
ATOM     45  C   UNL A   1      41.871  27.509  29.400  1.00  0.00     0.031 A 
ATOM     46  C   UNL A   1      42.561  27.439  30.737  1.00  0.00     0.074 A 
ATOM     47  C   UNL A   1      40.829  28.337  29.215  1.00  0.00     0.049 A 
ATOM     48  N   UNL A   1      42.286  28.062  31.853  1.00  0.00    -0.248 NA
ATOM     49  C   UNL A   1      43.728  26.543  30.823  1.00  0.00     0.031 C 
ATOM     50  C   UNL A   1      40.117  28.536  27.956  1.00  0.00     0.029 A 
ATOM     51  N   UNL A   1      40.199  29.177  30.098  1.00  0.00    -0.354 N 
ATOM     52  C   UNL A   1      43.241  27.635  32.767  1.00  0.00     0.074 A 
ATOM     53  C   UNL A   1      44.079  26.671  32.091  1.00  0.00     0.031 C 
ATOM     54  C   UNL A   1      39.141  29.441  28.147  1.00  0.00     0.029 A 
ATOM     55  C   UNL A   1      39.146  29.865  29.547  1.00  0.00     0.049 A 
ATOM     56  H   UNL A   1      40.475  29.277  31.038  1.00  0.00     0.167 HD
ATOM     57  C   UNL A   1      43.418  28.023  34.051  1.00  0.00     0.037 A 
ATOM     58  C   UNL A   1      38.283  30.728  30.118  1.00  0.00     0.037 A 
ATOM     59  C   UNL A   1      42.583  28.980  34.723  1.00  0.00     0.049 A 
ATOM     60  C   UNL A   1      38.450  31.083  31.574  1.00  0.00     0.074 A 
ATOM     61  C   UNL A   1      42.675  29.444  36.022  1.00  0.00     0.029 A 
ATOM     62  N   UNL A   1      41.492  29.616  34.146  1.00  0.00    -0.354 N 
ATOM     63  N   UNL A   1      39.367  30.688  32.426  1.00  0.00    -0.248 NA
ATOM     64  C   UNL A   1      37.465  32.012  32.145  1.00  0.00     0.031 C 
ATOM     65  C   UNL A   1      41.606  30.315  36.251  1.00  0.00     0.029 A 
ATOM     66  C   UNL A   1      40.887  30.449  35.073  1.00  0.00     0.049 A 
ATOM     67  H   UNL A   1      41.195  29.494  33.216  1.00  0.00     0.167 HD
ATOM     68  C   UNL A   1      39.089  31.347  33.619  1.00  0.00     0.074 A 
ATOM     69  C   UNL A   1      37.930  32.178  33.375  1.00  0.00     0.031 C 
ATOM     70  C   UNL A   1      39.736  31.274  34.810  1.00  0.00     0.037 A 
BRANCH  57  71
ATOM     71  C   UNL A   1      44.536  27.378  34.818  1.00  0.00     0.057 A 
ATOM     72  C   UNL A   1      45.846  27.873  34.783  1.00  0.00     0.134 A 
ATOM     73  C   UNL A   1      44.294  26.249  35.611  1.00  0.00     0.134 A 
ATOM     74  F   UNL A   1      46.152  28.938  34.026  1.00  0.00    -0.206 F 
ATOM     75  C   UNL A   1      46.880  27.254  35.488  1.00  0.00     0.040 A 
ATOM     76  C   UNL A   1      45.313  25.640  36.344  1.00  0.00     0.040 A 
ATOM     77  F   UNL A   1      43.064  25.722  35.687  1.00  0.00    -0.206 F 
ATOM     78  C   UNL A   1      46.613  26.138  36.278  1.00  0.00     0.006 A 
ENDBRANCH  57  71
BRANCH  58  79
ATOM     79  C   UNL A   1      37.173  31.314  29.321  1.00  0.00     0.057 A 
ATOM     80  C   UNL A   1      36.011  30.587  29.041  1.00  0.00     0.134 A 
ATOM     81  C   UNL A   1      37.270  32.604  28.784  1.00  0.00     0.134 A 
ATOM     82  F   UNL A   1      35.868  29.337  29.505  1.00  0.00    -0.206 F 
ATOM     83  C   UNL A   1      34.997  31.109  28.234  1.00  0.00     0.040 A 
ATOM     84  C   UNL A   1      36.251  33.150  28.001  1.00  0.00     0.040 A 
ATOM     85  F   UNL A   1      38.357  33.355  29.012  1.00  0.00    -0.206 F 
ATOM     86  C   UNL A   1      35.113  32.397  27.716  1.00  0.00     0.006 A 
ENDBRANCH  58  79
BRANCH  70  87
ATOM     87  C   UNL A   1      39.234  32.151  35.922  1.00  0.00     0.057 A 
ATOM     88  C   UNL A   1      39.680  33.469  36.093  1.00  0.00     0.134 A 
ATOM     89  C   UNL A   1      38.266  31.677  36.820  1.00  0.00     0.134 A 
ATOM     90  F   UNL A   1      40.610  33.983  35.275  1.00  0.00    -0.206 F 
ATOM     91  C   UNL A   1      39.212  34.267  37.139  1.00  0.00     0.040 A 
ATOM     92  C   UNL A   1      37.766  32.478  37.847  1.00  0.00     0.040 A 
ATOM     93  F   UNL A   1      37.782  30.431  36.705  1.00  0.00    -0.206 F 
ATOM     94  C   UNL A   1      38.248  33.774  38.016  1.00  0.00     0.006 A 
ENDBRANCH  70  87
ENDBRANCH  44  45
ENDBRANCH  37  39
ENDBRANCH  36  37
ENDBRANCH  35  36
ENDBRANCH  34  35
ENDBRANCH  33  34
ENDBRANCH  32  33
ENDBRANCH  31  32
ENDBRANCH  30  31
ENDBRANCH  29  30
ENDBRANCH   1  29
TORSDOF 26
ENDMDL
MODEL 2
REMARK VINA RESULT:      -9.2      1.131      6.077
REMARK SMILES CCSc1nc(CC(=O)N[C@@H](C(=O)OCCOCCOCCOCCOC(=O)c2ccc(-c3c4nc(c(-c5c(F)cccc5F)c5ccc([nH]5)c(-c5c(F)cccc5F)c5nc(c(-c6c(F)cccc6F)c6ccc3[nH]6)C=C5)C=C4)cc2)C2=C(C)N=N[C@@H]2C)cs1
REMARK SMILES IDX 18 1 17 2 16 3 15 4 14 5 12 6 13 7 11 8 10 9 8 10 9 11 7 13
REMARK SMILES IDX 6 14 4 15 5 16 91 17 90 18 3 19 2 20 1 21 83 22 84 23 88 24
REMARK SMILES IDX 85 25 86 26 87 27 89 28 19 29 20 30 21 31 22 32 23 33 24 34
REMARK SMILES IDX 25 35 26 36 27 37 28 38 29 39 30 40 82 41 31 42 81 43 32 44
REMARK SMILES IDX 33 45 34 46 75 47 35 48 80 49 74 50 76 51 36 52 79 53 73 54
REMARK SMILES IDX 72 55 37 57 63 58 46 59 62 60 47 61 50 62 61 63 77 64 48 65
REMARK SMILES IDX 49 66 60 68 78 69 51 70 38 71 39 72 44 73 40 74 41 75 43 76
REMARK SMILES IDX 45 77 42 78 64 79 65 80 70 81 66 82 67 83 69 84 71 85 68 86
REMARK SMILES IDX 52 87 53 88 58 89 54 90 55 91 57 92 59 93 56 94
REMARK H PARENT 10 12 76 56 50 67
REMARK Flexibility Score: inf
ROOT
ATOM      1  C   UNL A   1      38.863  22.159  26.506  1.00  0.00     0.188 C 
ENDROOT
BRANCH   1   2
ATOM      2  O   UNL A   1      38.584  22.499  25.159  1.00  0.00    -0.376 OA
BRANCH   2   3
ATOM      3  C   UNL A   1      37.240  22.532  24.719  1.00  0.00     0.202 C 
BRANCH   3   4
ATOM      4  C   UNL A   1      36.414  21.235  24.613  1.00  0.00     0.261 C 
BRANCH   4   5
ATOM      5  O   UNL A   1      35.022  21.280  25.000  1.00  0.00    -0.461 OA
BRANCH   5   6
ATOM      6  C   UNL A   1      34.128  21.715  24.067  1.00  0.00     0.333 C 
ATOM      7  O   UNL A   1      34.367  22.621  23.274  1.00  0.00    -0.249 OA
BRANCH   6   8
ATOM      8  C   UNL A   1      32.750  20.948  24.097  1.00  0.00     0.223 C 
BRANCH   8   9
ATOM      9  N   UNL A   1      31.801  21.127  25.200  1.00  0.00    -0.339 N 
ATOM     10  C   UNL A   1      30.926  22.140  25.456  1.00  0.00     0.226 C 
ATOM     11  O   UNL A   1      30.211  22.042  26.457  1.00  0.00    -0.275 OA
ATOM     12  H   UNL A   1      31.795  20.399  25.862  1.00  0.00     0.164 HD
BRANCH  10  13
ATOM     13  C   UNL A   1      30.783  23.312  24.510  1.00  0.00     0.157 C 
BRANCH  13  14
ATOM     14  C   UNL A   1      31.737  24.404  24.832  1.00  0.00     0.062 A 
ATOM     15  C   UNL A   1      32.870  26.229  24.295  1.00  0.00     0.150 A 
ATOM     16  N   UNL A   1      31.966  25.376  23.871  1.00  0.00    -0.234 NA
ATOM     17  S   UNL A   1      33.428  25.975  25.898  1.00  0.00    -0.116 S 
ATOM     18  C   UNL A   1      32.457  24.566  26.001  1.00  0.00     0.092 A 
BRANCH  15  19
ATOM     19  S   UNL A   1      33.530  27.474  23.260  1.00  0.00    -0.096 SA
BRANCH  19  20
ATOM     20  C   UNL A   1      32.484  28.908  23.650  1.00  0.00     0.074 C 
ATOM     21  C   UNL A   1      31.056  28.800  23.145  1.00  0.00     0.016 C 
ENDBRANCH  19  20
ENDBRANCH  15  19
ENDBRANCH  13  14
ENDBRANCH  10  13
ENDBRANCH   8   9
BRANCH   8  22
ATOM     22  C   UNL A   1      32.904  19.462  23.915  1.00  0.00     0.012 C 
ATOM     23  C   UNL A   1      32.632  18.743  22.820  1.00  0.00     0.064 C 
ATOM     24  C   UNL A   1      33.509  18.473  24.865  1.00  0.00     0.156 C 
ATOM     25  C   UNL A   1      31.923  19.173  21.587  1.00  0.00     0.069 C 
ATOM     26  N   UNL A   1      33.106  17.459  22.898  1.00  0.00    -0.160 NA
ATOM     27  N   UNL A   1      33.709  17.284  23.992  1.00  0.00    -0.181 NA
ATOM     28  C   UNL A   1      32.576  18.006  25.989  1.00  0.00     0.040 C 
ENDBRANCH   8  22
ENDBRANCH   6   8
ENDBRANCH   5   6
ENDBRANCH   4   5
ENDBRANCH   3   4
ENDBRANCH   2   3
ENDBRANCH   1   2
BRANCH   1  29
ATOM     29  C   UNL A   1      40.266  22.394  27.109  1.00  0.00     0.188 C 
BRANCH  29  30
ATOM     30  O   UNL A   1      40.919  21.219  27.541  1.00  0.00    -0.377 OA
BRANCH  30  31
ATOM     31  C   UNL A   1      41.147  20.264  26.518  1.00  0.00     0.188 C 
BRANCH  31  32
ATOM     32  C   UNL A   1      42.610  20.090  26.070  1.00  0.00     0.188 C 
BRANCH  32  33
ATOM     33  O   UNL A   1      43.371  21.292  26.137  1.00  0.00    -0.376 OA
BRANCH  33  34
ATOM     34  C   UNL A   1      44.303  21.613  25.118  1.00  0.00     0.202 C 
BRANCH  34  35
ATOM     35  C   UNL A   1      44.012  22.813  24.199  1.00  0.00     0.261 C 
BRANCH  35  36
ATOM     36  O   UNL A   1      43.397  23.955  24.806  1.00  0.00    -0.460 OA
BRANCH  36  37
ATOM     37  C   UNL A   1      44.203  24.934  25.260  1.00  0.00     0.338 C 
ATOM     38  O   UNL A   1      45.303  25.238  24.829  1.00  0.00    -0.246 OA
BRANCH  37  39
ATOM     39  C   UNL A   1      43.429  25.746  26.225  1.00  0.00     0.060 A 
ATOM     40  C   UNL A   1      43.656  27.128  26.260  1.00  0.00     0.016 A 
ATOM     41  C   UNL A   1      42.475  25.163  27.065  1.00  0.00     0.016 A 
ATOM     42  C   UNL A   1      42.971  27.924  27.172  1.00  0.00     0.010 A 
ATOM     43  C   UNL A   1      41.813  25.958  28.007  1.00  0.00     0.010 A 
ATOM     44  C   UNL A   1      42.101  27.332  28.095  1.00  0.00    -0.014 A 
BRANCH  44  45
ATOM     45  C   UNL A   1      41.746  28.106  29.307  1.00  0.00     0.031 A 
ATOM     46  C   UNL A   1      40.502  28.954  29.251  1.00  0.00     0.074 A 
ATOM     47  C   UNL A   1      42.435  27.985  30.454  1.00  0.00     0.049 A 
ATOM     48  N   UNL A   1      39.946  29.683  30.182  1.00  0.00    -0.248 NA
ATOM     49  C   UNL A   1      39.785  28.976  27.963  1.00  0.00     0.031 C 
ATOM     50  C   UNL A   1      43.618  27.151  30.648  1.00  0.00     0.029 A 
ATOM     51  N   UNL A   1      42.224  28.565  31.679  1.00  0.00    -0.354 N 
ATOM     52  C   UNL A   1      38.820  30.247  29.595  1.00  0.00     0.074 A 
ATOM     53  C   UNL A   1      38.792  29.811  28.218  1.00  0.00     0.031 C 
ATOM     54  C   UNL A   1      44.032  27.275  31.922  1.00  0.00     0.029 A 
ATOM     55  C   UNL A   1      43.158  28.216  32.622  1.00  0.00     0.049 A 
ATOM     56  H   UNL A   1      41.473  29.175  31.864  1.00  0.00     0.167 HD
ATOM     57  C   UNL A   1      37.881  31.044  30.156  1.00  0.00     0.037 A 
ATOM     58  C   UNL A   1      43.291  28.622  33.900  1.00  0.00     0.037 A 
ATOM     59  C   UNL A   1      37.912  31.479  31.525  1.00  0.00     0.049 A 
ATOM     60  C   UNL A   1      42.278  29.577  34.479  1.00  0.00     0.074 A 
ATOM     61  C   UNL A   1      37.011  32.288  32.193  1.00  0.00     0.029 A 
ATOM     62  N   UNL A   1      38.904  31.146  32.436  1.00  0.00    -0.354 N 
ATOM     63  N   UNL A   1      41.206  30.091  33.922  1.00  0.00    -0.248 NA
ATOM     64  C   UNL A   1      42.489  30.001  35.870  1.00  0.00     0.031 C 
ATOM     65  C   UNL A   1      37.488  32.493  33.491  1.00  0.00     0.029 A 
ATOM     66  C   UNL A   1      38.651  31.756  33.653  1.00  0.00     0.049 A 
ATOM     67  H   UNL A   1      39.674  30.563  32.244  1.00  0.00     0.167 HD
ATOM     68  C   UNL A   1      40.601  30.868  34.904  1.00  0.00     0.074 A 
ATOM     69  C   UNL A   1      41.415  30.743  36.094  1.00  0.00     0.031 C 
ATOM     70  C   UNL A   1      39.471  31.616  34.830  1.00  0.00     0.037 A 
BRANCH  57  71
ATOM     71  C   UNL A   1      36.767  31.524  29.270  1.00  0.00     0.057 A 
ATOM     72  C   UNL A   1      35.690  30.701  28.916  1.00  0.00     0.134 A 
ATOM     73  C   UNL A   1      36.769  32.833  28.774  1.00  0.00     0.134 A 
ATOM     74  F   UNL A   1      35.638  29.429  29.339  1.00  0.00    -0.206 F 
ATOM     75  C   UNL A   1      34.668  31.155  28.079  1.00  0.00     0.040 A 
ATOM     76  C   UNL A   1      35.738  33.308  27.961  1.00  0.00     0.040 A 
ATOM     77  F   UNL A   1      37.771  33.673  29.072  1.00  0.00    -0.206 F 
ATOM     78  C   UNL A   1      34.687  32.465  27.606  1.00  0.00     0.006 A 
ENDBRANCH  57  71
BRANCH  58  79
ATOM     79  C   UNL A   1      44.432  28.141  34.724  1.00  0.00     0.057 A 
ATOM     80  C   UNL A   1      45.646  28.836  34.768  1.00  0.00     0.134 A 
ATOM     81  C   UNL A   1      44.347  26.948  35.452  1.00  0.00     0.134 A 
ATOM     82  F   UNL A   1      45.800  29.972  34.072  1.00  0.00    -0.206 F 
ATOM     83  C   UNL A   1      46.742  28.350  35.485  1.00  0.00     0.040 A 
ATOM     84  C   UNL A   1      45.424  26.466  36.197  1.00  0.00     0.040 A 
ATOM     85  F   UNL A   1      43.212  26.232  35.452  1.00  0.00    -0.206 F 
ATOM     86  C   UNL A   1      46.631  27.164  36.207  1.00  0.00     0.006 A 
ENDBRANCH  58  79
BRANCH  70  87
ATOM     87  C   UNL A   1      39.023  32.315  36.083  1.00  0.00     0.057 A 
ATOM     88  C   UNL A   1      38.188  31.700  37.024  1.00  0.00     0.134 A 
ATOM     89  C   UNL A   1      39.460  33.618  36.364  1.00  0.00     0.134 A 
ATOM     90  F   UNL A   1      37.727  30.458  36.815  1.00  0.00    -0.206 F 
ATOM     91  C   UNL A   1      37.772  32.368  38.177  1.00  0.00     0.040 A 
ATOM     92  C   UNL A   1      39.079  34.282  37.530  1.00  0.00     0.040 A 
ATOM     93  F   UNL A   1      40.275  34.262  35.514  1.00  0.00    -0.206 F 
ATOM     94  C   UNL A   1      38.222  33.660  38.435  1.00  0.00     0.006 A 
ENDBRANCH  70  87
ENDBRANCH  44  45
ENDBRANCH  37  39
ENDBRANCH  36  37
ENDBRANCH  35  36
ENDBRANCH  34  35
ENDBRANCH  33  34
ENDBRANCH  32  33
ENDBRANCH  31  32
ENDBRANCH  30  31
ENDBRANCH  29  30
ENDBRANCH   1  29
TORSDOF 26
ENDMDL
MODEL 3
REMARK VINA RESULT:      -9.0      2.240      6.562
REMARK SMILES CCSc1nc(CC(=O)N[C@@H](C(=O)OCCOCCOCCOCCOC(=O)c2ccc(-c3c4nc(c(-c5c(F)cccc5F)c5ccc([nH]5)c(-c5c(F)cccc5F)c5nc(c(-c6c(F)cccc6F)c6ccc3[nH]6)C=C5)C=C4)cc2)C2=C(C)N=N[C@@H]2C)cs1
REMARK SMILES IDX 18 1 17 2 16 3 15 4 14 5 12 6 13 7 11 8 10 9 8 10 9 11 7 13
REMARK SMILES IDX 6 14 4 15 5 16 91 17 90 18 3 19 2 20 1 21 83 22 84 23 88 24
REMARK SMILES IDX 85 25 86 26 87 27 89 28 19 29 20 30 21 31 22 32 23 33 24 34
REMARK SMILES IDX 25 35 26 36 27 37 28 38 29 39 30 40 82 41 31 42 81 43 32 44
REMARK SMILES IDX 33 45 34 46 75 47 35 48 80 49 74 50 76 51 36 52 79 53 73 54
REMARK SMILES IDX 72 55 37 57 63 58 46 59 62 60 47 61 50 62 61 63 77 64 48 65
REMARK SMILES IDX 49 66 60 68 78 69 51 70 38 71 39 72 44 73 40 74 41 75 43 76
REMARK SMILES IDX 45 77 42 78 64 79 65 80 70 81 66 82 67 83 69 84 71 85 68 86
REMARK SMILES IDX 52 87 53 88 58 89 54 90 55 91 57 92 59 93 56 94
REMARK H PARENT 10 12 76 56 50 67
REMARK Flexibility Score: inf
ROOT
ATOM      1  C   UNL A   1      38.016  20.910  25.080  1.00  0.00     0.188 C 
ENDROOT
BRANCH   1   2
ATOM      2  O   UNL A   1      36.894  21.482  24.428  1.00  0.00    -0.376 OA
BRANCH   2   3
ATOM      3  C   UNL A   1      35.700  21.685  25.159  1.00  0.00     0.202 C 
BRANCH   3   4
ATOM      4  C   UNL A   1      35.695  22.551  26.435  1.00  0.00     0.261 C 
BRANCH   4   5
ATOM      5  O   UNL A   1      34.668  23.559  26.570  1.00  0.00    -0.461 OA
BRANCH   5   6
ATOM      6  C   UNL A   1      34.370  24.299  25.465  1.00  0.00     0.333 C 
ATOM      7  O   UNL A   1      35.204  24.950  24.842  1.00  0.00    -0.249 OA
BRANCH   6   8
ATOM      8  C   UNL A   1      32.848  24.247  25.054  1.00  0.00     0.223 C 
BRANCH   8   9
ATOM      9  N   UNL A   1      31.820  24.926  25.848  1.00  0.00    -0.339 N 
ATOM     10  C   UNL A   1      30.684  25.570  25.457  1.00  0.00     0.226 C 
ATOM     11  O   UNL A   1      29.964  26.050  26.337  1.00  0.00    -0.275 OA
ATOM     12  H   UNL A   1      31.975  24.916  26.820  1.00  0.00     0.164 HD
BRANCH  10  13
ATOM     13  C   UNL A   1      30.280  25.636  24.001  1.00  0.00     0.157 C 
BRANCH  13  14
ATOM     14  C   UNL A   1      30.232  27.035  23.501  1.00  0.00     0.062 A 
ATOM     15  C   UNL A   1      29.126  28.830  22.827  1.00  0.00     0.150 A 
ATOM     16  N   UNL A   1      28.989  27.622  23.323  1.00  0.00    -0.234 NA
ATOM     17  S   UNL A   1      30.744  29.369  22.635  1.00  0.00    -0.116 S 
ATOM     18  C   UNL A   1      31.305  27.840  23.168  1.00  0.00     0.092 A 
BRANCH  15  19
ATOM     19  S   UNL A   1      27.754  29.782  22.308  1.00  0.00    -0.096 SA
BRANCH  19  20
ATOM     20  C   UNL A   1      27.794  31.192  23.453  1.00  0.00     0.074 C 
ATOM     21  C   UNL A   1      28.456  32.439  22.892  1.00  0.00     0.016 C 
ENDBRANCH  19  20
ENDBRANCH  15  19
ENDBRANCH  13  14
ENDBRANCH  10  13
ENDBRANCH   8   9
BRANCH   8  22
ATOM     22  C   UNL A   1      32.349  22.844  24.835  1.00  0.00     0.012 C 
ATOM     23  C   UNL A   1      32.414  22.122  23.711  1.00  0.00     0.064 C 
ATOM     24  C   UNL A   1      31.782  21.898  25.849  1.00  0.00     0.156 C 
ATOM     25  C   UNL A   1      32.798  22.572  22.348  1.00  0.00     0.069 C 
ATOM     26  N   UNL A   1      32.091  20.805  23.907  1.00  0.00    -0.160 NA
ATOM     27  N   UNL A   1      31.831  20.598  25.124  1.00  0.00    -0.181 NA
ATOM     28  C   UNL A   1      30.303  22.125  26.186  1.00  0.00     0.040 C 
ENDBRANCH   8  22
ENDBRANCH   6   8
ENDBRANCH   5   6
ENDBRANCH   4   5
ENDBRANCH   3   4
ENDBRANCH   2   3
ENDBRANCH   1   2
BRANCH   1  29
ATOM     29  C   UNL A   1      39.067  21.802  25.778  1.00  0.00     0.188 C 
BRANCH  29  30
ATOM     30  O   UNL A   1      39.770  21.165  26.824  1.00  0.00    -0.377 OA
BRANCH  30  31
ATOM     31  C   UNL A   1      40.910  20.435  26.403  1.00  0.00     0.188 C 
BRANCH  31  32
ATOM     32  C   UNL A   1      42.182  20.620  27.253  1.00  0.00     0.188 C 
BRANCH  32  33
ATOM     33  O   UNL A   1      43.156  21.459  26.641  1.00  0.00    -0.376 OA
BRANCH  33  34
ATOM     34  C   UNL A   1      42.821  22.242  25.506  1.00  0.00     0.202 C 
BRANCH  34  35
ATOM     35  C   UNL A   1      42.888  23.775  25.619  1.00  0.00     0.261 C 
BRANCH  35  36
ATOM     36  O   UNL A   1      41.802  24.421  26.296  1.00  0.00    -0.460 OA
BRANCH  36  37
ATOM     37  C   UNL A   1      41.611  25.733  26.064  1.00  0.00     0.338 C 
ATOM     38  O   UNL A   1      41.193  26.245  25.038  1.00  0.00    -0.246 OA
BRANCH  37  39
ATOM     39  C   UNL A   1      41.767  26.446  27.351  1.00  0.00     0.060 A 
ATOM     40  C   UNL A   1      40.929  26.086  28.414  1.00  0.00     0.016 A 
ATOM     41  C   UNL A   1      42.739  27.438  27.520  1.00  0.00     0.016 A 
ATOM     42  C   UNL A   1      41.022  26.751  29.632  1.00  0.00     0.010 A 
ATOM     43  C   UNL A   1      42.808  28.131  28.733  1.00  0.00     0.010 A 
ATOM     44  C   UNL A   1      41.912  27.822  29.773  1.00  0.00    -0.014 A 
BRANCH  44  45
ATOM     45  C   UNL A   1      41.680  28.774  30.883  1.00  0.00     0.031 A 
ATOM     46  C   UNL A   1      40.524  29.730  30.749  1.00  0.00     0.074 A 
ATOM     47  C   UNL A   1      42.398  28.730  32.018  1.00  0.00     0.049 A 
ATOM     48  N   UNL A   1      40.077  30.624  31.591  1.00  0.00    -0.248 NA
ATOM     49  C   UNL A   1      39.765  29.662  29.487  1.00  0.00     0.031 C 
ATOM     50  C   UNL A   1      43.500  27.812  32.290  1.00  0.00     0.029 A 
ATOM     51  N   UNL A   1      42.290  29.478  33.163  1.00  0.00    -0.354 N 
ATOM     52  C   UNL A   1      38.991  31.221  30.963  1.00  0.00     0.074 A 
ATOM     53  C   UNL A   1      38.868  30.619  29.655  1.00  0.00     0.031 C 
ATOM     54  C   UNL A   1      43.972  28.052  33.526  1.00  0.00     0.029 A 
ATOM     55  C   UNL A   1      43.220  29.158  34.120  1.00  0.00     0.049 A 
ATOM     56  H   UNL A   1      41.610  30.180  33.286  1.00  0.00     0.167 HD
ATOM     57  C   UNL A   1      38.156  32.174  31.439  1.00  0.00     0.037 A 
ATOM     58  C   UNL A   1      43.441  29.707  35.331  1.00  0.00     0.037 A 
ATOM     59  C   UNL A   1      38.280  32.774  32.739  1.00  0.00     0.049 A 
ATOM     60  C   UNL A   1      42.549  30.826  35.806  1.00  0.00     0.074 A 
ATOM     61  C   UNL A   1      37.488  33.747  33.319  1.00  0.00     0.029 A 
ATOM     62  N   UNL A   1      39.270  32.459  33.660  1.00  0.00    -0.354 N 
ATOM     63  N   UNL A   1      41.512  31.372  35.214  1.00  0.00    -0.248 NA
ATOM     64  C   UNL A   1      42.852  31.399  37.125  1.00  0.00     0.031 C 
ATOM     65  C   UNL A   1      38.032  34.065  34.567  1.00  0.00     0.029 A 
ATOM     66  C   UNL A   1      39.123  33.240  34.795  1.00  0.00     0.049 A 
ATOM     67  H   UNL A   1      39.970  31.781  33.527  1.00  0.00     0.167 HD
ATOM     68  C   UNL A   1      41.022  32.324  36.101  1.00  0.00     0.074 A 
ATOM     69  C   UNL A   1      41.865  32.269  37.277  1.00  0.00     0.031 C 
ATOM     70  C   UNL A   1      39.969  33.167  35.959  1.00  0.00     0.037 A 
BRANCH  57  71
ATOM     71  C   UNL A   1      37.062  32.649  30.527  1.00  0.00     0.057 A 
ATOM     72  C   UNL A   1      37.277  33.636  29.556  1.00  0.00     0.134 A 
ATOM     73  C   UNL A   1      35.776  32.101  30.615  1.00  0.00     0.134 A 
ATOM     74  F   UNL A   1      38.480  34.219  29.433  1.00  0.00    -0.206 F 
ATOM     75  C   UNL A   1      36.247  34.080  28.725  1.00  0.00     0.040 A 
ATOM     76  C   UNL A   1      34.746  32.515  29.770  1.00  0.00     0.040 A 
ATOM     77  F   UNL A   1      35.501  31.154  31.524  1.00  0.00    -0.206 F 
ATOM     78  C   UNL A   1      34.978  33.513  28.826  1.00  0.00     0.006 A 
ENDBRANCH  57  71
BRANCH  58  79
ATOM     79  C   UNL A   1      44.559  29.221  36.181  1.00  0.00     0.057 A 
ATOM     80  C   UNL A   1      45.825  29.815  36.134  1.00  0.00     0.134 A 
ATOM     81  C   UNL A   1      44.397  28.120  37.030  1.00  0.00     0.134 A 
ATOM     82  F   UNL A   1      46.053  30.858  35.321  1.00  0.00    -0.206 F 
ATOM     83  C   UNL A   1      46.896  29.316  36.879  1.00  0.00     0.040 A 
ATOM     84  C   UNL A   1      45.450  27.629  37.804  1.00  0.00     0.040 A 
ATOM     85  F   UNL A   1      43.209  27.503  37.123  1.00  0.00    -0.206 F 
ATOM     86  C   UNL A   1      46.709  28.223  37.722  1.00  0.00     0.006 A 
ENDBRANCH  58  79
BRANCH  70  87
ATOM     87  C   UNL A   1      39.639  34.062  37.121  1.00  0.00     0.057 A 
ATOM     88  C   UNL A   1      38.932  33.602  38.240  1.00  0.00     0.134 A 
ATOM     89  C   UNL A   1      40.063  35.399  37.132  1.00  0.00     0.134 A 
ATOM     90  F   UNL A   1      38.490  32.337  38.292  1.00  0.00    -0.206 F 
ATOM     91  C   UNL A   1      38.624  34.449  39.306  1.00  0.00     0.040 A 
ATOM     92  C   UNL A   1      39.792  36.244  38.208  1.00  0.00     0.040 A 
ATOM     93  F   UNL A   1      40.760  35.901  36.101  1.00  0.00    -0.206 F 
ATOM     94  C   UNL A   1      39.059  35.772  39.295  1.00  0.00     0.006 A 
ENDBRANCH  70  87
ENDBRANCH  44  45
ENDBRANCH  37  39
ENDBRANCH  36  37
ENDBRANCH  35  36
ENDBRANCH  34  35
ENDBRANCH  33  34
ENDBRANCH  32  33
ENDBRANCH  31  32
ENDBRANCH  30  31
ENDBRANCH  29  30
ENDBRANCH   1  29
TORSDOF 26
ENDMDL
