MODEL 1
REMARK VINA RESULT:     -10.0      0.000      0.000
REMARK SMILES O=C(OCCOCCOCCOCCOC(=O)[C@H]1CSCN1C(=O)c1occc1-c1ccccc1)c1ccc(-c2c3nc(c(-c4c(F)cccc4F)c4ccc([nH]4)c(-c4c(F)cccc4F)c4nc(c(-c5c(F)cccc5F)c5ccc2[nH]5)C=C4)C=C3)cc1
REMARK SMILES IDX 10 1 9 2 8 3 7 4 6 5 5 6 4 7 3 8 2 9 1 10 36 11 37 12 89 13
REMARK SMILES IDX 38 14 88 15 39 16 40 17 41 18 82 19 42 20 87 21 81 22 83 23
REMARK SMILES IDX 43 24 86 25 80 26 79 27 44 29 70 30 53 31 69 32 54 33 57 34
REMARK SMILES IDX 68 35 84 36 55 37 56 38 67 40 85 41 58 42 45 43 46 44 51 45
REMARK SMILES IDX 47 46 48 47 50 48 52 49 49 50 71 51 72 52 77 53 73 54 74 55
REMARK SMILES IDX 76 56 78 57 75 58 59 59 60 60 65 61 61 62 62 63 64 64 66 65
REMARK SMILES IDX 63 66 11 67 12 68 13 69 14 70 15 71 16 72 17 73 18 74 19 75
REMARK SMILES IDX 22 76 20 77 21 78 23 79 24 80 25 81 26 82 29 83 27 84 28 85
REMARK SMILES IDX 30 86 31 87 35 88 32 89 34 90 33 91
REMARK H PARENT 83 28 57 39
REMARK Flexibility Score: inf
ROOT
ATOM      1  C   UNL A   1      35.926  32.882  28.119  1.00  0.00     0.188 C 
ENDROOT
BRANCH   1   2
ATOM      2  O   UNL A   1      35.118  33.939  27.624  1.00  0.00    -0.377 OA
BRANCH   2   3
ATOM      3  C   UNL A   1      34.151  34.459  28.533  1.00  0.00     0.188 C 
BRANCH   3   4
ATOM      4  C   UNL A   1      34.670  34.638  29.957  1.00  0.00     0.188 C 
BRANCH   4   5
ATOM      5  O   UNL A   1      33.841  33.881  30.847  1.00  0.00    -0.376 OA
BRANCH   5   6
ATOM      6  C   UNL A   1      34.476  32.778  31.488  1.00  0.00     0.202 C 
BRANCH   6   7
ATOM      7  C   UNL A   1      34.902  33.050  32.932  1.00  0.00     0.261 C 
BRANCH   7   8
ATOM      8  O   UNL A   1      36.326  33.120  33.086  1.00  0.00    -0.460 OA
BRANCH   8   9
ATOM      9  C   UNL A   1      37.179  32.148  33.496  1.00  0.00     0.338 C 
ATOM     10  O   UNL A   1      37.125  31.810  34.678  1.00  0.00    -0.246 OA
BRANCH   9  11
ATOM     11  C   UNL A   1      38.227  31.493  32.636  1.00  0.00     0.060 A 
ATOM     12  C   UNL A   1      39.333  30.767  33.085  1.00  0.00     0.016 A 
ATOM     13  C   UNL A   1      38.043  31.587  31.242  1.00  0.00     0.016 A 
ATOM     14  C   UNL A   1      40.225  30.163  32.209  1.00  0.00     0.010 A 
ATOM     15  C   UNL A   1      38.950  31.009  30.346  1.00  0.00     0.010 A 
ATOM     16  C   UNL A   1      40.056  30.316  30.840  1.00  0.00    -0.014 A 
BRANCH  16  17
ATOM     17  C   UNL A   1      41.195  29.953  29.984  1.00  0.00     0.031 A 
ATOM     18  C   UNL A   1      41.174  28.588  29.366  1.00  0.00     0.074 A 
ATOM     19  C   UNL A   1      42.113  30.874  29.648  1.00  0.00     0.049 A 
ATOM     20  N   UNL A   1      42.060  28.004  28.610  1.00  0.00    -0.248 NA
ATOM     21  C   UNL A   1      39.965  27.780  29.617  1.00  0.00     0.031 C 
ATOM     22  C   UNL A   1      42.099  32.274  30.072  1.00  0.00     0.029 A 
ATOM     23  N   UNL A   1      43.221  30.773  28.851  1.00  0.00    -0.354 N 
ATOM     24  C   UNL A   1      41.531  26.753  28.320  1.00  0.00     0.074 A 
ATOM     25  C   UNL A   1      40.243  26.663  28.964  1.00  0.00     0.031 C 
ATOM     26  C   UNL A   1      43.160  32.902  29.537  1.00  0.00     0.029 A 
ATOM     27  C   UNL A   1      43.952  31.933  28.786  1.00  0.00     0.049 A 
ATOM     28  H   UNL A   1      43.468  29.950  28.372  1.00  0.00     0.167 HD
ATOM     29  C   UNL A   1      42.093  25.763  27.593  1.00  0.00     0.037 A 
ATOM     30  C   UNL A   1      45.153  32.153  28.219  1.00  0.00     0.037 A 
ATOM     31  C   UNL A   1      43.386  25.885  26.981  1.00  0.00     0.049 A 
ATOM     32  C   UNL A   1      45.820  30.995  27.522  1.00  0.00     0.074 A 
ATOM     33  C   UNL A   1      44.110  24.939  26.284  1.00  0.00     0.029 A 
ATOM     34  N   UNL A   1      44.148  27.047  27.007  1.00  0.00    -0.354 N 
ATOM     35  N   UNL A   1      45.360  29.783  27.310  1.00  0.00    -0.248 NA
ATOM     36  C   UNL A   1      47.177  31.220  27.008  1.00  0.00     0.031 C 
ATOM     37  C   UNL A   1      45.335  25.516  25.930  1.00  0.00     0.029 A 
ATOM     38  C   UNL A   1      45.351  26.835  26.363  1.00  0.00     0.049 A 
ATOM     39  H   UNL A   1      43.872  27.895  27.423  1.00  0.00     0.167 HD
ATOM     40  C   UNL A   1      46.362  29.104  26.631  1.00  0.00     0.074 A 
ATOM     41  C   UNL A   1      47.447  30.049  26.449  1.00  0.00     0.031 C 
ATOM     42  C   UNL A   1      46.394  27.817  26.202  1.00  0.00     0.037 A 
BRANCH  29  43
ATOM     43  C   UNL A   1      41.351  24.462  27.529  1.00  0.00     0.057 A 
ATOM     44  C   UNL A   1      41.719  23.348  28.295  1.00  0.00     0.134 A 
ATOM     45  C   UNL A   1      40.284  24.307  26.634  1.00  0.00     0.134 A 
ATOM     46  F   UNL A   1      42.757  23.419  29.143  1.00  0.00    -0.206 F 
ATOM     47  C   UNL A   1      41.070  22.119  28.153  1.00  0.00     0.040 A 
ATOM     48  C   UNL A   1      39.614  23.090  26.500  1.00  0.00     0.040 A 
ATOM     49  F   UNL A   1      39.891  25.329  25.861  1.00  0.00    -0.206 F 
ATOM     50  C   UNL A   1      40.011  21.989  27.255  1.00  0.00     0.006 A 
ENDBRANCH  29  43
BRANCH  30  51
ATOM     51  C   UNL A   1      45.826  33.471  28.356  1.00  0.00     0.057 A 
ATOM     52  C   UNL A   1      46.745  33.728  29.380  1.00  0.00     0.134 A 
ATOM     53  C   UNL A   1      45.543  34.526  27.474  1.00  0.00     0.134 A 
ATOM     54  F   UNL A   1      47.044  32.773  30.272  1.00  0.00    -0.206 F 
ATOM     55  C   UNL A   1      47.345  34.981  29.530  1.00  0.00     0.040 A 
ATOM     56  C   UNL A   1      46.156  35.774  27.596  1.00  0.00     0.040 A 
ATOM     57  F   UNL A   1      44.667  34.356  26.473  1.00  0.00    -0.206 F 
ATOM     58  C   UNL A   1      47.055  36.008  28.633  1.00  0.00     0.006 A 
ENDBRANCH  30  51
BRANCH  42  59
ATOM     59  C   UNL A   1      47.629  27.377  25.480  1.00  0.00     0.057 A 
ATOM     60  C   UNL A   1      47.778  27.565  24.101  1.00  0.00     0.134 A 
ATOM     61  C   UNL A   1      48.708  26.834  26.188  1.00  0.00     0.134 A 
ATOM     62  F   UNL A   1      46.774  28.072  23.371  1.00  0.00    -0.206 F 
ATOM     63  C   UNL A   1      48.957  27.214  23.447  1.00  0.00     0.040 A 
ATOM     64  C   UNL A   1      49.901  26.503  25.548  1.00  0.00     0.040 A 
ATOM     65  F   UNL A   1      48.626  26.642  27.513  1.00  0.00    -0.206 F 
ATOM     66  C   UNL A   1      50.026  26.691  24.174  1.00  0.00     0.006 A 
ENDBRANCH  42  59
ENDBRANCH  16  17
ENDBRANCH   9  11
ENDBRANCH   8   9
ENDBRANCH   7   8
ENDBRANCH   6   7
ENDBRANCH   5   6
ENDBRANCH   4   5
ENDBRANCH   3   4
ENDBRANCH   2   3
ENDBRANCH   1   2
BRANCH   1  67
ATOM     67  C   UNL A   1      35.454  31.442  27.846  1.00  0.00     0.188 C 
BRANCH  67  68
ATOM     68  O   UNL A   1      34.085  31.151  27.997  1.00  0.00    -0.376 OA
BRANCH  68  69
ATOM     69  C   UNL A   1      33.458  30.118  27.258  1.00  0.00     0.202 C 
BRANCH  69  70
ATOM     70  C   UNL A   1      33.953  28.666  27.110  1.00  0.00     0.261 C 
BRANCH  70  71
ATOM     71  O   UNL A   1      32.996  27.628  26.921  1.00  0.00    -0.462 OA
BRANCH  71  72
ATOM     72  C   UNL A   1      32.916  27.058  25.689  1.00  0.00     0.329 C 
ATOM     73  O   UNL A   1      33.753  27.210  24.803  1.00  0.00    -0.250 OA
BRANCH  72  74
ATOM     74  C   UNL A   1      31.726  26.081  25.565  1.00  0.00     0.206 C 
ATOM     75  C   UNL A   1      30.705  26.720  24.619  1.00  0.00     0.108 C 
ATOM     76  N   UNL A   1      32.021  24.705  25.120  1.00  0.00    -0.312 N 
ATOM     77  S   UNL A   1      29.973  25.410  23.612  1.00  0.00    -0.138 SA
ATOM     78  C   UNL A   1      31.031  24.111  24.261  1.00  0.00     0.191 C 
BRANCH  76  79
ATOM     79  C   UNL A   1      32.890  23.945  25.913  1.00  0.00     0.291 C 
ATOM     80  O   UNL A   1      32.533  23.629  27.051  1.00  0.00    -0.265 OA
BRANCH  79  81
ATOM     81  C   UNL A   1      34.128  23.426  25.357  1.00  0.00     0.199 A 
ATOM     82  O   UNL A   1      35.170  24.327  25.378  1.00  0.00    -0.459 OA
ATOM     83  C   UNL A   1      34.572  22.259  24.743  1.00  0.00     0.033 A 
ATOM     84  C   UNL A   1      36.241  23.758  24.784  1.00  0.00     0.196 A 
ATOM     85  C   UNL A   1      35.934  22.488  24.377  1.00  0.00     0.051 A 
BRANCH  83  86
ATOM     86  C   UNL A   1      33.817  21.068  24.410  1.00  0.00    -0.014 A 
ATOM     87  C   UNL A   1      34.245  19.822  24.897  1.00  0.00     0.009 A 
ATOM     88  C   UNL A   1      32.787  21.114  23.468  1.00  0.00     0.009 A 
ATOM     89  C   UNL A   1      33.631  18.642  24.470  1.00  0.00     0.001 A 
ATOM     90  C   UNL A   1      32.200  19.927  23.016  1.00  0.00     0.001 A 
ATOM     91  C   UNL A   1      32.611  18.695  23.523  1.00  0.00     0.000 A 
ENDBRANCH  83  86
ENDBRANCH  79  81
ENDBRANCH  76  79
ENDBRANCH  72  74
ENDBRANCH  71  72
ENDBRANCH  70  71
ENDBRANCH  69  70
ENDBRANCH  68  69
ENDBRANCH  67  68
ENDBRANCH   1  67
TORSDOF 23
ENDMDL
MODEL 2
REMARK VINA RESULT:      -9.7      5.251     10.713
REMARK SMILES O=C(OCCOCCOCCOCCOC(=O)[C@H]1CSCN1C(=O)c1occc1-c1ccccc1)c1ccc(-c2c3nc(c(-c4c(F)cccc4F)c4ccc([nH]4)c(-c4c(F)cccc4F)c4nc(c(-c5c(F)cccc5F)c5ccc2[nH]5)C=C4)C=C3)cc1
REMARK SMILES IDX 10 1 9 2 8 3 7 4 6 5 5 6 4 7 3 8 2 9 1 10 36 11 37 12 89 13
REMARK SMILES IDX 38 14 88 15 39 16 40 17 41 18 82 19 42 20 87 21 81 22 83 23
REMARK SMILES IDX 43 24 86 25 80 26 79 27 44 29 70 30 53 31 69 32 54 33 57 34
REMARK SMILES IDX 68 35 84 36 55 37 56 38 67 40 85 41 58 42 45 43 46 44 51 45
REMARK SMILES IDX 47 46 48 47 50 48 52 49 49 50 71 51 72 52 77 53 73 54 74 55
REMARK SMILES IDX 76 56 78 57 75 58 59 59 60 60 65 61 61 62 62 63 64 64 66 65
REMARK SMILES IDX 63 66 11 67 12 68 13 69 14 70 15 71 16 72 17 73 18 74 19 75
REMARK SMILES IDX 22 76 20 77 21 78 23 79 24 80 25 81 26 82 29 83 27 84 28 85
REMARK SMILES IDX 30 86 31 87 35 88 32 89 34 90 33 91
REMARK H PARENT 83 28 57 39
REMARK Flexibility Score: inf
ROOT
ATOM      1  C   UNL A   1      43.786  18.490  25.259  1.00  0.00     0.188 C 
ENDROOT
BRANCH   1   2
ATOM      2  O   UNL A   1      45.091  18.990  25.506  1.00  0.00    -0.377 OA
BRANCH   2   3
ATOM      3  C   UNL A   1      45.623  19.861  24.511  1.00  0.00     0.188 C 
BRANCH   3   4
ATOM      4  C   UNL A   1      46.032  21.232  25.041  1.00  0.00     0.188 C 
BRANCH   4   5
ATOM      5  O   UNL A   1      44.903  21.831  25.688  1.00  0.00    -0.376 OA
BRANCH   5   6
ATOM      6  C   UNL A   1      43.973  22.480  24.826  1.00  0.00     0.202 C 
BRANCH   6   7
ATOM      7  C   UNL A   1      42.730  23.021  25.535  1.00  0.00     0.261 C 
BRANCH   7   8
ATOM      8  O   UNL A   1      42.971  24.264  26.205  1.00  0.00    -0.460 OA
BRANCH   8   9
ATOM      9  C   UNL A   1      42.414  25.477  25.962  1.00  0.00     0.338 C 
ATOM     10  O   UNL A   1      42.265  25.805  24.785  1.00  0.00    -0.246 OA
BRANCH   9  11
ATOM     11  C   UNL A   1      42.019  26.478  27.014  1.00  0.00     0.060 A 
ATOM     12  C   UNL A   1      42.509  27.781  27.146  1.00  0.00     0.016 A 
ATOM     13  C   UNL A   1      41.023  26.072  27.925  1.00  0.00     0.016 A 
ATOM     14  C   UNL A   1      42.050  28.647  28.129  1.00  0.00     0.010 A 
ATOM     15  C   UNL A   1      40.572  26.923  28.940  1.00  0.00     0.010 A 
ATOM     16  C   UNL A   1      41.109  28.206  29.050  1.00  0.00    -0.014 A 
BRANCH  16  17
ATOM     17  C   UNL A   1      40.916  29.033  30.251  1.00  0.00     0.031 A 
ATOM     18  C   UNL A   1      39.770  29.997  30.235  1.00  0.00     0.074 A 
ATOM     19  C   UNL A   1      41.637  28.799  31.360  1.00  0.00     0.049 A 
ATOM     20  N   UNL A   1      39.400  30.863  31.136  1.00  0.00    -0.248 NA
ATOM     21  C   UNL A   1      38.901  29.956  29.044  1.00  0.00     0.031 C 
ATOM     22  C   UNL A   1      42.652  27.755  31.502  1.00  0.00     0.029 A 
ATOM     23  N   UNL A   1      41.606  29.409  32.583  1.00  0.00    -0.354 N 
ATOM     24  C   UNL A   1      38.278  31.488  30.608  1.00  0.00     0.074 A 
ATOM     25  C   UNL A   1      38.013  30.896  29.319  1.00  0.00     0.031 C 
ATOM     26  C   UNL A   1      43.156  27.805  32.747  1.00  0.00     0.029 A 
ATOM     27  C   UNL A   1      42.541  28.920  33.461  1.00  0.00     0.049 A 
ATOM     28  H   UNL A   1      40.974  30.129  32.812  1.00  0.00     0.167 HD
ATOM     29  C   UNL A   1      37.550  32.487  31.155  1.00  0.00     0.037 A 
ATOM     30  C   UNL A   1      42.881  29.370  34.684  1.00  0.00     0.037 A 
ATOM     31  C   UNL A   1      37.855  33.061  32.435  1.00  0.00     0.049 A 
ATOM     32  C   UNL A   1      42.139  30.568  35.219  1.00  0.00     0.074 A 
ATOM     33  C   UNL A   1      37.254  34.125  33.075  1.00  0.00     0.029 A 
ATOM     34  N   UNL A   1      38.870  32.603  33.267  1.00  0.00    -0.354 N 
ATOM     35  N   UNL A   1      41.126  31.215  34.692  1.00  0.00    -0.248 NA
ATOM     36  C   UNL A   1      42.599  31.115  36.502  1.00  0.00     0.031 C 
ATOM     37  C   UNL A   1      37.939  34.343  34.276  1.00  0.00     0.029 A 
ATOM     38  C   UNL A   1      38.933  33.382  34.405  1.00  0.00     0.049 A 
ATOM     39  H   UNL A   1      39.457  31.837  33.073  1.00  0.00     0.167 HD
ATOM     40  C   UNL A   1      40.819  32.237  35.578  1.00  0.00     0.074 A 
ATOM     41  C   UNL A   1      41.743  32.109  36.689  1.00  0.00     0.031 C 
ATOM     42  C   UNL A   1      39.870  33.202  35.487  1.00  0.00     0.037 A 
BRANCH  29  43
ATOM     43  C   UNL A   1      36.447  33.061  30.317  1.00  0.00     0.057 A 
ATOM     44  C   UNL A   1      36.685  33.983  29.290  1.00  0.00     0.134 A 
ATOM     45  C   UNL A   1      35.114  32.728  30.590  1.00  0.00     0.134 A 
ATOM     46  F   UNL A   1      37.938  34.373  29.003  1.00  0.00    -0.206 F 
ATOM     47  C   UNL A   1      35.636  34.573  28.582  1.00  0.00     0.040 A 
ATOM     48  C   UNL A   1      34.058  33.295  29.875  1.00  0.00     0.040 A 
ATOM     49  F   UNL A   1      34.816  31.863  31.571  1.00  0.00    -0.206 F 
ATOM     50  C   UNL A   1      34.317  34.226  28.872  1.00  0.00     0.006 A 
ENDBRANCH  29  43
BRANCH  30  51
ATOM     51  C   UNL A   1      44.008  28.752  35.432  1.00  0.00     0.057 A 
ATOM     52  C   UNL A   1      43.799  27.750  36.387  1.00  0.00     0.134 A 
ATOM     53  C   UNL A   1      45.331  29.173  35.228  1.00  0.00     0.134 A 
ATOM     54  F   UNL A   1      42.557  27.318  36.650  1.00  0.00    -0.206 F 
ATOM     55  C   UNL A   1      44.856  27.201  37.117  1.00  0.00     0.040 A 
ATOM     56  C   UNL A   1      46.399  28.612  35.930  1.00  0.00     0.040 A 
ATOM     57  F   UNL A   1      45.607  30.133  34.333  1.00  0.00    -0.206 F 
ATOM     58  C   UNL A   1      46.163  27.629  36.886  1.00  0.00     0.006 A 
ENDBRANCH  30  51
BRANCH  42  59
ATOM     59  C   UNL A   1      39.777  34.168  36.627  1.00  0.00     0.057 A 
ATOM     60  C   UNL A   1      40.381  35.429  36.570  1.00  0.00     0.134 A 
ATOM     61  C   UNL A   1      39.009  33.859  37.756  1.00  0.00     0.134 A 
ATOM     62  F   UNL A   1      41.138  35.775  35.517  1.00  0.00    -0.206 F 
ATOM     63  C   UNL A   1      40.234  36.348  37.607  1.00  0.00     0.040 A 
ATOM     64  C   UNL A   1      38.834  34.780  38.786  1.00  0.00     0.040 A 
ATOM     65  F   UNL A   1      38.397  32.670  37.859  1.00  0.00    -0.206 F 
ATOM     66  C   UNL A   1      39.450  36.028  38.714  1.00  0.00     0.006 A 
ENDBRANCH  42  59
ENDBRANCH  16  17
ENDBRANCH   9  11
ENDBRANCH   8   9
ENDBRANCH   7   8
ENDBRANCH   6   7
ENDBRANCH   5   6
ENDBRANCH   4   5
ENDBRANCH   3   4
ENDBRANCH   2   3
ENDBRANCH   1   2
BRANCH   1  67
ATOM     67  C   UNL A   1      42.641  19.040  26.127  1.00  0.00     0.188 C 
BRANCH  67  68
ATOM     68  O   UNL A   1      41.548  19.649  25.480  1.00  0.00    -0.376 OA
BRANCH  68  69
ATOM     69  C   UNL A   1      40.275  19.737  26.094  1.00  0.00     0.202 C 
BRANCH  69  70
ATOM     70  C   UNL A   1      38.939  19.244  25.508  1.00  0.00     0.261 C 
BRANCH  70  71
ATOM     71  O   UNL A   1      38.104  20.170  24.818  1.00  0.00    -0.462 OA
BRANCH  71  72
ATOM     72  C   UNL A   1      36.763  20.089  25.024  1.00  0.00     0.329 C 
ATOM     73  O   UNL A   1      36.082  19.104  24.753  1.00  0.00    -0.250 OA
BRANCH  72  74
ATOM     74  C   UNL A   1      36.202  21.323  25.765  1.00  0.00     0.206 C 
ATOM     75  C   UNL A   1      37.267  22.423  25.696  1.00  0.00     0.108 C 
ATOM     76  N   UNL A   1      34.906  21.858  25.306  1.00  0.00    -0.312 N 
ATOM     77  S   UNL A   1      36.426  24.008  25.490  1.00  0.00    -0.138 SA
ATOM     78  C   UNL A   1      34.785  23.292  25.344  1.00  0.00     0.191 C 
BRANCH  76  79
ATOM     79  C   UNL A   1      33.799  21.002  25.367  1.00  0.00     0.291 C 
ATOM     80  O   UNL A   1      33.410  20.611  26.470  1.00  0.00    -0.265 OA
BRANCH  79  81
ATOM     81  C   UNL A   1      33.044  20.692  24.165  1.00  0.00     0.199 A 
ATOM     82  O   UNL A   1      32.976  19.346  23.880  1.00  0.00    -0.459 OA
ATOM     83  C   UNL A   1      32.385  21.387  23.154  1.00  0.00     0.033 A 
ATOM     84  C   UNL A   1      32.308  19.186  22.718  1.00  0.00     0.196 A 
ATOM     85  C   UNL A   1      31.918  20.404  22.228  1.00  0.00     0.051 A 
BRANCH  83  86
ATOM     86  C   UNL A   1      32.267  22.818  22.967  1.00  0.00    -0.014 A 
ATOM     87  C   UNL A   1      31.148  23.491  23.483  1.00  0.00     0.009 A 
ATOM     88  C   UNL A   1      33.149  23.505  22.129  1.00  0.00     0.009 A 
ATOM     89  C   UNL A   1      30.930  24.839  23.188  1.00  0.00     0.001 A 
ATOM     90  C   UNL A   1      32.906  24.844  21.808  1.00  0.00     0.001 A 
ATOM     91  C   UNL A   1      31.808  25.514  22.344  1.00  0.00     0.000 A 
ENDBRANCH  83  86
ENDBRANCH  79  81
ENDBRANCH  76  79
ENDBRANCH  72  74
ENDBRANCH  71  72
ENDBRANCH  70  71
ENDBRANCH  69  70
ENDBRANCH  68  69
ENDBRANCH  67  68
ENDBRANCH   1  67
TORSDOF 23
ENDMDL
MODEL 3
REMARK VINA RESULT:      -9.4      4.722      8.611
REMARK SMILES O=C(OCCOCCOCCOCCOC(=O)[C@H]1CSCN1C(=O)c1occc1-c1ccccc1)c1ccc(-c2c3nc(c(-c4c(F)cccc4F)c4ccc([nH]4)c(-c4c(F)cccc4F)c4nc(c(-c5c(F)cccc5F)c5ccc2[nH]5)C=C4)C=C3)cc1
REMARK SMILES IDX 10 1 9 2 8 3 7 4 6 5 5 6 4 7 3 8 2 9 1 10 36 11 37 12 89 13
REMARK SMILES IDX 38 14 88 15 39 16 40 17 41 18 82 19 42 20 87 21 81 22 83 23
REMARK SMILES IDX 43 24 86 25 80 26 79 27 44 29 70 30 53 31 69 32 54 33 57 34
REMARK SMILES IDX 68 35 84 36 55 37 56 38 67 40 85 41 58 42 45 43 46 44 51 45
REMARK SMILES IDX 47 46 48 47 50 48 52 49 49 50 71 51 72 52 77 53 73 54 74 55
REMARK SMILES IDX 76 56 78 57 75 58 59 59 60 60 65 61 61 62 62 63 64 64 66 65
REMARK SMILES IDX 63 66 11 67 12 68 13 69 14 70 15 71 16 72 17 73 18 74 19 75
REMARK SMILES IDX 22 76 20 77 21 78 23 79 24 80 25 81 26 82 29 83 27 84 28 85
REMARK SMILES IDX 30 86 31 87 35 88 32 89 34 90 33 91
REMARK H PARENT 83 28 57 39
REMARK Flexibility Score: inf
ROOT
ATOM      1  C   UNL A   1      32.993  29.343  26.819  1.00  0.00     0.188 C 
ENDROOT
BRANCH   1   2
ATOM      2  O   UNL A   1      32.680  30.500  27.579  1.00  0.00    -0.377 OA
BRANCH   2   3
ATOM      3  C   UNL A   1      33.449  31.664  27.287  1.00  0.00     0.188 C 
BRANCH   3   4
ATOM      4  C   UNL A   1      32.687  32.973  27.472  1.00  0.00     0.188 C 
BRANCH   4   5
ATOM      5  O   UNL A   1      33.611  33.992  27.871  1.00  0.00    -0.376 OA
BRANCH   5   6
ATOM      6  C   UNL A   1      33.443  34.489  29.197  1.00  0.00     0.202 C 
BRANCH   6   7
ATOM      7  C   UNL A   1      32.834  35.890  29.269  1.00  0.00     0.261 C 
BRANCH   7   8
ATOM      8  O   UNL A   1      32.598  36.323  30.615  1.00  0.00    -0.460 OA
BRANCH   8   9
ATOM      9  C   UNL A   1      32.683  35.603  31.761  1.00  0.00     0.338 C 
ATOM     10  O   UNL A   1      31.661  35.492  32.437  1.00  0.00    -0.246 OA
BRANCH   9  11
ATOM     11  C   UNL A   1      33.941  34.979  32.302  1.00  0.00     0.060 A 
ATOM     12  C   UNL A   1      35.214  35.556  32.318  1.00  0.00     0.016 A 
ATOM     13  C   UNL A   1      33.807  33.706  32.892  1.00  0.00     0.016 A 
ATOM     14  C   UNL A   1      36.310  34.914  32.880  1.00  0.00     0.010 A 
ATOM     15  C   UNL A   1      34.908  33.034  33.436  1.00  0.00     0.010 A 
ATOM     16  C   UNL A   1      36.165  33.637  33.405  1.00  0.00    -0.014 A 
BRANCH  16  17
ATOM     17  C   UNL A   1      37.400  32.883  33.670  1.00  0.00     0.031 A 
ATOM     18  C   UNL A   1      38.049  33.092  35.004  1.00  0.00     0.074 A 
ATOM     19  C   UNL A   1      37.813  31.934  32.816  1.00  0.00     0.049 A 
ATOM     20  N   UNL A   1      39.154  32.589  35.478  1.00  0.00    -0.248 NA
ATOM     21  C   UNL A   1      37.332  33.972  35.947  1.00  0.00     0.031 C 
ATOM     22  C   UNL A   1      37.129  31.555  31.579  1.00  0.00     0.029 A 
ATOM     23  N   UNL A   1      38.895  31.099  32.873  1.00  0.00    -0.354 N 
ATOM     24  C   UNL A   1      39.279  33.113  36.758  1.00  0.00     0.074 A 
ATOM     25  C   UNL A   1      38.135  33.959  36.998  1.00  0.00     0.031 C 
ATOM     26  C   UNL A   1      37.817  30.564  30.987  1.00  0.00     0.029 A 
ATOM     27  C   UNL A   1      39.016  30.286  31.773  1.00  0.00     0.049 A 
ATOM     28  H   UNL A   1      39.525  31.082  33.630  1.00  0.00     0.167 HD
ATOM     29  C   UNL A   1      40.281  32.914  37.642  1.00  0.00     0.037 A 
ATOM     30  C   UNL A   1      40.017  29.453  31.433  1.00  0.00     0.037 A 
ATOM     31  C   UNL A   1      41.412  32.076  37.360  1.00  0.00     0.049 A 
ATOM     32  C   UNL A   1      41.187  29.345  32.378  1.00  0.00     0.074 A 
ATOM     33  C   UNL A   1      42.535  31.845  38.127  1.00  0.00     0.029 A 
ATOM     34  N   UNL A   1      41.553  31.332  36.194  1.00  0.00    -0.354 N 
ATOM     35  N   UNL A   1      41.350  29.899  33.557  1.00  0.00    -0.248 NA
ATOM     36  C   UNL A   1      42.321  28.522  31.939  1.00  0.00     0.031 C 
ATOM     37  C   UNL A   1      43.381  30.997  37.403  1.00  0.00     0.029 A 
ATOM     38  C   UNL A   1      42.760  30.661  36.207  1.00  0.00     0.049 A 
ATOM     39  H   UNL A   1      40.891  31.289  35.468  1.00  0.00     0.167 HD
ATOM     40  C   UNL A   1      42.596  29.486  34.008  1.00  0.00     0.074 A 
ATOM     41  C   UNL A   1      43.136  28.616  32.981  1.00  0.00     0.031 C 
ATOM     42  C   UNL A   1      43.244  29.798  35.158  1.00  0.00     0.037 A 
BRANCH  29  43
ATOM     43  C   UNL A   1      40.225  33.695  38.920  1.00  0.00     0.057 A 
ATOM     44  C   UNL A   1      39.445  33.296  40.013  1.00  0.00     0.134 A 
ATOM     45  C   UNL A   1      40.919  34.907  39.031  1.00  0.00     0.134 A 
ATOM     46  F   UNL A   1      38.725  32.164  39.956  1.00  0.00    -0.206 F 
ATOM     47  C   UNL A   1      39.336  34.086  41.159  1.00  0.00     0.040 A 
ATOM     48  C   UNL A   1      40.836  35.695  40.180  1.00  0.00     0.040 A 
ATOM     49  F   UNL A   1      41.672  35.355  38.016  1.00  0.00    -0.206 F 
ATOM     50  C   UNL A   1      40.036  35.289  41.246  1.00  0.00     0.006 A 
ENDBRANCH  29  43
BRANCH  30  51
ATOM     51  C   UNL A   1      39.999  28.738  30.131  1.00  0.00     0.057 A 
ATOM     52  C   UNL A   1      40.645  29.248  28.999  1.00  0.00     0.134 A 
ATOM     53  C   UNL A   1      39.305  27.528  29.977  1.00  0.00     0.134 A 
ATOM     54  F   UNL A   1      41.307  30.412  29.068  1.00  0.00    -0.206 F 
ATOM     55  C   UNL A   1      40.592  28.593  27.765  1.00  0.00     0.040 A 
ATOM     56  C   UNL A   1      39.267  26.849  28.758  1.00  0.00     0.040 A 
ATOM     57  F   UNL A   1      38.656  26.982  31.016  1.00  0.00    -0.206 F 
ATOM     58  C   UNL A   1      39.905  27.386  27.644  1.00  0.00     0.006 A 
ENDBRANCH  30  51
BRANCH  42  59
ATOM     59  C   UNL A   1      44.590  29.176  35.364  1.00  0.00     0.057 A 
ATOM     60  C   UNL A   1      44.732  27.921  35.968  1.00  0.00     0.134 A 
ATOM     61  C   UNL A   1      45.743  29.806  34.883  1.00  0.00     0.134 A 
ATOM     62  F   UNL A   1      43.662  27.276  36.457  1.00  0.00    -0.206 F 
ATOM     63  C   UNL A   1      45.981  27.318  36.096  1.00  0.00     0.040 A 
ATOM     64  C   UNL A   1      46.994  29.201  34.983  1.00  0.00     0.040 A 
ATOM     65  F   UNL A   1      45.666  31.004  34.285  1.00  0.00    -0.206 F 
ATOM     66  C   UNL A   1      47.116  27.955  35.594  1.00  0.00     0.006 A 
ENDBRANCH  42  59
ENDBRANCH  16  17
ENDBRANCH   9  11
ENDBRANCH   8   9
ENDBRANCH   7   8
ENDBRANCH   6   7
ENDBRANCH   5   6
ENDBRANCH   4   5
ENDBRANCH   3   4
ENDBRANCH   2   3
ENDBRANCH   1   2
BRANCH   1  67
ATOM     67  C   UNL A   1      33.067  29.500  25.290  1.00  0.00     0.188 C 
BRANCH  67  68
ATOM     68  O   UNL A   1      32.015  28.975  24.515  1.00  0.00    -0.376 OA
BRANCH  68  69
ATOM     69  C   UNL A   1      32.145  27.751  23.815  1.00  0.00     0.202 C 
BRANCH  69  70
ATOM     70  C   UNL A   1      33.403  26.865  23.741  1.00  0.00     0.261 C 
BRANCH  70  71
ATOM     71  O   UNL A   1      33.283  25.537  23.241  1.00  0.00    -0.462 OA
BRANCH  71  72
ATOM     72  C   UNL A   1      32.132  24.863  23.507  1.00  0.00     0.329 C 
ATOM     73  O   UNL A   1      31.161  24.832  22.755  1.00  0.00    -0.250 OA
BRANCH  72  74
ATOM     74  C   UNL A   1      32.224  24.022  24.800  1.00  0.00     0.206 C 
ATOM     75  C   UNL A   1      31.204  24.591  25.790  1.00  0.00     0.108 C 
ATOM     76  N   UNL A   1      32.034  22.564  24.675  1.00  0.00    -0.312 N 
ATOM     77  S   UNL A   1      30.478  23.213  26.706  1.00  0.00    -0.138 SA
ATOM     78  C   UNL A   1      31.326  21.941  25.763  1.00  0.00     0.191 C 
BRANCH  76  79
ATOM     79  C   UNL A   1      32.929  21.866  23.855  1.00  0.00     0.291 C 
ATOM     80  O   UNL A   1      32.666  21.744  22.656  1.00  0.00    -0.265 OA
BRANCH  79  81
ATOM     81  C   UNL A   1      34.207  21.415  24.380  1.00  0.00     0.199 A 
ATOM     82  O   UNL A   1      35.160  22.407  24.457  1.00  0.00    -0.459 OA
ATOM     83  C   UNL A   1      34.785  20.220  24.798  1.00  0.00     0.033 A 
ATOM     84  C   UNL A   1      36.314  21.861  24.896  1.00  0.00     0.196 A 
ATOM     85  C   UNL A   1      36.143  20.522  25.126  1.00  0.00     0.051 A 
BRANCH  83  86
ATOM     86  C   UNL A   1      34.210  18.891  24.808  1.00  0.00    -0.014 A 
ATOM     87  C   UNL A   1      34.787  17.884  24.018  1.00  0.00     0.009 A 
ATOM     88  C   UNL A   1      32.990  18.644  25.442  1.00  0.00     0.009 A 
ATOM     89  C   UNL A   1      34.167  16.639  23.887  1.00  0.00     0.001 A 
ATOM     90  C   UNL A   1      32.355  17.408  25.279  1.00  0.00     0.001 A 
ATOM     91  C   UNL A   1      32.946  16.404  24.514  1.00  0.00     0.000 A 
ENDBRANCH  83  86
ENDBRANCH  79  81
ENDBRANCH  76  79
ENDBRANCH  72  74
ENDBRANCH  71  72
ENDBRANCH  70  71
ENDBRANCH  69  70
ENDBRANCH  68  69
ENDBRANCH  67  68
ENDBRANCH   1  67
TORSDOF 23
ENDMDL
