MODEL 1
REMARK VINA RESULT:     -10.4      0.000      0.000
REMARK SMILES CCNC(=O)N1[C@@H](C(=O)OCCOCCOCCOCCOC(=O)c2ccc(-c3c4nc(c(-c5c(F)cccc5F)c5ccc([nH]5)c(-c5c(F)cccc5F)c5nc(c(-c6c(F)cccc6F)c6ccc3[nH]6)C=C5)C=C4)cc2)CC[C@@H]2CCCC[C@H]21
REMARK SMILES IDX 16 1 15 2 14 3 13 4 12 5 11 6 10 7 8 8 9 9 7 10 6 11 86 12
REMARK SMILES IDX 79 13 81 14 85 15 80 16 82 17 84 18 83 19 4 20 3 21 5 23
REMARK SMILES IDX 2 24 1 25 17 26 18 27 19 28 20 29 21 30 22 31 23 32 24 33
REMARK SMILES IDX 25 34 26 35 78 36 27 37 77 38 28 39 29 40 30 41 71 42 31 43
REMARK SMILES IDX 76 44 70 45 72 46 32 47 75 48 69 49 68 50 33 52 59 53 42 54
REMARK SMILES IDX 58 55 43 56 46 57 57 58 73 59 44 60 45 61 56 63 74 64 47 65
REMARK SMILES IDX 34 66 35 67 40 68 36 69 37 70 39 71 41 72 38 73 60 74 61 75
REMARK SMILES IDX 66 76 62 77 63 78 65 79 67 80 64 81 48 82 49 83 54 84 50 85
REMARK SMILES IDX 51 86 53 87 55 88 52 89
REMARK H PARENT 3 22 72 51 46 62
REMARK Flexibility Score: inf
ROOT
ATOM      1  O   UNL A   1      37.789  20.547  25.076  1.00  0.00    -0.377 OA
ENDROOT
BRANCH   1   2
ATOM      2  C   UNL A   1      36.383  20.406  24.963  1.00  0.00     0.188 C 
BRANCH   2   3
ATOM      3  C   UNL A   1      35.530  21.364  25.808  1.00  0.00     0.188 C 
BRANCH   3   4
ATOM      4  O   UNL A   1      34.439  21.984  25.168  1.00  0.00    -0.376 OA
BRANCH   4   5
ATOM      5  C   UNL A   1      34.508  23.041  24.238  1.00  0.00     0.202 C 
BRANCH   5   6
ATOM      6  C   UNL A   1      33.708  23.275  22.944  1.00  0.00     0.261 C 
BRANCH   6   7
ATOM      7  O   UNL A   1      34.011  24.343  22.055  1.00  0.00    -0.462 OA
BRANCH   7   8
ATOM      8  C   UNL A   1      33.065  25.309  21.994  1.00  0.00     0.329 C 
ATOM      9  O   UNL A   1      32.265  25.433  21.071  1.00  0.00    -0.250 OA
BRANCH   8  10
ATOM     10  C   UNL A   1      33.137  26.316  23.135  1.00  0.00     0.197 C 
ATOM     11  N   UNL A   1      32.099  26.197  24.180  1.00  0.00    -0.308 N 
ATOM     12  C   UNL A   1      32.320  27.083  25.345  1.00  0.00     0.091 C 
ATOM     13  C   UNL A   1      33.383  27.763  22.703  1.00  0.00     0.038 C 
ATOM     14  C   UNL A   1      32.753  28.529  24.974  1.00  0.00     0.012 C 
ATOM     15  C   UNL A   1      31.151  27.163  26.345  1.00  0.00     0.025 C 
ATOM     16  C   UNL A   1      33.855  28.550  23.919  1.00  0.00     0.008 C 
ATOM     17  C   UNL A   1      33.207  29.278  26.234  1.00  0.00     0.006 C 
ATOM     18  C   UNL A   1      31.530  27.964  27.592  1.00  0.00     0.002 C 
ATOM     19  C   UNL A   1      32.075  29.350  27.251  1.00  0.00     0.000 C 
BRANCH  11  20
ATOM     20  C   UNL A   1      30.816  25.868  23.794  1.00  0.00     0.318 C 
ATOM     21  N   UNL A   1      30.327  24.662  24.222  1.00  0.00    -0.338 N 
ATOM     22  H   UNL A   1      29.378  24.501  24.014  1.00  0.00     0.165 HD
ATOM     23  O   UNL A   1      30.080  26.621  23.164  1.00  0.00    -0.249 OA
BRANCH  21  24
ATOM     24  C   UNL A   1      30.987  23.581  24.938  1.00  0.00     0.114 C 
ATOM     25  C   UNL A   1      30.635  23.444  26.402  1.00  0.00     0.027 C 
ENDBRANCH  21  24
ENDBRANCH  11  20
ENDBRANCH   8  10
ENDBRANCH   7   8
ENDBRANCH   6   7
ENDBRANCH   5   6
ENDBRANCH   4   5
ENDBRANCH   3   4
ENDBRANCH   2   3
ENDBRANCH   1   2
BRANCH   1  26
ATOM     26  C   UNL A   1      38.335  21.664  25.770  1.00  0.00     0.188 C 
BRANCH  26  27
ATOM     27  C   UNL A   1      39.837  21.730  26.123  1.00  0.00     0.188 C 
BRANCH  27  28
ATOM     28  O   UNL A   1      40.362  20.551  26.703  1.00  0.00    -0.376 OA
BRANCH  28  29
ATOM     29  C   UNL A   1      41.718  20.522  27.112  1.00  0.00     0.202 C 
BRANCH  29  30
ATOM     30  C   UNL A   1      42.773  21.131  26.176  1.00  0.00     0.261 C 
BRANCH  30  31
ATOM     31  O   UNL A   1      43.406  22.342  26.620  1.00  0.00    -0.460 OA
BRANCH  31  32
ATOM     32  C   UNL A   1      43.313  23.441  25.845  1.00  0.00     0.338 C 
ATOM     33  O   UNL A   1      43.461  23.514  24.638  1.00  0.00    -0.246 OA
BRANCH  32  34
ATOM     34  C   UNL A   1      42.788  24.529  26.697  1.00  0.00     0.060 A 
ATOM     35  C   UNL A   1      43.422  25.781  26.685  1.00  0.00     0.016 A 
ATOM     36  C   UNL A   1      41.657  24.316  27.484  1.00  0.00     0.016 A 
ATOM     37  C   UNL A   1      42.933  26.819  27.478  1.00  0.00     0.010 A 
ATOM     38  C   UNL A   1      41.190  25.345  28.304  1.00  0.00     0.010 A 
ATOM     39  C   UNL A   1      41.842  26.591  28.323  1.00  0.00    -0.014 A 
BRANCH  39  40
ATOM     40  C   UNL A   1      41.506  27.571  29.381  1.00  0.00     0.031 A 
ATOM     41  C   UNL A   1      42.267  27.500  30.675  1.00  0.00     0.074 A 
ATOM     42  C   UNL A   1      40.552  28.501  29.201  1.00  0.00     0.049 A 
ATOM     43  N   UNL A   1      42.074  28.149  31.792  1.00  0.00    -0.248 NA
ATOM     44  C   UNL A   1      43.405  26.563  30.711  1.00  0.00     0.031 C 
ATOM     45  C   UNL A   1      39.793  28.714  27.971  1.00  0.00     0.029 A 
ATOM     46  N   UNL A   1      40.047  29.433  30.074  1.00  0.00    -0.354 N 
ATOM     47  C   UNL A   1      43.060  27.701  32.661  1.00  0.00     0.074 A 
ATOM     48  C   UNL A   1      43.832  26.703  31.957  1.00  0.00     0.031 C 
ATOM     49  C   UNL A   1      38.900  29.699  28.175  1.00  0.00     0.029 A 
ATOM     50  C   UNL A   1      38.994  30.152  29.562  1.00  0.00     0.049 A 
ATOM     51  H   UNL A   1      40.405  29.573  30.980  1.00  0.00     0.167 HD
ATOM     52  C   UNL A   1      43.306  28.096  33.932  1.00  0.00     0.037 A 
ATOM     53  C   UNL A   1      38.179  31.041  30.163  1.00  0.00     0.037 A 
ATOM     54  C   UNL A   1      42.527  29.082  34.632  1.00  0.00     0.049 A 
ATOM     55  C   UNL A   1      38.393  31.366  31.622  1.00  0.00     0.074 A 
ATOM     56  C   UNL A   1      42.684  29.543  35.927  1.00  0.00     0.029 A 
ATOM     57  N   UNL A   1      41.442  29.756  34.093  1.00  0.00    -0.354 N 
ATOM     58  N   UNL A   1      39.330  30.946  32.437  1.00  0.00    -0.248 NA
ATOM     59  C   UNL A   1      37.427  32.284  32.247  1.00  0.00     0.031 C 
ATOM     60  C   UNL A   1      41.663  30.459  36.189  1.00  0.00     0.029 A 
ATOM     61  C   UNL A   1      40.903  30.610  35.040  1.00  0.00     0.049 A 
ATOM     62  H   UNL A   1      41.105  29.644  33.175  1.00  0.00     0.167 HD
ATOM     63  C   UNL A   1      39.087  31.573  33.655  1.00  0.00     0.074 A 
ATOM     64  C   UNL A   1      37.926  32.415  33.467  1.00  0.00     0.031 C 
ATOM     65  C   UNL A   1      39.761  31.459  34.826  1.00  0.00     0.037 A 
BRANCH  52  66
ATOM     66  C   UNL A   1      44.451  27.453  34.653  1.00  0.00     0.057 A 
ATOM     67  C   UNL A   1      45.757  27.949  34.550  1.00  0.00     0.134 A 
ATOM     68  C   UNL A   1      44.238  26.362  35.505  1.00  0.00     0.134 A 
ATOM     69  F   UNL A   1      46.031  28.981  33.738  1.00  0.00    -0.206 F 
ATOM     70  C   UNL A   1      46.812  27.376  35.262  1.00  0.00     0.040 A 
ATOM     71  C   UNL A   1      45.280  25.797  36.242  1.00  0.00     0.040 A 
ATOM     72  F   UNL A   1      43.010  25.840  35.650  1.00  0.00    -0.206 F 
ATOM     73  C   UNL A   1      46.572  26.304  36.120  1.00  0.00     0.006 A 
ENDBRANCH  52  66
BRANCH  53  74
ATOM     74  C   UNL A   1      37.048  31.661  29.421  1.00  0.00     0.057 A 
ATOM     75  C   UNL A   1      35.865  30.952  29.176  1.00  0.00     0.134 A 
ATOM     76  C   UNL A   1      37.149  32.946  28.873  1.00  0.00     0.134 A 
ATOM     77  F   UNL A   1      35.716  29.706  29.649  1.00  0.00    -0.206 F 
ATOM     78  C   UNL A   1      34.844  31.482  28.385  1.00  0.00     0.040 A 
ATOM     79  C   UNL A   1      36.122  33.501  28.109  1.00  0.00     0.040 A 
ATOM     80  F   UNL A   1      38.256  33.680  29.064  1.00  0.00    -0.206 F 
ATOM     81  C   UNL A   1      34.969  32.762  27.851  1.00  0.00     0.006 A 
ENDBRANCH  53  74
BRANCH  65  82
ATOM     82  C   UNL A   1      39.292  32.295  35.982  1.00  0.00     0.057 A 
ATOM     83  C   UNL A   1      39.776  33.590  36.202  1.00  0.00     0.134 A 
ATOM     84  C   UNL A   1      38.295  31.821  36.844  1.00  0.00     0.134 A 
ATOM     85  F   UNL A   1      40.739  34.099  35.419  1.00  0.00    -0.206 F 
ATOM     86  C   UNL A   1      39.298  34.378  37.251  1.00  0.00     0.040 A 
ATOM     87  C   UNL A   1      37.788  32.610  37.877  1.00  0.00     0.040 A 
ATOM     88  F   UNL A   1      37.778  30.594  36.681  1.00  0.00    -0.206 F 
ATOM     89  C   UNL A   1      38.294  33.891  38.086  1.00  0.00     0.006 A 
ENDBRANCH  65  82
ENDBRANCH  39  40
ENDBRANCH  32  34
ENDBRANCH  31  32
ENDBRANCH  30  31
ENDBRANCH  29  30
ENDBRANCH  28  29
ENDBRANCH  27  28
ENDBRANCH  26  27
ENDBRANCH   1  26
TORSDOF 22
ENDMDL
MODEL 2
REMARK VINA RESULT:     -10.2      4.119      7.839
REMARK SMILES CCNC(=O)N1[C@@H](C(=O)OCCOCCOCCOCCOC(=O)c2ccc(-c3c4nc(c(-c5c(F)cccc5F)c5ccc([nH]5)c(-c5c(F)cccc5F)c5nc(c(-c6c(F)cccc6F)c6ccc3[nH]6)C=C5)C=C4)cc2)CC[C@@H]2CCCC[C@H]21
REMARK SMILES IDX 16 1 15 2 14 3 13 4 12 5 11 6 10 7 8 8 9 9 7 10 6 11 86 12
REMARK SMILES IDX 79 13 81 14 85 15 80 16 82 17 84 18 83 19 4 20 3 21 5 23
REMARK SMILES IDX 2 24 1 25 17 26 18 27 19 28 20 29 21 30 22 31 23 32 24 33
REMARK SMILES IDX 25 34 26 35 78 36 27 37 77 38 28 39 29 40 30 41 71 42 31 43
REMARK SMILES IDX 76 44 70 45 72 46 32 47 75 48 69 49 68 50 33 52 59 53 42 54
REMARK SMILES IDX 58 55 43 56 46 57 57 58 73 59 44 60 45 61 56 63 74 64 47 65
REMARK SMILES IDX 34 66 35 67 40 68 36 69 37 70 39 71 41 72 38 73 60 74 61 75
REMARK SMILES IDX 66 76 62 77 63 78 65 79 67 80 64 81 48 82 49 83 54 84 50 85
REMARK SMILES IDX 51 86 53 87 55 88 52 89
REMARK H PARENT 3 22 72 51 46 62
REMARK Flexibility Score: inf
ROOT
ATOM      1  O   UNL A   1      35.311  23.218  26.659  1.00  0.00    -0.377 OA
ENDROOT
BRANCH   1   2
ATOM      2  C   UNL A   1      33.968  22.853  26.387  1.00  0.00     0.188 C 
BRANCH   2   3
ATOM      3  C   UNL A   1      33.622  22.568  24.917  1.00  0.00     0.188 C 
BRANCH   3   4
ATOM      4  O   UNL A   1      32.257  22.562  24.570  1.00  0.00    -0.376 OA
BRANCH   4   5
ATOM      5  C   UNL A   1      31.692  23.097  23.394  1.00  0.00     0.202 C 
BRANCH   5   6
ATOM      6  C   UNL A   1      30.809  24.341  23.197  1.00  0.00     0.261 C 
BRANCH   6   7
ATOM      7  O   UNL A   1      31.176  25.392  22.312  1.00  0.00    -0.462 OA
BRANCH   7   8
ATOM      8  C   UNL A   1      32.439  25.850  22.476  1.00  0.00     0.329 C 
ATOM      9  O   UNL A   1      33.349  25.660  21.675  1.00  0.00    -0.250 OA
BRANCH   8  10
ATOM     10  C   UNL A   1      32.673  26.549  23.808  1.00  0.00     0.197 C 
ATOM     11  N   UNL A   1      32.290  27.974  23.877  1.00  0.00    -0.308 N 
ATOM     12  C   UNL A   1      32.377  28.551  25.238  1.00  0.00     0.091 C 
ATOM     13  C   UNL A   1      34.033  26.268  24.453  1.00  0.00     0.038 C 
ATOM     14  C   UNL A   1      33.659  28.151  26.019  1.00  0.00     0.012 C 
ATOM     15  C   UNL A   1      32.211  30.080  25.319  1.00  0.00     0.025 C 
ATOM     16  C   UNL A   1      33.953  26.656  25.924  1.00  0.00     0.008 C 
ATOM     17  C   UNL A   1      33.530  28.575  27.489  1.00  0.00     0.006 C 
ATOM     18  C   UNL A   1      32.150  30.564  26.769  1.00  0.00     0.002 C 
ATOM     19  C   UNL A   1      33.341  30.083  27.595  1.00  0.00     0.000 C 
BRANCH  11  20
ATOM     20  C   UNL A   1      32.518  28.768  22.773  1.00  0.00     0.318 C 
ATOM     21  N   UNL A   1      31.418  29.292  22.145  1.00  0.00    -0.338 N 
ATOM     22  H   UNL A   1      31.618  29.931  21.423  1.00  0.00     0.165 HD
ATOM     23  O   UNL A   1      33.637  29.084  22.380  1.00  0.00    -0.249 OA
BRANCH  21  24
ATOM     24  C   UNL A   1      30.002  29.054  22.376  1.00  0.00     0.114 C 
ATOM     25  C   UNL A   1      29.131  30.287  22.473  1.00  0.00     0.027 C 
ENDBRANCH  21  24
ENDBRANCH  11  20
ENDBRANCH   8  10
ENDBRANCH   7   8
ENDBRANCH   6   7
ENDBRANCH   5   6
ENDBRANCH   4   5
ENDBRANCH   3   4
ENDBRANCH   2   3
ENDBRANCH   1   2
BRANCH   1  26
ATOM     26  C   UNL A   1      36.216  23.441  25.582  1.00  0.00     0.188 C 
BRANCH  26  27
ATOM     27  C   UNL A   1      37.722  23.670  25.837  1.00  0.00     0.188 C 
BRANCH  27  28
ATOM     28  O   UNL A   1      38.513  22.498  25.797  1.00  0.00    -0.376 OA
BRANCH  28  29
ATOM     29  C   UNL A   1      37.961  21.304  25.271  1.00  0.00     0.202 C 
BRANCH  29  30
ATOM     30  C   UNL A   1      38.785  20.012  25.378  1.00  0.00     0.261 C 
BRANCH  30  31
ATOM     31  O   UNL A   1      39.725  19.936  26.462  1.00  0.00    -0.460 OA
BRANCH  31  32
ATOM     32  C   UNL A   1      41.029  19.748  26.173  1.00  0.00     0.338 C 
ATOM     33  O   UNL A   1      41.528  18.824  25.555  1.00  0.00    -0.246 OA
BRANCH  32  34
ATOM     34  C   UNL A   1      41.742  20.982  26.566  1.00  0.00     0.060 A 
ATOM     35  C   UNL A   1      42.050  21.199  27.917  1.00  0.00     0.016 A 
ATOM     36  C   UNL A   1      42.126  21.906  25.595  1.00  0.00     0.016 A 
ATOM     37  C   UNL A   1      42.730  22.355  28.301  1.00  0.00     0.010 A 
ATOM     38  C   UNL A   1      42.775  23.079  25.985  1.00  0.00     0.010 A 
ATOM     39  C   UNL A   1      43.055  23.319  27.341  1.00  0.00    -0.014 A 
BRANCH  39  40
ATOM     40  C   UNL A   1      43.495  24.669  27.765  1.00  0.00     0.031 A 
ATOM     41  C   UNL A   1      42.435  25.676  28.113  1.00  0.00     0.074 A 
ATOM     42  C   UNL A   1      44.797  24.994  27.840  1.00  0.00     0.049 A 
ATOM     43  N   UNL A   1      42.553  26.951  28.380  1.00  0.00    -0.248 NA
ATOM     44  C   UNL A   1      41.050  25.175  28.166  1.00  0.00     0.031 C 
ATOM     45  C   UNL A   1      45.914  24.086  27.593  1.00  0.00     0.029 A 
ATOM     46  N   UNL A   1      45.395  26.195  28.131  1.00  0.00    -0.354 N 
ATOM     47  C   UNL A   1      41.263  27.401  28.631  1.00  0.00     0.074 A 
ATOM     48  C   UNL A   1      40.373  26.277  28.454  1.00  0.00     0.031 C 
ATOM     49  C   UNL A   1      47.067  24.771  27.719  1.00  0.00     0.029 A 
ATOM     50  C   UNL A   1      46.763  26.171  28.009  1.00  0.00     0.049 A 
ATOM     51  H   UNL A   1      44.891  26.997  28.400  1.00  0.00     0.167 HD
ATOM     52  C   UNL A   1      40.860  28.643  28.987  1.00  0.00     0.037 A 
ATOM     53  C   UNL A   1      47.656  27.178  28.083  1.00  0.00     0.037 A 
ATOM     54  C   UNL A   1      41.749  29.761  29.150  1.00  0.00     0.049 A 
ATOM     55  C   UNL A   1      47.165  28.580  28.352  1.00  0.00     0.074 A 
ATOM     56  C   UNL A   1      41.438  31.065  29.494  1.00  0.00     0.029 A 
ATOM     57  N   UNL A   1      43.123  29.706  28.976  1.00  0.00    -0.354 N 
ATOM     58  N   UNL A   1      45.947  29.000  28.595  1.00  0.00    -0.248 NA
ATOM     59  C   UNL A   1      48.174  29.651  28.345  1.00  0.00     0.031 C 
ATOM     60  C   UNL A   1      42.619  31.811  29.479  1.00  0.00     0.029 A 
ATOM     61  C   UNL A   1      43.672  30.961  29.180  1.00  0.00     0.049 A 
ATOM     62  H   UNL A   1      43.632  28.897  28.742  1.00  0.00     0.167 HD
ATOM     63  C   UNL A   1      46.050  30.371  28.804  1.00  0.00     0.074 A 
ATOM     64  C   UNL A   1      47.450  30.709  28.677  1.00  0.00     0.031 C 
ATOM     65  C   UNL A   1      45.073  31.273  29.072  1.00  0.00     0.037 A 
BRANCH  52  66
ATOM     66  C   UNL A   1      39.394  28.862  29.209  1.00  0.00     0.057 A 
ATOM     67  C   UNL A   1      38.811  28.710  30.473  1.00  0.00     0.134 A 
ATOM     68  C   UNL A   1      38.567  29.287  28.162  1.00  0.00     0.134 A 
ATOM     69  F   UNL A   1      39.544  28.288  31.515  1.00  0.00    -0.206 F 
ATOM     70  C   UNL A   1      37.454  28.962  30.685  1.00  0.00     0.040 A 
ATOM     71  C   UNL A   1      37.216  29.569  28.366  1.00  0.00     0.040 A 
ATOM     72  F   UNL A   1      39.064  29.455  26.926  1.00  0.00    -0.206 F 
ATOM     73  C   UNL A   1      36.655  29.404  29.632  1.00  0.00     0.006 A 
ENDBRANCH  52  66
BRANCH  53  74
ATOM     74  C   UNL A   1      49.106  26.929  27.855  1.00  0.00     0.057 A 
ATOM     75  C   UNL A   1      49.654  26.960  26.566  1.00  0.00     0.134 A 
ATOM     76  C   UNL A   1      49.962  26.578  28.906  1.00  0.00     0.134 A 
ATOM     77  F   UNL A   1      48.880  27.261  25.513  1.00  0.00    -0.206 F 
ATOM     78  C   UNL A   1      50.985  26.617  26.327  1.00  0.00     0.040 A 
ATOM     79  C   UNL A   1      51.305  26.266  28.685  1.00  0.00     0.040 A 
ATOM     80  F   UNL A   1      49.504  26.523  30.165  1.00  0.00    -0.206 F 
ATOM     81  C   UNL A   1      51.816  26.271  27.389  1.00  0.00     0.006 A 
ENDBRANCH  53  74
BRANCH  65  82
ATOM     82  C   UNL A   1      45.485  32.700  29.292  1.00  0.00     0.057 A 
ATOM     83  C   UNL A   1      45.916  33.160  30.542  1.00  0.00     0.134 A 
ATOM     84  C   UNL A   1      45.513  33.605  28.224  1.00  0.00     0.134 A 
ATOM     85  F   UNL A   1      45.902  32.347  31.609  1.00  0.00    -0.206 F 
ATOM     86  C   UNL A   1      46.343  34.477  30.726  1.00  0.00     0.040 A 
ATOM     87  C   UNL A   1      45.967  34.914  28.388  1.00  0.00     0.040 A 
ATOM     88  F   UNL A   1      45.126  33.225  26.997  1.00  0.00    -0.206 F 
ATOM     89  C   UNL A   1      46.378  35.355  29.643  1.00  0.00     0.006 A 
ENDBRANCH  65  82
ENDBRANCH  39  40
ENDBRANCH  32  34
ENDBRANCH  31  32
ENDBRANCH  30  31
ENDBRANCH  29  30
ENDBRANCH  28  29
ENDBRANCH  27  28
ENDBRANCH  26  27
ENDBRANCH   1  26
TORSDOF 22
ENDMDL
MODEL 3
REMARK VINA RESULT:     -10.2      3.973      5.606
REMARK SMILES CCNC(=O)N1[C@@H](C(=O)OCCOCCOCCOCCOC(=O)c2ccc(-c3c4nc(c(-c5c(F)cccc5F)c5ccc([nH]5)c(-c5c(F)cccc5F)c5nc(c(-c6c(F)cccc6F)c6ccc3[nH]6)C=C5)C=C4)cc2)CC[C@@H]2CCCC[C@H]21
REMARK SMILES IDX 16 1 15 2 14 3 13 4 12 5 11 6 10 7 8 8 9 9 7 10 6 11 86 12
REMARK SMILES IDX 79 13 81 14 85 15 80 16 82 17 84 18 83 19 4 20 3 21 5 23
REMARK SMILES IDX 2 24 1 25 17 26 18 27 19 28 20 29 21 30 22 31 23 32 24 33
REMARK SMILES IDX 25 34 26 35 78 36 27 37 77 38 28 39 29 40 30 41 71 42 31 43
REMARK SMILES IDX 76 44 70 45 72 46 32 47 75 48 69 49 68 50 33 52 59 53 42 54
REMARK SMILES IDX 58 55 43 56 46 57 57 58 73 59 44 60 45 61 56 63 74 64 47 65
REMARK SMILES IDX 34 66 35 67 40 68 36 69 37 70 39 71 41 72 38 73 60 74 61 75
REMARK SMILES IDX 66 76 62 77 63 78 65 79 67 80 64 81 48 82 49 83 54 84 50 85
REMARK SMILES IDX 51 86 53 87 55 88 52 89
REMARK H PARENT 3 22 72 51 46 62
REMARK Flexibility Score: inf
ROOT
ATOM      1  O   UNL A   1      35.245  22.830  26.512  1.00  0.00    -0.377 OA
ENDROOT
BRANCH   1   2
ATOM      2  C   UNL A   1      33.920  22.414  26.230  1.00  0.00     0.188 C 
BRANCH   2   3
ATOM      3  C   UNL A   1      33.584  22.155  24.753  1.00  0.00     0.188 C 
BRANCH   3   4
ATOM      4  O   UNL A   1      32.232  22.258  24.376  1.00  0.00    -0.376 OA
BRANCH   4   5
ATOM      5  C   UNL A   1      31.730  22.928  23.241  1.00  0.00     0.202 C 
BRANCH   5   6
ATOM      6  C   UNL A   1      30.836  24.176  23.143  1.00  0.00     0.261 C 
BRANCH   6   7
ATOM      7  O   UNL A   1      31.174  25.280  22.313  1.00  0.00    -0.462 OA
BRANCH   7   8
ATOM      8  C   UNL A   1      32.432  25.748  22.484  1.00  0.00     0.329 C 
ATOM      9  O   UNL A   1      33.352  25.553  21.694  1.00  0.00    -0.250 OA
BRANCH   8  10
ATOM     10  C   UNL A   1      32.650  26.464  23.810  1.00  0.00     0.197 C 
ATOM     11  N   UNL A   1      32.260  27.888  23.857  1.00  0.00    -0.308 N 
ATOM     12  C   UNL A   1      32.329  28.482  25.211  1.00  0.00     0.091 C 
ATOM     13  C   UNL A   1      34.003  26.196  24.473  1.00  0.00     0.038 C 
ATOM     14  C   UNL A   1      33.605  28.097  26.011  1.00  0.00     0.012 C 
ATOM     15  C   UNL A   1      32.157  30.012  25.271  1.00  0.00     0.025 C 
ATOM     16  C   UNL A   1      33.905  26.603  25.938  1.00  0.00     0.008 C 
ATOM     17  C   UNL A   1      33.458  28.539  27.474  1.00  0.00     0.006 C 
ATOM     18  C   UNL A   1      32.077  30.514  26.714  1.00  0.00     0.002 C 
ATOM     19  C   UNL A   1      33.261  30.048  27.559  1.00  0.00     0.000 C 
BRANCH  11  20
ATOM     20  C   UNL A   1      32.497  28.669  22.745  1.00  0.00     0.318 C 
ATOM     21  N   UNL A   1      31.403  29.192  22.107  1.00  0.00    -0.338 N 
ATOM     22  H   UNL A   1      31.610  29.823  21.379  1.00  0.00     0.165 HD
ATOM     23  O   UNL A   1      33.620  28.976  22.355  1.00  0.00    -0.249 OA
BRANCH  21  24
ATOM     24  C   UNL A   1      29.984  28.964  22.333  1.00  0.00     0.114 C 
ATOM     25  C   UNL A   1      29.157  30.192  22.637  1.00  0.00     0.027 C 
ENDBRANCH  21  24
ENDBRANCH  11  20
ENDBRANCH   8  10
ENDBRANCH   7   8
ENDBRANCH   6   7
ENDBRANCH   5   6
ENDBRANCH   4   5
ENDBRANCH   3   4
ENDBRANCH   2   3
ENDBRANCH   1   2
BRANCH   1  26
ATOM     26  C   UNL A   1      36.191  22.946  25.454  1.00  0.00     0.188 C 
BRANCH  26  27
ATOM     27  C   UNL A   1      37.678  23.250  25.739  1.00  0.00     0.188 C 
BRANCH  27  28
ATOM     28  O   UNL A   1      38.520  22.114  25.765  1.00  0.00    -0.376 OA
BRANCH  28  29
ATOM     29  C   UNL A   1      38.104  20.926  25.116  1.00  0.00     0.202 C 
BRANCH  29  30
ATOM     30  C   UNL A   1      39.013  19.691  25.207  1.00  0.00     0.261 C 
BRANCH  30  31
ATOM     31  O   UNL A   1      39.845  19.587  26.373  1.00  0.00    -0.460 OA
BRANCH  31  32
ATOM     32  C   UNL A   1      41.181  19.505  26.208  1.00  0.00     0.338 C 
ATOM     33  O   UNL A   1      41.814  18.591  25.709  1.00  0.00    -0.246 OA
BRANCH  32  34
ATOM     34  C   UNL A   1      41.742  20.827  26.558  1.00  0.00     0.060 A 
ATOM     35  C   UNL A   1      41.826  21.206  27.906  1.00  0.00     0.016 A 
ATOM     36  C   UNL A   1      42.208  21.676  25.554  1.00  0.00     0.016 A 
ATOM     37  C   UNL A   1      42.361  22.447  28.251  1.00  0.00     0.010 A 
ATOM     38  C   UNL A   1      42.711  22.932  25.899  1.00  0.00     0.010 A 
ATOM     39  C   UNL A   1      42.764  23.332  27.245  1.00  0.00    -0.014 A 
BRANCH  39  40
ATOM     40  C   UNL A   1      43.044  24.749  27.573  1.00  0.00     0.031 A 
ATOM     41  C   UNL A   1      44.481  25.184  27.643  1.00  0.00     0.074 A 
ATOM     42  C   UNL A   1      42.053  25.628  27.801  1.00  0.00     0.049 A 
ATOM     43  N   UNL A   1      44.988  26.323  28.037  1.00  0.00    -0.248 NA
ATOM     44  C   UNL A   1      45.484  24.195  27.211  1.00  0.00     0.031 C 
ATOM     45  C   UNL A   1      40.624  25.342  27.696  1.00  0.00     0.029 A 
ATOM     46  N   UNL A   1      42.107  26.943  28.189  1.00  0.00    -0.354 N 
ATOM     47  C   UNL A   1      46.363  26.187  27.900  1.00  0.00     0.074 A 
ATOM     48  C   UNL A   1      46.617  24.848  27.419  1.00  0.00     0.031 C 
ATOM     49  C   UNL A   1      39.933  26.446  28.037  1.00  0.00     0.029 A 
ATOM     50  C   UNL A   1      40.872  27.497  28.427  1.00  0.00     0.049 A 
ATOM     51  H   UNL A   1      42.950  27.442  28.288  1.00  0.00     0.167 HD
ATOM     52  C   UNL A   1      47.328  27.104  28.146  1.00  0.00     0.037 A 
ATOM     53  C   UNL A   1      40.548  28.700  28.941  1.00  0.00     0.037 A 
ATOM     54  C   UNL A   1      47.071  28.430  28.636  1.00  0.00     0.049 A 
ATOM     55  C   UNL A   1      41.650  29.655  29.331  1.00  0.00     0.074 A 
ATOM     56  C   UNL A   1      47.979  29.431  28.932  1.00  0.00     0.029 A 
ATOM     57  N   UNL A   1      45.809  28.939  28.906  1.00  0.00    -0.354 N 
ATOM     58  N   UNL A   1      42.947  29.526  29.194  1.00  0.00    -0.248 NA
ATOM     59  C   UNL A   1      41.241  30.922  29.959  1.00  0.00     0.031 C 
ATOM     60  C   UNL A   1      47.272  30.529  29.428  1.00  0.00     0.029 A 
ATOM     61  C   UNL A   1      45.918  30.231  29.390  1.00  0.00     0.049 A 
ATOM     62  H   UNL A   1      44.963  28.454  28.773  1.00  0.00     0.167 HD
ATOM     63  C   UNL A   1      43.503  30.704  29.683  1.00  0.00     0.074 A 
ATOM     64  C   UNL A   1      42.402  31.542  30.104  1.00  0.00     0.031 C 
ATOM     65  C   UNL A   1      44.808  31.059  29.781  1.00  0.00     0.037 A 
BRANCH  52  66
ATOM     66  C   UNL A   1      48.751  26.699  27.904  1.00  0.00     0.057 A 
ATOM     67  C   UNL A   1      49.387  26.942  26.680  1.00  0.00     0.134 A 
ATOM     68  C   UNL A   1      49.512  26.114  28.924  1.00  0.00     0.134 A 
ATOM     69  F   UNL A   1      48.709  27.484  25.657  1.00  0.00    -0.206 F 
ATOM     70  C   UNL A   1      50.726  26.608  26.476  1.00  0.00     0.040 A 
ATOM     71  C   UNL A   1      50.859  25.800  28.741  1.00  0.00     0.040 A 
ATOM     72  F   UNL A   1      48.964  25.857  30.122  1.00  0.00    -0.206 F 
ATOM     73  C   UNL A   1      51.470  26.046  27.512  1.00  0.00     0.006 A 
ENDBRANCH  52  66
BRANCH  53  74
ATOM     74  C   UNL A   1      39.125  29.071  29.172  1.00  0.00     0.057 A 
ATOM     75  C   UNL A   1      38.515  28.871  30.418  1.00  0.00     0.134 A 
ATOM     76  C   UNL A   1      38.320  29.562  28.137  1.00  0.00     0.134 A 
ATOM     77  F   UNL A   1      39.225  28.376  31.443  1.00  0.00    -0.206 F 
ATOM     78  C   UNL A   1      37.154  29.109  30.615  1.00  0.00     0.040 A 
ATOM     79  C   UNL A   1      36.964  29.837  28.329  1.00  0.00     0.040 A 
ATOM     80  F   UNL A   1      38.837  29.774  26.918  1.00  0.00    -0.206 F 
ATOM     81  C   UNL A   1      36.375  29.596  29.568  1.00  0.00     0.006 A 
ENDBRANCH  53  74
BRANCH  65  82
ATOM     82  C   UNL A   1      45.118  32.426  30.320  1.00  0.00     0.057 A 
ATOM     83  C   UNL A   1      45.393  32.641  31.675  1.00  0.00     0.134 A 
ATOM     84  C   UNL A   1      45.205  33.528  29.459  1.00  0.00     0.134 A 
ATOM     85  F   UNL A   1      45.315  31.631  32.555  1.00  0.00    -0.206 F 
ATOM     86  C   UNL A   1      45.727  33.908  32.159  1.00  0.00     0.040 A 
ATOM     87  C   UNL A   1      45.568  34.791  29.925  1.00  0.00     0.040 A 
ATOM     88  F   UNL A   1      44.966  33.388  28.146  1.00  0.00    -0.206 F 
ATOM     89  C   UNL A   1      45.824  34.985  31.280  1.00  0.00     0.006 A 
ENDBRANCH  65  82
ENDBRANCH  39  40
ENDBRANCH  32  34
ENDBRANCH  31  32
ENDBRANCH  30  31
ENDBRANCH  29  30
ENDBRANCH  28  29
ENDBRANCH  27  28
ENDBRANCH  26  27
ENDBRANCH   1  26
TORSDOF 22
ENDMDL
