MODEL 1
REMARK VINA RESULT:     -10.6      0.000      0.000
REMARK SMILES Cc1cc([C@H](O)CC2(CC(=O)OCCOCCOCCOCCOC(=O)c3ccc(-c4c5nc(c(-c6c(F)cccc6F)c6ccc([nH]6)c(-c6c(F)cccc6F)c6nc(c(-c7c(F)cccc7F)c7ccc4[nH]7)C=C6)C=C5)cc3)CCCC2)ccc1F
REMARK SMILES IDX 17 1 16 2 15 3 14 4 13 5 12 6 10 7 11 8 9 9 8 10 81 11 84 12
REMARK SMILES IDX 82 13 83 14 7 15 5 16 4 17 1 18 2 19 3 20 87 21 86 22 88 23
REMARK SMILES IDX 85 24 6 25 18 27 19 28 20 29 21 30 22 31 23 32 24 33 25 34
REMARK SMILES IDX 26 35 27 36 28 37 80 38 29 39 79 40 30 41 31 42 32 43 73 44
REMARK SMILES IDX 33 45 78 46 72 47 74 48 34 49 77 50 71 51 70 52 35 54 61 55
REMARK SMILES IDX 44 56 60 57 45 58 48 59 59 60 75 61 46 62 47 63 58 65 76 66
REMARK SMILES IDX 49 67 36 68 37 69 42 70 38 71 39 72 41 73 43 74 40 75 62 76
REMARK SMILES IDX 63 77 68 78 64 79 65 80 67 81 69 82 66 83 50 84 51 85 56 86
REMARK SMILES IDX 52 87 53 88 55 89 57 90 54 91
REMARK H PARENT 6 26 74 53 48 64
REMARK Flexibility Score: inf
ROOT
ATOM      1  C   UNL A   1      40.402  21.513  27.153  1.00  0.00     0.188 C 
ENDROOT
BRANCH   1   2
ATOM      2  C   UNL A   1      39.351  21.907  26.089  1.00  0.00     0.188 C 
BRANCH   2   3
ATOM      3  O   UNL A   1      38.569  23.091  26.210  1.00  0.00    -0.376 OA
BRANCH   3   4
ATOM      4  C   UNL A   1      37.191  23.054  25.895  1.00  0.00     0.202 C 
BRANCH   4   5
ATOM      5  C   UNL A   1      36.685  21.872  25.043  1.00  0.00     0.261 C 
BRANCH   5   6
ATOM      6  O   UNL A   1      35.809  20.934  25.709  1.00  0.00    -0.463 OA
BRANCH   6   7
ATOM      7  C   UNL A   1      34.668  21.450  26.207  1.00  0.00     0.306 C 
ATOM      8  O   UNL A   1      34.459  21.587  27.411  1.00  0.00    -0.252 OA
BRANCH   7   9
ATOM      9  C   UNL A   1      33.604  21.878  25.194  1.00  0.00     0.129 C 
BRANCH   9  10
ATOM     10  C   UNL A   1      32.914  23.286  24.979  1.00  0.00    -0.016 C 
ATOM     11  C   UNL A   1      32.198  23.188  23.596  1.00  0.00     0.008 C 
ATOM     12  C   UNL A   1      33.872  24.457  24.679  1.00  0.00     0.008 C 
ATOM     13  C   UNL A   1      33.286  23.428  22.552  1.00  0.00     0.001 C 
ATOM     14  C   UNL A   1      34.354  24.263  23.246  1.00  0.00     0.001 C 
BRANCH  10  15
ATOM     15  C   UNL A   1      31.819  23.569  26.103  1.00  0.00     0.044 C 
BRANCH  15  16
ATOM     16  C   UNL A   1      30.623  24.501  25.743  1.00  0.00     0.145 C 
BRANCH  16  17
ATOM     17  C   UNL A   1      30.854  26.000  25.582  1.00  0.00    -0.019 A 
ATOM     18  C   UNL A   1      32.365  29.102  27.247  1.00  0.00     0.047 C 
ATOM     19  C   UNL A   1      31.660  28.203  26.275  1.00  0.00    -0.015 A 
ATOM     20  C   UNL A   1      31.503  26.821  26.518  1.00  0.00     0.012 A 
ATOM     21  C   UNL A   1      31.188  28.747  25.075  1.00  0.00     0.126 A 
ATOM     22  C   UNL A   1      30.507  27.967  24.157  1.00  0.00     0.040 A 
ATOM     23  F   UNL A   1      31.398  30.041  24.796  1.00  0.00    -0.207 F 
ATOM     24  C   UNL A   1      30.317  26.613  24.428  1.00  0.00     0.009 A 
ENDBRANCH  16  17
BRANCH  16  25
ATOM     25  O   UNL A   1      29.585  24.366  26.706  1.00  0.00    -0.388 OA
ATOM     26  H   UNL A   1      28.733  24.584  26.296  1.00  0.00     0.211 HD
ENDBRANCH  16  25
ENDBRANCH  15  16
ENDBRANCH  10  15
ENDBRANCH   9  10
ENDBRANCH   7   9
ENDBRANCH   6   7
ENDBRANCH   5   6
ENDBRANCH   4   5
ENDBRANCH   3   4
ENDBRANCH   2   3
ENDBRANCH   1   2
BRANCH   1  27
ATOM     27  O   UNL A   1      41.569  20.878  26.673  1.00  0.00    -0.377 OA
BRANCH  27  28
ATOM     28  C   UNL A   1      41.471  19.561  26.166  1.00  0.00     0.188 C 
BRANCH  28  29
ATOM     29  C   UNL A   1      42.587  18.536  26.444  1.00  0.00     0.188 C 
BRANCH  29  30
ATOM     30  O   UNL A   1      43.377  18.211  25.309  1.00  0.00    -0.376 OA
BRANCH  30  31
ATOM     31  C   UNL A   1      44.664  18.780  25.165  1.00  0.00     0.202 C 
BRANCH  31  32
ATOM     32  C   UNL A   1      44.741  20.016  24.261  1.00  0.00     0.261 C 
BRANCH  32  33
ATOM     33  O   UNL A   1      44.304  21.238  24.844  1.00  0.00    -0.460 OA
BRANCH  33  34
ATOM     34  C   UNL A   1      44.816  22.316  24.232  1.00  0.00     0.338 C 
ATOM     35  O   UNL A   1      44.542  22.711  23.115  1.00  0.00    -0.246 OA
BRANCH  34  36
ATOM     36  C   UNL A   1      45.844  22.952  25.072  1.00  0.00     0.060 A 
ATOM     37  C   UNL A   1      45.718  22.623  26.426  1.00  0.00     0.016 A 
ATOM     38  C   UNL A   1      46.302  24.190  24.631  1.00  0.00     0.016 A 
ATOM     39  C   UNL A   1      45.590  23.662  27.309  1.00  0.00     0.010 A 
ATOM     40  C   UNL A   1      46.170  25.229  25.506  1.00  0.00     0.010 A 
ATOM     41  C   UNL A   1      45.698  24.950  26.791  1.00  0.00    -0.014 A 
BRANCH  41  42
ATOM     42  C   UNL A   1      45.318  26.091  27.571  1.00  0.00     0.031 A 
ATOM     43  C   UNL A   1      43.930  26.526  27.445  1.00  0.00     0.074 A 
ATOM     44  C   UNL A   1      46.246  26.727  28.314  1.00  0.00     0.049 A 
ATOM     45  N   UNL A   1      43.560  27.753  27.486  1.00  0.00    -0.248 NA
ATOM     46  C   UNL A   1      42.854  25.593  27.123  1.00  0.00     0.031 C 
ATOM     47  C   UNL A   1      46.014  27.727  29.341  1.00  0.00     0.029 A 
ATOM     48  N   UNL A   1      47.633  26.706  28.147  1.00  0.00    -0.354 N 
ATOM     49  C   UNL A   1      42.189  27.738  27.552  1.00  0.00     0.074 A 
ATOM     50  C   UNL A   1      41.794  26.404  27.166  1.00  0.00     0.031 C 
ATOM     51  C   UNL A   1      47.161  28.383  29.576  1.00  0.00     0.029 A 
ATOM     52  C   UNL A   1      48.134  27.939  28.590  1.00  0.00     0.049 A 
ATOM     53  H   UNL A   1      48.163  25.959  27.783  1.00  0.00     0.167 HD
ATOM     54  C   UNL A   1      41.558  28.792  28.135  1.00  0.00     0.037 A 
ATOM     55  C   UNL A   1      48.809  28.775  27.749  1.00  0.00     0.037 A 
ATOM     56  C   UNL A   1      42.535  29.772  28.593  1.00  0.00     0.049 A 
ATOM     57  C   UNL A   1      48.106  30.092  27.533  1.00  0.00     0.074 A 
ATOM     58  C   UNL A   1      43.175  29.920  29.814  1.00  0.00     0.029 A 
ATOM     59  N   UNL A   1      43.270  30.503  27.671  1.00  0.00    -0.354 N 
ATOM     60  N   UNL A   1      46.820  30.259  27.675  1.00  0.00    -0.248 NA
ATOM     61  C   UNL A   1      48.793  31.325  27.167  1.00  0.00     0.031 C 
ATOM     62  C   UNL A   1      44.298  30.758  29.626  1.00  0.00     0.029 A 
ATOM     63  C   UNL A   1      44.336  31.124  28.292  1.00  0.00     0.049 A 
ATOM     64  H   UNL A   1      43.061  30.569  26.711  1.00  0.00     0.167 HD
ATOM     65  C   UNL A   1      46.500  31.577  27.451  1.00  0.00     0.074 A 
ATOM     66  C   UNL A   1      47.773  32.201  27.145  1.00  0.00     0.031 C 
ATOM     67  C   UNL A   1      45.210  32.022  27.553  1.00  0.00     0.037 A 
BRANCH  54  68
ATOM     68  C   UNL A   1      40.136  28.735  28.617  1.00  0.00     0.057 A 
ATOM     69  C   UNL A   1      39.080  29.145  27.781  1.00  0.00     0.134 A 
ATOM     70  C   UNL A   1      39.745  28.323  29.901  1.00  0.00     0.134 A 
ATOM     71  F   UNL A   1      39.281  29.489  26.503  1.00  0.00    -0.206 F 
ATOM     72  C   UNL A   1      37.755  29.231  28.217  1.00  0.00     0.040 A 
ATOM     73  C   UNL A   1      38.428  28.444  30.366  1.00  0.00     0.040 A 
ATOM     74  F   UNL A   1      40.614  27.751  30.747  1.00  0.00    -0.206 F 
ATOM     75  C   UNL A   1      37.427  28.909  29.524  1.00  0.00     0.006 A 
ENDBRANCH  54  68
BRANCH  55  76
ATOM     76  C   UNL A   1      49.628  28.071  26.732  1.00  0.00     0.057 A 
ATOM     77  C   UNL A   1      50.867  27.537  27.127  1.00  0.00     0.134 A 
ATOM     78  C   UNL A   1      49.069  27.584  25.545  1.00  0.00     0.134 A 
ATOM     79  F   UNL A   1      51.452  27.960  28.260  1.00  0.00    -0.206 F 
ATOM     80  C   UNL A   1      51.475  26.490  26.433  1.00  0.00     0.040 A 
ATOM     81  C   UNL A   1      49.668  26.534  24.843  1.00  0.00     0.040 A 
ATOM     82  F   UNL A   1      47.884  28.036  25.111  1.00  0.00    -0.206 F 
ATOM     83  C   UNL A   1      50.859  25.969  25.302  1.00  0.00     0.006 A 
ENDBRANCH  55  76
BRANCH  67  84
ATOM     84  C   UNL A   1      44.628  33.346  27.089  1.00  0.00     0.057 A 
ATOM     85  C   UNL A   1      43.986  33.560  25.864  1.00  0.00     0.134 A 
ATOM     86  C   UNL A   1      44.576  34.458  27.974  1.00  0.00     0.134 A 
ATOM     87  F   UNL A   1      43.853  32.590  24.953  1.00  0.00    -0.206 F 
ATOM     88  C   UNL A   1      43.382  34.783  25.528  1.00  0.00     0.040 A 
ATOM     89  C   UNL A   1      43.919  35.654  27.676  1.00  0.00     0.040 A 
ATOM     90  F   UNL A   1      45.139  34.435  29.190  1.00  0.00    -0.206 F 
ATOM     91  C   UNL A   1      43.330  35.827  26.440  1.00  0.00     0.006 A 
ENDBRANCH  67  84
ENDBRANCH  41  42
ENDBRANCH  34  36
ENDBRANCH  33  34
ENDBRANCH  32  33
ENDBRANCH  31  32
ENDBRANCH  30  31
ENDBRANCH  29  30
ENDBRANCH  28  29
ENDBRANCH  27  28
ENDBRANCH   1  27
TORSDOF 25
ENDMDL
MODEL 2
REMARK VINA RESULT:     -10.0      4.902     10.299
REMARK SMILES Cc1cc([C@H](O)CC2(CC(=O)OCCOCCOCCOCCOC(=O)c3ccc(-c4c5nc(c(-c6c(F)cccc6F)c6ccc([nH]6)c(-c6c(F)cccc6F)c6nc(c(-c7c(F)cccc7F)c7ccc4[nH]7)C=C6)C=C5)cc3)CCCC2)ccc1F
REMARK SMILES IDX 17 1 16 2 15 3 14 4 13 5 12 6 10 7 11 8 9 9 8 10 81 11 84 12
REMARK SMILES IDX 82 13 83 14 7 15 5 16 4 17 1 18 2 19 3 20 87 21 86 22 88 23
REMARK SMILES IDX 85 24 6 25 18 27 19 28 20 29 21 30 22 31 23 32 24 33 25 34
REMARK SMILES IDX 26 35 27 36 28 37 80 38 29 39 79 40 30 41 31 42 32 43 73 44
REMARK SMILES IDX 33 45 78 46 72 47 74 48 34 49 77 50 71 51 70 52 35 54 61 55
REMARK SMILES IDX 44 56 60 57 45 58 48 59 59 60 75 61 46 62 47 63 58 65 76 66
REMARK SMILES IDX 49 67 36 68 37 69 42 70 38 71 39 72 41 73 43 74 40 75 62 76
REMARK SMILES IDX 63 77 68 78 64 79 65 80 67 81 69 82 66 83 50 84 51 85 56 86
REMARK SMILES IDX 52 87 53 88 55 89 57 90 54 91
REMARK H PARENT 6 26 74 53 48 64
REMARK Flexibility Score: inf
ROOT
ATOM      1  C   UNL A   1      33.201  35.118  29.138  1.00  0.00     0.188 C 
ENDROOT
BRANCH   1   2
ATOM      2  C   UNL A   1      33.867  34.132  28.147  1.00  0.00     0.188 C 
BRANCH   2   3
ATOM      3  O   UNL A   1      33.413  32.790  28.006  1.00  0.00    -0.376 OA
BRANCH   3   4
ATOM      4  C   UNL A   1      32.534  32.458  26.949  1.00  0.00     0.202 C 
BRANCH   4   5
ATOM      5  C   UNL A   1      31.996  31.013  26.897  1.00  0.00     0.261 C 
BRANCH   5   6
ATOM      6  O   UNL A   1      32.779  30.066  26.135  1.00  0.00    -0.463 OA
BRANCH   6   7
ATOM      7  C   UNL A   1      32.902  28.838  26.676  1.00  0.00     0.306 C 
ATOM      8  O   UNL A   1      33.782  28.540  27.481  1.00  0.00    -0.252 OA
BRANCH   7   9
ATOM      9  C   UNL A   1      31.874  27.788  26.245  1.00  0.00     0.129 C 
BRANCH   9  10
ATOM     10  C   UNL A   1      31.870  26.828  24.987  1.00  0.00    -0.016 C 
ATOM     11  C   UNL A   1      31.623  25.398  25.562  1.00  0.00     0.008 C 
ATOM     12  C   UNL A   1      33.242  26.594  24.324  1.00  0.00     0.008 C 
ATOM     13  C   UNL A   1      32.980  24.921  26.072  1.00  0.00     0.001 C 
ATOM     14  C   UNL A   1      34.023  25.677  25.259  1.00  0.00     0.001 C 
BRANCH  10  15
ATOM     15  C   UNL A   1      30.681  27.191  23.989  1.00  0.00     0.044 C 
BRANCH  15  16
ATOM     16  C   UNL A   1      30.954  28.249  22.879  1.00  0.00     0.145 C 
BRANCH  16  17
ATOM     17  C   UNL A   1      30.117  29.522  22.824  1.00  0.00    -0.019 A 
ATOM     18  C   UNL A   1      28.016  31.756  20.528  1.00  0.00     0.047 C 
ATOM     19  C   UNL A   1      28.727  31.213  21.732  1.00  0.00    -0.015 A 
ATOM     20  C   UNL A   1      29.476  30.017  21.677  1.00  0.00     0.012 A 
ATOM     21  C   UNL A   1      28.603  31.891  22.949  1.00  0.00     0.126 A 
ATOM     22  C   UNL A   1      29.261  31.447  24.083  1.00  0.00     0.040 A 
ATOM     23  F   UNL A   1      27.833  32.984  23.034  1.00  0.00    -0.207 F 
ATOM     24  C   UNL A   1      30.035  30.290  24.008  1.00  0.00     0.009 A 
ENDBRANCH  16  17
BRANCH  16  25
ATOM     25  O   UNL A   1      30.845  27.653  21.591  1.00  0.00    -0.388 OA
ATOM     26  H   UNL A   1      30.111  27.019  21.590  1.00  0.00     0.211 HD
ENDBRANCH  16  25
ENDBRANCH  15  16
ENDBRANCH  10  15
ENDBRANCH   9  10
ENDBRANCH   7   9
ENDBRANCH   6   7
ENDBRANCH   5   6
ENDBRANCH   4   5
ENDBRANCH   3   4
ENDBRANCH   2   3
ENDBRANCH   1   2
BRANCH   1  27
ATOM     27  O   UNL A   1      33.965  35.475  30.271  1.00  0.00    -0.377 OA
BRANCH  27  28
ATOM     28  C   UNL A   1      33.294  35.880  31.448  1.00  0.00     0.188 C 
BRANCH  28  29
ATOM     29  C   UNL A   1      33.879  35.542  32.833  1.00  0.00     0.188 C 
BRANCH  29  30
ATOM     30  O   UNL A   1      35.271  35.799  32.954  1.00  0.00    -0.376 OA
BRANCH  30  31
ATOM     31  C   UNL A   1      36.171  34.719  33.112  1.00  0.00     0.202 C 
BRANCH  31  32
ATOM     32  C   UNL A   1      36.628  34.046  31.813  1.00  0.00     0.261 C 
BRANCH  32  33
ATOM     33  O   UNL A   1      36.566  32.625  31.796  1.00  0.00    -0.460 OA
BRANCH  33  34
ATOM     34  C   UNL A   1      35.537  32.160  31.072  1.00  0.00     0.338 C 
ATOM     35  O   UNL A   1      34.366  32.458  31.207  1.00  0.00    -0.246 OA
BRANCH  34  36
ATOM     36  C   UNL A   1      35.996  31.151  30.105  1.00  0.00     0.060 A 
ATOM     37  C   UNL A   1      36.247  29.907  30.696  1.00  0.00     0.016 A 
ATOM     38  C   UNL A   1      36.725  31.639  29.025  1.00  0.00     0.016 A 
ATOM     39  C   UNL A   1      37.500  29.380  30.527  1.00  0.00     0.010 A 
ATOM     40  C   UNL A   1      37.977  31.121  28.857  1.00  0.00     0.010 A 
ATOM     41  C   UNL A   1      38.376  30.080  29.701  1.00  0.00    -0.014 A 
BRANCH  41  42
ATOM     42  C   UNL A   1      39.773  29.763  29.673  1.00  0.00     0.031 A 
ATOM     43  C   UNL A   1      40.132  28.487  29.062  1.00  0.00     0.074 A 
ATOM     44  C   UNL A   1      40.657  30.602  30.248  1.00  0.00     0.049 A 
ATOM     45  N   UNL A   1      41.097  27.747  29.468  1.00  0.00    -0.248 NA
ATOM     46  C   UNL A   1      39.323  27.879  28.008  1.00  0.00     0.031 C 
ATOM     47  C   UNL A   1      42.102  30.582  30.112  1.00  0.00     0.029 A 
ATOM     48  N   UNL A   1      40.407  31.558  31.236  1.00  0.00    -0.354 N 
ATOM     49  C   UNL A   1      41.251  26.763  28.523  1.00  0.00     0.074 A 
ATOM     50  C   UNL A   1      40.044  26.789  27.732  1.00  0.00     0.031 C 
ATOM     51  C   UNL A   1      42.643  31.306  31.105  1.00  0.00     0.029 A 
ATOM     52  C   UNL A   1      41.570  31.681  32.012  1.00  0.00     0.049 A 
ATOM     53  H   UNL A   1      39.567  32.054  31.364  1.00  0.00     0.167 HD
ATOM     54  C   UNL A   1      42.475  26.187  28.383  1.00  0.00     0.037 A 
ATOM     55  C   UNL A   1      41.564  31.406  33.349  1.00  0.00     0.037 A 
ATOM     56  C   UNL A   1      43.419  26.774  29.325  1.00  0.00     0.049 A 
ATOM     57  C   UNL A   1      42.454  30.245  33.718  1.00  0.00     0.074 A 
ATOM     58  C   UNL A   1      44.288  27.847  29.197  1.00  0.00     0.029 A 
ATOM     59  N   UNL A   1      43.276  26.542  30.686  1.00  0.00    -0.354 N 
ATOM     60  N   UNL A   1      42.786  29.293  32.889  1.00  0.00    -0.248 NA
ATOM     61  C   UNL A   1      43.058  30.075  35.034  1.00  0.00     0.031 C 
ATOM     62  C   UNL A   1      44.681  28.254  30.493  1.00  0.00     0.029 A 
ATOM     63  C   UNL A   1      44.055  27.426  31.407  1.00  0.00     0.049 A 
ATOM     64  H   UNL A   1      42.702  25.847  31.080  1.00  0.00     0.167 HD
ATOM     65  C   UNL A   1      43.637  28.414  33.515  1.00  0.00     0.074 A 
ATOM     66  C   UNL A   1      43.780  28.955  34.853  1.00  0.00     0.031 C 
ATOM     67  C   UNL A   1      44.147  27.329  32.856  1.00  0.00     0.037 A 
BRANCH  54  68
ATOM     68  C   UNL A   1      42.881  25.405  27.165  1.00  0.00     0.057 A 
ATOM     69  C   UNL A   1      42.495  24.059  27.019  1.00  0.00     0.134 A 
ATOM     70  C   UNL A   1      43.679  25.906  26.124  1.00  0.00     0.134 A 
ATOM     71  F   UNL A   1      41.668  23.460  27.885  1.00  0.00    -0.206 F 
ATOM     72  C   UNL A   1      42.946  23.249  25.973  1.00  0.00     0.040 A 
ATOM     73  C   UNL A   1      44.174  25.095  25.093  1.00  0.00     0.040 A 
ATOM     74  F   UNL A   1      43.983  27.209  26.041  1.00  0.00    -0.206 F 
ATOM     75  C   UNL A   1      43.813  23.756  25.020  1.00  0.00     0.006 A 
ENDBRANCH  54  68
BRANCH  55  76
ATOM     76  C   UNL A   1      40.292  31.753  34.028  1.00  0.00     0.057 A 
ATOM     77  C   UNL A   1      39.354  30.729  34.248  1.00  0.00     0.134 A 
ATOM     78  C   UNL A   1      40.157  32.921  34.786  1.00  0.00     0.134 A 
ATOM     79  F   UNL A   1      39.434  29.582  33.555  1.00  0.00    -0.206 F 
ATOM     80  C   UNL A   1      38.387  30.817  35.251  1.00  0.00     0.040 A 
ATOM     81  C   UNL A   1      39.194  33.018  35.795  1.00  0.00     0.040 A 
ATOM     82  F   UNL A   1      41.021  33.935  34.641  1.00  0.00    -0.206 F 
ATOM     83  C   UNL A   1      38.325  31.955  36.045  1.00  0.00     0.006 A 
ENDBRANCH  55  76
BRANCH  67  84
ATOM     84  C   UNL A   1      44.865  26.123  33.436  1.00  0.00     0.057 A 
ATOM     85  C   UNL A   1      44.244  25.048  34.083  1.00  0.00     0.134 A 
ATOM     86  C   UNL A   1      46.259  25.944  33.220  1.00  0.00     0.134 A 
ATOM     87  F   UNL A   1      42.922  25.005  34.279  1.00  0.00    -0.206 F 
ATOM     88  C   UNL A   1      44.949  23.914  34.516  1.00  0.00     0.040 A 
ATOM     89  C   UNL A   1      46.957  24.790  33.585  1.00  0.00     0.040 A 
ATOM     90  F   UNL A   1      47.018  26.869  32.617  1.00  0.00    -0.206 F 
ATOM     91  C   UNL A   1      46.304  23.771  34.251  1.00  0.00     0.006 A 
ENDBRANCH  67  84
ENDBRANCH  41  42
ENDBRANCH  34  36
ENDBRANCH  33  34
ENDBRANCH  32  33
ENDBRANCH  31  32
ENDBRANCH  30  31
ENDBRANCH  29  30
ENDBRANCH  28  29
ENDBRANCH  27  28
ENDBRANCH   1  27
TORSDOF 25
ENDMDL
MODEL 3
REMARK VINA RESULT:      -9.9      4.873     10.262
REMARK SMILES Cc1cc([C@H](O)CC2(CC(=O)OCCOCCOCCOCCOC(=O)c3ccc(-c4c5nc(c(-c6c(F)cccc6F)c6ccc([nH]6)c(-c6c(F)cccc6F)c6nc(c(-c7c(F)cccc7F)c7ccc4[nH]7)C=C6)C=C5)cc3)CCCC2)ccc1F
REMARK SMILES IDX 17 1 16 2 15 3 14 4 13 5 12 6 10 7 11 8 9 9 8 10 81 11 84 12
REMARK SMILES IDX 82 13 83 14 7 15 5 16 4 17 1 18 2 19 3 20 87 21 86 22 88 23
REMARK SMILES IDX 85 24 6 25 18 27 19 28 20 29 21 30 22 31 23 32 24 33 25 34
REMARK SMILES IDX 26 35 27 36 28 37 80 38 29 39 79 40 30 41 31 42 32 43 73 44
REMARK SMILES IDX 33 45 78 46 72 47 74 48 34 49 77 50 71 51 70 52 35 54 61 55
REMARK SMILES IDX 44 56 60 57 45 58 48 59 59 60 75 61 46 62 47 63 58 65 76 66
REMARK SMILES IDX 49 67 36 68 37 69 42 70 38 71 39 72 41 73 43 74 40 75 62 76
REMARK SMILES IDX 63 77 68 78 64 79 65 80 67 81 69 82 66 83 50 84 51 85 56 86
REMARK SMILES IDX 52 87 53 88 55 89 57 90 54 91
REMARK H PARENT 6 26 74 53 48 64
REMARK Flexibility Score: inf
ROOT
ATOM      1  C   UNL A   1      33.479  34.103  29.380  1.00  0.00     0.188 C 
ENDROOT
BRANCH   1   2
ATOM      2  C   UNL A   1      34.217  33.357  28.242  1.00  0.00     0.188 C 
BRANCH   2   3
ATOM      3  O   UNL A   1      34.052  31.958  28.033  1.00  0.00    -0.376 OA
BRANCH   3   4
ATOM      4  C   UNL A   1      32.966  31.490  27.256  1.00  0.00     0.202 C 
BRANCH   4   5
ATOM      5  C   UNL A   1      32.944  29.992  26.889  1.00  0.00     0.261 C 
BRANCH   5   6
ATOM      6  O   UNL A   1      33.365  29.657  25.548  1.00  0.00    -0.463 OA
BRANCH   6   7
ATOM      7  C   UNL A   1      33.771  28.386  25.361  1.00  0.00     0.306 C 
ATOM      8  O   UNL A   1      34.192  27.672  26.270  1.00  0.00    -0.252 OA
BRANCH   7   9
ATOM      9  C   UNL A   1      33.686  27.836  23.935  1.00  0.00     0.129 C 
BRANCH   9  10
ATOM     10  C   UNL A   1      32.662  26.807  23.303  1.00  0.00    -0.016 C 
ATOM     11  C   UNL A   1      31.595  27.683  22.575  1.00  0.00     0.008 C 
ATOM     12  C   UNL A   1      31.743  26.082  24.307  1.00  0.00     0.008 C 
ATOM     13  C   UNL A   1      30.635  28.152  23.665  1.00  0.00     0.001 C 
ATOM     14  C   UNL A   1      30.716  27.109  24.772  1.00  0.00     0.001 C 
BRANCH  10  15
ATOM     15  C   UNL A   1      33.375  25.871  22.228  1.00  0.00     0.044 C 
BRANCH  15  16
ATOM     16  C   UNL A   1      32.888  24.396  22.104  1.00  0.00     0.145 C 
BRANCH  16  17
ATOM     17  C   UNL A   1      33.489  23.322  23.004  1.00  0.00    -0.019 A 
ATOM     18  C   UNL A   1      32.861  19.883  24.573  1.00  0.00     0.047 C 
ATOM     19  C   UNL A   1      33.501  21.187  24.200  1.00  0.00    -0.015 A 
ATOM     20  C   UNL A   1      32.859  22.116  23.352  1.00  0.00     0.012 A 
ATOM     21  C   UNL A   1      34.788  21.465  24.672  1.00  0.00     0.126 A 
ATOM     22  C   UNL A   1      35.412  22.665  24.380  1.00  0.00     0.040 A 
ATOM     23  F   UNL A   1      35.441  20.560  25.415  1.00  0.00    -0.207 F 
ATOM     24  C   UNL A   1      34.751  23.595  23.578  1.00  0.00     0.009 A 
ENDBRANCH  16  17
BRANCH  16  25
ATOM     25  O   UNL A   1      33.060  23.930  20.770  1.00  0.00    -0.388 OA
ATOM     26  H   UNL A   1      33.454  24.634  20.230  1.00  0.00     0.211 HD
ENDBRANCH  16  25
ENDBRANCH  15  16
ENDBRANCH  10  15
ENDBRANCH   9  10
ENDBRANCH   7   9
ENDBRANCH   6   7
ENDBRANCH   5   6
ENDBRANCH   4   5
ENDBRANCH   3   4
ENDBRANCH   2   3
ENDBRANCH   1   2
BRANCH   1  27
ATOM     27  O   UNL A   1      34.282  34.899  30.227  1.00  0.00    -0.377 OA
BRANCH  27  28
ATOM     28  C   UNL A   1      33.785  35.255  31.502  1.00  0.00     0.188 C 
BRANCH  28  29
ATOM     29  C   UNL A   1      34.587  34.909  32.772  1.00  0.00     0.188 C 
BRANCH  29  30
ATOM     30  O   UNL A   1      35.931  35.368  32.756  1.00  0.00    -0.376 OA
BRANCH  30  31
ATOM     31  C   UNL A   1      36.988  34.436  32.631  1.00  0.00     0.202 C 
BRANCH  31  32
ATOM     32  C   UNL A   1      37.118  33.766  31.259  1.00  0.00     0.261 C 
BRANCH  32  33
ATOM     33  O   UNL A   1      37.387  32.369  31.274  1.00  0.00    -0.460 OA
BRANCH  33  34
ATOM     34  C   UNL A   1      36.325  31.633  30.913  1.00  0.00     0.338 C 
ATOM     35  O   UNL A   1      35.183  31.768  31.311  1.00  0.00    -0.246 OA
BRANCH  34  36
ATOM     36  C   UNL A   1      36.727  30.553  29.999  1.00  0.00     0.060 A 
ATOM     37  C   UNL A   1      36.851  29.316  30.642  1.00  0.00     0.016 A 
ATOM     38  C   UNL A   1      37.532  30.937  28.930  1.00  0.00     0.016 A 
ATOM     39  C   UNL A   1      38.059  28.679  30.537  1.00  0.00     0.010 A 
ATOM     40  C   UNL A   1      38.739  30.308  28.826  1.00  0.00     0.010 A 
ATOM     41  C   UNL A   1      39.019  29.270  29.720  1.00  0.00    -0.014 A 
BRANCH  41  42
ATOM     42  C   UNL A   1      40.384  28.835  29.754  1.00  0.00     0.031 A 
ATOM     43  C   UNL A   1      40.672  27.565  29.095  1.00  0.00     0.074 A 
ATOM     44  C   UNL A   1      41.298  29.565  30.423  1.00  0.00     0.049 A 
ATOM     45  N   UNL A   1      41.545  26.725  29.514  1.00  0.00    -0.248 NA
ATOM     46  C   UNL A   1      39.880  27.082  27.966  1.00  0.00     0.031 C 
ATOM     47  C   UNL A   1      42.742  29.427  30.368  1.00  0.00     0.029 A 
ATOM     48  N   UNL A   1      41.069  30.489  31.446  1.00  0.00    -0.354 N 
ATOM     49  C   UNL A   1      41.674  25.779  28.528  1.00  0.00     0.074 A 
ATOM     50  C   UNL A   1      40.524  25.949  27.672  1.00  0.00     0.031 C 
ATOM     51  C   UNL A   1      43.279  30.051  31.428  1.00  0.00     0.029 A 
ATOM     52  C   UNL A   1      42.187  30.473  32.292  1.00  0.00     0.049 A 
ATOM     53  H   UNL A   1      40.266  31.049  31.553  1.00  0.00     0.167 HD
ATOM     54  C   UNL A   1      42.852  25.107  28.426  1.00  0.00     0.037 A 
ATOM     55  C   UNL A   1      42.077  30.133  33.610  1.00  0.00     0.037 A 
ATOM     56  C   UNL A   1      43.782  25.563  29.451  1.00  0.00     0.049 A 
ATOM     57  C   UNL A   1      42.843  28.883  33.965  1.00  0.00     0.074 A 
ATOM     58  C   UNL A   1      44.744  26.562  29.431  1.00  0.00     0.029 A 
ATOM     59  N   UNL A   1      43.537  25.277  30.787  1.00  0.00    -0.354 N 
ATOM     60  N   UNL A   1      43.144  27.948  33.105  1.00  0.00    -0.248 NA
ATOM     61  C   UNL A   1      43.349  28.596  35.302  1.00  0.00     0.031 C 
ATOM     62  C   UNL A   1      45.089  26.869  30.768  1.00  0.00     0.029 A 
ATOM     63  C   UNL A   1      44.342  26.053  31.598  1.00  0.00     0.049 A 
ATOM     64  H   UNL A   1      42.884  24.616  31.109  1.00  0.00     0.167 HD
ATOM     65  C   UNL A   1      43.879  26.968  33.729  1.00  0.00     0.074 A 
ATOM     66  C   UNL A   1      43.984  27.428  35.101  1.00  0.00     0.031 C 
ATOM     67  C   UNL A   1      44.336  25.877  33.042  1.00  0.00     0.037 A 
BRANCH  54  68
ATOM     68  C   UNL A   1      43.265  24.354  27.193  1.00  0.00     0.057 A 
ATOM     69  C   UNL A   1      43.720  25.044  26.053  1.00  0.00     0.134 A 
ATOM     70  C   UNL A   1      43.204  22.958  27.052  1.00  0.00     0.134 A 
ATOM     71  F   UNL A   1      43.910  26.369  26.055  1.00  0.00    -0.206 F 
ATOM     72  C   UNL A   1      43.998  24.408  24.840  1.00  0.00     0.040 A 
ATOM     73  C   UNL A   1      43.438  22.311  25.830  1.00  0.00     0.040 A 
ATOM     74  F   UNL A   1      42.952  22.160  28.099  1.00  0.00    -0.206 F 
ATOM     75  C   UNL A   1      43.829  23.039  24.715  1.00  0.00     0.006 A 
ENDBRANCH  54  68
BRANCH  55  76
ATOM     76  C   UNL A   1      40.799  30.554  34.233  1.00  0.00     0.057 A 
ATOM     77  C   UNL A   1      40.708  31.858  34.751  1.00  0.00     0.134 A 
ATOM     78  C   UNL A   1      39.600  29.879  33.983  1.00  0.00     0.134 A 
ATOM     79  F   UNL A   1      41.824  32.560  35.007  1.00  0.00    -0.206 F 
ATOM     80  C   UNL A   1      39.482  32.504  34.914  1.00  0.00     0.040 A 
ATOM     81  C   UNL A   1      38.366  30.517  34.140  1.00  0.00     0.040 A 
ATOM     82  F   UNL A   1      39.607  28.637  33.477  1.00  0.00    -0.206 F 
ATOM     83  C   UNL A   1      38.308  31.840  34.581  1.00  0.00     0.006 A 
ENDBRANCH  55  76
BRANCH  67  84
ATOM     84  C   UNL A   1      44.914  24.586  33.596  1.00  0.00     0.057 A 
ATOM     85  C   UNL A   1      46.278  24.310  33.742  1.00  0.00     0.134 A 
ATOM     86  C   UNL A   1      44.058  23.597  34.154  1.00  0.00     0.134 A 
ATOM     87  F   UNL A   1      47.223  25.178  33.364  1.00  0.00    -0.206 F 
ATOM     88  C   UNL A   1      46.753  23.136  34.349  1.00  0.00     0.040 A 
ATOM     89  C   UNL A   1      44.521  22.460  34.820  1.00  0.00     0.040 A 
ATOM     90  F   UNL A   1      42.722  23.693  34.106  1.00  0.00    -0.206 F 
ATOM     91  C   UNL A   1      45.877  22.216  34.908  1.00  0.00     0.006 A 
ENDBRANCH  67  84
ENDBRANCH  41  42
ENDBRANCH  34  36
ENDBRANCH  33  34
ENDBRANCH  32  33
ENDBRANCH  31  32
ENDBRANCH  30  31
ENDBRANCH  29  30
ENDBRANCH  28  29
ENDBRANCH  27  28
ENDBRANCH   1  27
TORSDOF 25
ENDMDL
