MODEL 1
REMARK VINA RESULT:     -10.9      0.000      0.000
REMARK SMILES Cc1nc(NC(=O)[C@@H]2CCC[C@@H](C(=O)OCCOCCOCCOCCOC(=O)c3ccc(-c4c5nc(c(-c6c(F)cccc6F)c6ccc([nH]6)c(-c6c(F)cccc6F)c6nc(c(-c7c(F)cccc7F)c7ccc4[nH]7)C=C6)C=C5)cc3)C2)ccc1Br
REMARK SMILES IDX 21 1 20 2 19 3 18 4 17 5 16 6 15 7 13 8 14 9 12 10 8 11 9 12
REMARK SMILES IDX 84 13 10 14 11 15 6 16 5 17 7 19 4 20 1 21 2 22 3 23 87 24
REMARK SMILES IDX 86 25 88 26 85 27 22 28 23 29 24 30 25 31 26 32 27 33 28 34
REMARK SMILES IDX 29 35 30 36 31 37 83 38 32 39 82 40 33 41 34 42 35 43 76 44
REMARK SMILES IDX 36 45 81 46 75 47 77 48 37 49 80 50 74 51 73 52 38 54 64 55
REMARK SMILES IDX 47 56 63 57 48 58 51 59 62 60 78 61 49 62 50 63 61 65 79 66
REMARK SMILES IDX 52 67 39 68 40 69 45 70 41 71 42 72 44 73 46 74 43 75 65 76
REMARK SMILES IDX 66 77 71 78 67 79 68 80 70 81 72 82 69 83 53 84 54 85 59 86
REMARK SMILES IDX 55 87 56 88 58 89 60 90 57 91
REMARK H PARENT 5 18 77 53 51 64
REMARK Flexibility Score: inf
ROOT
ATOM      1  O   UNL A   1      41.463  19.214  25.732  1.00  0.00    -0.377 OA
ENDROOT
BRANCH   1   2
ATOM      2  C   UNL A   1      40.907  20.075  26.713  1.00  0.00     0.188 C 
BRANCH   2   3
ATOM      3  C   UNL A   1      40.735  21.501  26.178  1.00  0.00     0.188 C 
BRANCH   3   4
ATOM      4  O   UNL A   1      39.513  22.154  26.452  1.00  0.00    -0.376 OA
BRANCH   4   5
ATOM      5  C   UNL A   1      38.326  21.791  25.761  1.00  0.00     0.202 C 
BRANCH   5   6
ATOM      6  C   UNL A   1      37.435  22.793  24.996  1.00  0.00     0.261 C 
BRANCH   6   7
ATOM      7  O   UNL A   1      36.627  23.705  25.759  1.00  0.00    -0.463 OA
BRANCH   7   8
ATOM      8  C   UNL A   1      35.304  23.727  25.489  1.00  0.00     0.309 C 
ATOM      9  O   UNL A   1      34.735  24.687  24.986  1.00  0.00    -0.252 OA
BRANCH   8  10
ATOM     10  C   UNL A   1      34.590  22.439  25.937  1.00  0.00     0.100 C 
ATOM     11  C   UNL A   1      32.093  23.007  25.901  1.00  0.00     0.080 C 
ATOM     12  C   UNL A   1      31.782  21.658  25.254  1.00  0.00     0.013 C 
ATOM     13  C   UNL A   1      33.347  22.800  26.773  1.00  0.00     0.028 C 
ATOM     14  C   UNL A   1      32.885  21.330  24.253  1.00  0.00     0.002 C 
ATOM     15  C   UNL A   1      34.288  21.342  24.882  1.00  0.00     0.015 C 
BRANCH  11  16
ATOM     16  C   UNL A   1      30.928  23.581  26.690  1.00  0.00     0.228 C 
ATOM     17  N   UNL A   1      30.378  24.793  26.402  1.00  0.00    -0.310 N 
ATOM     18  H   UNL A   1      29.737  25.069  27.096  1.00  0.00     0.171 HD
ATOM     19  O   UNL A   1      30.463  22.959  27.652  1.00  0.00    -0.274 OA
BRANCH  17  20
ATOM     20  C   UNL A   1      30.475  25.750  25.392  1.00  0.00     0.132 A 
ATOM     21  C   UNL A   1      33.093  28.266  24.744  1.00  0.00     0.068 C 
ATOM     22  C   UNL A   1      31.782  27.544  24.625  1.00  0.00     0.054 A 
ATOM     23  N   UNL A   1      31.596  26.503  25.487  1.00  0.00    -0.235 NA
ATOM     24  C   UNL A   1      30.835  27.885  23.666  1.00  0.00     0.039 A 
ATOM     25  C   UNL A   1      29.695  27.103  23.571  1.00  0.00     0.021 A 
ATOM     26  Br  UNL A   1      31.019  29.353  22.486  1.00  0.00    -0.049 Br
ATOM     27  C   UNL A   1      29.533  26.004  24.415  1.00  0.00     0.048 A 
ENDBRANCH  17  20
ENDBRANCH  11  16
ENDBRANCH   8  10
ENDBRANCH   7   8
ENDBRANCH   6   7
ENDBRANCH   5   6
ENDBRANCH   4   5
ENDBRANCH   3   4
ENDBRANCH   2   3
ENDBRANCH   1   2
BRANCH   1  28
ATOM     28  C   UNL A   1      42.687  18.618  26.127  1.00  0.00     0.188 C 
BRANCH  28  29
ATOM     29  C   UNL A   1      43.971  19.190  25.500  1.00  0.00     0.188 C 
BRANCH  29  30
ATOM     30  O   UNL A   1      43.733  20.327  24.667  1.00  0.00    -0.376 OA
BRANCH  30  31
ATOM     31  C   UNL A   1      44.794  21.256  24.505  1.00  0.00     0.202 C 
BRANCH  31  32
ATOM     32  C   UNL A   1      44.319  22.590  23.918  1.00  0.00     0.261 C 
BRANCH  32  33
ATOM     33  O   UNL A   1      43.759  23.485  24.886  1.00  0.00    -0.460 OA
BRANCH  33  34
ATOM     34  C   UNL A   1      44.622  24.337  25.482  1.00  0.00     0.338 C 
ATOM     35  O   UNL A   1      45.796  24.518  25.211  1.00  0.00    -0.246 OA
BRANCH  34  36
ATOM     36  C   UNL A   1      43.829  25.187  26.383  1.00  0.00     0.060 A 
ATOM     37  C   UNL A   1      44.068  26.566  26.369  1.00  0.00     0.016 A 
ATOM     38  C   UNL A   1      42.808  24.639  27.164  1.00  0.00     0.016 A 
ATOM     39  C   UNL A   1      43.271  27.412  27.133  1.00  0.00     0.010 A 
ATOM     40  C   UNL A   1      42.053  25.480  27.981  1.00  0.00     0.010 A 
ATOM     41  C   UNL A   1      42.302  26.862  27.984  1.00  0.00    -0.014 A 
BRANCH  41  42
ATOM     42  C   UNL A   1      41.791  27.696  29.090  1.00  0.00     0.031 A 
ATOM     43  C   UNL A   1      42.527  27.610  30.397  1.00  0.00     0.074 A 
ATOM     44  C   UNL A   1      40.737  28.513  28.937  1.00  0.00     0.049 A 
ATOM     45  N   UNL A   1      42.315  28.249  31.516  1.00  0.00    -0.248 NA
ATOM     46  C   UNL A   1      43.671  26.680  30.440  1.00  0.00     0.031 C 
ATOM     47  C   UNL A   1      39.979  28.709  27.703  1.00  0.00     0.029 A 
ATOM     48  N   UNL A   1      40.121  29.333  29.847  1.00  0.00    -0.354 N 
ATOM     49  C   UNL A   1      43.318  27.826  32.378  1.00  0.00     0.074 A 
ATOM     50  C   UNL A   1      44.117  26.852  31.673  1.00  0.00     0.031 C 
ATOM     51  C   UNL A   1      38.983  29.583  27.940  1.00  0.00     0.029 A 
ATOM     52  C   UNL A   1      39.024  29.988  29.343  1.00  0.00     0.049 A 
ATOM     53  H   UNL A   1      40.435  29.442  30.773  1.00  0.00     0.167 HD
ATOM     54  C   UNL A   1      43.556  28.217  33.650  1.00  0.00     0.037 A 
ATOM     55  C   UNL A   1      38.153  30.804  29.965  1.00  0.00     0.037 A 
ATOM     56  C   UNL A   1      42.715  29.126  34.374  1.00  0.00     0.049 A 
ATOM     57  C   UNL A   1      38.357  31.115  31.427  1.00  0.00     0.074 A 
ATOM     58  C   UNL A   1      42.833  29.561  35.680  1.00  0.00     0.029 A 
ATOM     59  N   UNL A   1      41.573  29.717  33.852  1.00  0.00    -0.354 N 
ATOM     60  N   UNL A   1      39.327  30.739  32.228  1.00  0.00    -0.248 NA
ATOM     61  C   UNL A   1      37.345  31.965  32.070  1.00  0.00     0.031 C 
ATOM     62  C   UNL A   1      41.731  30.376  35.964  1.00  0.00     0.029 A 
ATOM     63  C   UNL A   1      40.960  30.492  34.819  1.00  0.00     0.049 A 
ATOM     64  H   UNL A   1      41.248  29.601  32.930  1.00  0.00     0.167 HD
ATOM     65  C   UNL A   1      39.057  31.330  33.458  1.00  0.00     0.074 A 
ATOM     66  C   UNL A   1      37.841  32.100  33.292  1.00  0.00     0.031 C 
ATOM     67  C   UNL A   1      39.749  31.248  34.622  1.00  0.00     0.037 A 
BRANCH  54  68
ATOM     68  C   UNL A   1      44.747  27.614  34.330  1.00  0.00     0.057 A 
ATOM     69  C   UNL A   1      45.971  28.292  34.364  1.00  0.00     0.134 A 
ATOM     70  C   UNL A   1      44.673  26.373  34.980  1.00  0.00     0.134 A 
ATOM     71  F   UNL A   1      46.103  29.488  33.774  1.00  0.00    -0.206 F 
ATOM     72  C   UNL A   1      47.081  27.757  35.020  1.00  0.00     0.040 A 
ATOM     73  C   UNL A   1      45.770  25.840  35.659  1.00  0.00     0.040 A 
ATOM     74  F   UNL A   1      43.519  25.689  35.010  1.00  0.00    -0.206 F 
ATOM     75  C   UNL A   1      46.979  26.531  35.675  1.00  0.00     0.006 A 
ENDBRANCH  54  68
BRANCH  55  76
ATOM     76  C   UNL A   1      36.990  31.371  29.233  1.00  0.00     0.057 A 
ATOM     77  C   UNL A   1      37.020  32.670  28.714  1.00  0.00     0.134 A 
ATOM     78  C   UNL A   1      35.846  30.604  28.981  1.00  0.00     0.134 A 
ATOM     79  F   UNL A   1      38.088  33.457  28.915  1.00  0.00    -0.206 F 
ATOM     80  C   UNL A   1      35.956  33.187  27.970  1.00  0.00     0.040 A 
ATOM     81  C   UNL A   1      34.786  31.098  28.218  1.00  0.00     0.040 A 
ATOM     82  F   UNL A   1      35.767  29.342  29.428  1.00  0.00    -0.206 F 
ATOM     83  C   UNL A   1      34.839  32.395  27.711  1.00  0.00     0.006 A 
ENDBRANCH  55  76
BRANCH  67  84
ATOM     84  C   UNL A   1      39.226  32.037  35.786  1.00  0.00     0.057 A 
ATOM     85  C   UNL A   1      38.317  31.461  36.683  1.00  0.00     0.134 A 
ATOM     86  C   UNL A   1      39.590  33.371  36.000  1.00  0.00     0.134 A 
ATOM     87  F   UNL A   1      37.917  30.190  36.527  1.00  0.00    -0.206 F 
ATOM     88  C   UNL A   1      37.787  32.185  37.750  1.00  0.00     0.040 A 
ATOM     89  C   UNL A   1      39.090  34.098  37.082  1.00  0.00     0.040 A 
ATOM     90  F   UNL A   1      40.465  33.978  35.184  1.00  0.00    -0.206 F 
ATOM     91  C   UNL A   1      38.180  33.506  37.956  1.00  0.00     0.006 A 
ENDBRANCH  67  84
ENDBRANCH  41  42
ENDBRANCH  34  36
ENDBRANCH  33  34
ENDBRANCH  32  33
ENDBRANCH  31  32
ENDBRANCH  30  31
ENDBRANCH  29  30
ENDBRANCH  28  29
ENDBRANCH   1  28
TORSDOF 22
ENDMDL
MODEL 2
REMARK VINA RESULT:     -10.4      4.476      9.715
REMARK SMILES Cc1nc(NC(=O)[C@@H]2CCC[C@@H](C(=O)OCCOCCOCCOCCOC(=O)c3ccc(-c4c5nc(c(-c6c(F)cccc6F)c6ccc([nH]6)c(-c6c(F)cccc6F)c6nc(c(-c7c(F)cccc7F)c7ccc4[nH]7)C=C6)C=C5)cc3)C2)ccc1Br
REMARK SMILES IDX 21 1 20 2 19 3 18 4 17 5 16 6 15 7 13 8 14 9 12 10 8 11 9 12
REMARK SMILES IDX 84 13 10 14 11 15 6 16 5 17 7 19 4 20 1 21 2 22 3 23 87 24
REMARK SMILES IDX 86 25 88 26 85 27 22 28 23 29 24 30 25 31 26 32 27 33 28 34
REMARK SMILES IDX 29 35 30 36 31 37 83 38 32 39 82 40 33 41 34 42 35 43 76 44
REMARK SMILES IDX 36 45 81 46 75 47 77 48 37 49 80 50 74 51 73 52 38 54 64 55
REMARK SMILES IDX 47 56 63 57 48 58 51 59 62 60 78 61 49 62 50 63 61 65 79 66
REMARK SMILES IDX 52 67 39 68 40 69 45 70 41 71 42 72 44 73 46 74 43 75 65 76
REMARK SMILES IDX 66 77 71 78 67 79 68 80 70 81 72 82 69 83 53 84 54 85 59 86
REMARK SMILES IDX 55 87 56 88 58 89 60 90 57 91
REMARK H PARENT 5 18 77 53 51 64
REMARK Flexibility Score: inf
ROOT
ATOM      1  O   UNL A   1      34.756  31.319  28.108  1.00  0.00    -0.377 OA
ENDROOT
BRANCH   1   2
ATOM      2  C   UNL A   1      33.821  30.677  27.256  1.00  0.00     0.188 C 
BRANCH   2   3
ATOM      3  C   UNL A   1      34.042  29.161  27.218  1.00  0.00     0.188 C 
BRANCH   3   4
ATOM      4  O   UNL A   1      32.971  28.337  27.631  1.00  0.00    -0.376 OA
BRANCH   4   5
ATOM      5  C   UNL A   1      32.017  27.865  26.690  1.00  0.00     0.202 C 
BRANCH   5   6
ATOM      6  C   UNL A   1      32.171  26.554  25.890  1.00  0.00     0.261 C 
BRANCH   6   7
ATOM      7  O   UNL A   1      32.091  25.309  26.603  1.00  0.00    -0.463 OA
BRANCH   7   8
ATOM      8  C   UNL A   1      31.048  24.501  26.313  1.00  0.00     0.309 C 
ATOM      9  O   UNL A   1      29.883  24.794  26.545  1.00  0.00    -0.252 OA
BRANCH   8  10
ATOM     10  C   UNL A   1      31.495  23.155  25.715  1.00  0.00     0.100 C 
ATOM     11  C   UNL A   1      33.050  23.767  23.773  1.00  0.00     0.080 C 
ATOM     12  C   UNL A   1      34.024  22.665  24.190  1.00  0.00     0.013 C 
ATOM     13  C   UNL A   1      31.644  23.291  24.187  1.00  0.00     0.028 C 
ATOM     14  C   UNL A   1      34.079  22.611  25.713  1.00  0.00     0.002 C 
ATOM     15  C   UNL A   1      32.697  22.411  26.356  1.00  0.00     0.015 C 
BRANCH  11  16
ATOM     16  C   UNL A   1      33.132  24.118  22.297  1.00  0.00     0.228 C 
ATOM     17  N   UNL A   1      32.616  25.273  21.793  1.00  0.00    -0.310 N 
ATOM     18  H   UNL A   1      32.628  25.270  20.808  1.00  0.00     0.171 HD
ATOM     19  O   UNL A   1      33.652  23.330  21.499  1.00  0.00    -0.274 OA
BRANCH  17  20
ATOM     20  C   UNL A   1      32.076  26.460  22.290  1.00  0.00     0.132 A 
ATOM     21  C   UNL A   1      28.672  27.197  23.501  1.00  0.00     0.068 C 
ATOM     22  C   UNL A   1      30.082  27.440  23.050  1.00  0.00     0.054 A 
ATOM     23  N   UNL A   1      30.774  26.338  22.636  1.00  0.00    -0.235 NA
ATOM     24  C   UNL A   1      30.664  28.702  23.092  1.00  0.00     0.039 A 
ATOM     25  C   UNL A   1      32.001  28.814  22.743  1.00  0.00     0.021 A 
ATOM     26  Br  UNL A   1      29.735  30.270  23.602  1.00  0.00    -0.049 Br
ATOM     27  C   UNL A   1      32.722  27.677  22.376  1.00  0.00     0.048 A 
ENDBRANCH  17  20
ENDBRANCH  11  16
ENDBRANCH   8  10
ENDBRANCH   7   8
ENDBRANCH   6   7
ENDBRANCH   5   6
ENDBRANCH   4   5
ENDBRANCH   3   4
ENDBRANCH   2   3
ENDBRANCH   1   2
BRANCH   1  28
ATOM     28  C   UNL A   1      34.740  32.732  28.007  1.00  0.00     0.188 C 
BRANCH  28  29
ATOM     29  C   UNL A   1      34.058  33.502  29.152  1.00  0.00     0.188 C 
BRANCH  29  30
ATOM     30  O   UNL A   1      34.987  34.088  30.068  1.00  0.00    -0.376 OA
BRANCH  30  31
ATOM     31  C   UNL A   1      34.473  34.592  31.291  1.00  0.00     0.202 C 
BRANCH  31  32
ATOM     32  C   UNL A   1      34.330  33.502  32.360  1.00  0.00     0.261 C 
BRANCH  32  33
ATOM     33  O   UNL A   1      35.110  32.328  32.101  1.00  0.00    -0.460 OA
BRANCH  33  34
ATOM     34  C   UNL A   1      36.207  32.159  32.871  1.00  0.00     0.338 C 
ATOM     35  O   UNL A   1      36.330  32.407  34.057  1.00  0.00    -0.246 OA
BRANCH  34  36
ATOM     36  C   UNL A   1      37.177  31.398  32.069  1.00  0.00     0.060 A 
ATOM     37  C   UNL A   1      38.106  30.596  32.743  1.00  0.00     0.016 A 
ATOM     38  C   UNL A   1      37.114  31.410  30.673  1.00  0.00     0.016 A 
ATOM     39  C   UNL A   1      38.973  29.787  32.017  1.00  0.00     0.010 A 
ATOM     40  C   UNL A   1      38.027  30.650  29.945  1.00  0.00     0.010 A 
ATOM     41  C   UNL A   1      38.973  29.859  30.617  1.00  0.00    -0.014 A 
BRANCH  41  42
ATOM     42  C   UNL A   1      40.159  29.360  29.893  1.00  0.00     0.031 A 
ATOM     43  C   UNL A   1      41.290  30.332  29.699  1.00  0.00     0.074 A 
ATOM     44  C   UNL A   1      40.243  28.097  29.447  1.00  0.00     0.049 A 
ATOM     45  N   UNL A   1      42.452  30.155  29.130  1.00  0.00    -0.248 NA
ATOM     46  C   UNL A   1      41.081  31.689  30.236  1.00  0.00     0.031 C 
ATOM     47  C   UNL A   1      39.227  27.061  29.620  1.00  0.00     0.029 A 
ATOM     48  N   UNL A   1      41.245  27.476  28.747  1.00  0.00    -0.354 N 
ATOM     49  C   UNL A   1      43.121  31.362  29.275  1.00  0.00     0.074 A 
ATOM     50  C   UNL A   1      42.230  32.276  29.949  1.00  0.00     0.031 C 
ATOM     51  C   UNL A   1      39.653  25.932  29.022  1.00  0.00     0.029 A 
ATOM     52  C   UNL A   1      40.957  26.176  28.411  1.00  0.00     0.049 A 
ATOM     53  H   UNL A   1      42.091  27.920  28.509  1.00  0.00     0.167 HD
ATOM     54  C   UNL A   1      44.374  31.684  28.881  1.00  0.00     0.037 A 
ATOM     55  C   UNL A   1      41.670  25.304  27.674  1.00  0.00     0.037 A 
ATOM     56  C   UNL A   1      45.227  30.799  28.142  1.00  0.00     0.049 A 
ATOM     57  C   UNL A   1      43.007  25.733  27.123  1.00  0.00     0.074 A 
ATOM     58  C   UNL A   1      46.499  31.031  27.653  1.00  0.00     0.029 A 
ATOM     59  N   UNL A   1      44.874  29.512  27.759  1.00  0.00    -0.354 N 
ATOM     60  N   UNL A   1      43.650  26.865  27.291  1.00  0.00    -0.248 NA
ATOM     61  C   UNL A   1      43.717  24.761  26.278  1.00  0.00     0.031 C 
ATOM     62  C   UNL A   1      46.894  29.901  26.928  1.00  0.00     0.029 A 
ATOM     63  C   UNL A   1      45.893  28.947  27.015  1.00  0.00     0.049 A 
ATOM     64  H   UNL A   1      44.025  29.069  27.985  1.00  0.00     0.167 HD
ATOM     65  C   UNL A   1      44.850  26.730  26.601  1.00  0.00     0.074 A 
ATOM     66  C   UNL A   1      44.850  25.401  26.024  1.00  0.00     0.031 C 
ATOM     67  C   UNL A   1      45.863  27.620  26.454  1.00  0.00     0.037 A 
BRANCH  54  68
ATOM     68  C   UNL A   1      44.851  33.065  29.209  1.00  0.00     0.057 A 
ATOM     69  C   UNL A   1      45.567  33.314  30.386  1.00  0.00     0.134 A 
ATOM     70  C   UNL A   1      44.628  34.146  28.343  1.00  0.00     0.134 A 
ATOM     71  F   UNL A   1      45.825  32.322  31.249  1.00  0.00    -0.206 F 
ATOM     72  C   UNL A   1      46.045  34.590  30.690  1.00  0.00     0.040 A 
ATOM     73  C   UNL A   1      45.123  35.420  28.626  1.00  0.00     0.040 A 
ATOM     74  F   UNL A   1      43.977  33.965  27.184  1.00  0.00    -0.206 F 
ATOM     75  C   UNL A   1      45.828  35.645  29.806  1.00  0.00     0.006 A 
ENDBRANCH  54  68
BRANCH  55  76
ATOM     76  C   UNL A   1      41.140  23.946  27.384  1.00  0.00     0.057 A 
ATOM     77  C   UNL A   1      41.640  22.814  28.038  1.00  0.00     0.134 A 
ATOM     78  C   UNL A   1      40.078  23.756  26.492  1.00  0.00     0.134 A 
ATOM     79  F   UNL A   1      42.655  22.927  28.909  1.00  0.00    -0.206 F 
ATOM     80  C   UNL A   1      41.104  21.544  27.818  1.00  0.00     0.040 A 
ATOM     81  C   UNL A   1      39.515  22.495  26.281  1.00  0.00     0.040 A 
ATOM     82  F   UNL A   1      39.536  24.804  25.855  1.00  0.00    -0.206 F 
ATOM     83  C   UNL A   1      40.030  21.383  26.945  1.00  0.00     0.006 A 
ENDBRANCH  55  76
BRANCH  67  84
ATOM     84  C   UNL A   1      47.063  27.169  25.674  1.00  0.00     0.057 A 
ATOM     85  C   UNL A   1      48.074  26.423  26.293  1.00  0.00     0.134 A 
ATOM     86  C   UNL A   1      47.236  27.500  24.325  1.00  0.00     0.134 A 
ATOM     87  F   UNL A   1      47.975  26.083  27.588  1.00  0.00    -0.206 F 
ATOM     88  C   UNL A   1      49.216  26.024  25.600  1.00  0.00     0.040 A 
ATOM     89  C   UNL A   1      48.360  27.080  23.611  1.00  0.00     0.040 A 
ATOM     90  F   UNL A   1      46.299  28.203  23.670  1.00  0.00    -0.206 F 
ATOM     91  C   UNL A   1      49.357  26.347  24.251  1.00  0.00     0.006 A 
ENDBRANCH  67  84
ENDBRANCH  41  42
ENDBRANCH  34  36
ENDBRANCH  33  34
ENDBRANCH  32  33
ENDBRANCH  31  32
ENDBRANCH  30  31
ENDBRANCH  29  30
ENDBRANCH  28  29
ENDBRANCH   1  28
TORSDOF 22
ENDMDL
MODEL 3
REMARK VINA RESULT:     -10.2      2.277      3.254
REMARK SMILES Cc1nc(NC(=O)[C@@H]2CCC[C@@H](C(=O)OCCOCCOCCOCCOC(=O)c3ccc(-c4c5nc(c(-c6c(F)cccc6F)c6ccc([nH]6)c(-c6c(F)cccc6F)c6nc(c(-c7c(F)cccc7F)c7ccc4[nH]7)C=C6)C=C5)cc3)C2)ccc1Br
REMARK SMILES IDX 21 1 20 2 19 3 18 4 17 5 16 6 15 7 13 8 14 9 12 10 8 11 9 12
REMARK SMILES IDX 84 13 10 14 11 15 6 16 5 17 7 19 4 20 1 21 2 22 3 23 87 24
REMARK SMILES IDX 86 25 88 26 85 27 22 28 23 29 24 30 25 31 26 32 27 33 28 34
REMARK SMILES IDX 29 35 30 36 31 37 83 38 32 39 82 40 33 41 34 42 35 43 76 44
REMARK SMILES IDX 36 45 81 46 75 47 77 48 37 49 80 50 74 51 73 52 38 54 64 55
REMARK SMILES IDX 47 56 63 57 48 58 51 59 62 60 78 61 49 62 50 63 61 65 79 66
REMARK SMILES IDX 52 67 39 68 40 69 45 70 41 71 42 72 44 73 46 74 43 75 65 76
REMARK SMILES IDX 66 77 71 78 67 79 68 80 70 81 72 82 69 83 53 84 54 85 59 86
REMARK SMILES IDX 55 87 56 88 58 89 60 90 57 91
REMARK H PARENT 5 18 77 53 51 64
REMARK Flexibility Score: inf
ROOT
ATOM      1  O   UNL A   1      43.523  20.235  25.292  1.00  0.00    -0.377 OA
ENDROOT
BRANCH   1   2
ATOM      2  C   UNL A   1      42.726  19.155  25.752  1.00  0.00     0.188 C 
BRANCH   2   3
ATOM      3  C   UNL A   1      41.365  19.639  26.265  1.00  0.00     0.188 C 
BRANCH   3   4
ATOM      4  O   UNL A   1      41.058  21.007  26.102  1.00  0.00    -0.376 OA
BRANCH   4   5
ATOM      5  C   UNL A   1      39.767  21.504  26.428  1.00  0.00     0.202 C 
BRANCH   5   6
ATOM      6  C   UNL A   1      38.579  21.528  25.441  1.00  0.00     0.261 C 
BRANCH   6   7
ATOM      7  O   UNL A   1      37.313  22.017  25.914  1.00  0.00    -0.463 OA
BRANCH   7   8
ATOM      8  C   UNL A   1      36.299  22.059  25.022  1.00  0.00     0.309 C 
ATOM      9  O   UNL A   1      35.859  21.068  24.455  1.00  0.00    -0.252 OA
BRANCH   8  10
ATOM     10  C   UNL A   1      35.805  23.493  24.761  1.00  0.00     0.100 C 
ATOM     11  C   UNL A   1      33.396  23.233  23.931  1.00  0.00     0.080 C 
ATOM     12  C   UNL A   1      32.954  24.404  24.808  1.00  0.00     0.013 C 
ATOM     13  C   UNL A   1      34.862  23.502  23.542  1.00  0.00     0.028 C 
ATOM     14  C   UNL A   1      33.711  24.340  26.130  1.00  0.00     0.002 C 
ATOM     15  C   UNL A   1      35.238  24.319  25.946  1.00  0.00     0.015 C 
BRANCH  11  16
ATOM     16  C   UNL A   1      32.505  23.016  22.719  1.00  0.00     0.228 C 
ATOM     17  N   UNL A   1      32.140  21.775  22.295  1.00  0.00    -0.310 N 
ATOM     18  H   UNL A   1      31.688  21.815  21.421  1.00  0.00     0.171 HD
ATOM     19  O   UNL A   1      32.110  23.984  22.059  1.00  0.00    -0.274 OA
BRANCH  17  20
ATOM     20  C   UNL A   1      32.232  20.463  22.760  1.00  0.00     0.132 A 
ATOM     21  C   UNL A   1      32.901  19.185  26.153  1.00  0.00     0.068 C 
ATOM     22  C   UNL A   1      32.707  19.176  24.665  1.00  0.00     0.054 A 
ATOM     23  N   UNL A   1      32.495  20.393  24.085  1.00  0.00    -0.235 NA
ATOM     24  C   UNL A   1      32.700  17.997  23.928  1.00  0.00     0.039 A 
ATOM     25  C   UNL A   1      32.422  18.079  22.573  1.00  0.00     0.021 A 
ATOM     26  Br  UNL A   1      33.045  16.292  24.672  1.00  0.00    -0.049 Br
ATOM     27  C   UNL A   1      32.148  19.318  21.992  1.00  0.00     0.048 A 
ENDBRANCH  17  20
ENDBRANCH  11  16
ENDBRANCH   8  10
ENDBRANCH   7   8
ENDBRANCH   6   7
ENDBRANCH   5   6
ENDBRANCH   4   5
ENDBRANCH   3   4
ENDBRANCH   2   3
ENDBRANCH   1   2
BRANCH   1  28
ATOM     28  C   UNL A   1      44.499  19.855  24.337  1.00  0.00     0.188 C 
BRANCH  28  29
ATOM     29  C   UNL A   1      45.968  19.896  24.791  1.00  0.00     0.188 C 
BRANCH  29  30
ATOM     30  O   UNL A   1      46.369  21.176  25.286  1.00  0.00    -0.376 OA
BRANCH  30  31
ATOM     31  C   UNL A   1      45.991  22.319  24.534  1.00  0.00     0.202 C 
BRANCH  31  32
ATOM     32  C   UNL A   1      45.772  23.554  25.416  1.00  0.00     0.261 C 
BRANCH  32  33
ATOM     33  O   UNL A   1      44.842  24.499  24.872  1.00  0.00    -0.460 OA
BRANCH  33  34
ATOM     34  C   UNL A   1      43.542  24.303  25.183  1.00  0.00     0.338 C 
ATOM     35  O   UNL A   1      42.780  23.477  24.713  1.00  0.00    -0.246 OA
BRANCH  34  36
ATOM     36  C   UNL A   1      43.259  25.125  26.370  1.00  0.00     0.060 A 
ATOM     37  C   UNL A   1      42.418  24.594  27.355  1.00  0.00     0.016 A 
ATOM     38  C   UNL A   1      43.883  26.363  26.545  1.00  0.00     0.016 A 
ATOM     39  C   UNL A   1      42.206  25.299  28.534  1.00  0.00     0.010 A 
ATOM     40  C   UNL A   1      43.618  27.099  27.698  1.00  0.00     0.010 A 
ATOM     41  C   UNL A   1      42.760  26.579  28.680  1.00  0.00    -0.014 A 
BRANCH  41  42
ATOM     42  C   UNL A   1      42.181  27.477  29.699  1.00  0.00     0.031 A 
ATOM     43  C   UNL A   1      42.851  27.491  31.045  1.00  0.00     0.074 A 
ATOM     44  C   UNL A   1      41.125  28.262  29.439  1.00  0.00     0.049 A 
ATOM     45  N   UNL A   1      42.572  28.200  32.106  1.00  0.00    -0.248 NA
ATOM     46  C   UNL A   1      44.004  26.588  31.208  1.00  0.00     0.031 C 
ATOM     47  C   UNL A   1      40.428  28.361  28.158  1.00  0.00     0.029 A 
ATOM     48  N   UNL A   1      40.451  29.130  30.259  1.00  0.00    -0.354 N 
ATOM     49  C   UNL A   1      43.536  27.855  33.044  1.00  0.00     0.074 A 
ATOM     50  C   UNL A   1      44.384  26.850  32.447  1.00  0.00     0.031 C 
ATOM     51  C   UNL A   1      39.408  29.231  28.285  1.00  0.00     0.029 A 
ATOM     52  C   UNL A   1      39.372  29.730  29.658  1.00  0.00     0.049 A 
ATOM     53  H   UNL A   1      40.716  29.307  31.190  1.00  0.00     0.167 HD
ATOM     54  C   UNL A   1      43.703  28.334  34.297  1.00  0.00     0.037 A 
ATOM     55  C   UNL A   1      38.458  30.570  30.178  1.00  0.00     0.037 A 
ATOM     56  C   UNL A   1      42.813  29.275  34.914  1.00  0.00     0.049 A 
ATOM     57  C   UNL A   1      38.583  30.982  31.624  1.00  0.00     0.074 A 
ATOM     58  C   UNL A   1      42.858  29.799  36.191  1.00  0.00     0.029 A 
ATOM     59  N   UNL A   1      41.690  29.808  34.296  1.00  0.00    -0.354 N 
ATOM     60  N   UNL A   1      39.516  30.679  32.497  1.00  0.00    -0.248 NA
ATOM     61  C   UNL A   1      37.527  31.855  32.157  1.00  0.00     0.031 C 
ATOM     62  C   UNL A   1      41.731  30.610  36.364  1.00  0.00     0.029 A 
ATOM     63  C   UNL A   1      41.018  30.635  35.176  1.00  0.00     0.049 A 
ATOM     64  H   UNL A   1      41.415  29.625  33.369  1.00  0.00     0.167 HD
ATOM     65  C   UNL A   1      39.175  31.346  33.669  1.00  0.00     0.074 A 
ATOM     66  C   UNL A   1      37.958  32.080  33.389  1.00  0.00     0.031 C 
ATOM     67  C   UNL A   1      39.808  31.354  34.869  1.00  0.00     0.037 A 
BRANCH  54  68
ATOM     68  C   UNL A   1      44.866  27.800  35.074  1.00  0.00     0.057 A 
ATOM     69  C   UNL A   1      46.124  28.409  34.991  1.00  0.00     0.134 A 
ATOM     70  C   UNL A   1      44.734  26.699  35.933  1.00  0.00     0.134 A 
ATOM     71  F   UNL A   1      46.313  29.474  34.199  1.00  0.00    -0.206 F 
ATOM     72  C   UNL A   1      47.209  27.942  35.733  1.00  0.00     0.040 A 
ATOM     73  C   UNL A   1      45.806  26.238  36.698  1.00  0.00     0.040 A 
ATOM     74  F   UNL A   1      43.546  26.092  36.082  1.00  0.00    -0.206 F 
ATOM     75  C   UNL A   1      47.050  26.858  36.594  1.00  0.00     0.006 A 
ENDBRANCH  54  68
BRANCH  55  76
ATOM     76  C   UNL A   1      37.326  31.065  29.352  1.00  0.00     0.057 A 
ATOM     77  C   UNL A   1      37.313  32.369  28.842  1.00  0.00     0.134 A 
ATOM     78  C   UNL A   1      36.261  30.227  29.002  1.00  0.00     0.134 A 
ATOM     79  F   UNL A   1      38.305  33.222  29.135  1.00  0.00    -0.206 F 
ATOM     80  C   UNL A   1      36.284  32.820  28.012  1.00  0.00     0.040 A 
ATOM     81  C   UNL A   1      35.239  30.657  28.154  1.00  0.00     0.040 A 
ATOM     82  F   UNL A   1      36.229  28.959  29.436  1.00  0.00    -0.206 F 
ATOM     83  C   UNL A   1      35.248  31.959  27.657  1.00  0.00     0.006 A 
ENDBRANCH  55  76
BRANCH  67  84
ATOM     84  C   UNL A   1      39.214  32.210  35.949  1.00  0.00     0.057 A 
ATOM     85  C   UNL A   1      38.212  31.703  36.786  1.00  0.00     0.134 A 
ATOM     86  C   UNL A   1      39.604  33.541  36.138  1.00  0.00     0.134 A 
ATOM     87  F   UNL A   1      37.784  30.439  36.649  1.00  0.00    -0.206 F 
ATOM     88  C   UNL A   1      37.618  32.490  37.772  1.00  0.00     0.040 A 
ATOM     89  C   UNL A   1      39.039  34.330  37.141  1.00  0.00     0.040 A 
ATOM     90  F   UNL A   1      40.566  34.084  35.376  1.00  0.00    -0.206 F 
ATOM     91  C   UNL A   1      38.037  33.806  37.956  1.00  0.00     0.006 A 
ENDBRANCH  67  84
ENDBRANCH  41  42
ENDBRANCH  34  36
ENDBRANCH  33  34
ENDBRANCH  32  33
ENDBRANCH  31  32
ENDBRANCH  30  31
ENDBRANCH  29  30
ENDBRANCH  28  29
ENDBRANCH   1  28
TORSDOF 22
ENDMDL
