MODEL 1
REMARK VINA RESULT:      -9.5      0.000      0.000
REMARK SMILES CC(C)[C@@H]([NH2+][C@@H]1CSCC(C)(C)C1)C(=O)OCCOCCOCCOCCOC(=O)c1ccc(-c2c3nc(c(-c4c(F)cccc4F)c4ccc([nH]4)c(-c4c(F)cccc4F)c4nc(c(-c5c(F)cccc5F)c5ccc2[nH]5)C=C4)C=C3)cc1
REMARK SMILES IDX 22 1 21 2 20 3 19 4 18 5 17 6 16 7 14 8 15 9 4 10 2 11 1 12
REMARK SMILES IDX 3 13 5 14 6 17 7 18 13 19 8 20 10 21 9 22 11 23 12 24 23 25
REMARK SMILES IDX 24 26 25 27 26 28 27 29 28 30 29 31 30 32 31 33 32 34 84 35
REMARK SMILES IDX 33 36 83 37 34 38 35 39 36 40 77 41 37 42 82 43 76 44 78 45
REMARK SMILES IDX 38 46 81 47 75 48 74 49 39 51 65 52 48 53 64 54 49 55 52 56
REMARK SMILES IDX 63 57 79 58 50 59 51 60 62 62 80 63 53 64 40 65 41 66 46 67
REMARK SMILES IDX 42 68 43 69 45 70 47 71 44 72 66 73 67 74 72 75 68 76 69 77
REMARK SMILES IDX 71 78 73 79 70 80 54 81 55 82 60 83 56 84 57 85 59 86 61 87
REMARK SMILES IDX 58 88
REMARK H PARENT 5 15 5 16 78 50 52 61
REMARK Flexibility Score: inf
ROOT
ATOM      1  O   UNL A   1      41.348  19.011  25.988  1.00  0.00    -0.377 OA
ENDROOT
BRANCH   1   2
ATOM      2  C   UNL A   1      40.760  20.038  26.752  1.00  0.00     0.188 C 
BRANCH   2   3
ATOM      3  C   UNL A   1      39.717  20.864  26.000  1.00  0.00     0.188 C 
BRANCH   3   4
ATOM      4  O   UNL A   1      38.734  20.222  25.211  1.00  0.00    -0.376 OA
BRANCH   4   5
ATOM      5  C   UNL A   1      37.415  20.730  25.054  1.00  0.00     0.202 C 
BRANCH   5   6
ATOM      6  C   UNL A   1      37.061  22.078  24.374  1.00  0.00     0.261 C 
BRANCH   6   7
ATOM      7  O   UNL A   1      35.669  22.489  24.338  1.00  0.00    -0.459 OA
BRANCH   7   8
ATOM      8  C   UNL A   1      35.417  23.528  25.164  1.00  0.00     0.365 C 
ATOM      9  O   UNL A   1      36.350  24.160  25.667  1.00  0.00    -0.245 OA
BRANCH   8  10
ATOM     10  C   UNL A   1      33.923  23.936  25.458  1.00  0.00     0.296 C 
BRANCH  10  11
ATOM     11  C   UNL A   1      33.140  23.392  26.714  1.00  0.00     0.053 C 
ATOM     12  C   UNL A   1      31.763  22.773  26.371  1.00  0.00     0.014 C 
ATOM     13  C   UNL A   1      33.883  22.249  27.434  1.00  0.00     0.014 C 
ENDBRANCH  10  11
BRANCH  10  14
ATOM     14  N   UNL A   1      33.837  25.433  25.390  1.00  0.00    -0.331 N 
ATOM     15  H   UNL A   1      34.771  25.806  25.563  1.00  0.00     0.347 HD
ATOM     16  H   UNL A   1      33.142  25.697  26.088  1.00  0.00     0.347 HD
BRANCH  14  17
ATOM     17  C   UNL A   1      33.352  26.005  24.114  1.00  0.00     0.193 C 
ATOM     18  C   UNL A   1      33.798  27.473  23.971  1.00  0.00     0.134 C 
ATOM     19  C   UNL A   1      31.840  25.843  23.819  1.00  0.00     0.073 C 
ATOM     20  S   UNL A   1      32.851  28.635  24.997  1.00  0.00    -0.155 SA
ATOM     21  C   UNL A   1      30.839  26.708  24.620  1.00  0.00    -0.021 C 
ATOM     22  C   UNL A   1      31.176  28.197  24.426  1.00  0.00     0.076 C 
ATOM     23  C   UNL A   1      30.764  26.355  26.117  1.00  0.00     0.012 C 
ATOM     24  C   UNL A   1      29.434  26.421  24.042  1.00  0.00     0.012 C 
ENDBRANCH  14  17
ENDBRANCH  10  14
ENDBRANCH   8  10
ENDBRANCH   7   8
ENDBRANCH   6   7
ENDBRANCH   5   6
ENDBRANCH   4   5
ENDBRANCH   3   4
ENDBRANCH   2   3
ENDBRANCH   1   2
BRANCH   1  25
ATOM     25  C   UNL A   1      42.576  18.413  26.383  1.00  0.00     0.188 C 
BRANCH  25  26
ATOM     26  C   UNL A   1      43.808  18.678  25.520  1.00  0.00     0.188 C 
BRANCH  26  27
ATOM     27  O   UNL A   1      43.864  19.917  24.810  1.00  0.00    -0.376 OA
BRANCH  27  28
ATOM     28  C   UNL A   1      43.762  21.138  25.540  1.00  0.00     0.202 C 
BRANCH  28  29
ATOM     29  C   UNL A   1      45.009  22.027  25.530  1.00  0.00     0.261 C 
BRANCH  29  30
ATOM     30  O   UNL A   1      44.886  23.188  26.367  1.00  0.00    -0.460 OA
BRANCH  30  31
ATOM     31  C   UNL A   1      44.720  24.356  25.713  1.00  0.00     0.338 C 
ATOM     32  O   UNL A   1      45.107  24.640  24.584  1.00  0.00    -0.246 OA
BRANCH  31  33
ATOM     33  C   UNL A   1      43.866  25.253  26.507  1.00  0.00     0.060 A 
ATOM     34  C   UNL A   1      44.092  26.633  26.434  1.00  0.00     0.016 A 
ATOM     35  C   UNL A   1      42.920  24.731  27.393  1.00  0.00     0.016 A 
ATOM     36  C   UNL A   1      43.409  27.496  27.286  1.00  0.00     0.010 A 
ATOM     37  C   UNL A   1      42.247  25.595  28.256  1.00  0.00     0.010 A 
ATOM     38  C   UNL A   1      42.522  26.974  28.235  1.00  0.00    -0.014 A 
BRANCH  38  39
ATOM     39  C   UNL A   1      42.028  27.839  29.328  1.00  0.00     0.031 A 
ATOM     40  C   UNL A   1      42.739  27.799  30.652  1.00  0.00     0.074 A 
ATOM     41  C   UNL A   1      40.970  28.645  29.144  1.00  0.00     0.049 A 
ATOM     42  N   UNL A   1      42.441  28.399  31.775  1.00  0.00    -0.248 NA
ATOM     43  C   UNL A   1      43.950  26.963  30.719  1.00  0.00     0.031 C 
ATOM     44  C   UNL A   1      40.230  28.794  27.892  1.00  0.00     0.029 A 
ATOM     45  N   UNL A   1      40.325  29.480  30.021  1.00  0.00    -0.354 N 
ATOM     46  C   UNL A   1      43.414  28.001  32.684  1.00  0.00     0.074 A 
ATOM     47  C   UNL A   1      44.296  27.088  31.991  1.00  0.00     0.031 C 
ATOM     48  C   UNL A   1      39.216  29.655  28.087  1.00  0.00     0.029 A 
ATOM     49  C   UNL A   1      39.217  30.085  29.484  1.00  0.00     0.049 A 
ATOM     50  H   UNL A   1      40.629  29.630  30.944  1.00  0.00     0.167 HD
ATOM     51  C   UNL A   1      43.559  28.370  33.978  1.00  0.00     0.037 A 
ATOM     52  C   UNL A   1      38.291  30.869  30.069  1.00  0.00     0.037 A 
ATOM     53  C   UNL A   1      42.675  29.280  34.656  1.00  0.00     0.049 A 
ATOM     54  C   UNL A   1      38.435  31.210  31.529  1.00  0.00     0.074 A 
ATOM     55  C   UNL A   1      42.746  29.741  35.959  1.00  0.00     0.029 A 
ATOM     56  N   UNL A   1      41.551  29.861  34.086  1.00  0.00    -0.354 N 
ATOM     57  N   UNL A   1      39.372  30.854  32.375  1.00  0.00    -0.248 NA
ATOM     58  C   UNL A   1      37.395  32.067  32.114  1.00  0.00     0.031 C 
ATOM     59  C   UNL A   1      41.632  30.552  36.195  1.00  0.00     0.029 A 
ATOM     60  C   UNL A   1      40.903  30.652  35.020  1.00  0.00     0.049 A 
ATOM     61  H   UNL A   1      41.259  29.730  33.155  1.00  0.00     0.167 HD
ATOM     62  C   UNL A   1      39.053  31.467  33.581  1.00  0.00     0.074 A 
ATOM     63  C   UNL A   1      37.842  32.228  33.352  1.00  0.00     0.031 C 
ATOM     64  C   UNL A   1      39.703  31.409  34.770  1.00  0.00     0.037 A 
BRANCH  51  65
ATOM     65  C   UNL A   1      44.693  27.762  34.752  1.00  0.00     0.057 A 
ATOM     66  C   UNL A   1      44.587  26.508  35.369  1.00  0.00     0.134 A 
ATOM     67  C   UNL A   1      45.920  28.429  34.854  1.00  0.00     0.134 A 
ATOM     68  F   UNL A   1      43.434  25.823  35.323  1.00  0.00    -0.206 F 
ATOM     69  C   UNL A   1      45.652  25.951  36.079  1.00  0.00     0.040 A 
ATOM     70  C   UNL A   1      47.002  27.868  35.537  1.00  0.00     0.040 A 
ATOM     71  F   UNL A   1      46.093  29.631  34.287  1.00  0.00    -0.206 F 
ATOM     72  C   UNL A   1      46.867  26.628  36.156  1.00  0.00     0.006 A 
ENDBRANCH  51  65
BRANCH  52  73
ATOM     73  C   UNL A   1      37.135  31.369  29.282  1.00  0.00     0.057 A 
ATOM     74  C   UNL A   1      36.025  30.556  29.024  1.00  0.00     0.134 A 
ATOM     75  C   UNL A   1      37.121  32.664  28.750  1.00  0.00     0.134 A 
ATOM     76  F   UNL A   1      35.989  29.297  29.488  1.00  0.00    -0.206 F 
ATOM     77  C   UNL A   1      34.955  31.003  28.249  1.00  0.00     0.040 A 
ATOM     78  C   UNL A   1      36.044  33.135  27.998  1.00  0.00     0.040 A 
ATOM     79  F   UNL A   1      38.152  33.495  28.964  1.00  0.00    -0.206 F 
ATOM     80  C   UNL A   1      34.961  32.300  27.738  1.00  0.00     0.006 A 
ENDBRANCH  52  73
BRANCH  64  81
ATOM     81  C   UNL A   1      39.145  32.225  35.902  1.00  0.00     0.057 A 
ATOM     82  C   UNL A   1      39.458  33.579  36.069  1.00  0.00     0.134 A 
ATOM     83  C   UNL A   1      38.245  31.653  36.811  1.00  0.00     0.134 A 
ATOM     84  F   UNL A   1      40.322  34.186  35.239  1.00  0.00    -0.206 F 
ATOM     85  C   UNL A   1      38.918  34.328  37.116  1.00  0.00     0.040 A 
ATOM     86  C   UNL A   1      37.674  32.400  37.842  1.00  0.00     0.040 A 
ATOM     87  F   UNL A   1      37.892  30.363  36.701  1.00  0.00    -0.206 F 
ATOM     88  C   UNL A   1      38.017  33.740  38.001  1.00  0.00     0.006 A 
ENDBRANCH  64  81
ENDBRANCH  38  39
ENDBRANCH  31  33
ENDBRANCH  30  31
ENDBRANCH  29  30
ENDBRANCH  28  29
ENDBRANCH  27  28
ENDBRANCH  26  27
ENDBRANCH  25  26
ENDBRANCH   1  25
TORSDOF 23
ENDMDL
MODEL 2
REMARK VINA RESULT:      -9.3      1.138      6.205
REMARK SMILES CC(C)[C@@H]([NH2+][C@@H]1CSCC(C)(C)C1)C(=O)OCCOCCOCCOCCOC(=O)c1ccc(-c2c3nc(c(-c4c(F)cccc4F)c4ccc([nH]4)c(-c4c(F)cccc4F)c4nc(c(-c5c(F)cccc5F)c5ccc2[nH]5)C=C4)C=C3)cc1
REMARK SMILES IDX 22 1 21 2 20 3 19 4 18 5 17 6 16 7 14 8 15 9 4 10 2 11 1 12
REMARK SMILES IDX 3 13 5 14 6 17 7 18 13 19 8 20 10 21 9 22 11 23 12 24 23 25
REMARK SMILES IDX 24 26 25 27 26 28 27 29 28 30 29 31 30 32 31 33 32 34 84 35
REMARK SMILES IDX 33 36 83 37 34 38 35 39 36 40 77 41 37 42 82 43 76 44 78 45
REMARK SMILES IDX 38 46 81 47 75 48 74 49 39 51 65 52 48 53 64 54 49 55 52 56
REMARK SMILES IDX 63 57 79 58 50 59 51 60 62 62 80 63 53 64 40 65 41 66 46 67
REMARK SMILES IDX 42 68 43 69 45 70 47 71 44 72 66 73 67 74 72 75 68 76 69 77
REMARK SMILES IDX 71 78 73 79 70 80 54 81 55 82 60 83 56 84 57 85 59 86 61 87
REMARK SMILES IDX 58 88
REMARK H PARENT 5 15 5 16 78 50 52 61
REMARK Flexibility Score: inf
ROOT
ATOM      1  O   UNL A   1      40.860  22.454  27.693  1.00  0.00    -0.377 OA
ENDROOT
BRANCH   1   2
ATOM      2  C   UNL A   1      39.893  22.788  26.725  1.00  0.00     0.188 C 
BRANCH   2   3
ATOM      3  C   UNL A   1      39.046  24.010  27.078  1.00  0.00     0.188 C 
BRANCH   3   4
ATOM      4  O   UNL A   1      37.767  24.181  26.499  1.00  0.00    -0.376 OA
BRANCH   4   5
ATOM      5  C   UNL A   1      37.280  23.364  25.442  1.00  0.00     0.202 C 
BRANCH   5   6
ATOM      6  C   UNL A   1      36.006  23.660  24.609  1.00  0.00     0.261 C 
BRANCH   6   7
ATOM      7  O   UNL A   1      34.797  24.051  25.312  1.00  0.00    -0.459 OA
BRANCH   7   8
ATOM      8  C   UNL A   1      33.676  23.702  24.642  1.00  0.00     0.365 C 
ATOM      9  O   UNL A   1      33.752  23.279  23.485  1.00  0.00    -0.245 OA
BRANCH   8  10
ATOM     10  C   UNL A   1      32.279  23.819  25.361  1.00  0.00     0.296 C 
BRANCH  10  11
ATOM     11  C   UNL A   1      31.739  22.696  26.326  1.00  0.00     0.053 C 
ATOM     12  C   UNL A   1      32.595  22.506  27.603  1.00  0.00     0.014 C 
ATOM     13  C   UNL A   1      30.331  23.002  26.874  1.00  0.00     0.014 C 
ENDBRANCH  10  11
BRANCH  10  14
ATOM     14  N   UNL A   1      32.220  25.162  26.028  1.00  0.00    -0.331 N 
ATOM     15  H   UNL A   1      33.141  25.591  25.944  1.00  0.00     0.347 HD
ATOM     16  H   UNL A   1      31.926  24.976  26.987  1.00  0.00     0.347 HD
BRANCH  14  17
ATOM     17  C   UNL A   1      31.226  26.119  25.490  1.00  0.00     0.193 C 
ATOM     18  C   UNL A   1      31.312  26.189  23.954  1.00  0.00     0.134 C 
ATOM     19  C   UNL A   1      31.224  27.534  26.121  1.00  0.00     0.073 C 
ATOM     20  S   UNL A   1      32.739  27.130  23.337  1.00  0.00    -0.155 SA
ATOM     21  C   UNL A   1      32.383  28.496  25.769  1.00  0.00    -0.021 C 
ATOM     22  C   UNL A   1      32.448  28.685  24.243  1.00  0.00     0.076 C 
ATOM     23  C   UNL A   1      33.751  28.058  26.324  1.00  0.00     0.012 C 
ATOM     24  C   UNL A   1      32.062  29.851  26.440  1.00  0.00     0.012 C 
ENDBRANCH  14  17
ENDBRANCH  10  14
ENDBRANCH   8  10
ENDBRANCH   7   8
ENDBRANCH   6   7
ENDBRANCH   5   6
ENDBRANCH   4   5
ENDBRANCH   3   4
ENDBRANCH   2   3
ENDBRANCH   1   2
BRANCH   1  25
ATOM     25  C   UNL A   1      41.676  21.298  27.548  1.00  0.00     0.188 C 
BRANCH  25  26
ATOM     26  C   UNL A   1      41.974  20.808  26.133  1.00  0.00     0.188 C 
BRANCH  26  27
ATOM     27  O   UNL A   1      42.805  21.630  25.310  1.00  0.00    -0.376 OA
BRANCH  27  28
ATOM     28  C   UNL A   1      44.198  21.339  25.224  1.00  0.00     0.202 C 
BRANCH  28  29
ATOM     29  C   UNL A   1      45.135  22.549  25.258  1.00  0.00     0.261 C 
BRANCH  29  30
ATOM     30  O   UNL A   1      44.764  23.530  26.239  1.00  0.00    -0.460 OA
BRANCH  30  31
ATOM     31  C   UNL A   1      44.759  24.807  25.805  1.00  0.00     0.338 C 
ATOM     32  O   UNL A   1      45.275  25.250  24.785  1.00  0.00    -0.246 OA
BRANCH  31  33
ATOM     33  C   UNL A   1      43.909  25.627  26.684  1.00  0.00     0.060 A 
ATOM     34  C   UNL A   1      44.248  26.971  26.881  1.00  0.00     0.016 A 
ATOM     35  C   UNL A   1      42.849  25.048  27.386  1.00  0.00     0.016 A 
ATOM     36  C   UNL A   1      43.561  27.731  27.823  1.00  0.00     0.010 A 
ATOM     37  C   UNL A   1      42.171  25.806  28.340  1.00  0.00     0.010 A 
ATOM     38  C   UNL A   1      42.554  27.136  28.592  1.00  0.00    -0.014 A 
BRANCH  38  39
ATOM     39  C   UNL A   1      42.032  27.837  29.785  1.00  0.00     0.031 A 
ATOM     40  C   UNL A   1      40.794  28.677  29.639  1.00  0.00     0.074 A 
ATOM     41  C   UNL A   1      42.646  27.723  30.974  1.00  0.00     0.049 A 
ATOM     42  N   UNL A   1      40.202  29.446  30.516  1.00  0.00    -0.248 NA
ATOM     43  C   UNL A   1      40.138  28.652  28.320  1.00  0.00     0.031 C 
ATOM     44  C   UNL A   1      43.827  26.903  31.240  1.00  0.00     0.029 A 
ATOM     45  N   UNL A   1      42.365  28.314  32.179  1.00  0.00    -0.354 N 
ATOM     46  C   UNL A   1      39.117  30.007  29.853  1.00  0.00     0.074 A 
ATOM     47  C   UNL A   1      39.146  29.512  28.494  1.00  0.00     0.031 C 
ATOM     48  C   UNL A   1      44.184  27.061  32.526  1.00  0.00     0.029 A 
ATOM     49  C   UNL A   1      43.278  28.019  33.159  1.00  0.00     0.049 A 
ATOM     50  H   UNL A   1      41.583  28.894  32.326  1.00  0.00     0.167 HD
ATOM     51  C   UNL A   1      38.180  30.853  30.338  1.00  0.00     0.037 A 
ATOM     52  C   UNL A   1      43.387  28.496  34.414  1.00  0.00     0.037 A 
ATOM     53  C   UNL A   1      38.160  31.337  31.693  1.00  0.00     0.049 A 
ATOM     54  C   UNL A   1      42.370  29.491  34.910  1.00  0.00     0.074 A 
ATOM     55  C   UNL A   1      37.241  32.177  32.295  1.00  0.00     0.029 A 
ATOM     56  N   UNL A   1      39.112  31.030  32.655  1.00  0.00    -0.354 N 
ATOM     57  N   UNL A   1      41.331  29.995  34.288  1.00  0.00    -0.248 NA
ATOM     58  C   UNL A   1      42.539  29.980  36.285  1.00  0.00     0.031 C 
ATOM     59  C   UNL A   1      37.670  32.426  33.602  1.00  0.00     0.029 A 
ATOM     60  C   UNL A   1      38.820  31.688  33.837  1.00  0.00     0.049 A 
ATOM     61  H   UNL A   1      39.882  30.431  32.516  1.00  0.00     0.167 HD
ATOM     62  C   UNL A   1      40.706  30.834  35.203  1.00  0.00     0.074 A 
ATOM     63  C   UNL A   1      41.476  30.759  36.428  1.00  0.00     0.031 C 
ATOM     64  C   UNL A   1      39.594  31.594  35.048  1.00  0.00     0.037 A 
BRANCH  51  65
ATOM     65  C   UNL A   1      37.120  31.336  29.390  1.00  0.00     0.057 A 
ATOM     66  C   UNL A   1      36.020  30.544  29.034  1.00  0.00     0.134 A 
ATOM     67  C   UNL A   1      37.187  32.627  28.850  1.00  0.00     0.134 A 
ATOM     68  F   UNL A   1      35.903  29.293  29.505  1.00  0.00    -0.206 F 
ATOM     69  C   UNL A   1      35.038  31.010  28.158  1.00  0.00     0.040 A 
ATOM     70  C   UNL A   1      36.196  33.114  27.995  1.00  0.00     0.040 A 
ATOM     71  F   UNL A   1      38.211  33.439  29.148  1.00  0.00    -0.206 F 
ATOM     72  C   UNL A   1      35.120  32.302  27.643  1.00  0.00     0.006 A 
ENDBRANCH  51  65
BRANCH  52  73
ATOM     73  C   UNL A   1      44.509  28.059  35.282  1.00  0.00     0.057 A 
ATOM     74  C   UNL A   1      44.381  26.957  36.136  1.00  0.00     0.134 A 
ATOM     75  C   UNL A   1      45.730  28.745  35.295  1.00  0.00     0.134 A 
ATOM     76  F   UNL A   1      43.228  26.272  36.185  1.00  0.00    -0.206 F 
ATOM     77  C   UNL A   1      45.415  26.567  36.988  1.00  0.00     0.040 A 
ATOM     78  C   UNL A   1      46.784  28.348  36.120  1.00  0.00     0.040 A 
ATOM     79  F   UNL A   1      45.919  29.806  34.498  1.00  0.00    -0.206 F 
ATOM     80  C   UNL A   1      46.624  27.261  36.976  1.00  0.00     0.006 A 
ENDBRANCH  52  73
BRANCH  64  81
ATOM     81  C   UNL A   1      39.118  32.371  36.243  1.00  0.00     0.057 A 
ATOM     82  C   UNL A   1      39.528  33.688  36.486  1.00  0.00     0.134 A 
ATOM     83  C   UNL A   1      38.200  31.804  37.137  1.00  0.00     0.134 A 
ATOM     84  F   UNL A   1      40.413  34.287  35.674  1.00  0.00    -0.206 F 
ATOM     85  C   UNL A   1      39.063  34.403  37.592  1.00  0.00     0.040 A 
ATOM     86  C   UNL A   1      37.705  32.521  38.227  1.00  0.00     0.040 A 
ATOM     87  F   UNL A   1      37.757  30.551  36.956  1.00  0.00    -0.206 F 
ATOM     88  C   UNL A   1      38.143  33.822  38.461  1.00  0.00     0.006 A 
ENDBRANCH  64  81
ENDBRANCH  38  39
ENDBRANCH  31  33
ENDBRANCH  30  31
ENDBRANCH  29  30
ENDBRANCH  28  29
ENDBRANCH  27  28
ENDBRANCH  26  27
ENDBRANCH  25  26
ENDBRANCH   1  25
TORSDOF 23
ENDMDL
MODEL 3
REMARK VINA RESULT:      -8.9      1.688      6.437
REMARK SMILES CC(C)[C@@H]([NH2+][C@@H]1CSCC(C)(C)C1)C(=O)OCCOCCOCCOCCOC(=O)c1ccc(-c2c3nc(c(-c4c(F)cccc4F)c4ccc([nH]4)c(-c4c(F)cccc4F)c4nc(c(-c5c(F)cccc5F)c5ccc2[nH]5)C=C4)C=C3)cc1
REMARK SMILES IDX 22 1 21 2 20 3 19 4 18 5 17 6 16 7 14 8 15 9 4 10 2 11 1 12
REMARK SMILES IDX 3 13 5 14 6 17 7 18 13 19 8 20 10 21 9 22 11 23 12 24 23 25
REMARK SMILES IDX 24 26 25 27 26 28 27 29 28 30 29 31 30 32 31 33 32 34 84 35
REMARK SMILES IDX 33 36 83 37 34 38 35 39 36 40 77 41 37 42 82 43 76 44 78 45
REMARK SMILES IDX 38 46 81 47 75 48 74 49 39 51 65 52 48 53 64 54 49 55 52 56
REMARK SMILES IDX 63 57 79 58 50 59 51 60 62 62 80 63 53 64 40 65 41 66 46 67
REMARK SMILES IDX 42 68 43 69 45 70 47 71 44 72 66 73 67 74 72 75 68 76 69 77
REMARK SMILES IDX 71 78 73 79 70 80 54 81 55 82 60 83 56 84 57 85 59 86 61 87
REMARK SMILES IDX 58 88
REMARK H PARENT 5 15 5 16 78 50 52 61
REMARK Flexibility Score: inf
ROOT
ATOM      1  O   UNL A   1      40.268  22.319  27.518  1.00  0.00    -0.377 OA
ENDROOT
BRANCH   1   2
ATOM      2  C   UNL A   1      39.297  22.627  26.545  1.00  0.00     0.188 C 
BRANCH   2   3
ATOM      3  C   UNL A   1      38.882  21.443  25.673  1.00  0.00     0.188 C 
BRANCH   3   4
ATOM      4  O   UNL A   1      37.766  21.550  24.811  1.00  0.00    -0.376 OA
BRANCH   4   5
ATOM      5  C   UNL A   1      36.503  20.966  25.104  1.00  0.00     0.202 C 
BRANCH   5   6
ATOM      6  C   UNL A   1      35.467  21.550  26.098  1.00  0.00     0.261 C 
BRANCH   6   7
ATOM      7  O   UNL A   1      35.342  22.994  26.196  1.00  0.00    -0.459 OA
BRANCH   7   8
ATOM      8  C   UNL A   1      34.058  23.406  26.108  1.00  0.00     0.365 C 
ATOM      9  O   UNL A   1      33.424  23.683  27.130  1.00  0.00    -0.245 OA
BRANCH   8  10
ATOM     10  C   UNL A   1      33.389  23.552  24.689  1.00  0.00     0.296 C 
BRANCH  10  11
ATOM     11  C   UNL A   1      32.120  22.714  24.273  1.00  0.00     0.053 C 
ATOM     12  C   UNL A   1      32.251  22.027  22.892  1.00  0.00     0.014 C 
ATOM     13  C   UNL A   1      31.832  21.545  25.236  1.00  0.00     0.014 C 
ENDBRANCH  10  11
BRANCH  10  14
ATOM     14  N   UNL A   1      33.162  25.014  24.439  1.00  0.00    -0.331 N 
ATOM     15  H   UNL A   1      33.434  25.211  23.476  1.00  0.00     0.347 HD
ATOM     16  H   UNL A   1      33.720  25.499  25.142  1.00  0.00     0.347 HD
BRANCH  14  17
ATOM     17  C   UNL A   1      31.778  25.505  24.627  1.00  0.00     0.193 C 
ATOM     18  C   UNL A   1      31.343  26.377  23.433  1.00  0.00     0.134 C 
ATOM     19  C   UNL A   1      31.473  26.202  25.977  1.00  0.00     0.073 C 
ATOM     20  S   UNL A   1      32.068  28.043  23.434  1.00  0.00    -0.155 SA
ATOM     21  C   UNL A   1      32.039  27.622  26.214  1.00  0.00    -0.021 C 
ATOM     22  C   UNL A   1      31.546  28.564  25.101  1.00  0.00     0.076 C 
ATOM     23  C   UNL A   1      33.573  27.672  26.333  1.00  0.00     0.012 C 
ATOM     24  C   UNL A   1      31.487  28.103  27.575  1.00  0.00     0.012 C 
ENDBRANCH  14  17
ENDBRANCH  10  14
ENDBRANCH   8  10
ENDBRANCH   7   8
ENDBRANCH   6   7
ENDBRANCH   5   6
ENDBRANCH   4   5
ENDBRANCH   3   4
ENDBRANCH   2   3
ENDBRANCH   1   2
BRANCH   1  25
ATOM     25  C   UNL A   1      41.055  21.137  27.422  1.00  0.00     0.188 C 
BRANCH  25  26
ATOM     26  C   UNL A   1      42.490  21.276  26.919  1.00  0.00     0.188 C 
BRANCH  26  27
ATOM     27  O   UNL A   1      42.695  21.310  25.505  1.00  0.00    -0.376 OA
BRANCH  27  28
ATOM     28  C   UNL A   1      43.028  22.549  24.884  1.00  0.00     0.202 C 
BRANCH  28  29
ATOM     29  C   UNL A   1      43.181  23.747  25.825  1.00  0.00     0.261 C 
BRANCH  29  30
ATOM     30  O   UNL A   1      42.057  24.642  25.793  1.00  0.00    -0.460 OA
BRANCH  30  31
ATOM     31  C   UNL A   1      42.367  25.953  25.719  1.00  0.00     0.338 C 
ATOM     32  O   UNL A   1      42.522  26.628  24.707  1.00  0.00    -0.246 OA
BRANCH  31  33
ATOM     33  C   UNL A   1      42.374  26.538  27.070  1.00  0.00     0.060 A 
ATOM     34  C   UNL A   1      41.551  25.970  28.051  1.00  0.00     0.016 A 
ATOM     35  C   UNL A   1      43.108  27.696  27.337  1.00  0.00     0.016 A 
ATOM     36  C   UNL A   1      41.416  26.591  29.289  1.00  0.00     0.010 A 
ATOM     37  C   UNL A   1      42.961  28.324  28.574  1.00  0.00     0.010 A 
ATOM     38  C   UNL A   1      42.081  27.797  29.536  1.00  0.00    -0.014 A 
BRANCH  38  39
ATOM     39  C   UNL A   1      41.715  28.607  30.717  1.00  0.00     0.031 A 
ATOM     40  C   UNL A   1      40.539  29.539  30.612  1.00  0.00     0.074 A 
ATOM     41  C   UNL A   1      42.412  28.512  31.861  1.00  0.00     0.049 A 
ATOM     42  N   UNL A   1      40.083  30.404  31.480  1.00  0.00    -0.248 NA
ATOM     43  C   UNL A   1      39.778  29.491  29.352  1.00  0.00     0.031 C 
ATOM     44  C   UNL A   1      43.543  27.614  32.089  1.00  0.00     0.029 A 
ATOM     45  N   UNL A   1      42.277  29.195  33.043  1.00  0.00    -0.354 N 
ATOM     46  C   UNL A   1      38.995  31.014  30.867  1.00  0.00     0.074 A 
ATOM     47  C   UNL A   1      38.875  30.440  29.544  1.00  0.00     0.031 C 
ATOM     48  C   UNL A   1      44.014  27.816  33.331  1.00  0.00     0.029 A 
ATOM     49  C   UNL A   1      43.241  28.881  33.968  1.00  0.00     0.049 A 
ATOM     50  H   UNL A   1      41.559  29.846  33.211  1.00  0.00     0.167 HD
ATOM     51  C   UNL A   1      38.170  31.962  31.366  1.00  0.00     0.037 A 
ATOM     52  C   UNL A   1      43.488  29.420  35.177  1.00  0.00     0.037 A 
ATOM     53  C   UNL A   1      38.298  32.525  32.684  1.00  0.00     0.049 A 
ATOM     54  C   UNL A   1      42.597  30.525  35.684  1.00  0.00     0.074 A 
ATOM     55  C   UNL A   1      37.500  33.473  33.298  1.00  0.00     0.029 A 
ATOM     56  N   UNL A   1      39.298  32.196  33.588  1.00  0.00    -0.354 N 
ATOM     57  N   UNL A   1      41.554  31.077  35.111  1.00  0.00    -0.248 NA
ATOM     58  C   UNL A   1      42.915  31.077  37.007  1.00  0.00     0.031 C 
ATOM     59  C   UNL A   1      38.052  33.761  34.550  1.00  0.00     0.029 A 
ATOM     60  C   UNL A   1      39.155  32.944  34.744  1.00  0.00     0.049 A 
ATOM     61  H   UNL A   1      40.004  31.527  33.431  1.00  0.00     0.167 HD
ATOM     62  C   UNL A   1      41.073  32.016  36.015  1.00  0.00     0.074 A 
ATOM     63  C   UNL A   1      41.932  31.949  37.180  1.00  0.00     0.031 C 
ATOM     64  C   UNL A   1      40.016  32.857  35.896  1.00  0.00     0.037 A 
BRANCH  51  65
ATOM     65  C   UNL A   1      37.078  32.476  30.471  1.00  0.00     0.057 A 
ATOM     66  C   UNL A   1      35.790  31.925  30.474  1.00  0.00     0.134 A 
ATOM     67  C   UNL A   1      37.313  33.561  29.617  1.00  0.00     0.134 A 
ATOM     68  F   UNL A   1      35.502  30.874  31.258  1.00  0.00    -0.206 F 
ATOM     69  C   UNL A   1      34.782  32.419  29.644  1.00  0.00     0.040 A 
ATOM     70  C   UNL A   1      36.305  34.082  28.803  1.00  0.00     0.040 A 
ATOM     71  F   UNL A   1      38.522  34.139  29.564  1.00  0.00    -0.206 F 
ATOM     72  C   UNL A   1      35.037  33.507  28.811  1.00  0.00     0.006 A 
ENDBRANCH  51  65
BRANCH  52  73
ATOM     73  C   UNL A   1      44.639  28.942  35.984  1.00  0.00     0.057 A 
ATOM     74  C   UNL A   1      45.912  29.508  35.842  1.00  0.00     0.134 A 
ATOM     75  C   UNL A   1      44.500  27.893  36.901  1.00  0.00     0.134 A 
ATOM     76  F   UNL A   1      46.114  30.502  34.964  1.00  0.00    -0.206 F 
ATOM     77  C   UNL A   1      47.008  29.034  36.565  1.00  0.00     0.040 A 
ATOM     78  C   UNL A   1      45.581  27.429  37.653  1.00  0.00     0.040 A 
ATOM     79  F   UNL A   1      43.307  27.310  37.088  1.00  0.00    -0.206 F 
ATOM     80  C   UNL A   1      46.841  27.994  37.478  1.00  0.00     0.006 A 
ENDBRANCH  52  73
BRANCH  64  81
ATOM     81  C   UNL A   1      39.700  33.740  37.071  1.00  0.00     0.057 A 
ATOM     82  C   UNL A   1      40.187  35.049  37.170  1.00  0.00     0.134 A 
ATOM     83  C   UNL A   1      38.860  33.283  38.095  1.00  0.00     0.134 A 
ATOM     84  F   UNL A   1      41.005  35.544  36.228  1.00  0.00    -0.206 F 
ATOM     85  C   UNL A   1      39.872  35.863  38.259  1.00  0.00     0.040 A 
ATOM     86  C   UNL A   1      38.513  34.099  39.172  1.00  0.00     0.040 A 
ATOM     87  F   UNL A   1      38.350  32.043  38.056  1.00  0.00    -0.206 F 
ATOM     88  C   UNL A   1      39.026  35.390  39.260  1.00  0.00     0.006 A 
ENDBRANCH  64  81
ENDBRANCH  38  39
ENDBRANCH  31  33
ENDBRANCH  30  31
ENDBRANCH  29  30
ENDBRANCH  28  29
ENDBRANCH  27  28
ENDBRANCH  26  27
ENDBRANCH  25  26
ENDBRANCH   1  25
TORSDOF 23
ENDMDL
