MODEL 1
REMARK VINA RESULT:     -10.5      0.000      0.000
REMARK SMILES Cc1cccc(OCC(=O)Nc2cc(C(=O)OCCOCCOCCOCCOC(=O)c3ccc(-c4c5nc(c(-c6c(F)cccc6F)c6ccc([nH]6)c(-c6c(F)cccc6F)c6nc(c(-c7c(F)cccc7F)c7ccc4[nH]7)C=C6)C=C5)cc3)c(Cl)cc2Cl)c1
REMARK SMILES IDX 22 1 21 2 20 3 19 4 18 5 17 6 15 7 16 8 14 9 12 10 13 11
REMARK SMILES IDX 89 12 88 13 90 14 86 15 87 16 11 17 9 18 10 19 8 21 7 22
REMARK SMILES IDX 6 23 1 24 2 25 3 26 91 27 4 28 5 29 23 30 24 31 25 32 26 33
REMARK SMILES IDX 27 34 28 35 29 36 30 37 31 38 32 39 33 40 85 41 34 42 84 43
REMARK SMILES IDX 35 44 36 45 37 46 78 47 38 48 83 49 77 50 79 51 39 52 82 53
REMARK SMILES IDX 76 54 75 55 40 57 66 58 49 59 65 60 50 61 53 62 64 63 80 64
REMARK SMILES IDX 51 65 52 66 63 68 81 69 54 70 41 71 42 72 47 73 43 74 44 75
REMARK SMILES IDX 46 76 48 77 45 78 67 79 68 80 73 81 69 82 70 83 72 84 74 85
REMARK SMILES IDX 71 86 55 87 56 88 61 89 57 90 58 91 60 92 62 93 59 94
REMARK H PARENT 11 20 79 56 53 67
REMARK Flexibility Score: inf
ROOT
ATOM      1  C   UNL A   1      41.577  26.803  27.661  1.00  0.00     0.188 C 
ENDROOT
BRANCH   1   2
ATOM      2  C   UNL A   1      40.098  26.494  27.322  1.00  0.00     0.188 C 
BRANCH   2   3
ATOM      3  O   UNL A   1      39.353  25.094  27.624  1.00  0.00    -0.376 OA
BRANCH   3   4
ATOM      4  C   UNL A   1      39.411  23.556  26.836  1.00  0.00     0.202 C 
BRANCH   4   5
ATOM      5  C   UNL A   1      38.261  22.485  25.834  1.00  0.00     0.261 C 
BRANCH   5   6
ATOM      6  O   UNL A   1      36.505  21.973  26.163  1.00  0.00    -0.460 OA
BRANCH   6   7
ATOM      7  C   UNL A   1      35.042  21.802  25.512  1.00  0.00     0.339 C 
ATOM      8  O   UNL A   1      34.835  20.716  24.958  1.00  0.00    -0.246 OA
BRANCH   7   9
ATOM      9  C   UNL A   1      33.690  22.913  25.415  1.00  0.00     0.080 A 
ATOM     10  C   UNL A   1      32.062  24.539  24.155  1.00  0.00     0.061 A 
ATOM     11  C   UNL A   1      33.264  23.828  24.333  1.00  0.00     0.045 A 
ATOM     12  C   UNL A   1      31.345  24.665  25.334  1.00  0.00     0.066 A 
ATOM     13  C   UNL A   1      31.761  23.998  26.503  1.00  0.00     0.044 A 
ATOM     14  Cl  UNL A   1      29.982  25.728  25.432  1.00  0.00    -0.082 Cl
ATOM     15  C   UNL A   1      32.876  23.105  26.540  1.00  0.00     0.057 A 
ATOM     16  Cl  UNL A   1      33.156  22.400  28.093  1.00  0.00    -0.083 Cl
BRANCH  10  17
ATOM     17  N   UNL A   1      31.700  25.341  23.011  1.00  0.00    -0.322 N 
ATOM     18  C   UNL A   1      31.829  26.605  22.459  1.00  0.00     0.262 C 
ATOM     19  O   UNL A   1      30.886  26.926  21.714  1.00  0.00    -0.271 OA
ATOM     20  H   UNL A   1      31.166  24.786  22.398  1.00  0.00     0.170 HD
BRANCH  18  21
ATOM     21  C   UNL A   1      33.152  27.460  22.346  1.00  0.00     0.329 C 
BRANCH  21  22
ATOM     22  O   UNL A   1      33.945  28.062  23.368  1.00  0.00    -0.484 OA
BRANCH  22  23
ATOM     23  C   UNL A   1      33.524  28.475  24.602  1.00  0.00     0.120 A 
ATOM     24  C   UNL A   1      31.649  31.084  26.649  1.00  0.00     0.044 C 
ATOM     25  C   UNL A   1      32.331  29.812  26.245  1.00  0.00    -0.047 A 
ATOM     26  C   UNL A   1      32.335  28.754  27.163  1.00  0.00     0.003 A 
ATOM     27  C   UNL A   1      32.905  29.661  24.955  1.00  0.00     0.049 A 
ATOM     28  C   UNL A   1      33.050  27.614  26.869  1.00  0.00     0.004 A 
ATOM     29  C   UNL A   1      33.677  27.521  25.625  1.00  0.00     0.046 A 
ENDBRANCH  22  23
ENDBRANCH  21  22
ENDBRANCH  18  21
ENDBRANCH  10  17
ENDBRANCH   7   9
ENDBRANCH   6   7
ENDBRANCH   5   6
ENDBRANCH   4   5
ENDBRANCH   3   4
ENDBRANCH   2   3
ENDBRANCH   1   2
BRANCH   1  30
ATOM     30  O   UNL A   1      42.280  27.815  26.994  1.00  0.00    -0.377 OA
BRANCH  30  31
ATOM     31  C   UNL A   1      43.684  27.756  26.925  1.00  0.00     0.188 C 
BRANCH  31  32
ATOM     32  C   UNL A   1      44.421  27.712  25.595  1.00  0.00     0.188 C 
BRANCH  32  33
ATOM     33  O   UNL A   1      45.832  27.622  25.712  1.00  0.00    -0.376 OA
BRANCH  33  34
ATOM     34  C   UNL A   1      46.486  26.439  25.257  1.00  0.00     0.202 C 
BRANCH  34  35
ATOM     35  C   UNL A   1      47.998  26.278  25.499  1.00  0.00     0.261 C 
BRANCH  35  36
ATOM     36  O   UNL A   1      48.258  26.262  26.920  1.00  0.00    -0.460 OA
BRANCH  36  37
ATOM     37  C   UNL A   1      47.751  25.243  27.637  1.00  0.00     0.338 C 
ATOM     38  O   UNL A   1      47.903  24.033  27.376  1.00  0.00    -0.246 OA
BRANCH  37  39
ATOM     39  C   UNL A   1      46.721  25.770  28.580  1.00  0.00     0.060 A 
ATOM     40  C   UNL A   1      47.088  26.547  29.665  1.00  0.00     0.016 A 
ATOM     41  C   UNL A   1      45.429  25.226  28.579  1.00  0.00     0.016 A 
ATOM     42  C   UNL A   1      46.232  26.593  30.782  1.00  0.00     0.010 A 
ATOM     43  C   UNL A   1      44.701  25.105  29.778  1.00  0.00     0.010 A 
ATOM     44  C   UNL A   1      45.184  25.645  30.976  1.00  0.00    -0.014 A 
BRANCH  44  45
ATOM     45  C   UNL A   1      44.432  25.263  32.446  1.00  0.00     0.031 A 
ATOM     46  C   UNL A   1      43.874  26.952  32.644  1.00  0.00     0.074 A 
ATOM     47  C   UNL A   1      44.587  23.993  33.567  1.00  0.00     0.049 A 
ATOM     48  N   UNL A   1      44.035  27.675  33.726  1.00  0.00    -0.248 NA
ATOM     49  C   UNL A   1      43.456  27.897  31.582  1.00  0.00     0.031 C 
ATOM     50  C   UNL A   1      44.235  23.801  35.234  1.00  0.00     0.029 A 
ATOM     51  N   UNL A   1      45.478  22.764  33.740  1.00  0.00    -0.354 N 
ATOM     52  C   UNL A   1      43.210  28.731  33.703  1.00  0.00     0.074 A 
ATOM     53  C   UNL A   1      43.129  28.997  32.290  1.00  0.00     0.031 C 
ATOM     54  C   UNL A   1      44.851  22.836  35.898  1.00  0.00     0.029 A 
ATOM     55  C   UNL A   1      45.931  22.520  35.076  1.00  0.00     0.049 A 
ATOM     56  H   UNL A   1      45.723  22.180  32.985  1.00  0.00     0.167 HD
ATOM     57  C   UNL A   1      42.543  29.065  34.851  1.00  0.00     0.037 A 
ATOM     58  C   UNL A   1      47.186  22.652  35.607  1.00  0.00     0.037 A 
ATOM     59  C   UNL A   1      42.790  28.110  35.994  1.00  0.00     0.049 A 
ATOM     60  C   UNL A   1      47.108  23.718  36.800  1.00  0.00     0.074 A 
ATOM     61  C   UNL A   1      41.986  27.121  36.555  1.00  0.00     0.029 A 
ATOM     62  N   UNL A   1      44.076  27.858  36.536  1.00  0.00    -0.354 N 
ATOM     63  N   UNL A   1      46.319  24.780  36.762  1.00  0.00    -0.248 NA
ATOM     64  C   UNL A   1      47.591  23.531  38.165  1.00  0.00     0.031 C 
ATOM     65  C   UNL A   1      42.775  26.287  37.406  1.00  0.00     0.029 A 
ATOM     66  C   UNL A   1      44.096  26.732  37.386  1.00  0.00     0.049 A 
ATOM     67  H   UNL A   1      44.868  28.409  36.340  1.00  0.00     0.167 HD
ATOM     68  C   UNL A   1      46.085  25.331  38.006  1.00  0.00     0.074 A 
ATOM     69  C   UNL A   1      46.905  24.469  38.847  1.00  0.00     0.031 C 
ATOM     70  C   UNL A   1      45.230  26.389  38.297  1.00  0.00     0.037 A 
BRANCH  57  71
ATOM     71  C   UNL A   1      41.345  29.994  34.722  1.00  0.00     0.057 A 
ATOM     72  C   UNL A   1      41.318  31.294  35.256  1.00  0.00     0.134 A 
ATOM     73  C   UNL A   1      40.134  29.599  34.119  1.00  0.00     0.134 A 
ATOM     74  F   UNL A   1      42.421  31.896  35.717  1.00  0.00    -0.206 F 
ATOM     75  C   UNL A   1      40.145  32.063  35.329  1.00  0.00     0.040 A 
ATOM     76  C   UNL A   1      38.942  30.329  34.231  1.00  0.00     0.040 A 
ATOM     77  F   UNL A   1      40.068  28.499  33.354  1.00  0.00    -0.206 F 
ATOM     78  C   UNL A   1      38.939  31.563  34.859  1.00  0.00     0.006 A 
ENDBRANCH  57  71
BRANCH  58  79
ATOM     79  C   UNL A   1      48.298  22.305  34.653  1.00  0.00     0.057 A 
ATOM     80  C   UNL A   1      49.186  23.335  34.234  1.00  0.00     0.134 A 
ATOM     81  C   UNL A   1      48.702  21.004  34.352  1.00  0.00     0.134 A 
ATOM     82  F   UNL A   1      48.906  24.624  34.489  1.00  0.00    -0.206 F 
ATOM     83  C   UNL A   1      50.436  23.083  33.670  1.00  0.00     0.040 A 
ATOM     84  C   UNL A   1      49.980  20.737  33.826  1.00  0.00     0.040 A 
ATOM     85  F   UNL A   1      47.945  19.963  34.723  1.00  0.00    -0.206 F 
ATOM     86  C   UNL A   1      50.860  21.773  33.512  1.00  0.00     0.006 A 
ENDBRANCH  58  79
BRANCH  70  87
ATOM     87  C   UNL A   1      45.252  27.195  39.614  1.00  0.00     0.057 A 
ATOM     88  C   UNL A   1      45.618  28.544  39.732  1.00  0.00     0.134 A 
ATOM     89  C   UNL A   1      44.721  26.650  40.816  1.00  0.00     0.134 A 
ATOM     90  F   UNL A   1      46.014  29.276  38.686  1.00  0.00    -0.206 F 
ATOM     91  C   UNL A   1      45.521  29.264  40.934  1.00  0.00     0.040 A 
ATOM     92  C   UNL A   1      44.551  27.378  41.997  1.00  0.00     0.040 A 
ATOM     93  F   UNL A   1      44.292  25.386  40.917  1.00  0.00    -0.206 F 
ATOM     94  C   UNL A   1      44.963  28.692  42.065  1.00  0.00     0.006 A 
ENDBRANCH  70  87
ENDBRANCH  44  45
ENDBRANCH  37  39
ENDBRANCH  36  37
ENDBRANCH  35  36
ENDBRANCH  34  35
ENDBRANCH  33  34
ENDBRANCH  32  33
ENDBRANCH  31  32
ENDBRANCH  30  31
ENDBRANCH   1  30
TORSDOF 24
ENDMDL
MODEL 2
REMARK VINA RESULT:     -10.3      2.926      7.204
REMARK SMILES Cc1cccc(OCC(=O)Nc2cc(C(=O)OCCOCCOCCOCCOC(=O)c3ccc(-c4c5nc(c(-c6c(F)cccc6F)c6ccc([nH]6)c(-c6c(F)cccc6F)c6nc(c(-c7c(F)cccc7F)c7ccc4[nH]7)C=C6)C=C5)cc3)c(Cl)cc2Cl)c1
REMARK SMILES IDX 22 1 21 2 20 3 19 4 18 5 17 6 15 7 16 8 14 9 12 10 13 11
REMARK SMILES IDX 89 12 88 13 90 14 86 15 87 16 11 17 9 18 10 19 8 21 7 22
REMARK SMILES IDX 6 23 1 24 2 25 3 26 91 27 4 28 5 29 23 30 24 31 25 32 26 33
REMARK SMILES IDX 27 34 28 35 29 36 30 37 31 38 32 39 33 40 85 41 34 42 84 43
REMARK SMILES IDX 35 44 36 45 37 46 78 47 38 48 83 49 77 50 79 51 39 52 82 53
REMARK SMILES IDX 76 54 75 55 40 57 66 58 49 59 65 60 50 61 53 62 64 63 80 64
REMARK SMILES IDX 51 65 52 66 63 68 81 69 54 70 41 71 42 72 47 73 43 74 44 75
REMARK SMILES IDX 46 76 48 77 45 78 67 79 68 80 73 81 69 82 70 83 72 84 74 85
REMARK SMILES IDX 71 86 55 87 56 88 61 89 57 90 58 91 60 92 62 93 59 94
REMARK H PARENT 11 20 79 56 53 67
REMARK Flexibility Score: inf
ROOT
ATOM      1  C   UNL A   1      45.611  22.083  24.778  1.00  0.00     0.188 C 
ENDROOT
BRANCH   1   2
ATOM      2  C   UNL A   1      44.234  21.388  24.640  1.00  0.00     0.188 C 
BRANCH   2   3
ATOM      3  O   UNL A   1      42.822  22.040  25.070  1.00  0.00    -0.376 OA
BRANCH   3   4
ATOM      4  C   UNL A   1      41.638  21.576  26.240  1.00  0.00     0.202 C 
BRANCH   4   5
ATOM      5  C   UNL A   1      39.930  20.827  26.240  1.00  0.00     0.261 C 
BRANCH   5   6
ATOM      6  O   UNL A   1      38.295  21.568  25.760  1.00  0.00    -0.460 OA
BRANCH   6   7
ATOM      7  C   UNL A   1      37.442  22.932  25.681  1.00  0.00     0.339 C 
ATOM      8  O   UNL A   1      38.008  23.935  26.129  1.00  0.00    -0.246 OA
BRANCH   7   9
ATOM      9  C   UNL A   1      35.817  23.239  25.099  1.00  0.00     0.080 A 
ATOM     10  C   UNL A   1      34.065  24.053  23.325  1.00  0.00     0.061 A 
ATOM     11  C   UNL A   1      35.338  24.001  23.925  1.00  0.00     0.045 A 
ATOM     12  C   UNL A   1      33.064  23.607  24.173  1.00  0.00     0.066 A 
ATOM     13  C   UNL A   1      33.381  23.037  25.421  1.00  0.00     0.044 A 
ATOM     14  Cl  UNL A   1      31.396  23.834  23.769  1.00  0.00    -0.082 Cl
ATOM     15  C   UNL A   1      34.722  22.811  25.861  1.00  0.00     0.057 A 
ATOM     16  Cl  UNL A   1      34.832  22.076  27.421  1.00  0.00    -0.083 Cl
BRANCH  10  17
ATOM     17  N   UNL A   1      33.714  24.761  22.117  1.00  0.00    -0.322 N 
ATOM     18  C   UNL A   1      32.891  25.756  21.615  1.00  0.00     0.262 C 
ATOM     19  O   UNL A   1      32.604  25.613  20.414  1.00  0.00    -0.271 OA
ATOM     20  H   UNL A   1      34.258  24.405  21.377  1.00  0.00     0.170 HD
BRANCH  18  21
ATOM     21  C   UNL A   1      32.636  27.182  22.245  1.00  0.00     0.329 C 
BRANCH  21  22
ATOM     22  O   UNL A   1      31.838  27.560  23.366  1.00  0.00    -0.484 OA
BRANCH  22  23
ATOM     23  C   UNL A   1      32.252  27.696  24.663  1.00  0.00     0.120 A 
ATOM     24  C   UNL A   1      34.721  29.274  27.098  1.00  0.00     0.044 C 
ATOM     25  C   UNL A   1      33.516  28.575  26.545  1.00  0.00    -0.047 A 
ATOM     26  C   UNL A   1      32.502  28.213  27.442  1.00  0.00     0.003 A 
ATOM     27  C   UNL A   1      33.376  28.337  25.152  1.00  0.00     0.049 A 
ATOM     28  C   UNL A   1      31.437  27.469  26.985  1.00  0.00     0.004 A 
ATOM     29  C   UNL A   1      31.363  27.175  25.622  1.00  0.00     0.046 A 
ENDBRANCH  22  23
ENDBRANCH  21  22
ENDBRANCH  18  21
ENDBRANCH  10  17
ENDBRANCH   7   9
ENDBRANCH   6   7
ENDBRANCH   5   6
ENDBRANCH   4   5
ENDBRANCH   3   4
ENDBRANCH   2   3
ENDBRANCH   1   2
BRANCH   1  30
ATOM     30  O   UNL A   1      45.960  22.782  25.943  1.00  0.00    -0.377 OA
BRANCH  30  31
ATOM     31  C   UNL A   1      45.429  24.065  26.167  1.00  0.00     0.188 C 
BRANCH  31  32
ATOM     32  C   UNL A   1      46.291  25.316  26.080  1.00  0.00     0.188 C 
BRANCH  32  33
ATOM     33  O   UNL A   1      47.436  25.179  25.253  1.00  0.00    -0.376 OA
BRANCH  33  34
ATOM     34  C   UNL A   1      47.975  26.341  24.627  1.00  0.00     0.202 C 
BRANCH  34  35
ATOM     35  C   UNL A   1      49.467  26.672  24.816  1.00  0.00     0.261 C 
BRANCH  35  36
ATOM     36  O   UNL A   1      49.921  26.138  26.080  1.00  0.00    -0.460 OA
BRANCH  36  37
ATOM     37  C   UNL A   1      50.674  26.933  26.860  1.00  0.00     0.338 C 
ATOM     38  O   UNL A   1      51.918  27.025  26.807  1.00  0.00    -0.246 OA
BRANCH  37  39
ATOM     39  C   UNL A   1      49.850  27.425  28.002  1.00  0.00     0.060 A 
ATOM     40  C   UNL A   1      50.358  28.359  28.890  1.00  0.00     0.016 A 
ATOM     41  C   UNL A   1      48.698  26.725  28.387  1.00  0.00     0.016 A 
ATOM     42  C   UNL A   1      49.817  28.418  30.189  1.00  0.00     0.010 A 
ATOM     43  C   UNL A   1      48.325  26.646  29.743  1.00  0.00     0.010 A 
ATOM     44  C   UNL A   1      49.009  27.372  30.725  1.00  0.00    -0.014 A 
BRANCH  44  45
ATOM     45  C   UNL A   1      48.722  27.063  32.366  1.00  0.00     0.031 A 
ATOM     46  C   UNL A   1      49.915  25.729  32.364  1.00  0.00     0.074 A 
ATOM     47  C   UNL A   1      47.462  27.441  33.445  1.00  0.00     0.049 A 
ATOM     48  N   UNL A   1      49.693  24.521  32.824  1.00  0.00    -0.248 NA
ATOM     49  C   UNL A   1      51.175  25.644  31.589  1.00  0.00     0.031 C 
ATOM     50  C   UNL A   1      46.890  26.776  34.918  1.00  0.00     0.029 A 
ATOM     51  N   UNL A   1      46.097  28.123  33.367  1.00  0.00    -0.354 N 
ATOM     52  C   UNL A   1      50.855  23.881  33.019  1.00  0.00     0.074 A 
ATOM     53  C   UNL A   1      51.671  24.452  31.980  1.00  0.00     0.031 C 
ATOM     54  C   UNL A   1      45.649  27.045  35.288  1.00  0.00     0.029 A 
ATOM     55  C   UNL A   1      45.052  27.487  34.109  1.00  0.00     0.049 A 
ATOM     56  H   UNL A   1      45.948  28.944  32.843  1.00  0.00     0.167 HD
ATOM     57  C   UNL A   1      51.014  23.149  34.165  1.00  0.00     0.037 A 
ATOM     58  C   UNL A   1      43.962  26.792  33.657  1.00  0.00     0.037 A 
ATOM     59  C   UNL A   1      49.839  23.240  35.109  1.00  0.00     0.049 A 
ATOM     60  C   UNL A   1      44.044  25.305  34.247  1.00  0.00     0.074 A 
ATOM     61  C   UNL A   1      49.676  23.924  36.311  1.00  0.00     0.029 A 
ATOM     62  N   UNL A   1      48.524  22.840  34.758  1.00  0.00    -0.354 N 
ATOM     63  N   UNL A   1      45.189  24.660  34.407  1.00  0.00    -0.248 NA
ATOM     64  C   UNL A   1      42.993  24.600  34.974  1.00  0.00     0.031 C 
ATOM     65  C   UNL A   1      48.292  23.945  36.666  1.00  0.00     0.029 A 
ATOM     66  C   UNL A   1      47.556  23.282  35.686  1.00  0.00     0.049 A 
ATOM     67  H   UNL A   1      48.310  22.313  33.954  1.00  0.00     0.167 HD
ATOM     68  C   UNL A   1      45.099  23.598  35.284  1.00  0.00     0.074 A 
ATOM     69  C   UNL A   1      43.683  23.639  35.621  1.00  0.00     0.031 C 
ATOM     70  C   UNL A   1      46.145  22.792  35.722  1.00  0.00     0.037 A 
BRANCH  57  71
ATOM     71  C   UNL A   1      52.431  22.757  34.556  1.00  0.00     0.057 A 
ATOM     72  C   UNL A   1      52.924  21.445  34.453  1.00  0.00     0.134 A 
ATOM     73  C   UNL A   1      53.344  23.668  35.127  1.00  0.00     0.134 A 
ATOM     74  F   UNL A   1      52.263  20.489  33.790  1.00  0.00    -0.206 F 
ATOM     75  C   UNL A   1      54.147  21.044  35.016  1.00  0.00     0.040 A 
ATOM     76  C   UNL A   1      54.542  23.275  35.742  1.00  0.00     0.040 A 
ATOM     77  F   UNL A   1      53.128  24.990  35.073  1.00  0.00    -0.206 F 
ATOM     78  C   UNL A   1      54.940  21.950  35.706  1.00  0.00     0.006 A 
ENDBRANCH  57  71
BRANCH  58  79
ATOM     79  C   UNL A   1      43.383  27.322  32.372  1.00  0.00     0.057 A 
ATOM     80  C   UNL A   1      43.811  26.749  31.141  1.00  0.00     0.134 A 
ATOM     81  C   UNL A   1      42.259  28.145  32.294  1.00  0.00     0.134 A 
ATOM     82  F   UNL A   1      44.871  25.926  31.103  1.00  0.00    -0.206 F 
ATOM     83  C   UNL A   1      43.101  26.885  29.949  1.00  0.00     0.040 A 
ATOM     84  C   UNL A   1      41.511  28.252  31.106  1.00  0.00     0.040 A 
ATOM     85  F   UNL A   1      41.765  28.715  33.401  1.00  0.00    -0.206 F 
ATOM     86  C   UNL A   1      41.914  27.600  29.940  1.00  0.00     0.006 A 
ENDBRANCH  58  79
BRANCH  70  87
ATOM     87  C   UNL A   1      45.966  21.423  36.414  1.00  0.00     0.057 A 
ATOM     88  C   UNL A   1      45.684  20.215  35.760  1.00  0.00     0.134 A 
ATOM     89  C   UNL A   1      46.252  21.259  37.799  1.00  0.00     0.134 A 
ATOM     90  F   UNL A   1      45.519  20.136  34.436  1.00  0.00    -0.206 F 
ATOM     91  C   UNL A   1      45.634  18.977  36.420  1.00  0.00     0.040 A 
ATOM     92  C   UNL A   1      46.278  20.023  38.450  1.00  0.00     0.040 A 
ATOM     93  F   UNL A   1      46.566  22.280  38.605  1.00  0.00    -0.206 F 
ATOM     94  C   UNL A   1      45.956  18.871  37.764  1.00  0.00     0.006 A 
ENDBRANCH  70  87
ENDBRANCH  44  45
ENDBRANCH  37  39
ENDBRANCH  36  37
ENDBRANCH  35  36
ENDBRANCH  34  35
ENDBRANCH  33  34
ENDBRANCH  32  33
ENDBRANCH  31  32
ENDBRANCH  30  31
ENDBRANCH   1  30
TORSDOF 24
ENDMDL
MODEL 3
REMARK VINA RESULT:     -10.2      1.728      2.458
REMARK SMILES Cc1cccc(OCC(=O)Nc2cc(C(=O)OCCOCCOCCOCCOC(=O)c3ccc(-c4c5nc(c(-c6c(F)cccc6F)c6ccc([nH]6)c(-c6c(F)cccc6F)c6nc(c(-c7c(F)cccc7F)c7ccc4[nH]7)C=C6)C=C5)cc3)c(Cl)cc2Cl)c1
REMARK SMILES IDX 22 1 21 2 20 3 19 4 18 5 17 6 15 7 16 8 14 9 12 10 13 11
REMARK SMILES IDX 89 12 88 13 90 14 86 15 87 16 11 17 9 18 10 19 8 21 7 22
REMARK SMILES IDX 6 23 1 24 2 25 3 26 91 27 4 28 5 29 23 30 24 31 25 32 26 33
REMARK SMILES IDX 27 34 28 35 29 36 30 37 31 38 32 39 33 40 85 41 34 42 84 43
REMARK SMILES IDX 35 44 36 45 37 46 78 47 38 48 83 49 77 50 79 51 39 52 82 53
REMARK SMILES IDX 76 54 75 55 40 57 66 58 49 59 65 60 50 61 53 62 64 63 80 64
REMARK SMILES IDX 51 65 52 66 63 68 81 69 54 70 41 71 42 72 47 73 43 74 44 75
REMARK SMILES IDX 46 76 48 77 45 78 67 79 68 80 73 81 69 82 70 83 72 84 74 85
REMARK SMILES IDX 71 86 55 87 56 88 61 89 57 90 58 91 60 92 62 93 59 94
REMARK H PARENT 11 20 79 56 53 67
REMARK Flexibility Score: inf
ROOT
ATOM      1  C   UNL A   1      41.730  27.027  27.853  1.00  0.00     0.188 C 
ENDROOT
BRANCH   1   2
ATOM      2  C   UNL A   1      40.221  26.731  27.674  1.00  0.00     0.188 C 
BRANCH   2   3
ATOM      3  O   UNL A   1      39.506  25.328  28.026  1.00  0.00    -0.376 OA
BRANCH   3   4
ATOM      4  C   UNL A   1      39.676  23.741  27.363  1.00  0.00     0.202 C 
BRANCH   4   5
ATOM      5  C   UNL A   1      38.770  22.659  26.144  1.00  0.00     0.261 C 
BRANCH   5   6
ATOM      6  O   UNL A   1      36.954  22.312  25.966  1.00  0.00    -0.460 OA
BRANCH   6   7
ATOM      7  C   UNL A   1      35.613  22.703  25.163  1.00  0.00     0.339 C 
ATOM      8  O   UNL A   1      35.440  22.097  24.099  1.00  0.00    -0.246 OA
BRANCH   7   9
ATOM      9  C   UNL A   1      34.363  23.879  25.517  1.00  0.00     0.080 A 
ATOM     10  C   UNL A   1      33.282  26.268  25.427  1.00  0.00     0.061 A 
ATOM     11  C   UNL A   1      34.349  25.351  25.369  1.00  0.00     0.045 A 
ATOM     12  C   UNL A   1      32.168  25.740  26.060  1.00  0.00     0.066 A 
ATOM     13  C   UNL A   1      32.132  24.383  26.438  1.00  0.00     0.044 A 
ATOM     14  Cl  UNL A   1      30.836  26.754  26.499  1.00  0.00    -0.082 Cl
ATOM     15  C   UNL A   1      33.178  23.458  26.136  1.00  0.00     0.057 A 
ATOM     16  Cl  UNL A   1      32.872  21.851  26.691  1.00  0.00    -0.083 Cl
BRANCH  10  17
ATOM     17  N   UNL A   1      33.354  27.687  25.176  1.00  0.00    -0.322 N 
ATOM     18  C   UNL A   1      33.548  28.912  25.794  1.00  0.00     0.262 C 
ATOM     19  O   UNL A   1      32.990  29.861  25.213  1.00  0.00    -0.271 OA
ATOM     20  H   UNL A   1      33.215  27.842  24.214  1.00  0.00     0.170 HD
BRANCH  18  21
ATOM     21  C   UNL A   1      34.668  29.278  26.845  1.00  0.00     0.329 C 
BRANCH  21  22
ATOM     22  O   UNL A   1      34.853  30.466  27.613  1.00  0.00    -0.484 OA
BRANCH  22  23
ATOM     23  C   UNL A   1      36.035  30.961  28.092  1.00  0.00     0.120 A 
ATOM     24  C   UNL A   1      37.978  33.994  29.333  1.00  0.00     0.044 C 
ATOM     25  C   UNL A   1      37.577  32.577  29.051  1.00  0.00    -0.047 A 
ATOM     26  C   UNL A   1      38.384  31.556  29.568  1.00  0.00     0.003 A 
ATOM     27  C   UNL A   1      36.389  32.277  28.334  1.00  0.00     0.049 A 
ATOM     28  C   UNL A   1      38.109  30.249  29.232  1.00  0.00     0.004 A 
ATOM     29  C   UNL A   1      36.979  29.983  28.454  1.00  0.00     0.046 A 
ENDBRANCH  22  23
ENDBRANCH  21  22
ENDBRANCH  18  21
ENDBRANCH  10  17
ENDBRANCH   7   9
ENDBRANCH   6   7
ENDBRANCH   5   6
ENDBRANCH   4   5
ENDBRANCH   3   4
ENDBRANCH   2   3
ENDBRANCH   1   2
BRANCH   1  30
ATOM     30  O   UNL A   1      42.358  28.063  27.147  1.00  0.00    -0.377 OA
BRANCH  30  31
ATOM     31  C   UNL A   1      43.752  28.034  26.966  1.00  0.00     0.188 C 
BRANCH  31  32
ATOM     32  C   UNL A   1      44.383  28.093  25.582  1.00  0.00     0.188 C 
BRANCH  32  33
ATOM     33  O   UNL A   1      45.728  27.644  25.534  1.00  0.00    -0.376 OA
BRANCH  33  34
ATOM     34  C   UNL A   1      45.988  26.294  25.153  1.00  0.00     0.202 C 
BRANCH  34  35
ATOM     35  C   UNL A   1      47.427  25.754  25.243  1.00  0.00     0.261 C 
BRANCH  35  36
ATOM     36  O   UNL A   1      47.795  25.595  26.631  1.00  0.00    -0.460 OA
BRANCH  36  37
ATOM     37  C   UNL A   1      47.145  24.660  27.348  1.00  0.00     0.338 C 
ATOM     38  O   UNL A   1      46.975  23.475  26.998  1.00  0.00    -0.246 OA
BRANCH  37  39
ATOM     39  C   UNL A   1      46.384  25.323  28.446  1.00  0.00     0.060 A 
ATOM     40  C   UNL A   1      47.039  25.819  29.560  1.00  0.00     0.016 A 
ATOM     41  C   UNL A   1      44.993  25.164  28.528  1.00  0.00     0.016 A 
ATOM     42  C   UNL A   1      46.317  25.954  30.762  1.00  0.00     0.010 A 
ATOM     43  C   UNL A   1      44.352  25.095  29.780  1.00  0.00     0.010 A 
ATOM     44  C   UNL A   1      45.058  25.317  30.968  1.00  0.00    -0.014 A 
BRANCH  44  45
ATOM     45  C   UNL A   1      44.338  24.969  32.462  1.00  0.00     0.031 A 
ATOM     46  C   UNL A   1      43.719  26.643  32.598  1.00  0.00     0.074 A 
ATOM     47  C   UNL A   1      44.554  23.754  33.633  1.00  0.00     0.049 A 
ATOM     48  N   UNL A   1      43.866  27.417  33.647  1.00  0.00    -0.248 NA
ATOM     49  C   UNL A   1      43.253  27.526  31.503  1.00  0.00     0.031 C 
ATOM     50  C   UNL A   1      44.230  23.619  35.311  1.00  0.00     0.029 A 
ATOM     51  N   UNL A   1      45.493  22.567  33.845  1.00  0.00    -0.354 N 
ATOM     52  C   UNL A   1      43.000  28.439  33.591  1.00  0.00     0.074 A 
ATOM     53  C   UNL A   1      42.893  28.642  32.169  1.00  0.00     0.031 C 
ATOM     54  C   UNL A   1      44.890  22.707  36.007  1.00  0.00     0.029 A 
ATOM     55  C   UNL A   1      45.971  22.397  35.183  1.00  0.00     0.049 A 
ATOM     56  H   UNL A   1      45.751  21.962  33.112  1.00  0.00     0.167 HD
ATOM     57  C   UNL A   1      42.336  28.796  34.733  1.00  0.00     0.037 A 
ATOM     58  C   UNL A   1      47.226  22.597  35.692  1.00  0.00     0.037 A 
ATOM     59  C   UNL A   1      42.632  27.899  35.911  1.00  0.00     0.049 A 
ATOM     60  C   UNL A   1      47.122  23.709  36.841  1.00  0.00     0.074 A 
ATOM     61  C   UNL A   1      41.873  26.905  36.524  1.00  0.00     0.029 A 
ATOM     62  N   UNL A   1      43.933  27.719  36.446  1.00  0.00    -0.354 N 
ATOM     63  N   UNL A   1      46.293  24.738  36.769  1.00  0.00    -0.248 NA
ATOM     64  C   UNL A   1      47.628  23.597  38.205  1.00  0.00     0.031 C 
ATOM     65  C   UNL A   1      42.702  26.139  37.398  1.00  0.00     0.029 A 
ATOM     66  C   UNL A   1      44.006  26.630  37.341  1.00  0.00     0.049 A 
ATOM     67  H   UNL A   1      44.701  28.291  36.217  1.00  0.00     0.167 HD
ATOM     68  C   UNL A   1      46.053  25.332  37.992  1.00  0.00     0.074 A 
ATOM     69  C   UNL A   1      46.915  24.538  38.857  1.00  0.00     0.031 C 
ATOM     70  C   UNL A   1      45.163  26.369  38.250  1.00  0.00     0.037 A 
BRANCH  57  71
ATOM     71  C   UNL A   1      41.102  29.674  34.581  1.00  0.00     0.057 A 
ATOM     72  C   UNL A   1      39.994  29.315  33.795  1.00  0.00     0.134 A 
ATOM     73  C   UNL A   1      41.002  30.956  35.160  1.00  0.00     0.134 A 
ATOM     74  F   UNL A   1      39.841  28.079  33.306  1.00  0.00    -0.206 F 
ATOM     75  C   UNL A   1      38.960  30.213  33.481  1.00  0.00     0.040 A 
ATOM     76  C   UNL A   1      40.008  31.882  34.813  1.00  0.00     0.040 A 
ATOM     77  F   UNL A   1      41.847  31.348  36.124  1.00  0.00    -0.206 F 
ATOM     78  C   UNL A   1      38.988  31.518  33.951  1.00  0.00     0.006 A 
ENDBRANCH  57  71
BRANCH  58  79
ATOM     79  C   UNL A   1      48.339  22.253  34.738  1.00  0.00     0.057 A 
ATOM     80  C   UNL A   1      49.029  23.310  34.081  1.00  0.00     0.134 A 
ATOM     81  C   UNL A   1      48.937  20.996  34.646  1.00  0.00     0.134 A 
ATOM     82  F   UNL A   1      48.553  24.565  34.122  1.00  0.00    -0.206 F 
ATOM     83  C   UNL A   1      50.279  23.151  33.484  1.00  0.00     0.040 A 
ATOM     84  C   UNL A   1      50.218  20.833  34.086  1.00  0.00     0.040 A 
ATOM     85  F   UNL A   1      48.376  19.939  35.248  1.00  0.00    -0.206 F 
ATOM     86  C   UNL A   1      50.904  21.915  33.531  1.00  0.00     0.006 A 
ENDBRANCH  58  79
BRANCH  70  87
ATOM     87  C   UNL A   1      45.170  27.230  39.532  1.00  0.00     0.057 A 
ATOM     88  C   UNL A   1      44.775  26.792  40.804  1.00  0.00     0.134 A 
ATOM     89  C   UNL A   1      45.759  28.526  39.542  1.00  0.00     0.134 A 
ATOM     90  F   UNL A   1      44.323  25.555  41.030  1.00  0.00    -0.206 F 
ATOM     91  C   UNL A   1      44.899  27.579  41.961  1.00  0.00     0.040 A 
ATOM     92  C   UNL A   1      45.955  29.287  40.698  1.00  0.00     0.040 A 
ATOM     93  F   UNL A   1      46.223  29.125  38.438  1.00  0.00    -0.206 F 
ATOM     94  C   UNL A   1      45.513  28.820  41.917  1.00  0.00     0.006 A 
ENDBRANCH  70  87
ENDBRANCH  44  45
ENDBRANCH  37  39
ENDBRANCH  36  37
ENDBRANCH  35  36
ENDBRANCH  34  35
ENDBRANCH  33  34
ENDBRANCH  32  33
ENDBRANCH  31  32
ENDBRANCH  30  31
ENDBRANCH   1  30
TORSDOF 24
ENDMDL
