MODEL 1
REMARK VINA RESULT:     -10.7      0.000      0.000
REMARK SMILES C[C@@H]1CC[C@@H](C(=O)OCCOCCOCCOCCOC(=O)c2ccc(-c3c4nc(c(-c5c(F)cccc5F)c5ccc([nH]5)c(-c5c(F)cccc5F)c5nc(c(-c6c(F)cccc6F)c6ccc3[nH]6)C=C5)C=C4)cc2)[C@H]2C(=O)N(c3ccccc3)C(=O)[C@@H]21
REMARK SMILES IDX 15 1 14 2 13 3 12 4 11 5 10 6 9 7 8 8 6 9 7 10 5 11 1 12
REMARK SMILES IDX 2 13 3 14 89 15 4 16 77 17 87 18 78 19 80 20 88 21 79 22
REMARK SMILES IDX 81 23 82 24 86 25 83 26 85 27 84 28 16 29 17 30 18 31 19 32
REMARK SMILES IDX 20 33 21 34 22 35 23 36 24 37 76 38 25 39 75 40 26 41 27 42
REMARK SMILES IDX 28 43 69 44 29 45 74 46 68 47 70 48 30 49 73 50 67 51 66 52
REMARK SMILES IDX 31 54 57 55 40 56 56 57 41 58 44 59 55 60 71 61 42 62 43 63
REMARK SMILES IDX 54 65 72 66 45 67 32 68 33 69 38 70 34 71 35 72 37 73 39 74
REMARK SMILES IDX 36 75 58 76 59 77 64 78 60 79 61 80 63 81 65 82 62 83 46 84
REMARK SMILES IDX 47 85 52 86 48 87 49 88 51 89 53 90 50 91
REMARK H PARENT 70 53 44 64
REMARK Flexibility Score: inf
ROOT
ATOM      1  C   UNL A   1      31.756  26.123  26.533  1.00  0.00     0.188 C 
ENDROOT
BRANCH   1   2
ATOM      2  O   UNL A   1      30.333  26.193  26.499  1.00  0.00    -0.377 OA
BRANCH   2   3
ATOM      3  C   UNL A   1      29.690  25.818  25.298  1.00  0.00     0.188 C 
BRANCH   3   4
ATOM      4  C   UNL A   1      30.043  26.746  24.120  1.00  0.00     0.188 C 
BRANCH   4   5
ATOM      5  O   UNL A   1      30.588  26.059  23.001  1.00  0.00    -0.376 OA
BRANCH   5   6
ATOM      6  C   UNL A   1      31.456  26.696  22.075  1.00  0.00     0.202 C 
BRANCH   6   7
ATOM      7  C   UNL A   1      32.364  25.915  21.110  1.00  0.00     0.261 C 
BRANCH   7   8
ATOM      8  O   UNL A   1      33.652  25.564  21.609  1.00  0.00    -0.463 OA
BRANCH   8   9
ATOM      9  C   UNL A   1      33.692  24.881  22.769  1.00  0.00     0.309 C 
ATOM     10  O   UNL A   1      33.717  25.395  23.877  1.00  0.00    -0.252 OA
BRANCH   9  11
ATOM     11  C   UNL A   1      33.644  23.385  22.480  1.00  0.00     0.112 C 
ATOM     12  C   UNL A   1      32.284  20.730  24.934  1.00  0.00     0.008 C 
ATOM     13  C   UNL A   1      32.364  22.256  24.938  1.00  0.00    -0.001 C 
ATOM     14  C   UNL A   1      31.511  22.845  23.778  1.00  0.00     0.005 C 
ATOM     15  C   UNL A   1      33.794  22.801  24.873  1.00  0.00     0.095 C 
ATOM     16  C   UNL A   1      32.203  22.866  22.407  1.00  0.00     0.016 C 
ATOM     17  C   UNL A   1      34.395  22.583  23.506  1.00  0.00     0.106 C 
ATOM     18  C   UNL A   1      34.926  22.314  25.749  1.00  0.00     0.237 C 
ATOM     19  C   UNL A   1      35.852  22.860  23.719  1.00  0.00     0.238 C 
ATOM     20  N   UNL A   1      36.099  22.619  25.059  1.00  0.00    -0.250 N 
ATOM     21  O   UNL A   1      34.772  21.872  26.875  1.00  0.00    -0.274 OA
ATOM     22  O   UNL A   1      36.638  23.055  22.804  1.00  0.00    -0.274 OA
BRANCH  20  23
ATOM     23  C   UNL A   1      37.408  22.618  25.611  1.00  0.00     0.052 A 
ATOM     24  C   UNL A   1      37.949  23.766  26.200  1.00  0.00     0.027 A 
ATOM     25  C   UNL A   1      38.204  21.458  25.569  1.00  0.00     0.027 A 
ATOM     26  C   UNL A   1      39.237  23.751  26.746  1.00  0.00     0.002 A 
ATOM     27  C   UNL A   1      39.501  21.451  26.088  1.00  0.00     0.002 A 
ATOM     28  C   UNL A   1      40.015  22.598  26.682  1.00  0.00     0.000 A 
ENDBRANCH  20  23
ENDBRANCH   9  11
ENDBRANCH   8   9
ENDBRANCH   7   8
ENDBRANCH   6   7
ENDBRANCH   5   6
ENDBRANCH   4   5
ENDBRANCH   3   4
ENDBRANCH   2   3
ENDBRANCH   1   2
BRANCH   1  29
ATOM     29  C   UNL A   1      32.640  27.396  26.610  1.00  0.00     0.188 C 
BRANCH  29  30
ATOM     30  O   UNL A   1      31.948  28.605  26.896  1.00  0.00    -0.376 OA
BRANCH  30  31
ATOM     31  C   UNL A   1      31.924  29.633  25.923  1.00  0.00     0.202 C 
BRANCH  31  32
ATOM     32  C   UNL A   1      31.970  31.077  26.442  1.00  0.00     0.261 C 
BRANCH  32  33
ATOM     33  O   UNL A   1      32.736  31.284  27.636  1.00  0.00    -0.460 OA
BRANCH  33  34
ATOM     34  C   UNL A   1      33.670  32.264  27.604  1.00  0.00     0.338 C 
ATOM     35  O   UNL A   1      33.498  33.439  27.389  1.00  0.00    -0.246 OA
BRANCH  34  36
ATOM     36  C   UNL A   1      34.938  31.671  28.088  1.00  0.00     0.060 A 
ATOM     37  C   UNL A   1      34.992  30.292  28.332  1.00  0.00     0.016 A 
ATOM     38  C   UNL A   1      36.068  32.470  28.271  1.00  0.00     0.016 A 
ATOM     39  C   UNL A   1      36.175  29.711  28.790  1.00  0.00     0.010 A 
ATOM     40  C   UNL A   1      37.241  31.894  28.760  1.00  0.00     0.010 A 
ATOM     41  C   UNL A   1      37.287  30.519  29.053  1.00  0.00    -0.014 A 
BRANCH  41  42
ATOM     42  C   UNL A   1      38.418  29.978  29.840  1.00  0.00     0.031 A 
ATOM     43  C   UNL A   1      38.581  30.455  31.256  1.00  0.00     0.074 A 
ATOM     44  C   UNL A   1      39.275  29.083  29.320  1.00  0.00     0.049 A 
ATOM     45  N   UNL A   1      39.529  30.198  32.118  1.00  0.00    -0.248 NA
ATOM     46  C   UNL A   1      37.529  31.351  31.765  1.00  0.00     0.031 C 
ATOM     47  C   UNL A   1      39.191  28.507  27.980  1.00  0.00     0.029 A 
ATOM     48  N   UNL A   1      40.398  28.512  29.865  1.00  0.00    -0.354 N 
ATOM     49  C   UNL A   1      39.194  30.906  33.266  1.00  0.00     0.074 A 
ATOM     50  C   UNL A   1      37.972  31.625  32.982  1.00  0.00     0.031 C 
ATOM     51  C   UNL A   1      40.234  27.677  27.799  1.00  0.00     0.029 A 
ATOM     52  C   UNL A   1      41.075  27.694  28.995  1.00  0.00     0.049 A 
ATOM     53  H   UNL A   1      40.690  28.675  30.791  1.00  0.00     0.167 HD
ATOM     54  C   UNL A   1      39.844  30.948  34.451  1.00  0.00     0.037 A 
ATOM     55  C   UNL A   1      42.256  27.060  29.142  1.00  0.00     0.037 A 
ATOM     56  C   UNL A   1      41.065  30.237  34.725  1.00  0.00     0.049 A 
ATOM     57  C   UNL A   1      43.010  27.195  30.442  1.00  0.00     0.074 A 
ATOM     58  C   UNL A   1      41.797  30.204  35.898  1.00  0.00     0.029 A 
ATOM     59  N   UNL A   1      41.738  29.445  33.808  1.00  0.00    -0.354 N 
ATOM     60  N   UNL A   1      42.677  27.847  31.531  1.00  0.00    -0.248 NA
ATOM     61  C   UNL A   1      44.305  26.505  30.533  1.00  0.00     0.031 C 
ATOM     62  C   UNL A   1      42.944  29.439  35.673  1.00  0.00     0.029 A 
ATOM     63  C   UNL A   1      42.895  28.942  34.379  1.00  0.00     0.049 A 
ATOM     64  H   UNL A   1      41.438  29.266  32.887  1.00  0.00     0.167 HD
ATOM     65  C   UNL A   1      43.702  27.620  32.443  1.00  0.00     0.074 A 
ATOM     66  C   UNL A   1      44.663  26.761  31.783  1.00  0.00     0.031 C 
ATOM     67  C   UNL A   1      43.836  28.079  33.712  1.00  0.00     0.037 A 
BRANCH  54  68
ATOM     68  C   UNL A   1      39.266  31.822  35.525  1.00  0.00     0.057 A 
ATOM     69  C   UNL A   1      38.346  31.336  36.465  1.00  0.00     0.134 A 
ATOM     70  C   UNL A   1      39.651  33.164  35.633  1.00  0.00     0.134 A 
ATOM     71  F   UNL A   1      37.921  30.065  36.406  1.00  0.00    -0.206 F 
ATOM     72  C   UNL A   1      37.814  32.159  37.458  1.00  0.00     0.040 A 
ATOM     73  C   UNL A   1      39.148  33.990  36.640  1.00  0.00     0.040 A 
ATOM     74  F   UNL A   1      40.528  33.693  34.767  1.00  0.00    -0.206 F 
ATOM     75  C   UNL A   1      38.222  33.489  37.552  1.00  0.00     0.006 A 
ENDBRANCH  54  68
BRANCH  55  76
ATOM     76  C   UNL A   1      42.817  26.256  28.025  1.00  0.00     0.057 A 
ATOM     77  C   UNL A   1      42.637  24.870  27.967  1.00  0.00     0.134 A 
ATOM     78  C   UNL A   1      43.573  26.850  27.006  1.00  0.00     0.134 A 
ATOM     79  F   UNL A   1      41.945  24.238  28.927  1.00  0.00    -0.206 F 
ATOM     80  C   UNL A   1      43.205  24.100  26.950  1.00  0.00     0.040 A 
ATOM     81  C   UNL A   1      44.121  26.096  25.967  1.00  0.00     0.040 A 
ATOM     82  F   UNL A   1      43.782  28.175  27.000  1.00  0.00    -0.206 F 
ATOM     83  C   UNL A   1      43.946  24.715  25.942  1.00  0.00     0.006 A 
ENDBRANCH  55  76
BRANCH  67  84
ATOM     84  C   UNL A   1      45.038  27.627  34.492  1.00  0.00     0.057 A 
ATOM     85  C   UNL A   1      46.242  28.345  34.484  1.00  0.00     0.134 A 
ATOM     86  C   UNL A   1      44.971  26.489  35.306  1.00  0.00     0.134 A 
ATOM     87  F   UNL A   1      46.378  29.438  33.719  1.00  0.00    -0.206 F 
ATOM     88  C   UNL A   1      47.341  27.933  35.241  1.00  0.00     0.040 A 
ATOM     89  C   UNL A   1      46.053  26.085  36.090  1.00  0.00     0.040 A 
ATOM     90  F   UNL A   1      43.845  25.763  35.370  1.00  0.00    -0.206 F 
ATOM     91  C   UNL A   1      47.245  26.804  36.053  1.00  0.00     0.006 A 
ENDBRANCH  67  84
ENDBRANCH  41  42
ENDBRANCH  34  36
ENDBRANCH  33  34
ENDBRANCH  32  33
ENDBRANCH  31  32
ENDBRANCH  30  31
ENDBRANCH  29  30
ENDBRANCH   1  29
TORSDOF 21
ENDMDL
MODEL 2
REMARK VINA RESULT:     -10.6      3.758      7.396
REMARK SMILES C[C@@H]1CC[C@@H](C(=O)OCCOCCOCCOCCOC(=O)c2ccc(-c3c4nc(c(-c5c(F)cccc5F)c5ccc([nH]5)c(-c5c(F)cccc5F)c5nc(c(-c6c(F)cccc6F)c6ccc3[nH]6)C=C5)C=C4)cc2)[C@H]2C(=O)N(c3ccccc3)C(=O)[C@@H]21
REMARK SMILES IDX 15 1 14 2 13 3 12 4 11 5 10 6 9 7 8 8 6 9 7 10 5 11 1 12
REMARK SMILES IDX 2 13 3 14 89 15 4 16 77 17 87 18 78 19 80 20 88 21 79 22
REMARK SMILES IDX 81 23 82 24 86 25 83 26 85 27 84 28 16 29 17 30 18 31 19 32
REMARK SMILES IDX 20 33 21 34 22 35 23 36 24 37 76 38 25 39 75 40 26 41 27 42
REMARK SMILES IDX 28 43 69 44 29 45 74 46 68 47 70 48 30 49 73 50 67 51 66 52
REMARK SMILES IDX 31 54 57 55 40 56 56 57 41 58 44 59 55 60 71 61 42 62 43 63
REMARK SMILES IDX 54 65 72 66 45 67 32 68 33 69 38 70 34 71 35 72 37 73 39 74
REMARK SMILES IDX 36 75 58 76 59 77 64 78 60 79 61 80 63 81 65 82 62 83 46 84
REMARK SMILES IDX 47 85 52 86 48 87 49 88 51 89 53 90 50 91
REMARK H PARENT 70 53 44 64
REMARK Flexibility Score: inf
ROOT
ATOM      1  C   UNL A   1      33.981  35.968  29.015  1.00  0.00     0.188 C 
ENDROOT
BRANCH   1   2
ATOM      2  O   UNL A   1      34.262  34.868  28.153  1.00  0.00    -0.377 OA
BRANCH   2   3
ATOM      3  C   UNL A   1      33.327  33.808  28.123  1.00  0.00     0.188 C 
BRANCH   3   4
ATOM      4  C   UNL A   1      33.991  32.438  27.882  1.00  0.00     0.188 C 
BRANCH   4   5
ATOM      5  O   UNL A   1      33.075  31.428  27.479  1.00  0.00    -0.376 OA
BRANCH   5   6
ATOM      6  C   UNL A   1      33.490  30.283  26.749  1.00  0.00     0.202 C 
BRANCH   6   7
ATOM      7  C   UNL A   1      33.816  28.938  27.422  1.00  0.00     0.261 C 
BRANCH   7   8
ATOM      8  O   UNL A   1      34.619  28.038  26.662  1.00  0.00    -0.463 OA
BRANCH   8   9
ATOM      9  C   UNL A   1      34.135  27.646  25.468  1.00  0.00     0.309 C 
ATOM     10  O   UNL A   1      34.431  28.155  24.399  1.00  0.00    -0.252 OA
BRANCH   9  11
ATOM     11  C   UNL A   1      33.216  26.444  25.661  1.00  0.00     0.112 C 
ATOM     12  C   UNL A   1      32.477  23.803  22.942  1.00  0.00     0.008 C 
ATOM     13  C   UNL A   1      33.399  25.017  23.038  1.00  0.00    -0.001 C 
ATOM     14  C   UNL A   1      34.463  24.803  24.153  1.00  0.00     0.005 C 
ATOM     15  C   UNL A   1      32.658  26.340  23.260  1.00  0.00     0.095 C 
ATOM     16  C   UNL A   1      33.985  25.121  25.577  1.00  0.00     0.016 C 
ATOM     17  C   UNL A   1      32.097  26.418  24.658  1.00  0.00     0.106 C 
ATOM     18  C   UNL A   1      31.456  26.782  22.458  1.00  0.00     0.237 C 
ATOM     19  C   UNL A   1      31.156  27.582  24.590  1.00  0.00     0.238 C 
ATOM     20  N   UNL A   1      30.774  27.693  23.264  1.00  0.00    -0.250 N 
ATOM     21  O   UNL A   1      31.256  26.461  21.298  1.00  0.00    -0.274 OA
ATOM     22  O   UNL A   1      30.706  28.139  25.580  1.00  0.00    -0.274 OA
BRANCH  20  23
ATOM     23  C   UNL A   1      29.758  28.585  22.830  1.00  0.00     0.052 A 
ATOM     24  C   UNL A   1      28.412  28.358  23.134  1.00  0.00     0.027 A 
ATOM     25  C   UNL A   1      30.081  29.724  22.068  1.00  0.00     0.027 A 
ATOM     26  C   UNL A   1      27.421  29.248  22.706  1.00  0.00     0.002 A 
ATOM     27  C   UNL A   1      29.089  30.598  21.616  1.00  0.00     0.002 A 
ATOM     28  C   UNL A   1      27.758  30.361  21.941  1.00  0.00     0.000 A 
ENDBRANCH  20  23
ENDBRANCH   9  11
ENDBRANCH   8   9
ENDBRANCH   7   8
ENDBRANCH   6   7
ENDBRANCH   5   6
ENDBRANCH   4   5
ENDBRANCH   3   4
ENDBRANCH   2   3
ENDBRANCH   1   2
BRANCH   1  29
ATOM     29  C   UNL A   1      32.783  35.954  30.001  1.00  0.00     0.188 C 
BRANCH  29  30
ATOM     30  O   UNL A   1      33.125  35.876  31.378  1.00  0.00    -0.376 OA
BRANCH  30  31
ATOM     31  C   UNL A   1      34.264  35.129  31.765  1.00  0.00     0.202 C 
BRANCH  31  32
ATOM     32  C   UNL A   1      34.018  33.690  32.241  1.00  0.00     0.261 C 
BRANCH  32  33
ATOM     33  O   UNL A   1      34.988  32.723  31.819  1.00  0.00    -0.460 OA
BRANCH  33  34
ATOM     34  C   UNL A   1      35.946  32.383  32.714  1.00  0.00     0.338 C 
ATOM     35  O   UNL A   1      35.920  32.530  33.912  1.00  0.00    -0.246 OA
BRANCH  34  36
ATOM     36  C   UNL A   1      36.968  31.600  31.982  1.00  0.00     0.060 A 
ATOM     37  C   UNL A   1      37.818  30.752  32.705  1.00  0.00     0.016 A 
ATOM     38  C   UNL A   1      37.063  31.686  30.592  1.00  0.00     0.016 A 
ATOM     39  C   UNL A   1      38.790  30.007  32.038  1.00  0.00     0.010 A 
ATOM     40  C   UNL A   1      38.057  30.965  29.930  1.00  0.00     0.010 A 
ATOM     41  C   UNL A   1      38.944  30.150  30.654  1.00  0.00    -0.014 A 
BRANCH  41  42
ATOM     42  C   UNL A   1      40.163  29.630  29.993  1.00  0.00     0.031 A 
ATOM     43  C   UNL A   1      41.315  30.576  29.801  1.00  0.00     0.074 A 
ATOM     44  C   UNL A   1      40.253  28.354  29.581  1.00  0.00     0.049 A 
ATOM     45  N   UNL A   1      42.451  30.391  29.182  1.00  0.00    -0.248 NA
ATOM     46  C   UNL A   1      41.158  31.919  30.384  1.00  0.00     0.031 C 
ATOM     47  C   UNL A   1      39.226  27.331  29.758  1.00  0.00     0.029 A 
ATOM     48  N   UNL A   1      41.264  27.709  28.912  1.00  0.00    -0.354 N 
ATOM     49  C   UNL A   1      43.139  31.593  29.293  1.00  0.00     0.074 A 
ATOM     50  C   UNL A   1      42.283  32.509  30.012  1.00  0.00     0.031 C 
ATOM     51  C   UNL A   1      39.652  26.187  29.192  1.00  0.00     0.029 A 
ATOM     52  C   UNL A   1      40.962  26.411  28.582  1.00  0.00     0.049 A 
ATOM     53  H   UNL A   1      42.122  28.137  28.690  1.00  0.00     0.167 HD
ATOM     54  C   UNL A   1      44.376  31.903  28.839  1.00  0.00     0.037 A 
ATOM     55  C   UNL A   1      41.655  25.521  27.845  1.00  0.00     0.037 A 
ATOM     56  C   UNL A   1      45.220  30.989  28.117  1.00  0.00     0.049 A 
ATOM     57  C   UNL A   1      42.993  25.918  27.272  1.00  0.00     0.074 A 
ATOM     58  C   UNL A   1      46.495  31.202  27.624  1.00  0.00     0.029 A 
ATOM     59  N   UNL A   1      44.866  29.694  27.773  1.00  0.00    -0.354 N 
ATOM     60  N   UNL A   1      43.648  27.049  27.398  1.00  0.00    -0.248 NA
ATOM     61  C   UNL A   1      43.688  24.916  26.451  1.00  0.00     0.031 C 
ATOM     62  C   UNL A   1      46.889  30.054  26.931  1.00  0.00     0.029 A 
ATOM     63  C   UNL A   1      45.887  29.103  27.047  1.00  0.00     0.049 A 
ATOM     64  H   UNL A   1      44.015  29.258  28.010  1.00  0.00     0.167 HD
ATOM     65  C   UNL A   1      44.841  26.882  26.704  1.00  0.00     0.074 A 
ATOM     66  C   UNL A   1      44.824  25.536  26.167  1.00  0.00     0.031 C 
ATOM     67  C   UNL A   1      45.859  27.759  26.528  1.00  0.00     0.037 A 
BRANCH  54  68
ATOM     68  C   UNL A   1      44.870  33.298  29.082  1.00  0.00     0.057 A 
ATOM     69  C   UNL A   1      45.588  33.645  30.234  1.00  0.00     0.134 A 
ATOM     70  C   UNL A   1      44.642  34.307  28.136  1.00  0.00     0.134 A 
ATOM     71  F   UNL A   1      45.824  32.731  31.189  1.00  0.00    -0.206 F 
ATOM     72  C   UNL A   1      46.040  34.947  30.449  1.00  0.00     0.040 A 
ATOM     73  C   UNL A   1      45.116  35.606  28.325  1.00  0.00     0.040 A 
ATOM     74  F   UNL A   1      43.963  34.044  27.010  1.00  0.00    -0.206 F 
ATOM     75  C   UNL A   1      45.811  35.931  29.487  1.00  0.00     0.006 A 
ENDBRANCH  54  68
BRANCH  55  76
ATOM     76  C   UNL A   1      41.094  24.170  27.582  1.00  0.00     0.057 A 
ATOM     77  C   UNL A   1      41.589  23.038  28.238  1.00  0.00     0.134 A 
ATOM     78  C   UNL A   1      40.071  23.974  26.645  1.00  0.00     0.134 A 
ATOM     79  F   UNL A   1      42.586  23.156  29.128  1.00  0.00    -0.206 F 
ATOM     80  C   UNL A   1      41.103  21.759  27.958  1.00  0.00     0.040 A 
ATOM     81  C   UNL A   1      39.556  22.705  26.377  1.00  0.00     0.040 A 
ATOM     82  F   UNL A   1      39.550  25.017  25.981  1.00  0.00    -0.206 F 
ATOM     83  C   UNL A   1      40.079  21.591  27.028  1.00  0.00     0.006 A 
ENDBRANCH  55  76
BRANCH  67  84
ATOM     84  C   UNL A   1      47.062  27.285  25.763  1.00  0.00     0.057 A 
ATOM     85  C   UNL A   1      47.200  27.499  24.385  1.00  0.00     0.134 A 
ATOM     86  C   UNL A   1      48.123  26.654  26.427  1.00  0.00     0.134 A 
ATOM     87  F   UNL A   1      46.217  28.088  23.687  1.00  0.00    -0.206 F 
ATOM     88  C   UNL A   1      48.339  27.084  23.693  1.00  0.00     0.040 A 
ATOM     89  C   UNL A   1      49.280  26.262  25.751  1.00  0.00     0.040 A 
ATOM     90  F   UNL A   1      48.063  26.429  27.748  1.00  0.00    -0.206 F 
ATOM     91  C   UNL A   1      49.387  26.471  24.378  1.00  0.00     0.006 A 
ENDBRANCH  67  84
ENDBRANCH  41  42
ENDBRANCH  34  36
ENDBRANCH  33  34
ENDBRANCH  32  33
ENDBRANCH  31  32
ENDBRANCH  30  31
ENDBRANCH  29  30
ENDBRANCH   1  29
TORSDOF 21
ENDMDL
MODEL 3
REMARK VINA RESULT:     -10.6      1.666      3.068
REMARK SMILES C[C@@H]1CC[C@@H](C(=O)OCCOCCOCCOCCOC(=O)c2ccc(-c3c4nc(c(-c5c(F)cccc5F)c5ccc([nH]5)c(-c5c(F)cccc5F)c5nc(c(-c6c(F)cccc6F)c6ccc3[nH]6)C=C5)C=C4)cc2)[C@H]2C(=O)N(c3ccccc3)C(=O)[C@@H]21
REMARK SMILES IDX 15 1 14 2 13 3 12 4 11 5 10 6 9 7 8 8 6 9 7 10 5 11 1 12
REMARK SMILES IDX 2 13 3 14 89 15 4 16 77 17 87 18 78 19 80 20 88 21 79 22
REMARK SMILES IDX 81 23 82 24 86 25 83 26 85 27 84 28 16 29 17 30 18 31 19 32
REMARK SMILES IDX 20 33 21 34 22 35 23 36 24 37 76 38 25 39 75 40 26 41 27 42
REMARK SMILES IDX 28 43 69 44 29 45 74 46 68 47 70 48 30 49 73 50 67 51 66 52
REMARK SMILES IDX 31 54 57 55 40 56 56 57 41 58 44 59 55 60 71 61 42 62 43 63
REMARK SMILES IDX 54 65 72 66 45 67 32 68 33 69 38 70 34 71 35 72 37 73 39 74
REMARK SMILES IDX 36 75 58 76 59 77 64 78 60 79 61 80 63 81 65 82 62 83 46 84
REMARK SMILES IDX 47 85 52 86 48 87 49 88 51 89 53 90 50 91
REMARK H PARENT 70 53 44 64
REMARK Flexibility Score: inf
ROOT
ATOM      1  C   UNL A   1      32.715  28.178  26.425  1.00  0.00     0.188 C 
ENDROOT
BRANCH   1   2
ATOM      2  O   UNL A   1      33.876  28.480  25.656  1.00  0.00    -0.377 OA
BRANCH   2   3
ATOM      3  C   UNL A   1      33.743  28.487  24.248  1.00  0.00     0.188 C 
BRANCH   3   4
ATOM      4  C   UNL A   1      32.280  28.646  23.791  1.00  0.00     0.188 C 
BRANCH   4   5
ATOM      5  O   UNL A   1      31.752  27.483  23.169  1.00  0.00    -0.376 OA
BRANCH   5   6
ATOM      6  C   UNL A   1      32.444  26.804  22.130  1.00  0.00     0.202 C 
BRANCH   6   7
ATOM      7  C   UNL A   1      32.161  25.337  21.761  1.00  0.00     0.261 C 
BRANCH   7   8
ATOM      8  O   UNL A   1      31.613  24.526  22.797  1.00  0.00    -0.463 OA
BRANCH   8   9
ATOM      9  C   UNL A   1      32.339  23.462  23.189  1.00  0.00     0.309 C 
ATOM     10  O   UNL A   1      32.795  22.618  22.433  1.00  0.00    -0.252 OA
BRANCH   9  11
ATOM     11  C   UNL A   1      32.546  23.514  24.699  1.00  0.00     0.112 C 
ATOM     12  C   UNL A   1      35.986  23.305  26.441  1.00  0.00     0.008 C 
ATOM     13  C   UNL A   1      35.520  23.365  24.987  1.00  0.00    -0.001 C 
ATOM     14  C   UNL A   1      34.800  24.715  24.704  1.00  0.00     0.005 C 
ATOM     15  C   UNL A   1      34.625  22.191  24.576  1.00  0.00     0.095 C 
ATOM     16  C   UNL A   1      33.324  24.764  25.124  1.00  0.00     0.016 C 
ATOM     17  C   UNL A   1      33.263  22.298  25.216  1.00  0.00     0.106 C 
ATOM     18  C   UNL A   1      34.946  20.741  24.860  1.00  0.00     0.237 C 
ATOM     19  C   UNL A   1      32.661  20.947  24.983  1.00  0.00     0.238 C 
ATOM     20  N   UNL A   1      33.724  20.070  24.843  1.00  0.00    -0.250 N 
ATOM     21  O   UNL A   1      36.080  20.301  24.949  1.00  0.00    -0.274 OA
ATOM     22  O   UNL A   1      31.469  20.711  25.111  1.00  0.00    -0.274 OA
BRANCH  20  23
ATOM     23  C   UNL A   1      33.553  18.662  24.767  1.00  0.00     0.052 A 
ATOM     24  C   UNL A   1      33.990  17.935  23.655  1.00  0.00     0.027 A 
ATOM     25  C   UNL A   1      32.926  17.959  25.813  1.00  0.00     0.027 A 
ATOM     26  C   UNL A   1      33.822  16.548  23.596  1.00  0.00     0.002 A 
ATOM     27  C   UNL A   1      32.732  16.577  25.741  1.00  0.00     0.002 A 
ATOM     28  C   UNL A   1      33.186  15.871  24.633  1.00  0.00     0.000 A 
ENDBRANCH  20  23
ENDBRANCH   9  11
ENDBRANCH   8   9
ENDBRANCH   7   8
ENDBRANCH   6   7
ENDBRANCH   5   6
ENDBRANCH   4   5
ENDBRANCH   3   4
ENDBRANCH   2   3
ENDBRANCH   1   2
BRANCH   1  29
ATOM     29  C   UNL A   1      31.915  29.277  27.173  1.00  0.00     0.188 C 
BRANCH  29  30
ATOM     30  O   UNL A   1      32.342  30.612  26.936  1.00  0.00    -0.376 OA
BRANCH  30  31
ATOM     31  C   UNL A   1      31.404  31.564  26.468  1.00  0.00     0.202 C 
BRANCH  31  32
ATOM     32  C   UNL A   1      31.610  33.017  26.918  1.00  0.00     0.261 C 
BRANCH  32  33
ATOM     33  O   UNL A   1      32.969  33.476  26.931  1.00  0.00    -0.460 OA
BRANCH  33  34
ATOM     34  C   UNL A   1      33.436  33.979  28.098  1.00  0.00     0.338 C 
ATOM     35  O   UNL A   1      32.910  34.800  28.810  1.00  0.00    -0.246 OA
BRANCH  34  36
ATOM     36  C   UNL A   1      34.632  33.186  28.465  1.00  0.00     0.060 A 
ATOM     37  C   UNL A   1      34.482  31.818  28.735  1.00  0.00     0.016 A 
ATOM     38  C   UNL A   1      35.891  33.786  28.515  1.00  0.00     0.016 A 
ATOM     39  C   UNL A   1      35.593  31.051  29.085  1.00  0.00     0.010 A 
ATOM     40  C   UNL A   1      36.996  33.025  28.897  1.00  0.00     0.010 A 
ATOM     41  C   UNL A   1      36.845  31.664  29.215  1.00  0.00    -0.014 A 
BRANCH  41  42
ATOM     42  C   UNL A   1      37.946  30.946  29.896  1.00  0.00     0.031 A 
ATOM     43  C   UNL A   1      38.198  31.259  31.344  1.00  0.00     0.074 A 
ATOM     44  C   UNL A   1      38.699  30.036  29.254  1.00  0.00     0.049 A 
ATOM     45  N   UNL A   1      39.147  30.831  32.136  1.00  0.00    -0.248 NA
ATOM     46  C   UNL A   1      37.252  32.188  31.984  1.00  0.00     0.031 C 
ATOM     47  C   UNL A   1      38.518  29.611  27.869  1.00  0.00     0.029 A 
ATOM     48  N   UNL A   1      39.781  29.315  29.692  1.00  0.00    -0.354 N 
ATOM     49  C   UNL A   1      38.917  31.445  33.362  1.00  0.00     0.074 A 
ATOM     50  C   UNL A   1      37.758  32.295  33.202  1.00  0.00     0.031 C 
ATOM     51  C   UNL A   1      39.473  28.714  27.563  1.00  0.00     0.029 A 
ATOM     52  C   UNL A   1      40.351  28.534  28.718  1.00  0.00     0.049 A 
ATOM     53  H   UNL A   1      40.117  29.355  30.617  1.00  0.00     0.167 HD
ATOM     54  C   UNL A   1      39.607  31.307  34.517  1.00  0.00     0.037 A 
ATOM     55  C   UNL A   1      41.471  27.785  28.752  1.00  0.00     0.037 A 
ATOM     56  C   UNL A   1      40.764  30.466  34.668  1.00  0.00     0.049 A 
ATOM     57  C   UNL A   1      42.277  27.718  30.026  1.00  0.00     0.074 A 
ATOM     58  C   UNL A   1      41.527  30.248  35.800  1.00  0.00     0.029 A 
ATOM     59  N   UNL A   1      41.330  29.716  33.649  1.00  0.00    -0.354 N 
ATOM     60  N   UNL A   1      42.042  28.283  31.187  1.00  0.00    -0.248 NA
ATOM     61  C   UNL A   1      43.505  26.910  29.994  1.00  0.00     0.031 C 
ATOM     62  C   UNL A   1      42.591  29.411  35.452  1.00  0.00     0.029 A 
ATOM     63  C   UNL A   1      42.454  29.056  34.118  1.00  0.00     0.049 A 
ATOM     64  H   UNL A   1      40.985  29.660  32.728  1.00  0.00     0.167 HD
ATOM     65  C   UNL A   1      43.071  27.873  32.028  1.00  0.00     0.074 A 
ATOM     66  C   UNL A   1      43.925  27.003  31.246  1.00  0.00     0.031 C 
ATOM     67  C   UNL A   1      43.288  28.185  33.330  1.00  0.00     0.037 A 
BRANCH  54  68
ATOM     68  C   UNL A   1      39.147  32.114  35.696  1.00  0.00     0.057 A 
ATOM     69  C   UNL A   1      39.547  33.443  35.891  1.00  0.00     0.134 A 
ATOM     70  C   UNL A   1      38.272  31.558  36.639  1.00  0.00     0.134 A 
ATOM     71  F   UNL A   1      40.398  34.029  35.035  1.00  0.00    -0.206 F 
ATOM     72  C   UNL A   1      39.114  34.181  36.992  1.00  0.00     0.040 A 
ATOM     73  C   UNL A   1      37.809  32.296  37.729  1.00  0.00     0.040 A 
ATOM     74  F   UNL A   1      37.849  30.292  36.512  1.00  0.00    -0.206 F 
ATOM     75  C   UNL A   1      38.235  33.610  37.912  1.00  0.00     0.006 A 
ENDBRANCH  54  68
BRANCH  55  76
ATOM     76  C   UNL A   1      41.918  27.054  27.538  1.00  0.00     0.057 A 
ATOM     77  C   UNL A   1      41.645  25.692  27.370  1.00  0.00     0.134 A 
ATOM     78  C   UNL A   1      42.657  27.690  26.532  1.00  0.00     0.134 A 
ATOM     79  F   UNL A   1      40.964  25.019  28.310  1.00  0.00    -0.206 F 
ATOM     80  C   UNL A   1      42.107  24.984  26.258  1.00  0.00     0.040 A 
ATOM     81  C   UNL A   1      43.099  27.002  25.401  1.00  0.00     0.040 A 
ATOM     82  F   UNL A   1      42.953  28.995  26.630  1.00  0.00    -0.206 F 
ATOM     83  C   UNL A   1      42.832  25.642  25.266  1.00  0.00     0.006 A 
ENDBRANCH  55  76
BRANCH  67  84
ATOM     84  C   UNL A   1      44.468  27.551  34.010  1.00  0.00     0.057 A 
ATOM     85  C   UNL A   1      44.391  26.286  34.609  1.00  0.00     0.134 A 
ATOM     86  C   UNL A   1      45.715  28.191  34.014  1.00  0.00     0.134 A 
ATOM     87  F   UNL A   1      43.226  25.622  34.648  1.00  0.00    -0.206 F 
ATOM     88  C   UNL A   1      45.505  25.694  35.206  1.00  0.00     0.040 A 
ATOM     89  C   UNL A   1      46.842  27.595  34.582  1.00  0.00     0.040 A 
ATOM     90  F   UNL A   1      45.862  29.398  33.447  1.00  0.00    -0.206 F 
ATOM     91  C   UNL A   1      46.737  26.346  35.187  1.00  0.00     0.006 A 
ENDBRANCH  67  84
ENDBRANCH  41  42
ENDBRANCH  34  36
ENDBRANCH  33  34
ENDBRANCH  32  33
ENDBRANCH  31  32
ENDBRANCH  30  31
ENDBRANCH  29  30
ENDBRANCH   1  29
TORSDOF 21
ENDMDL
