MODEL 1
REMARK VINA RESULT:     -10.8      0.000      0.000
REMARK SMILES CC(=O)N1CCN(C(=O)c2ccc(=O)n(CCC(=O)OCCOCCOCCOCCOC(=O)c3ccc(-c4c5nc(c(-c6c(F)cccc6F)c6ccc([nH]6)c(-c6c(F)cccc6F)c6nc(c(-c7c(F)cccc7F)c7ccc4[nH]7)C=C6)C=C5)cc3)n2)CC1
REMARK SMILES IDX 25 1 24 2 23 3 22 4 21 5 20 6 18 7 19 8 17 9 16 10 15 11
REMARK SMILES IDX 10 12 11 13 89 14 12 15 13 16 14 17 8 18 1 19 2 20 3 21 4 22
REMARK SMILES IDX 5 23 91 24 6 25 90 26 7 27 9 28 26 29 27 30 28 31 29 32
REMARK SMILES IDX 30 33 31 34 32 35 33 36 34 37 35 38 36 39 88 40 37 41 87 42
REMARK SMILES IDX 38 43 39 44 40 45 81 46 41 47 86 48 80 49 82 50 42 51 85 52
REMARK SMILES IDX 79 53 78 54 43 56 69 57 52 58 68 59 53 60 56 61 67 62 83 63
REMARK SMILES IDX 54 64 55 65 66 67 84 68 57 69 44 70 45 71 50 72 46 73 47 74
REMARK SMILES IDX 49 75 51 76 48 77 70 78 71 79 76 80 72 81 73 82 75 83 77 84
REMARK SMILES IDX 74 85 58 86 59 87 64 88 60 89 61 90 63 91 65 92 62 93
REMARK H PARENT 82 55 56 66
REMARK Flexibility Score: inf
ROOT
ATOM      1  C   UNL A   1      42.710  18.900  25.555  1.00  0.00     0.188 C 
ENDROOT
BRANCH   1   2
ATOM      2  C   UNL A   1      42.615  19.632  26.897  1.00  0.00     0.188 C 
BRANCH   2   3
ATOM      3  O   UNL A   1      41.974  20.885  26.940  1.00  0.00    -0.376 OA
BRANCH   3   4
ATOM      4  C   UNL A   1      40.577  21.067  27.091  1.00  0.00     0.202 C 
BRANCH   4   5
ATOM      5  C   UNL A   1      39.582  21.459  25.989  1.00  0.00     0.261 C 
BRANCH   5   6
ATOM      6  O   UNL A   1      38.790  22.630  26.205  1.00  0.00    -0.463 OA
BRANCH   6   7
ATOM      7  C   UNL A   1      37.642  22.734  25.514  1.00  0.00     0.307 C 
ATOM      8  O   UNL A   1      37.416  22.132  24.468  1.00  0.00    -0.252 OA
BRANCH   7   9
ATOM      9  C   UNL A   1      36.654  23.729  26.082  1.00  0.00     0.146 C 
BRANCH   9  10
ATOM     10  C   UNL A   1      35.611  24.449  25.224  1.00  0.00     0.160 C 
BRANCH  10  11
ATOM     11  N   UNL A   1      34.710  23.648  24.376  1.00  0.00    -0.229 N 
ATOM     12  C   UNL A   1      33.243  21.886  24.362  1.00  0.00     0.149 A 
ATOM     13  C   UNL A   1      32.856  22.091  22.961  1.00  0.00     0.042 A 
ATOM     14  N   UNL A   1      34.132  22.562  25.022  1.00  0.00    -0.164 NA
ATOM     15  C   UNL A   1      33.356  23.180  22.392  1.00  0.00     0.076 A 
ATOM     16  C   UNL A   1      34.212  24.100  23.156  1.00  0.00     0.266 A 
ATOM     17  O   UNL A   1      34.393  25.192  22.640  1.00  0.00    -0.268 OA
BRANCH  12  18
ATOM     18  C   UNL A   1      32.500  20.780  25.061  1.00  0.00     0.274 C 
ATOM     19  C   UNL A   1      35.904  15.481  25.375  1.00  0.00     0.114 C 
ATOM     20  C   UNL A   1      34.414  15.683  25.297  1.00  0.00     0.219 C 
ATOM     21  O   UNL A   1      33.655  14.787  25.666  1.00  0.00    -0.275 OA
ATOM     22  N   UNL A   1      33.956  16.921  24.890  1.00  0.00    -0.339 N 
ATOM     23  C   UNL A   1      32.553  17.269  25.145  1.00  0.00     0.141 C 
ATOM     24  C   UNL A   1      34.740  17.984  24.239  1.00  0.00     0.141 C 
ATOM     25  C   UNL A   1      32.502  18.528  26.015  1.00  0.00     0.141 C 
ATOM     26  C   UNL A   1      34.607  19.332  24.982  1.00  0.00     0.141 C 
ATOM     27  N   UNL A   1      33.207  19.622  25.344  1.00  0.00    -0.334 N 
ATOM     28  O   UNL A   1      31.338  21.004  25.376  1.00  0.00    -0.267 OA
ENDBRANCH  12  18
ENDBRANCH  10  11
ENDBRANCH   9  10
ENDBRANCH   7   9
ENDBRANCH   6   7
ENDBRANCH   5   6
ENDBRANCH   4   5
ENDBRANCH   3   4
ENDBRANCH   2   3
ENDBRANCH   1   2
BRANCH   1  29
ATOM     29  O   UNL A   1      43.825  18.110  25.210  1.00  0.00    -0.377 OA
BRANCH  29  30
ATOM     30  C   UNL A   1      45.086  18.446  25.749  1.00  0.00     0.188 C 
BRANCH  30  31
ATOM     31  C   UNL A   1      45.896  19.398  24.855  1.00  0.00     0.188 C 
BRANCH  31  32
ATOM     32  O   UNL A   1      46.481  20.602  25.353  1.00  0.00    -0.376 OA
BRANCH  32  33
ATOM     33  C   UNL A   1      45.941  21.861  24.988  1.00  0.00     0.202 C 
BRANCH  33  34
ATOM     34  C   UNL A   1      45.683  22.835  26.154  1.00  0.00     0.261 C 
BRANCH  34  35
ATOM     35  O   UNL A   1      44.308  23.056  26.508  1.00  0.00    -0.460 OA
BRANCH  35  36
ATOM     36  C   UNL A   1      43.633  23.953  25.754  1.00  0.00     0.338 C 
ATOM     37  O   UNL A   1      43.492  23.953  24.538  1.00  0.00    -0.246 OA
BRANCH  36  38
ATOM     38  C   UNL A   1      42.979  24.932  26.648  1.00  0.00     0.060 A 
ATOM     39  C   UNL A   1      41.926  24.548  27.483  1.00  0.00     0.016 A 
ATOM     40  C   UNL A   1      43.447  26.252  26.670  1.00  0.00     0.016 A 
ATOM     41  C   UNL A   1      41.367  25.479  28.364  1.00  0.00     0.010 A 
ATOM     42  C   UNL A   1      42.876  27.187  27.538  1.00  0.00     0.010 A 
ATOM     43  C   UNL A   1      41.854  26.799  28.415  1.00  0.00    -0.014 A 
BRANCH  43  44
ATOM     44  C   UNL A   1      41.442  27.704  29.518  1.00  0.00     0.031 A 
ATOM     45  C   UNL A   1      40.306  28.671  29.383  1.00  0.00     0.074 A 
ATOM     46  C   UNL A   1      42.157  27.663  30.658  1.00  0.00     0.049 A 
ATOM     47  N   UNL A   1      39.783  29.456  30.292  1.00  0.00    -0.248 NA
ATOM     48  C   UNL A   1      39.680  28.780  28.060  1.00  0.00     0.031 C 
ATOM     49  C   UNL A   1      43.322  26.805  30.884  1.00  0.00     0.029 A 
ATOM     50  N   UNL A   1      42.016  28.351  31.834  1.00  0.00    -0.354 N 
ATOM     51  C   UNL A   1      38.750  30.137  29.664  1.00  0.00     0.074 A 
ATOM     52  C   UNL A   1      38.752  29.704  28.279  1.00  0.00     0.031 C 
ATOM     53  C   UNL A   1      43.772  26.996  32.133  1.00  0.00     0.029 A 
ATOM     54  C   UNL A   1      42.948  28.008  32.783  1.00  0.00     0.049 A 
ATOM     55  H   UNL A   1      41.314  29.026  31.985  1.00  0.00     0.167 HD
ATOM     56  C   UNL A   1      37.880  31.032  30.195  1.00  0.00     0.037 A 
ATOM     57  C   UNL A   1      43.121  28.459  34.039  1.00  0.00     0.037 A 
ATOM     58  C   UNL A   1      37.925  31.500  31.562  1.00  0.00     0.049 A 
ATOM     59  C   UNL A   1      42.175  29.492  34.583  1.00  0.00     0.074 A 
ATOM     60  C   UNL A   1      37.064  32.375  32.204  1.00  0.00     0.029 A 
ATOM     61  N   UNL A   1      38.904  31.162  32.486  1.00  0.00    -0.354 N 
ATOM     62  N   UNL A   1      41.133  30.044  34.014  1.00  0.00    -0.248 NA
ATOM     63  C   UNL A   1      42.429  29.957  35.954  1.00  0.00     0.031 C 
ATOM     64  C   UNL A   1      37.558  32.615  33.492  1.00  0.00     0.029 A 
ATOM     65  C   UNL A   1      38.689  31.838  33.679  1.00  0.00     0.049 A 
ATOM     66  H   UNL A   1      39.644  30.534  32.320  1.00  0.00     0.167 HD
ATOM     67  C   UNL A   1      40.590  30.902  34.962  1.00  0.00     0.074 A 
ATOM     68  C   UNL A   1      41.407  30.776  36.152  1.00  0.00     0.031 C 
ATOM     69  C   UNL A   1      39.513  31.719  34.857  1.00  0.00     0.037 A 
BRANCH  56  70
ATOM     70  C   UNL A   1      36.806  31.574  29.293  1.00  0.00     0.057 A 
ATOM     71  C   UNL A   1      36.868  32.885  28.802  1.00  0.00     0.134 A 
ATOM     72  C   UNL A   1      35.683  30.810  28.944  1.00  0.00     0.134 A 
ATOM     73  F   UNL A   1      37.908  33.677  29.103  1.00  0.00    -0.206 F 
ATOM     74  C   UNL A   1      35.858  33.414  27.998  1.00  0.00     0.040 A 
ATOM     75  C   UNL A   1      34.678  31.320  28.118  1.00  0.00     0.040 A 
ATOM     76  F   UNL A   1      35.563  29.543  29.370  1.00  0.00    -0.206 F 
ATOM     77  C   UNL A   1      34.762  32.628  27.648  1.00  0.00     0.006 A 
ENDBRANCH  56  70
BRANCH  57  78
ATOM     78  C   UNL A   1      44.221  27.922  34.879  1.00  0.00     0.057 A 
ATOM     79  C   UNL A   1      44.062  26.754  35.633  1.00  0.00     0.134 A 
ATOM     80  C   UNL A   1      45.467  28.557  34.928  1.00  0.00     0.134 A 
ATOM     81  F   UNL A   1      42.888  26.105  35.638  1.00  0.00    -0.206 F 
ATOM     82  C   UNL A   1      45.102  26.236  36.404  1.00  0.00     0.040 A 
ATOM     83  C   UNL A   1      46.525  28.034  35.671  1.00  0.00     0.040 A 
ATOM     84  F   UNL A   1      45.684  29.674  34.216  1.00  0.00    -0.206 F 
ATOM     85  C   UNL A   1      46.343  26.871  36.416  1.00  0.00     0.006 A 
ENDBRANCH  57  78
BRANCH  69  86
ATOM     86  C   UNL A   1      39.145  32.519  36.076  1.00  0.00     0.057 A 
ATOM     87  C   UNL A   1      39.635  33.819  36.251  1.00  0.00     0.134 A 
ATOM     88  C   UNL A   1      38.301  32.010  37.074  1.00  0.00     0.134 A 
ATOM     89  F   UNL A   1      40.453  34.368  35.339  1.00  0.00    -0.206 F 
ATOM     90  C   UNL A   1      39.300  34.584  37.369  1.00  0.00     0.040 A 
ATOM     91  C   UNL A   1      37.932  32.778  38.180  1.00  0.00     0.040 A 
ATOM     92  F   UNL A   1      37.782  30.779  36.962  1.00  0.00    -0.206 F 
ATOM     93  C   UNL A   1      38.436  34.068  38.333  1.00  0.00     0.006 A 
ENDBRANCH  69  86
ENDBRANCH  43  44
ENDBRANCH  36  38
ENDBRANCH  35  36
ENDBRANCH  34  35
ENDBRANCH  33  34
ENDBRANCH  32  33
ENDBRANCH  31  32
ENDBRANCH  30  31
ENDBRANCH  29  30
ENDBRANCH   1  29
TORSDOF 23
ENDMDL
MODEL 2
REMARK VINA RESULT:      -9.8      1.932      4.289
REMARK SMILES CC(=O)N1CCN(C(=O)c2ccc(=O)n(CCC(=O)OCCOCCOCCOCCOC(=O)c3ccc(-c4c5nc(c(-c6c(F)cccc6F)c6ccc([nH]6)c(-c6c(F)cccc6F)c6nc(c(-c7c(F)cccc7F)c7ccc4[nH]7)C=C6)C=C5)cc3)n2)CC1
REMARK SMILES IDX 25 1 24 2 23 3 22 4 21 5 20 6 18 7 19 8 17 9 16 10 15 11
REMARK SMILES IDX 10 12 11 13 89 14 12 15 13 16 14 17 8 18 1 19 2 20 3 21 4 22
REMARK SMILES IDX 5 23 91 24 6 25 90 26 7 27 9 28 26 29 27 30 28 31 29 32
REMARK SMILES IDX 30 33 31 34 32 35 33 36 34 37 35 38 36 39 88 40 37 41 87 42
REMARK SMILES IDX 38 43 39 44 40 45 81 46 41 47 86 48 80 49 82 50 42 51 85 52
REMARK SMILES IDX 79 53 78 54 43 56 69 57 52 58 68 59 53 60 56 61 67 62 83 63
REMARK SMILES IDX 54 64 55 65 66 67 84 68 57 69 44 70 45 71 50 72 46 73 47 74
REMARK SMILES IDX 49 75 51 76 48 77 70 78 71 79 76 80 72 81 73 82 75 83 77 84
REMARK SMILES IDX 74 85 58 86 59 87 64 88 60 89 61 90 63 91 65 92 62 93
REMARK H PARENT 82 55 56 66
REMARK Flexibility Score: inf
ROOT
ATOM      1  C   UNL A   1      43.304  18.867  25.172  1.00  0.00     0.188 C 
ENDROOT
BRANCH   1   2
ATOM      2  C   UNL A   1      43.223  19.454  26.584  1.00  0.00     0.188 C 
BRANCH   2   3
ATOM      3  O   UNL A   1      42.156  20.317  26.899  1.00  0.00    -0.376 OA
BRANCH   3   4
ATOM      4  C   UNL A   1      40.793  19.933  26.916  1.00  0.00     0.202 C 
BRANCH   4   5
ATOM      5  C   UNL A   1      39.790  20.066  25.761  1.00  0.00     0.261 C 
BRANCH   5   6
ATOM      6  O   UNL A   1      39.016  21.267  25.699  1.00  0.00    -0.463 OA
BRANCH   6   7
ATOM      7  C   UNL A   1      37.790  21.183  25.153  1.00  0.00     0.307 C 
ATOM      8  O   UNL A   1      37.203  20.124  24.949  1.00  0.00    -0.252 OA
BRANCH   7   9
ATOM      9  C   UNL A   1      37.202  22.508  24.722  1.00  0.00     0.146 C 
BRANCH   9  10
ATOM     10  C   UNL A   1      36.190  22.639  23.582  1.00  0.00     0.160 C 
BRANCH  10  11
ATOM     11  N   UNL A   1      34.780  22.923  23.908  1.00  0.00    -0.229 N 
ATOM     12  C   UNL A   1      33.057  24.400  23.588  1.00  0.00     0.149 A 
ATOM     13  C   UNL A   1      32.082  23.572  24.309  1.00  0.00     0.042 A 
ATOM     14  N   UNL A   1      34.319  24.143  23.431  1.00  0.00    -0.164 NA
ATOM     15  C   UNL A   1      32.524  22.378  24.682  1.00  0.00     0.076 A 
ATOM     16  C   UNL A   1      33.891  21.947  24.352  1.00  0.00     0.266 A 
ATOM     17  O   UNL A   1      34.108  20.754  24.491  1.00  0.00    -0.268 OA
BRANCH  12  18
ATOM     18  C   UNL A   1      32.485  25.651  22.978  1.00  0.00     0.274 C 
ATOM     19  C   UNL A   1      32.709  30.532  26.964  1.00  0.00     0.114 C 
ATOM     20  C   UNL A   1      31.733  30.213  25.863  1.00  0.00     0.219 C 
ATOM     21  O   UNL A   1      31.045  31.110  25.375  1.00  0.00    -0.275 OA
ATOM     22  N   UNL A   1      31.714  28.919  25.380  1.00  0.00    -0.339 N 
ATOM     23  C   UNL A   1      31.057  28.660  24.093  1.00  0.00     0.141 C 
ATOM     24  C   UNL A   1      32.323  27.733  26.003  1.00  0.00     0.141 C 
ATOM     25  C   UNL A   1      32.078  28.058  23.124  1.00  0.00     0.141 C 
ATOM     26  C   UNL A   1      33.252  26.982  25.023  1.00  0.00     0.141 C 
ATOM     27  N   UNL A   1      32.635  26.829  23.693  1.00  0.00    -0.334 N 
ATOM     28  O   UNL A   1      31.974  25.546  21.870  1.00  0.00    -0.267 OA
ENDBRANCH  12  18
ENDBRANCH  10  11
ENDBRANCH   9  10
ENDBRANCH   7   9
ENDBRANCH   6   7
ENDBRANCH   5   6
ENDBRANCH   4   5
ENDBRANCH   3   4
ENDBRANCH   2   3
ENDBRANCH   1   2
BRANCH   1  29
ATOM     29  O   UNL A   1      44.522  18.769  24.469  1.00  0.00    -0.377 OA
BRANCH  29  30
ATOM     30  C   UNL A   1      45.689  19.301  25.060  1.00  0.00     0.188 C 
BRANCH  30  31
ATOM     31  C   UNL A   1      45.822  20.822  24.884  1.00  0.00     0.188 C 
BRANCH  31  32
ATOM     32  O   UNL A   1      46.008  21.706  25.989  1.00  0.00    -0.376 OA
BRANCH  32  33
ATOM     33  C   UNL A   1      45.307  22.936  26.044  1.00  0.00     0.202 C 
BRANCH  33  34
ATOM     34  C   UNL A   1      44.176  23.010  27.088  1.00  0.00     0.261 C 
BRANCH  34  35
ATOM     35  O   UNL A   1      42.900  23.474  26.616  1.00  0.00    -0.460 OA
BRANCH  35  36
ATOM     36  C   UNL A   1      42.889  24.687  26.019  1.00  0.00     0.338 C 
ATOM     37  O   UNL A   1      43.201  24.958  24.868  1.00  0.00    -0.246 OA
BRANCH  36  38
ATOM     38  C   UNL A   1      42.336  25.679  26.967  1.00  0.00     0.060 A 
ATOM     39  C   UNL A   1      41.299  25.335  27.839  1.00  0.00     0.016 A 
ATOM     40  C   UNL A   1      42.884  26.968  27.001  1.00  0.00     0.016 A 
ATOM     41  C   UNL A   1      40.837  26.273  28.768  1.00  0.00     0.010 A 
ATOM     42  C   UNL A   1      42.409  27.910  27.917  1.00  0.00     0.010 A 
ATOM     43  C   UNL A   1      41.405  27.560  28.829  1.00  0.00    -0.014 A 
BRANCH  43  44
ATOM     44  C   UNL A   1      41.097  28.456  29.972  1.00  0.00     0.031 A 
ATOM     45  C   UNL A   1      40.016  29.491  29.915  1.00  0.00     0.074 A 
ATOM     46  C   UNL A   1      41.860  28.342  31.077  1.00  0.00     0.049 A 
ATOM     47  N   UNL A   1      39.582  30.280  30.866  1.00  0.00    -0.248 NA
ATOM     48  C   UNL A   1      39.339  29.672  28.625  1.00  0.00     0.031 C 
ATOM     49  C   UNL A   1      42.980  27.412  31.227  1.00  0.00     0.029 A 
ATOM     50  N   UNL A   1      41.813  29.005  32.275  1.00  0.00    -0.354 N 
ATOM     51  C   UNL A   1      38.565  31.038  30.303  1.00  0.00     0.074 A 
ATOM     52  C   UNL A   1      38.478  30.643  28.910  1.00  0.00     0.031 C 
ATOM     53  C   UNL A   1      43.497  27.542  32.458  1.00  0.00     0.029 A 
ATOM     54  C   UNL A   1      42.765  28.582  33.171  1.00  0.00     0.049 A 
ATOM     55  H   UNL A   1      41.160  29.716  32.475  1.00  0.00     0.167 HD
ATOM     56  C   UNL A   1      37.774  31.966  30.897  1.00  0.00     0.037 A 
ATOM     57  C   UNL A   1      43.020  28.988  34.428  1.00  0.00     0.037 A 
ATOM     58  C   UNL A   1      37.908  32.394  32.271  1.00  0.00     0.049 A 
ATOM     59  C   UNL A   1      42.163  30.059  35.041  1.00  0.00     0.074 A 
ATOM     60  C   UNL A   1      37.131  33.300  32.974  1.00  0.00     0.029 A 
ATOM     61  N   UNL A   1      38.906  31.974  33.140  1.00  0.00    -0.354 N 
ATOM     62  N   UNL A   1      41.130  30.686  34.534  1.00  0.00    -0.248 NA
ATOM     63  C   UNL A   1      42.506  30.471  36.409  1.00  0.00     0.031 C 
ATOM     64  C   UNL A   1      37.695  33.475  34.243  1.00  0.00     0.029 A 
ATOM     65  C   UNL A   1      38.785  32.628  34.358  1.00  0.00     0.049 A 
ATOM     66  H   UNL A   1      39.599  31.309  32.924  1.00  0.00     0.167 HD
ATOM     67  C   UNL A   1      40.683  31.548  35.528  1.00  0.00     0.074 A 
ATOM     68  C   UNL A   1      41.544  31.342  36.674  1.00  0.00     0.031 C 
ATOM     69  C   UNL A   1      39.653  32.429  35.493  1.00  0.00     0.037 A 
BRANCH  56  70
ATOM     70  C   UNL A   1      36.695  32.594  30.059  1.00  0.00     0.057 A 
ATOM     71  C   UNL A   1      35.381  32.107  30.089  1.00  0.00     0.134 A 
ATOM     72  C   UNL A   1      36.965  33.659  29.187  1.00  0.00     0.134 A 
ATOM     73  F   UNL A   1      35.052  31.084  30.891  1.00  0.00    -0.206 F 
ATOM     74  C   UNL A   1      34.378  32.654  29.286  1.00  0.00     0.040 A 
ATOM     75  C   UNL A   1      35.964  34.232  28.398  1.00  0.00     0.040 A 
ATOM     76  F   UNL A   1      38.198  34.183  29.116  1.00  0.00    -0.206 F 
ATOM     77  C   UNL A   1      34.668  33.724  28.443  1.00  0.00     0.006 A 
ENDBRANCH  56  70
BRANCH  57  78
ATOM     78  C   UNL A   1      44.123  28.365  35.202  1.00  0.00     0.057 A 
ATOM     79  C   UNL A   1      43.905  27.247  36.016  1.00  0.00     0.134 A 
ATOM     80  C   UNL A   1      45.428  28.864  35.127  1.00  0.00     0.134 A 
ATOM     81  F   UNL A   1      42.674  26.729  36.139  1.00  0.00    -0.206 F 
ATOM     82  C   UNL A   1      44.944  26.647  36.726  1.00  0.00     0.040 A 
ATOM     83  C   UNL A   1      46.483  28.256  35.807  1.00  0.00     0.040 A 
ATOM     84  F   UNL A   1      45.702  29.926  34.353  1.00  0.00    -0.206 F 
ATOM     85  C   UNL A   1      46.241  27.145  36.614  1.00  0.00     0.006 A 
ENDBRANCH  57  78
BRANCH  69  86
ATOM     86  C   UNL A   1      39.388  33.216  36.747  1.00  0.00     0.057 A 
ATOM     87  C   UNL A   1      38.494  32.738  37.713  1.00  0.00     0.134 A 
ATOM     88  C   UNL A   1      40.018  34.442  37.004  1.00  0.00     0.134 A 
ATOM     89  F   UNL A   1      37.850  31.575  37.531  1.00  0.00    -0.206 F 
ATOM     90  C   UNL A   1      38.239  33.447  38.889  1.00  0.00     0.040 A 
ATOM     91  C   UNL A   1      39.797  35.143  38.191  1.00  0.00     0.040 A 
ATOM     92  F   UNL A   1      40.899  34.950  36.130  1.00  0.00    -0.206 F 
ATOM     93  C   UNL A   1      38.900  34.648  39.135  1.00  0.00     0.006 A 
ENDBRANCH  69  86
ENDBRANCH  43  44
ENDBRANCH  36  38
ENDBRANCH  35  36
ENDBRANCH  34  35
ENDBRANCH  33  34
ENDBRANCH  32  33
ENDBRANCH  31  32
ENDBRANCH  30  31
ENDBRANCH  29  30
ENDBRANCH   1  29
TORSDOF 23
ENDMDL
MODEL 3
REMARK VINA RESULT:      -8.6      7.006     11.885
REMARK SMILES CC(=O)N1CCN(C(=O)c2ccc(=O)n(CCC(=O)OCCOCCOCCOCCOC(=O)c3ccc(-c4c5nc(c(-c6c(F)cccc6F)c6ccc([nH]6)c(-c6c(F)cccc6F)c6nc(c(-c7c(F)cccc7F)c7ccc4[nH]7)C=C6)C=C5)cc3)n2)CC1
REMARK SMILES IDX 25 1 24 2 23 3 22 4 21 5 20 6 18 7 19 8 17 9 16 10 15 11
REMARK SMILES IDX 10 12 11 13 89 14 12 15 13 16 14 17 8 18 1 19 2 20 3 21 4 22
REMARK SMILES IDX 5 23 91 24 6 25 90 26 7 27 9 28 26 29 27 30 28 31 29 32
REMARK SMILES IDX 30 33 31 34 32 35 33 36 34 37 35 38 36 39 88 40 37 41 87 42
REMARK SMILES IDX 38 43 39 44 40 45 81 46 41 47 86 48 80 49 82 50 42 51 85 52
REMARK SMILES IDX 79 53 78 54 43 56 69 57 52 58 68 59 53 60 56 61 67 62 83 63
REMARK SMILES IDX 54 64 55 65 66 67 84 68 57 69 44 70 45 71 50 72 46 73 47 74
REMARK SMILES IDX 49 75 51 76 48 77 70 78 71 79 76 80 72 81 73 82 75 83 77 84
REMARK SMILES IDX 74 85 58 86 59 87 64 88 60 89 61 90 63 91 65 92 62 93
REMARK H PARENT 82 55 56 66
REMARK Flexibility Score: inf
ROOT
ATOM      1  C   UNL A   1      40.874  27.709  27.891  1.00  0.00     0.188 C 
ENDROOT
BRANCH   1   2
ATOM      2  C   UNL A   1      39.767  28.614  27.346  1.00  0.00     0.188 C 
BRANCH   2   3
ATOM      3  O   UNL A   1      38.947  29.305  28.258  1.00  0.00    -0.376 OA
BRANCH   3   4
ATOM      4  C   UNL A   1      37.532  29.345  28.194  1.00  0.00     0.202 C 
BRANCH   4   5
ATOM      5  C   UNL A   1      36.667  30.565  27.844  1.00  0.00     0.261 C 
BRANCH   5   6
ATOM      6  O   UNL A   1      36.575  31.607  28.818  1.00  0.00    -0.463 OA
BRANCH   6   7
ATOM      7  C   UNL A   1      35.557  32.477  28.697  1.00  0.00     0.307 C 
ATOM      8  O   UNL A   1      35.322  33.117  27.676  1.00  0.00    -0.252 OA
BRANCH   7   9
ATOM      9  C   UNL A   1      34.748  32.677  29.959  1.00  0.00     0.146 C 
BRANCH   9  10
ATOM     10  C   UNL A   1      35.032  33.798  30.961  1.00  0.00     0.160 C 
BRANCH  10  11
ATOM     11  N   UNL A   1      35.654  33.458  32.254  1.00  0.00    -0.229 N 
ATOM     12  C   UNL A   1      37.036  31.973  33.321  1.00  0.00     0.149 A 
ATOM     13  C   UNL A   1      37.026  32.719  34.586  1.00  0.00     0.042 A 
ATOM     14  N   UNL A   1      36.373  32.269  32.246  1.00  0.00    -0.164 NA
ATOM     15  C   UNL A   1      36.402  33.890  34.543  1.00  0.00     0.076 A 
ATOM     16  C   UNL A   1      35.802  34.375  33.291  1.00  0.00     0.266 A 
ATOM     17  O   UNL A   1      35.500  35.559  33.284  1.00  0.00    -0.268 OA
BRANCH  12  18
ATOM     18  C   UNL A   1      37.929  30.762  33.317  1.00  0.00     0.274 C 
ATOM     19  C   UNL A   1      43.250  31.767  30.085  1.00  0.00     0.114 C 
ATOM     20  C   UNL A   1      42.465  30.502  30.306  1.00  0.00     0.219 C 
ATOM     21  O   UNL A   1      43.012  29.409  30.161  1.00  0.00    -0.275 OA
ATOM     22  N   UNL A   1      41.164  30.626  30.756  1.00  0.00    -0.339 N 
ATOM     23  C   UNL A   1      40.501  29.445  31.320  1.00  0.00     0.141 C 
ATOM     24  C   UNL A   1      40.346  31.850  30.770  1.00  0.00     0.141 C 
ATOM     25  C   UNL A   1      40.085  29.748  32.762  1.00  0.00     0.141 C 
ATOM     26  C   UNL A   1      39.759  32.133  32.171  1.00  0.00     0.141 C 
ATOM     27  N   UNL A   1      39.201  30.915  32.786  1.00  0.00    -0.334 N 
ATOM     28  O   UNL A   1      37.486  29.742  33.830  1.00  0.00    -0.267 OA
ENDBRANCH  12  18
ENDBRANCH  10  11
ENDBRANCH   9  10
ENDBRANCH   7   9
ENDBRANCH   6   7
ENDBRANCH   5   6
ENDBRANCH   4   5
ENDBRANCH   3   4
ENDBRANCH   2   3
ENDBRANCH   1   2
BRANCH   1  29
ATOM     29  O   UNL A   1      40.601  26.620  28.744  1.00  0.00    -0.377 OA
BRANCH  29  30
ATOM     30  C   UNL A   1      39.425  25.869  28.527  1.00  0.00     0.188 C 
BRANCH  30  31
ATOM     31  C   UNL A   1      39.479  25.008  27.256  1.00  0.00     0.188 C 
BRANCH  31  32
ATOM     32  O   UNL A   1      39.105  23.629  27.249  1.00  0.00    -0.376 OA
BRANCH  32  33
ATOM     33  C   UNL A   1      40.096  22.622  27.148  1.00  0.00     0.202 C 
BRANCH  33  34
ATOM     34  C   UNL A   1      41.358  23.012  26.354  1.00  0.00     0.261 C 
BRANCH  34  35
ATOM     35  O   UNL A   1      42.620  22.680  26.959  1.00  0.00    -0.460 OA
BRANCH  35  36
ATOM     36  C   UNL A   1      42.906  23.303  28.125  1.00  0.00     0.338 C 
ATOM     37  O   UNL A   1      42.700  22.896  29.260  1.00  0.00    -0.246 OA
BRANCH  36  38
ATOM     38  C   UNL A   1      43.619  24.564  27.828  1.00  0.00     0.060 A 
ATOM     39  C   UNL A   1      43.873  25.497  28.838  1.00  0.00     0.016 A 
ATOM     40  C   UNL A   1      44.063  24.804  26.522  1.00  0.00     0.016 A 
ATOM     41  C   UNL A   1      44.604  26.652  28.543  1.00  0.00     0.010 A 
ATOM     42  C   UNL A   1      44.776  25.969  26.224  1.00  0.00     0.010 A 
ATOM     43  C   UNL A   1      45.081  26.885  27.239  1.00  0.00    -0.014 A 
BRANCH  43  44
ATOM     44  C   UNL A   1      46.065  27.969  26.988  1.00  0.00     0.031 A 
ATOM     45  C   UNL A   1      45.666  29.409  26.885  1.00  0.00     0.074 A 
ATOM     46  C   UNL A   1      47.351  27.613  26.809  1.00  0.00     0.049 A 
ATOM     47  N   UNL A   1      46.430  30.465  26.757  1.00  0.00    -0.248 NA
ATOM     48  C   UNL A   1      44.229  29.705  26.924  1.00  0.00     0.031 C 
ATOM     49  C   UNL A   1      47.849  26.236  26.827  1.00  0.00     0.029 A 
ATOM     50  N   UNL A   1      48.470  28.370  26.579  1.00  0.00    -0.354 N 
ATOM     51  C   UNL A   1      45.574  31.557  26.722  1.00  0.00     0.074 A 
ATOM     52  C   UNL A   1      44.225  31.027  26.797  1.00  0.00     0.031 C 
ATOM     53  C   UNL A   1      49.177  26.247  26.646  1.00  0.00     0.029 A 
ATOM     54  C   UNL A   1      49.620  27.626  26.471  1.00  0.00     0.049 A 
ATOM     55  H   UNL A   1      48.453  29.352  26.500  1.00  0.00     0.167 HD
ATOM     56  C   UNL A   1      45.886  32.874  26.644  1.00  0.00     0.037 A 
ATOM     57  C   UNL A   1      50.891  28.011  26.254  1.00  0.00     0.037 A 
ATOM     58  C   UNL A   1      47.230  33.388  26.510  1.00  0.00     0.049 A 
ATOM     59  C   UNL A   1      51.199  29.474  26.115  1.00  0.00     0.074 A 
ATOM     60  C   UNL A   1      47.650  34.707  26.462  1.00  0.00     0.029 A 
ATOM     61  N   UNL A   1      48.369  32.607  26.365  1.00  0.00    -0.354 N 
ATOM     62  N   UNL A   1      50.393  30.504  26.198  1.00  0.00    -0.248 NA
ATOM     63  C   UNL A   1      52.602  29.828  25.860  1.00  0.00     0.031 C 
ATOM     64  C   UNL A   1      49.030  34.723  26.225  1.00  0.00     0.029 A 
ATOM     65  C   UNL A   1      49.483  33.415  26.192  1.00  0.00     0.049 A 
ATOM     66  H   UNL A   1      48.383  31.623  26.382  1.00  0.00     0.167 HD
ATOM     67  C   UNL A   1      51.192  31.628  26.032  1.00  0.00     0.074 A 
ATOM     68  C   UNL A   1      52.550  31.152  25.868  1.00  0.00     0.031 C 
ATOM     69  C   UNL A   1      50.832  32.935  26.016  1.00  0.00     0.037 A 
BRANCH  56  70
ATOM     70  C   UNL A   1      44.751  33.859  26.691  1.00  0.00     0.057 A 
ATOM     71  C   UNL A   1      44.416  34.521  27.880  1.00  0.00     0.134 A 
ATOM     72  C   UNL A   1      43.956  34.122  25.565  1.00  0.00     0.134 A 
ATOM     73  F   UNL A   1      45.125  34.311  28.999  1.00  0.00    -0.206 F 
ATOM     74  C   UNL A   1      43.339  35.406  27.948  1.00  0.00     0.040 A 
ATOM     75  C   UNL A   1      42.892  35.026  25.614  1.00  0.00     0.040 A 
ATOM     76  F   UNL A   1      44.226  33.533  24.390  1.00  0.00    -0.206 F 
ATOM     77  C   UNL A   1      42.578  35.667  26.811  1.00  0.00     0.006 A 
ENDBRANCH  56  70
BRANCH  57  78
ATOM     78  C   UNL A   1      51.973  26.998  26.175  1.00  0.00     0.057 A 
ATOM     79  C   UNL A   1      52.724  26.642  27.301  1.00  0.00     0.134 A 
ATOM     80  C   UNL A   1      52.266  26.346  24.972  1.00  0.00     0.134 A 
ATOM     81  F   UNL A   1      52.500  27.238  28.482  1.00  0.00    -0.206 F 
ATOM     82  C   UNL A   1      53.726  25.674  27.234  1.00  0.00     0.040 A 
ATOM     83  C   UNL A   1      53.244  25.355  24.897  1.00  0.00     0.040 A 
ATOM     84  F   UNL A   1      51.571  26.636  23.861  1.00  0.00    -0.206 F 
ATOM     85  C   UNL A   1      53.981  25.019  26.031  1.00  0.00     0.006 A 
ENDBRANCH  57  78
BRANCH  69  86
ATOM     86  C   UNL A   1      51.936  33.942  25.842  1.00  0.00     0.057 A 
ATOM     87  C   UNL A   1      52.547  34.530  26.957  1.00  0.00     0.134 A 
ATOM     88  C   UNL A   1      52.400  34.327  24.577  1.00  0.00     0.134 A 
ATOM     89  F   UNL A   1      52.150  34.214  28.199  1.00  0.00    -0.206 F 
ATOM     90  C   UNL A   1      53.579  35.461  26.820  1.00  0.00     0.040 A 
ATOM     91  C   UNL A   1      53.455  35.231  24.428  1.00  0.00     0.040 A 
ATOM     92  F   UNL A   1      51.872  33.790  23.467  1.00  0.00    -0.206 F 
ATOM     93  C   UNL A   1      54.043  35.805  25.553  1.00  0.00     0.006 A 
ENDBRANCH  69  86
ENDBRANCH  43  44
ENDBRANCH  36  38
ENDBRANCH  35  36
ENDBRANCH  34  35
ENDBRANCH  33  34
ENDBRANCH  32  33
ENDBRANCH  31  32
ENDBRANCH  30  31
ENDBRANCH  29  30
ENDBRANCH   1  29
TORSDOF 23
ENDMDL
