MODEL 1
REMARK VINA RESULT:      -9.9      0.000      0.000
REMARK SMILES CSc1nc(O)nc(C)c1C(=O)N1C[C@@H](O)C[C@@H]1C(=O)OCCOCCOCCOCCOC(=O)c1ccc(-c2c3nc(c(-c4c(F)cccc4F)c4ccc([nH]4)c(-c4c(F)cccc4F)c4nc(c(-c5c(F)cccc5F)c5ccc2[nH]5)C=C4)C=C3)cc1
REMARK SMILES IDX 26 1 25 2 24 3 23 4 22 5 21 6 19 7 20 8 18 9 13 10 14 11
REMARK SMILES IDX 15 12 17 13 11 14 12 15 10 16 3 17 4 18 5 19 8 20 7 21 9 22
REMARK SMILES IDX 2 23 1 24 6 25 16 27 27 29 28 30 29 31 30 32 31 33 32 34
REMARK SMILES IDX 33 35 34 36 35 37 36 38 37 39 89 40 38 41 88 42 39 43 40 44
REMARK SMILES IDX 41 45 82 46 42 47 87 48 81 49 83 50 43 51 86 52 80 53 79 54
REMARK SMILES IDX 44 56 70 57 53 58 69 59 54 60 57 61 68 62 84 63 55 64 56 65
REMARK SMILES IDX 67 67 85 68 58 69 45 70 46 71 51 72 47 73 48 74 50 75 52 76
REMARK SMILES IDX 49 77 71 78 72 79 77 80 73 81 74 82 76 83 78 84 75 85 59 86
REMARK SMILES IDX 60 87 65 88 61 89 62 90 64 91 66 92 63 93
REMARK H PARENT 6 26 16 28 83 55 57 66
REMARK Flexibility Score: inf
ROOT
ATOM      1  C   UNL A   1      38.263  20.478  25.057  1.00  0.00     0.188 C 
ENDROOT
BRANCH   1   2
ATOM      2  C   UNL A   1      37.315  21.560  24.510  1.00  0.00     0.188 C 
BRANCH   2   3
ATOM      3  O   UNL A   1      37.561  22.813  25.145  1.00  0.00    -0.376 OA
BRANCH   3   4
ATOM      4  C   UNL A   1      36.496  23.311  25.948  1.00  0.00     0.202 C 
BRANCH   4   5
ATOM      5  C   UNL A   1      35.427  22.261  26.271  1.00  0.00     0.261 C 
BRANCH   5   6
ATOM      6  O   UNL A   1      34.061  22.718  26.173  1.00  0.00    -0.462 OA
BRANCH   6   7
ATOM      7  C   UNL A   1      33.461  22.767  24.952  1.00  0.00     0.329 C 
ATOM      8  O   UNL A   1      33.742  22.036  24.015  1.00  0.00    -0.250 OA
BRANCH   7   9
ATOM      9  C   UNL A   1      32.417  23.902  24.940  1.00  0.00     0.198 C 
ATOM     10  N   UNL A   1      32.565  25.041  25.897  1.00  0.00    -0.322 N 
ATOM     11  C   UNL A   1      31.279  25.207  26.548  1.00  0.00     0.152 C 
ATOM     12  C   UNL A   1      30.754  23.790  26.675  1.00  0.00     0.136 C 
ATOM     13  C   UNL A   1      31.073  23.241  25.291  1.00  0.00     0.071 C 
BRANCH  10  14
ATOM     14  C   UNL A   1      33.198  26.239  25.569  1.00  0.00     0.259 C 
ATOM     15  O   UNL A   1      34.331  26.445  25.994  1.00  0.00    -0.269 OA
BRANCH  14  16
ATOM     16  C   UNL A   1      32.514  27.250  24.675  1.00  0.00     0.093 A 
ATOM     17  C   UNL A   1      32.439  27.185  23.280  1.00  0.00     0.116 A 
ATOM     18  N   UNL A   1      31.728  28.055  22.523  1.00  0.00    -0.188 NA
ATOM     19  C   UNL A   1      31.098  29.019  23.168  1.00  0.00     0.315 A 
ATOM     20  C   UNL A   1      31.856  28.367  25.221  1.00  0.00     0.058 A 
ATOM     21  N   UNL A   1      31.134  29.247  24.471  1.00  0.00    -0.200 NA
ATOM     22  C   UNL A   1      31.902  28.774  26.669  1.00  0.00     0.068 C 
BRANCH  17  23
ATOM     23  S   UNL A   1      33.309  26.034  22.234  1.00  0.00    -0.109 SA
ATOM     24  C   UNL A   1      32.068  25.906  20.930  1.00  0.00     0.092 C 
ENDBRANCH  17  23
BRANCH  19  25
ATOM     25  O   UNL A   1      30.352  29.891  22.442  1.00  0.00    -0.479 OA
ATOM     26  H   UNL A   1      30.689  30.242  21.641  1.00  0.00     0.297 HD
ENDBRANCH  19  25
ENDBRANCH  14  16
ENDBRANCH  10  14
BRANCH  12  27
ATOM     27  O   UNL A   1      29.370  23.691  26.947  1.00  0.00    -0.391 OA
ATOM     28  H   UNL A   1      29.075  24.489  27.415  1.00  0.00     0.211 HD
ENDBRANCH  12  27
ENDBRANCH   7   9
ENDBRANCH   6   7
ENDBRANCH   5   6
ENDBRANCH   4   5
ENDBRANCH   3   4
ENDBRANCH   2   3
ENDBRANCH   1   2
BRANCH   1  29
ATOM     29  O   UNL A   1      39.387  20.958  25.774  1.00  0.00    -0.377 OA
BRANCH  29  30
ATOM     30  C   UNL A   1      40.282  19.944  26.176  1.00  0.00     0.188 C 
BRANCH  30  31
ATOM     31  C   UNL A   1      41.724  20.430  26.424  1.00  0.00     0.188 C 
BRANCH  31  32
ATOM     32  O   UNL A   1      42.558  21.027  25.436  1.00  0.00    -0.376 OA
BRANCH  32  33
ATOM     33  C   UNL A   1      43.955  20.826  25.366  1.00  0.00     0.202 C 
BRANCH  33  34
ATOM     34  C   UNL A   1      44.924  21.907  25.853  1.00  0.00     0.261 C 
BRANCH  34  35
ATOM     35  O   UNL A   1      44.321  23.029  26.481  1.00  0.00    -0.460 OA
BRANCH  35  36
ATOM     36  C   UNL A   1      44.262  24.152  25.738  1.00  0.00     0.338 C 
ATOM     37  O   UNL A   1      44.640  24.332  24.594  1.00  0.00    -0.246 OA
BRANCH  36  38
ATOM     38  C   UNL A   1      43.482  25.109  26.532  1.00  0.00     0.060 A 
ATOM     39  C   UNL A   1      43.912  26.441  26.585  1.00  0.00     0.016 A 
ATOM     40  C   UNL A   1      42.283  24.705  27.130  1.00  0.00     0.016 A 
ATOM     41  C   UNL A   1      43.126  27.388  27.220  1.00  0.00     0.010 A 
ATOM     42  C   UNL A   1      41.535  25.636  27.837  1.00  0.00     0.010 A 
ATOM     43  C   UNL A   1      41.980  26.965  27.906  1.00  0.00    -0.014 A 
BRANCH  43  44
ATOM     44  C   UNL A   1      41.491  27.821  28.996  1.00  0.00     0.031 A 
ATOM     45  C   UNL A   1      42.257  27.745  30.286  1.00  0.00     0.074 A 
ATOM     46  C   UNL A   1      40.433  28.626  28.829  1.00  0.00     0.049 A 
ATOM     47  N   UNL A   1      42.073  28.395  31.402  1.00  0.00    -0.248 NA
ATOM     48  C   UNL A   1      43.399  26.810  30.315  1.00  0.00     0.031 C 
ATOM     49  C   UNL A   1      39.674  28.789  27.591  1.00  0.00     0.029 A 
ATOM     50  N   UNL A   1      39.819  29.461  29.720  1.00  0.00    -0.354 N 
ATOM     51  C   UNL A   1      43.085  27.961  32.250  1.00  0.00     0.074 A 
ATOM     52  C   UNL A   1      43.863  26.979  31.539  1.00  0.00     0.031 C 
ATOM     53  C   UNL A   1      38.681  29.672  27.806  1.00  0.00     0.029 A 
ATOM     54  C   UNL A   1      38.728  30.107  29.200  1.00  0.00     0.049 A 
ATOM     55  H   UNL A   1      40.130  29.586  30.646  1.00  0.00     0.167 HD
ATOM     56  C   UNL A   1      43.335  28.349  33.519  1.00  0.00     0.037 A 
ATOM     57  C   UNL A   1      37.866  30.941  29.810  1.00  0.00     0.037 A 
ATOM     58  C   UNL A   1      42.503  29.277  34.228  1.00  0.00     0.049 A 
ATOM     59  C   UNL A   1      38.088  31.250  31.267  1.00  0.00     0.074 A 
ATOM     60  C   UNL A   1      42.632  29.746  35.520  1.00  0.00     0.029 A 
ATOM     61  N   UNL A   1      41.355  29.850  33.696  1.00  0.00    -0.354 N 
ATOM     62  N   UNL A   1      39.069  30.876  32.056  1.00  0.00    -0.248 NA
ATOM     63  C   UNL A   1      37.076  32.089  31.922  1.00  0.00     0.031 C 
ATOM     64  C   UNL A   1      41.526  30.561  35.789  1.00  0.00     0.029 A 
ATOM     65  C   UNL A   1      40.738  30.638  34.648  1.00  0.00     0.049 A 
ATOM     66  H   UNL A   1      41.029  29.714  32.777  1.00  0.00     0.167 HD
ATOM     67  C   UNL A   1      38.809  31.452  33.292  1.00  0.00     0.074 A 
ATOM     68  C   UNL A   1      37.581  32.211  33.141  1.00  0.00     0.031 C 
ATOM     69  C   UNL A   1      39.513  31.370  34.450  1.00  0.00     0.037 A 
BRANCH  56  70
ATOM     70  C   UNL A   1      44.504  27.706  34.204  1.00  0.00     0.057 A 
ATOM     71  C   UNL A   1      45.748  28.346  34.237  1.00  0.00     0.134 A 
ATOM     72  C   UNL A   1      44.385  26.488  34.890  1.00  0.00     0.134 A 
ATOM     73  F   UNL A   1      45.925  29.522  33.617  1.00  0.00    -0.206 F 
ATOM     74  C   UNL A   1      46.830  27.802  34.930  1.00  0.00     0.040 A 
ATOM     75  C   UNL A   1      45.453  25.947  35.608  1.00  0.00     0.040 A 
ATOM     76  F   UNL A   1      43.210  25.842  34.928  1.00  0.00    -0.206 F 
ATOM     77  C   UNL A   1      46.681  26.604  35.627  1.00  0.00     0.006 A 
ENDBRANCH  56  70
BRANCH  57  78
ATOM     78  C   UNL A   1      36.729  31.532  29.063  1.00  0.00     0.057 A 
ATOM     79  C   UNL A   1      35.595  30.780  28.731  1.00  0.00     0.134 A 
ATOM     80  C   UNL A   1      36.741  32.879  28.682  1.00  0.00     0.134 A 
ATOM     81  F   UNL A   1      35.520  29.483  29.067  1.00  0.00    -0.206 F 
ATOM     82  C   UNL A   1      34.518  31.343  28.044  1.00  0.00     0.040 A 
ATOM     83  C   UNL A   1      35.662  33.461  28.013  1.00  0.00     0.040 A 
ATOM     84  F   UNL A   1      37.789  33.657  28.988  1.00  0.00    -0.206 F 
ATOM     85  C   UNL A   1      34.547  32.690  27.688  1.00  0.00     0.006 A 
ENDBRANCH  57  78
BRANCH  69  86
ATOM     86  C   UNL A   1      38.976  32.137  35.620  1.00  0.00     0.057 A 
ATOM     87  C   UNL A   1      39.219  33.511  35.739  1.00  0.00     0.134 A 
ATOM     88  C   UNL A   1      38.253  31.512  36.643  1.00  0.00     0.134 A 
ATOM     89  F   UNL A   1      39.917  34.165  34.797  1.00  0.00    -0.206 F 
ATOM     90  C   UNL A   1      38.766  34.237  36.840  1.00  0.00     0.040 A 
ATOM     91  C   UNL A   1      37.768  32.233  37.733  1.00  0.00     0.040 A 
ATOM     92  F   UNL A   1      37.977  30.201  36.577  1.00  0.00    -0.206 F 
ATOM     93  C   UNL A   1      38.030  33.598  37.836  1.00  0.00     0.006 A 
ENDBRANCH  69  86
ENDBRANCH  43  44
ENDBRANCH  36  38
ENDBRANCH  35  36
ENDBRANCH  34  35
ENDBRANCH  33  34
ENDBRANCH  32  33
ENDBRANCH  31  32
ENDBRANCH  30  31
ENDBRANCH  29  30
ENDBRANCH   1  29
TORSDOF 25
ENDMDL
MODEL 2
REMARK VINA RESULT:      -9.8      1.091      2.257
REMARK SMILES CSc1nc(O)nc(C)c1C(=O)N1C[C@@H](O)C[C@@H]1C(=O)OCCOCCOCCOCCOC(=O)c1ccc(-c2c3nc(c(-c4c(F)cccc4F)c4ccc([nH]4)c(-c4c(F)cccc4F)c4nc(c(-c5c(F)cccc5F)c5ccc2[nH]5)C=C4)C=C3)cc1
REMARK SMILES IDX 26 1 25 2 24 3 23 4 22 5 21 6 19 7 20 8 18 9 13 10 14 11
REMARK SMILES IDX 15 12 17 13 11 14 12 15 10 16 3 17 4 18 5 19 8 20 7 21 9 22
REMARK SMILES IDX 2 23 1 24 6 25 16 27 27 29 28 30 29 31 30 32 31 33 32 34
REMARK SMILES IDX 33 35 34 36 35 37 36 38 37 39 89 40 38 41 88 42 39 43 40 44
REMARK SMILES IDX 41 45 82 46 42 47 87 48 81 49 83 50 43 51 86 52 80 53 79 54
REMARK SMILES IDX 44 56 70 57 53 58 69 59 54 60 57 61 68 62 84 63 55 64 56 65
REMARK SMILES IDX 67 67 85 68 58 69 45 70 46 71 51 72 47 73 48 74 50 75 52 76
REMARK SMILES IDX 49 77 71 78 72 79 77 80 73 81 74 82 76 83 78 84 75 85 59 86
REMARK SMILES IDX 60 87 65 88 61 89 62 90 64 91 66 92 63 93
REMARK H PARENT 6 26 16 28 83 55 57 66
REMARK Flexibility Score: inf
ROOT
ATOM      1  C   UNL A   1      38.673  20.698  25.501  1.00  0.00     0.188 C 
ENDROOT
BRANCH   1   2
ATOM      2  C   UNL A   1      37.568  21.676  25.066  1.00  0.00     0.188 C 
BRANCH   2   3
ATOM      3  O   UNL A   1      37.680  22.909  25.775  1.00  0.00    -0.376 OA
BRANCH   3   4
ATOM      4  C   UNL A   1      36.457  23.605  25.986  1.00  0.00     0.202 C 
BRANCH   4   5
ATOM      5  C   UNL A   1      35.262  22.682  26.254  1.00  0.00     0.261 C 
BRANCH   5   6
ATOM      6  O   UNL A   1      34.038  23.044  25.581  1.00  0.00    -0.462 OA
BRANCH   6   7
ATOM      7  C   UNL A   1      33.443  22.143  24.751  1.00  0.00     0.329 C 
ATOM      8  O   UNL A   1      34.045  21.318  24.082  1.00  0.00    -0.250 OA
BRANCH   7   9
ATOM      9  C   UNL A   1      31.916  22.361  24.768  1.00  0.00     0.198 C 
ATOM     10  N   UNL A   1      31.377  23.756  24.726  1.00  0.00    -0.322 N 
ATOM     11  C   UNL A   1      30.407  23.858  25.800  1.00  0.00     0.152 C 
ATOM     12  C   UNL A   1      30.991  22.992  26.899  1.00  0.00     0.136 C 
ATOM     13  C   UNL A   1      31.422  21.769  26.099  1.00  0.00     0.071 C 
BRANCH  10  14
ATOM     14  C   UNL A   1      30.994  24.393  23.547  1.00  0.00     0.259 C 
ATOM     15  O   UNL A   1      29.939  24.062  23.013  1.00  0.00    -0.269 OA
BRANCH  14  16
ATOM     16  C   UNL A   1      31.843  25.498  22.959  1.00  0.00     0.093 A 
ATOM     17  C   UNL A   1      31.683  26.866  23.201  1.00  0.00     0.116 A 
ATOM     18  N   UNL A   1      32.530  27.816  22.738  1.00  0.00    -0.188 NA
ATOM     19  C   UNL A   1      33.543  27.396  22.003  1.00  0.00     0.315 A 
ATOM     20  C   UNL A   1      32.921  25.201  22.104  1.00  0.00     0.058 A 
ATOM     21  N   UNL A   1      33.783  26.148  21.635  1.00  0.00    -0.200 NA
ATOM     22  C   UNL A   1      33.233  23.838  21.550  1.00  0.00     0.068 C 
BRANCH  17  23
ATOM     23  S   UNL A   1      30.324  27.627  24.066  1.00  0.00    -0.109 SA
ATOM     24  C   UNL A   1      31.231  29.025  24.760  1.00  0.00     0.092 C 
ENDBRANCH  17  23
BRANCH  19  25
ATOM     25  O   UNL A   1      34.428  28.320  21.547  1.00  0.00    -0.479 OA
ATOM     26  H   UNL A   1      34.246  29.233  21.652  1.00  0.00     0.297 HD
ENDBRANCH  19  25
ENDBRANCH  14  16
ENDBRANCH  10  14
BRANCH  12  27
ATOM     27  O   UNL A   1      30.080  22.629  27.917  1.00  0.00    -0.391 OA
ATOM     28  H   UNL A   1      29.706  21.756  27.720  1.00  0.00     0.211 HD
ENDBRANCH  12  27
ENDBRANCH   7   9
ENDBRANCH   6   7
ENDBRANCH   5   6
ENDBRANCH   4   5
ENDBRANCH   3   4
ENDBRANCH   2   3
ENDBRANCH   1   2
BRANCH   1  29
ATOM     29  O   UNL A   1      39.831  21.293  26.057  1.00  0.00    -0.377 OA
BRANCH  29  30
ATOM     30  C   UNL A   1      40.738  20.366  26.615  1.00  0.00     0.188 C 
BRANCH  30  31
ATOM     31  C   UNL A   1      42.203  20.847  26.643  1.00  0.00     0.188 C 
BRANCH  31  32
ATOM     32  O   UNL A   1      43.059  20.899  25.506  1.00  0.00    -0.376 OA
BRANCH  32  33
ATOM     33  C   UNL A   1      44.464  20.759  25.579  1.00  0.00     0.202 C 
BRANCH  33  34
ATOM     34  C   UNL A   1      45.356  21.972  25.859  1.00  0.00     0.261 C 
BRANCH  34  35
ATOM     35  O   UNL A   1      44.703  23.085  26.451  1.00  0.00    -0.460 OA
BRANCH  35  36
ATOM     36  C   UNL A   1      44.265  24.028  25.592  1.00  0.00     0.338 C 
ATOM     37  O   UNL A   1      44.335  24.046  24.376  1.00  0.00    -0.246 OA
BRANCH  36  38
ATOM     38  C   UNL A   1      43.513  24.987  26.411  1.00  0.00     0.060 A 
ATOM     39  C   UNL A   1      43.935  26.323  26.432  1.00  0.00     0.016 A 
ATOM     40  C   UNL A   1      42.346  24.581  27.066  1.00  0.00     0.016 A 
ATOM     41  C   UNL A   1      43.171  27.271  27.092  1.00  0.00     0.010 A 
ATOM     42  C   UNL A   1      41.623  25.515  27.797  1.00  0.00     0.010 A 
ATOM     43  C   UNL A   1      42.061  26.847  27.833  1.00  0.00    -0.014 A 
BRANCH  43  44
ATOM     44  C   UNL A   1      41.615  27.710  28.935  1.00  0.00     0.031 A 
ATOM     45  C   UNL A   1      42.420  27.630  30.201  1.00  0.00     0.074 A 
ATOM     46  C   UNL A   1      40.560  28.525  28.799  1.00  0.00     0.049 A 
ATOM     47  N   UNL A   1      42.278  28.285  31.319  1.00  0.00    -0.248 NA
ATOM     48  C   UNL A   1      43.553  26.684  30.196  1.00  0.00     0.031 C 
ATOM     49  C   UNL A   1      39.764  28.692  27.585  1.00  0.00     0.029 A 
ATOM     50  N   UNL A   1      39.982  29.368  29.707  1.00  0.00    -0.354 N 
ATOM     51  C   UNL A   1      43.312  27.843  32.137  1.00  0.00     0.074 A 
ATOM     52  C   UNL A   1      44.058  26.852  31.404  1.00  0.00     0.031 C 
ATOM     53  C   UNL A   1      38.787  29.585  27.829  1.00  0.00     0.029 A 
ATOM     54  C   UNL A   1      38.882  30.023  29.219  1.00  0.00     0.049 A 
ATOM     55  H   UNL A   1      40.324  29.493  30.622  1.00  0.00     0.167 HD
ATOM     56  C   UNL A   1      43.606  28.232  33.396  1.00  0.00     0.037 A 
ATOM     57  C   UNL A   1      38.048  30.867  29.854  1.00  0.00     0.037 A 
ATOM     58  C   UNL A   1      42.805  29.170  34.128  1.00  0.00     0.049 A 
ATOM     59  C   UNL A   1      38.318  31.178  31.303  1.00  0.00     0.074 A 
ATOM     60  C   UNL A   1      42.980  29.641  35.414  1.00  0.00     0.029 A 
ATOM     61  N   UNL A   1      41.647  29.753  33.632  1.00  0.00    -0.354 N 
ATOM     62  N   UNL A   1      39.320  30.797  32.061  1.00  0.00    -0.248 NA
ATOM     63  C   UNL A   1      37.336  32.028  31.987  1.00  0.00     0.031 C 
ATOM     64  C   UNL A   1      41.891  30.467  35.716  1.00  0.00     0.029 A 
ATOM     65  C   UNL A   1      41.068  30.549  34.600  1.00  0.00     0.049 A 
ATOM     66  H   UNL A   1      41.291  29.618  32.724  1.00  0.00     0.167 HD
ATOM     67  C   UNL A   1      39.105  31.378  33.303  1.00  0.00     0.074 A 
ATOM     68  C   UNL A   1      37.880  32.148  33.189  1.00  0.00     0.031 C 
ATOM     69  C   UNL A   1      39.844  31.293  34.438  1.00  0.00     0.037 A 
BRANCH  56  70
ATOM     70  C   UNL A   1      44.790  27.579  34.045  1.00  0.00     0.057 A 
ATOM     71  C   UNL A   1      44.646  26.367  34.728  1.00  0.00     0.134 A 
ATOM     72  C   UNL A   1      46.083  28.111  33.936  1.00  0.00     0.134 A 
ATOM     73  F   UNL A   1      43.440  25.794  34.853  1.00  0.00    -0.206 F 
ATOM     74  C   UNL A   1      45.745  25.704  35.276  1.00  0.00     0.040 A 
ATOM     75  C   UNL A   1      47.194  27.444  34.458  1.00  0.00     0.040 A 
ATOM     76  F   UNL A   1      46.295  29.252  33.262  1.00  0.00    -0.206 F 
ATOM     77  C   UNL A   1      47.025  26.237  35.133  1.00  0.00     0.006 A 
ENDBRANCH  56  70
BRANCH  57  78
ATOM     78  C   UNL A   1      36.893  31.467  29.142  1.00  0.00     0.057 A 
ATOM     79  C   UNL A   1      36.917  32.789  28.679  1.00  0.00     0.134 A 
ATOM     80  C   UNL A   1      35.739  30.718  28.885  1.00  0.00     0.134 A 
ATOM     81  F   UNL A   1      37.994  33.561  28.892  1.00  0.00    -0.206 F 
ATOM     82  C   UNL A   1      35.836  33.345  27.993  1.00  0.00     0.040 A 
ATOM     83  C   UNL A   1      34.658  31.254  28.181  1.00  0.00     0.040 A 
ATOM     84  F   UNL A   1      35.661  29.440  29.283  1.00  0.00    -0.206 F 
ATOM     85  C   UNL A   1      34.704  32.575  27.736  1.00  0.00     0.006 A 
ENDBRANCH  57  78
BRANCH  69  86
ATOM     86  C   UNL A   1      39.352  32.068  35.622  1.00  0.00     0.057 A 
ATOM     87  C   UNL A   1      38.428  31.499  36.508  1.00  0.00     0.134 A 
ATOM     88  C   UNL A   1      39.761  33.385  35.863  1.00  0.00     0.134 A 
ATOM     89  F   UNL A   1      37.989  30.245  36.323  1.00  0.00    -0.206 F 
ATOM     90  C   UNL A   1      37.925  32.217  37.592  1.00  0.00     0.040 A 
ATOM     91  C   UNL A   1      39.288  34.102  36.961  1.00  0.00     0.040 A 
ATOM     92  F   UNL A   1      40.654  33.978  35.057  1.00  0.00    -0.206 F 
ATOM     93  C   UNL A   1      38.362  33.519  37.826  1.00  0.00     0.006 A 
ENDBRANCH  69  86
ENDBRANCH  43  44
ENDBRANCH  36  38
ENDBRANCH  35  36
ENDBRANCH  34  35
ENDBRANCH  33  34
ENDBRANCH  32  33
ENDBRANCH  31  32
ENDBRANCH  30  31
ENDBRANCH  29  30
ENDBRANCH   1  29
TORSDOF 25
ENDMDL
MODEL 3
REMARK VINA RESULT:      -9.8      4.351      9.875
REMARK SMILES CSc1nc(O)nc(C)c1C(=O)N1C[C@@H](O)C[C@@H]1C(=O)OCCOCCOCCOCCOC(=O)c1ccc(-c2c3nc(c(-c4c(F)cccc4F)c4ccc([nH]4)c(-c4c(F)cccc4F)c4nc(c(-c5c(F)cccc5F)c5ccc2[nH]5)C=C4)C=C3)cc1
REMARK SMILES IDX 26 1 25 2 24 3 23 4 22 5 21 6 19 7 20 8 18 9 13 10 14 11
REMARK SMILES IDX 15 12 17 13 11 14 12 15 10 16 3 17 4 18 5 19 8 20 7 21 9 22
REMARK SMILES IDX 2 23 1 24 6 25 16 27 27 29 28 30 29 31 30 32 31 33 32 34
REMARK SMILES IDX 33 35 34 36 35 37 36 38 37 39 89 40 38 41 88 42 39 43 40 44
REMARK SMILES IDX 41 45 82 46 42 47 87 48 81 49 83 50 43 51 86 52 80 53 79 54
REMARK SMILES IDX 44 56 70 57 53 58 69 59 54 60 57 61 68 62 84 63 55 64 56 65
REMARK SMILES IDX 67 67 85 68 58 69 45 70 46 71 51 72 47 73 48 74 50 75 52 76
REMARK SMILES IDX 49 77 71 78 72 79 77 80 73 81 74 82 76 83 78 84 75 85 59 86
REMARK SMILES IDX 60 87 65 88 61 89 62 90 64 91 66 92 63 93
REMARK H PARENT 6 26 16 28 83 55 57 66
REMARK Flexibility Score: inf
ROOT
ATOM      1  C   UNL A   1      34.461  32.182  28.616  1.00  0.00     0.188 C 
ENDROOT
BRANCH   1   2
ATOM      2  C   UNL A   1      34.145  31.227  27.452  1.00  0.00     0.188 C 
BRANCH   2   3
ATOM      3  O   UNL A   1      34.825  29.985  27.620  1.00  0.00    -0.376 OA
BRANCH   3   4
ATOM      4  C   UNL A   1      34.507  28.979  26.665  1.00  0.00     0.202 C 
BRANCH   4   5
ATOM      5  C   UNL A   1      33.313  28.105  27.067  1.00  0.00     0.261 C 
BRANCH   5   6
ATOM      6  O   UNL A   1      33.218  26.836  26.386  1.00  0.00    -0.462 OA
BRANCH   6   7
ATOM      7  C   UNL A   1      32.000  26.396  25.964  1.00  0.00     0.329 C 
ATOM      8  O   UNL A   1      31.085  26.080  26.708  1.00  0.00    -0.250 OA
BRANCH   7   9
ATOM      9  C   UNL A   1      31.986  26.328  24.424  1.00  0.00     0.198 C 
ATOM     10  N   UNL A   1      33.248  25.989  23.695  1.00  0.00    -0.322 N 
ATOM     11  C   UNL A   1      33.414  26.993  22.662  1.00  0.00     0.152 C 
ATOM     12  C   UNL A   1      32.879  28.261  23.301  1.00  0.00     0.136 C 
ATOM     13  C   UNL A   1      31.601  27.739  23.945  1.00  0.00     0.071 C 
BRANCH  10  14
ATOM     14  C   UNL A   1      33.575  24.695  23.292  1.00  0.00     0.259 C 
ATOM     15  O   UNL A   1      33.869  24.499  22.117  1.00  0.00    -0.269 OA
BRANCH  14  16
ATOM     16  C   UNL A   1      33.604  23.562  24.294  1.00  0.00     0.093 A 
ATOM     17  C   UNL A   1      34.738  23.102  24.971  1.00  0.00     0.116 A 
ATOM     18  N   UNL A   1      34.704  22.154  25.939  1.00  0.00    -0.188 NA
ATOM     19  C   UNL A   1      33.520  21.641  26.221  1.00  0.00     0.315 A 
ATOM     20  C   UNL A   1      32.425  22.879  24.644  1.00  0.00     0.058 A 
ATOM     21  N   UNL A   1      32.377  21.926  25.618  1.00  0.00    -0.200 NA
ATOM     22  C   UNL A   1      31.093  23.055  23.969  1.00  0.00     0.068 C 
BRANCH  17  23
ATOM     23  S   UNL A   1      36.422  23.587  24.650  1.00  0.00    -0.109 SA
ATOM     24  C   UNL A   1      37.110  21.934  24.419  1.00  0.00     0.092 C 
ENDBRANCH  17  23
BRANCH  19  25
ATOM     25  O   UNL A   1      33.446  20.709  27.205  1.00  0.00    -0.479 OA
ATOM     26  H   UNL A   1      32.715  20.125  27.242  1.00  0.00     0.297 HD
ENDBRANCH  19  25
ENDBRANCH  14  16
ENDBRANCH  10  14
BRANCH  12  27
ATOM     27  O   UNL A   1      32.592  29.307  22.395  1.00  0.00    -0.391 OA
ATOM     28  H   UNL A   1      32.748  29.000  21.487  1.00  0.00     0.211 HD
ENDBRANCH  12  27
ENDBRANCH   7   9
ENDBRANCH   6   7
ENDBRANCH   5   6
ENDBRANCH   4   5
ENDBRANCH   3   4
ENDBRANCH   2   3
ENDBRANCH   1   2
BRANCH   1  29
ATOM     29  O   UNL A   1      34.481  33.560  28.287  1.00  0.00    -0.377 OA
BRANCH  29  30
ATOM     30  C   UNL A   1      33.278  34.235  28.586  1.00  0.00     0.188 C 
BRANCH  30  31
ATOM     31  C   UNL A   1      33.338  35.111  29.853  1.00  0.00     0.188 C 
BRANCH  31  32
ATOM     32  O   UNL A   1      34.316  34.983  30.880  1.00  0.00    -0.376 OA
BRANCH  32  33
ATOM     33  C   UNL A   1      34.133  34.197  32.041  1.00  0.00     0.202 C 
BRANCH  33  34
ATOM     34  C   UNL A   1      34.774  32.812  32.155  1.00  0.00     0.261 C 
BRANCH  34  35
ATOM     35  O   UNL A   1      35.943  32.744  32.958  1.00  0.00    -0.460 OA
BRANCH  35  36
ATOM     36  C   UNL A   1      36.981  33.500  32.543  1.00  0.00     0.338 C 
ATOM     37  O   UNL A   1      37.232  34.662  32.805  1.00  0.00    -0.246 OA
BRANCH  36  38
ATOM     38  C   UNL A   1      37.872  32.582  31.823  1.00  0.00     0.060 A 
ATOM     39  C   UNL A   1      38.728  31.761  32.568  1.00  0.00     0.016 A 
ATOM     40  C   UNL A   1      37.781  32.469  30.431  1.00  0.00     0.016 A 
ATOM     41  C   UNL A   1      39.484  30.797  31.922  1.00  0.00     0.010 A 
ATOM     42  C   UNL A   1      38.599  31.560  29.774  1.00  0.00     0.010 A 
ATOM     43  C   UNL A   1      39.471  30.754  30.522  1.00  0.00    -0.014 A 
BRANCH  43  44
ATOM     44  C   UNL A   1      40.636  30.159  29.854  1.00  0.00     0.031 A 
ATOM     45  C   UNL A   1      41.812  31.071  29.644  1.00  0.00     0.074 A 
ATOM     46  C   UNL A   1      40.641  28.875  29.472  1.00  0.00     0.049 A 
ATOM     47  N   UNL A   1      42.974  30.821  29.109  1.00  0.00    -0.248 NA
ATOM     48  C   UNL A   1      41.654  32.460  30.120  1.00  0.00     0.031 C 
ATOM     49  C   UNL A   1      39.556  27.919  29.688  1.00  0.00     0.029 A 
ATOM     50  N   UNL A   1      41.604  28.159  28.818  1.00  0.00    -0.354 N 
ATOM     51  C   UNL A   1      43.685  32.011  29.202  1.00  0.00     0.074 A 
ATOM     52  C   UNL A   1      42.825  32.989  29.819  1.00  0.00     0.031 C 
ATOM     53  C   UNL A   1      39.916  26.733  29.163  1.00  0.00     0.029 A 
ATOM     54  C   UNL A   1      41.238  26.864  28.556  1.00  0.00     0.049 A 
ATOM     55  H   UNL A   1      42.476  28.537  28.560  1.00  0.00     0.167 HD
ATOM     56  C   UNL A   1      44.949  32.263  28.799  1.00  0.00     0.037 A 
ATOM     57  C   UNL A   1      41.911  25.913  27.883  1.00  0.00     0.037 A 
ATOM     58  C   UNL A   1      45.759  31.291  28.125  1.00  0.00     0.049 A 
ATOM     59  C   UNL A   1      43.265  26.263  27.321  1.00  0.00     0.074 A 
ATOM     60  C   UNL A   1      47.049  31.417  27.650  1.00  0.00     0.029 A 
ATOM     61  N   UNL A   1      45.326  30.012  27.801  1.00  0.00    -0.354 N 
ATOM     62  N   UNL A   1      43.955  27.373  27.449  1.00  0.00    -0.248 NA
ATOM     63  C   UNL A   1      43.927  25.232  26.514  1.00  0.00     0.031 C 
ATOM     64  C   UNL A   1      47.376  30.229  26.986  1.00  0.00     0.029 A 
ATOM     65  C   UNL A   1      46.309  29.347  27.093  1.00  0.00     0.049 A 
ATOM     66  H   UNL A   1      44.449  29.635  28.041  1.00  0.00     0.167 HD
ATOM     67  C   UNL A   1      45.143  27.167  26.760  1.00  0.00     0.074 A 
ATOM     68  C   UNL A   1      45.081  25.818  26.228  1.00  0.00     0.031 C 
ATOM     69  C   UNL A   1      46.195  28.005  26.580  1.00  0.00     0.037 A 
BRANCH  56  70
ATOM     70  C   UNL A   1      45.465  33.653  29.025  1.00  0.00     0.057 A 
ATOM     71  C   UNL A   1      45.153  34.681  28.128  1.00  0.00     0.134 A 
ATOM     72  C   UNL A   1      46.211  33.993  30.163  1.00  0.00     0.134 A 
ATOM     73  F   UNL A   1      44.427  34.428  27.029  1.00  0.00    -0.206 F 
ATOM     74  C   UNL A   1      45.559  35.996  28.355  1.00  0.00     0.040 A 
ATOM     75  C   UNL A   1      46.601  35.310  30.414  1.00  0.00     0.040 A 
ATOM     76  F   UNL A   1      46.513  33.061  31.080  1.00  0.00    -0.206 F 
ATOM     77  C   UNL A   1      46.277  36.316  29.507  1.00  0.00     0.006 A 
ENDBRANCH  56  70
BRANCH  57  78
ATOM     78  C   UNL A   1      41.328  24.563  27.697  1.00  0.00     0.057 A 
ATOM     79  C   UNL A   1      40.335  24.313  26.741  1.00  0.00     0.134 A 
ATOM     80  C   UNL A   1      41.770  23.477  28.462  1.00  0.00     0.134 A 
ATOM     81  F   UNL A   1      39.867  25.310  25.975  1.00  0.00    -0.206 F 
ATOM     82  C   UNL A   1      39.801  23.037  26.556  1.00  0.00     0.040 A 
ATOM     83  C   UNL A   1      41.260  22.191  28.273  1.00  0.00     0.040 A 
ATOM     84  F   UNL A   1      42.733  23.646  29.380  1.00  0.00    -0.206 F 
ATOM     85  C   UNL A   1      40.268  21.969  27.319  1.00  0.00     0.006 A 
ENDBRANCH  57  78
BRANCH  69  86
ATOM     86  C   UNL A   1      47.356  27.471  25.798  1.00  0.00     0.057 A 
ATOM     87  C   UNL A   1      47.406  27.627  24.407  1.00  0.00     0.134 A 
ATOM     88  C   UNL A   1      48.402  26.772  26.414  1.00  0.00     0.134 A 
ATOM     89  F   UNL A   1      46.428  28.276  23.758  1.00  0.00    -0.206 F 
ATOM     90  C   UNL A   1      48.455  27.101  23.655  1.00  0.00     0.040 A 
ATOM     91  C   UNL A   1      49.471  26.268  25.675  1.00  0.00     0.040 A 
ATOM     92  F   UNL A   1      48.415  26.603  27.745  1.00  0.00    -0.206 F 
ATOM     93  C   UNL A   1      49.496  26.427  24.290  1.00  0.00     0.006 A 
ENDBRANCH  69  86
ENDBRANCH  43  44
ENDBRANCH  36  38
ENDBRANCH  35  36
ENDBRANCH  34  35
ENDBRANCH  33  34
ENDBRANCH  32  33
ENDBRANCH  31  32
ENDBRANCH  30  31
ENDBRANCH  29  30
ENDBRANCH   1  29
TORSDOF 25
ENDMDL
