MODEL 1
REMARK VINA RESULT:     -11.8      0.000      0.000
REMARK SMILES Cc1ccc(S(=O)(=O)N2CCN(C(=O)[C@H]3CCCC[C@H]3C(=O)OCCOCCOCCOCCOC(=O)c3ccc(-c4c5nc(c(-c6c(F)cccc6F)c6ccc([nH]6)c(-c6c(F)cccc6F)c6nc(c(-c7c(F)cccc7F)c7ccc4[nH]7)C=C6)C=C5)cc3)CC2)cc1C
REMARK SMILES IDX 28 1 27 2 26 3 25 4 24 5 23 6 21 7 22 8 20 9 15 10 16 11
REMARK SMILES IDX 17 12 19 13 18 14 13 15 9 16 10 17 93 18 11 19 92 20 12 21
REMARK SMILES IDX 14 22 6 23 7 24 8 25 5 26 1 27 2 28 3 29 95 30 4 31 94 32
REMARK SMILES IDX 96 33 29 34 30 35 31 36 32 37 33 38 34 39 35 40 36 41 37 42
REMARK SMILES IDX 38 43 39 44 91 45 40 46 90 47 41 48 42 49 43 50 84 51 44 52
REMARK SMILES IDX 89 53 83 54 85 55 45 56 88 57 82 58 81 59 46 61 72 62 55 63
REMARK SMILES IDX 71 64 56 65 59 66 70 67 86 68 57 69 58 70 69 72 87 73 60 74
REMARK SMILES IDX 47 75 48 76 53 77 49 78 50 79 52 80 54 81 51 82 73 83 74 84
REMARK SMILES IDX 79 85 75 86 76 87 78 88 80 89 77 90 61 91 62 92 67 93 63 94
REMARK SMILES IDX 64 95 66 96 68 97 65 98
REMARK H PARENT 85 60 59 71
REMARK Flexibility Score: inf
ROOT
ATOM      1  C   UNL A   1      32.956  36.201  29.199  1.00  0.00     0.188 C 
ENDROOT
BRANCH   1   2
ATOM      2  C   UNL A   1      34.050  35.126  29.269  1.00  0.00     0.188 C 
BRANCH   2   3
ATOM      3  O   UNL A   1      33.641  33.789  29.434  1.00  0.00    -0.376 OA
BRANCH   3   4
ATOM      4  C   UNL A   1      34.541  32.702  29.299  1.00  0.00     0.202 C 
BRANCH   4   5
ATOM      5  C   UNL A   1      34.728  31.821  28.051  1.00  0.00     0.261 C 
BRANCH   5   6
ATOM      6  O   UNL A   1      33.636  30.996  27.633  1.00  0.00    -0.463 OA
BRANCH   6   7
ATOM      7  C   UNL A   1      33.993  29.969  26.832  1.00  0.00     0.309 C 
ATOM      8  O   UNL A   1      34.964  29.244  27.052  1.00  0.00    -0.252 OA
BRANCH   7   9
ATOM      9  C   UNL A   1      33.098  29.708  25.633  1.00  0.00     0.111 C 
ATOM     10  C   UNL A   1      32.997  28.310  24.964  1.00  0.00     0.093 C 
ATOM     11  C   UNL A   1      32.013  28.401  23.773  1.00  0.00     0.014 C 
ATOM     12  C   UNL A   1      30.662  29.010  24.135  1.00  0.00     0.001 C 
ATOM     13  C   UNL A   1      31.728  30.316  25.979  1.00  0.00     0.016 C 
ATOM     14  C   UNL A   1      30.818  30.381  24.767  1.00  0.00     0.001 C 
BRANCH  10  15
ATOM     15  C   UNL A   1      32.646  27.152  25.910  1.00  0.00     0.226 C 
ATOM     16  N   UNL A   1      32.084  23.290  24.615  1.00  0.00    -0.194 NA
ATOM     17  C   UNL A   1      31.751  23.736  25.988  1.00  0.00     0.124 C 
ATOM     18  C   UNL A   1      32.355  24.368  23.637  1.00  0.00     0.124 C 
ATOM     19  C   UNL A   1      32.782  24.758  26.489  1.00  0.00     0.136 C 
ATOM     20  C   UNL A   1      33.385  25.375  24.201  1.00  0.00     0.136 C 
ATOM     21  N   UNL A   1      32.963  25.852  25.527  1.00  0.00    -0.340 N 
ATOM     22  O   UNL A   1      32.086  27.377  26.984  1.00  0.00    -0.275 OA
BRANCH  16  23
ATOM     23  S   UNL A   1      32.144  21.665  24.210  1.00  0.00     0.243 S 
ATOM     24  O   UNL A   1      31.843  21.541  22.792  1.00  0.00    -0.207 OA
ATOM     25  O   UNL A   1      31.410  20.928  25.204  1.00  0.00    -0.207 OA
BRANCH  23  26
ATOM     26  C   UNL A   1      33.867  21.231  24.384  1.00  0.00     0.082 A 
ATOM     27  C   UNL A   1      38.005  20.138  24.932  1.00  0.00     0.044 C 
ATOM     28  C   UNL A   1      36.572  20.570  24.767  1.00  0.00    -0.048 A 
ATOM     29  C   UNL A   1      35.561  19.613  24.956  1.00  0.00     0.005 A 
ATOM     30  C   UNL A   1      36.214  21.890  24.421  1.00  0.00    -0.047 A 
ATOM     31  C   UNL A   1      34.218  19.943  24.779  1.00  0.00     0.022 A 
ATOM     32  C   UNL A   1      34.856  22.206  24.218  1.00  0.00     0.025 A 
ATOM     33  C   UNL A   1      37.221  23.005  24.309  1.00  0.00     0.044 C 
ENDBRANCH  23  26
ENDBRANCH  16  23
ENDBRANCH  10  15
ENDBRANCH   7   9
ENDBRANCH   6   7
ENDBRANCH   5   6
ENDBRANCH   4   5
ENDBRANCH   3   4
ENDBRANCH   2   3
ENDBRANCH   1   2
BRANCH   1  34
ATOM     34  O   UNL A   1      32.541  36.819  30.402  1.00  0.00    -0.377 OA
BRANCH  34  35
ATOM     35  C   UNL A   1      32.800  36.193  31.656  1.00  0.00     0.188 C 
BRANCH  35  36
ATOM     36  C   UNL A   1      33.476  36.960  32.812  1.00  0.00     0.188 C 
BRANCH  36  37
ATOM     37  O   UNL A   1      34.781  36.502  33.128  1.00  0.00    -0.376 OA
BRANCH  37  38
ATOM     38  C   UNL A   1      35.173  35.218  32.664  1.00  0.00     0.202 C 
BRANCH  38  39
ATOM     39  C   UNL A   1      35.415  34.166  33.752  1.00  0.00     0.261 C 
BRANCH  39  40
ATOM     40  O   UNL A   1      35.852  32.889  33.260  1.00  0.00    -0.460 OA
BRANCH  40  41
ATOM     41  C   UNL A   1      36.841  32.263  33.933  1.00  0.00     0.338 C 
ATOM     42  O   UNL A   1      37.034  32.289  35.135  1.00  0.00    -0.246 OA
BRANCH  41  43
ATOM     43  C   UNL A   1      37.620  31.426  32.991  1.00  0.00     0.060 A 
ATOM     44  C   UNL A   1      38.696  30.685  33.492  1.00  0.00     0.016 A 
ATOM     45  C   UNL A   1      37.346  31.425  31.621  1.00  0.00     0.016 A 
ATOM     46  C   UNL A   1      39.575  30.062  32.609  1.00  0.00     0.010 A 
ATOM     47  C   UNL A   1      38.248  30.849  30.735  1.00  0.00     0.010 A 
ATOM     48  C   UNL A   1      39.395  30.216  31.229  1.00  0.00    -0.014 A 
BRANCH  48  49
ATOM     49  C   UNL A   1      40.477  29.841  30.299  1.00  0.00     0.031 A 
ATOM     50  C   UNL A   1      41.496  30.875  29.910  1.00  0.00     0.074 A 
ATOM     51  C   UNL A   1      40.499  28.613  29.761  1.00  0.00     0.049 A 
ATOM     52  N   UNL A   1      42.574  30.748  29.181  1.00  0.00    -0.248 NA
ATOM     53  C   UNL A   1      41.247  32.246  30.378  1.00  0.00     0.031 C 
ATOM     54  C   UNL A   1      39.504  27.569  30.002  1.00  0.00     0.029 A 
ATOM     55  N   UNL A   1      41.391  28.044  28.896  1.00  0.00    -0.354 N 
ATOM     56  C   UNL A   1      43.133  32.019  29.107  1.00  0.00     0.074 A 
ATOM     57  C   UNL A   1      42.250  32.912  29.823  1.00  0.00     0.031 C 
ATOM     58  C   UNL A   1      39.843  26.478  29.295  1.00  0.00     0.029 A 
ATOM     59  C   UNL A   1      41.090  26.744  28.582  1.00  0.00     0.049 A 
ATOM     60  H   UNL A   1      42.173  28.520  28.533  1.00  0.00     0.167 HD
ATOM     61  C   UNL A   1      44.288  32.394  28.507  1.00  0.00     0.037 A 
ATOM     62  C   UNL A   1      41.774  25.859  27.837  1.00  0.00     0.037 A 
ATOM     63  C   UNL A   1      45.155  31.476  27.813  1.00  0.00     0.049 A 
ATOM     64  C   UNL A   1      43.111  26.261  27.284  1.00  0.00     0.074 A 
ATOM     65  C   UNL A   1      46.397  31.712  27.251  1.00  0.00     0.029 A 
ATOM     66  N   UNL A   1      44.859  30.140  27.584  1.00  0.00    -0.354 N 
ATOM     67  N   UNL A   1      43.707  27.428  27.327  1.00  0.00    -0.248 NA
ATOM     68  C   UNL A   1      43.894  25.207  26.626  1.00  0.00     0.031 C 
ATOM     69  C   UNL A   1      46.838  30.525  26.654  1.00  0.00     0.029 A 
ATOM     70  C   UNL A   1      45.893  29.538  26.887  1.00  0.00     0.049 A 
ATOM     71  H   UNL A   1      44.035  29.686  27.873  1.00  0.00     0.167 HD
ATOM     72  C   UNL A   1      44.948  27.245  26.732  1.00  0.00     0.074 A 
ATOM     73  C   UNL A   1      45.022  25.847  26.353  1.00  0.00     0.031 C 
ATOM     74  C   UNL A   1      45.940  28.145  26.519  1.00  0.00     0.037 A 
BRANCH  61  75
ATOM     75  C   UNL A   1      44.692  33.840  28.589  1.00  0.00     0.057 A 
ATOM     76  C   UNL A   1      45.353  34.364  29.709  1.00  0.00     0.134 A 
ATOM     77  C   UNL A   1      44.477  34.708  27.509  1.00  0.00     0.134 A 
ATOM     78  F   UNL A   1      45.584  33.595  30.783  1.00  0.00    -0.206 F 
ATOM     79  C   UNL A   1      45.765  35.698  29.761  1.00  0.00     0.040 A 
ATOM     80  C   UNL A   1      44.912  36.036  27.537  1.00  0.00     0.040 A 
ATOM     81  F   UNL A   1      43.857  34.277  26.401  1.00  0.00    -0.206 F 
ATOM     82  C   UNL A   1      45.554  36.536  28.669  1.00  0.00     0.006 A 
ENDBRANCH  61  75
BRANCH  62  83
ATOM     83  C   UNL A   1      41.253  24.480  27.690  1.00  0.00     0.057 A 
ATOM     84  C   UNL A   1      40.234  24.192  26.776  1.00  0.00     0.134 A 
ATOM     85  C   UNL A   1      41.795  23.414  28.416  1.00  0.00     0.134 A 
ATOM     86  F   UNL A   1      39.676  25.177  26.055  1.00  0.00    -0.206 F 
ATOM     87  C   UNL A   1      39.757  22.894  26.599  1.00  0.00     0.040 A 
ATOM     88  C   UNL A   1      41.342  22.106  28.233  1.00  0.00     0.040 A 
ATOM     89  F   UNL A   1      42.790  23.625  29.288  1.00  0.00    -0.206 F 
ATOM     90  C   UNL A   1      40.316  21.845  27.326  1.00  0.00     0.006 A 
ENDBRANCH  62  83
BRANCH  74  91
ATOM     91  C   UNL A   1      47.194  27.632  25.876  1.00  0.00     0.057 A 
ATOM     92  C   UNL A   1      48.254  27.110  26.631  1.00  0.00     0.134 A 
ATOM     93  C   UNL A   1      47.342  27.657  24.483  1.00  0.00     0.134 A 
ATOM     94  F   UNL A   1      48.179  27.068  27.969  1.00  0.00    -0.206 F 
ATOM     95  C   UNL A   1      49.431  26.670  26.025  1.00  0.00     0.040 A 
ATOM     96  C   UNL A   1      48.502  27.192  23.864  1.00  0.00     0.040 A 
ATOM     97  F   UNL A   1      46.359  28.132  23.702  1.00  0.00    -0.206 F 
ATOM     98  C   UNL A   1      49.556  26.708  24.637  1.00  0.00     0.006 A 
ENDBRANCH  74  91
ENDBRANCH  48  49
ENDBRANCH  41  43
ENDBRANCH  40  41
ENDBRANCH  39  40
ENDBRANCH  38  39
ENDBRANCH  37  38
ENDBRANCH  36  37
ENDBRANCH  35  36
ENDBRANCH  34  35
ENDBRANCH   1  34
TORSDOF 23
ENDMDL
MODEL 2
REMARK VINA RESULT:     -10.2      2.440      6.503
REMARK SMILES Cc1ccc(S(=O)(=O)N2CCN(C(=O)[C@H]3CCCC[C@H]3C(=O)OCCOCCOCCOCCOC(=O)c3ccc(-c4c5nc(c(-c6c(F)cccc6F)c6ccc([nH]6)c(-c6c(F)cccc6F)c6nc(c(-c7c(F)cccc7F)c7ccc4[nH]7)C=C6)C=C5)cc3)CC2)cc1C
REMARK SMILES IDX 28 1 27 2 26 3 25 4 24 5 23 6 21 7 22 8 20 9 15 10 16 11
REMARK SMILES IDX 17 12 19 13 18 14 13 15 9 16 10 17 93 18 11 19 92 20 12 21
REMARK SMILES IDX 14 22 6 23 7 24 8 25 5 26 1 27 2 28 3 29 95 30 4 31 94 32
REMARK SMILES IDX 96 33 29 34 30 35 31 36 32 37 33 38 34 39 35 40 36 41 37 42
REMARK SMILES IDX 38 43 39 44 91 45 40 46 90 47 41 48 42 49 43 50 84 51 44 52
REMARK SMILES IDX 89 53 83 54 85 55 45 56 88 57 82 58 81 59 46 61 72 62 55 63
REMARK SMILES IDX 71 64 56 65 59 66 70 67 86 68 57 69 58 70 69 72 87 73 60 74
REMARK SMILES IDX 47 75 48 76 53 77 49 78 50 79 52 80 54 81 51 82 73 83 74 84
REMARK SMILES IDX 79 85 75 86 76 87 78 88 80 89 77 90 61 91 62 92 67 93 63 94
REMARK SMILES IDX 64 95 66 96 68 97 65 98
REMARK H PARENT 85 60 59 71
REMARK Flexibility Score: inf
ROOT
ATOM      1  C   UNL A   1      33.024  33.912  28.506  1.00  0.00     0.188 C 
ENDROOT
BRANCH   1   2
ATOM      2  C   UNL A   1      34.151  33.315  27.650  1.00  0.00     0.188 C 
BRANCH   2   3
ATOM      3  O   UNL A   1      34.828  32.189  28.158  1.00  0.00    -0.376 OA
BRANCH   3   4
ATOM      4  C   UNL A   1      34.588  30.881  27.668  1.00  0.00     0.202 C 
BRANCH   4   5
ATOM      5  C   UNL A   1      33.219  30.279  27.302  1.00  0.00     0.261 C 
BRANCH   5   6
ATOM      6  O   UNL A   1      32.717  30.490  25.979  1.00  0.00    -0.463 OA
BRANCH   6   7
ATOM      7  C   UNL A   1      33.004  29.496  25.112  1.00  0.00     0.309 C 
ATOM      8  O   UNL A   1      34.047  28.842  25.154  1.00  0.00    -0.252 OA
BRANCH   7   9
ATOM      9  C   UNL A   1      31.942  29.177  24.075  1.00  0.00     0.111 C 
ATOM     10  C   UNL A   1      31.614  27.721  23.646  1.00  0.00     0.093 C 
ATOM     11  C   UNL A   1      30.500  27.760  22.572  1.00  0.00     0.014 C 
ATOM     12  C   UNL A   1      29.276  28.572  22.984  1.00  0.00     0.001 C 
ATOM     13  C   UNL A   1      30.696  29.988  24.474  1.00  0.00     0.016 C 
ATOM     14  C   UNL A   1      29.650  29.989  23.375  1.00  0.00     0.001 C 
BRANCH  10  15
ATOM     15  C   UNL A   1      31.270  26.759  24.793  1.00  0.00     0.226 C 
ATOM     16  N   UNL A   1      33.383  23.311  25.540  1.00  0.00    -0.194 NA
ATOM     17  C   UNL A   1      32.096  23.627  26.202  1.00  0.00     0.124 C 
ATOM     18  C   UNL A   1      33.732  24.157  24.375  1.00  0.00     0.124 C 
ATOM     19  C   UNL A   1      31.996  25.130  26.498  1.00  0.00     0.136 C 
ATOM     20  C   UNL A   1      33.596  25.658  24.726  1.00  0.00     0.136 C 
ATOM     21  N   UNL A   1      32.269  25.932  25.299  1.00  0.00    -0.340 N 
ATOM     22  O   UNL A   1      30.125  26.720  25.246  1.00  0.00    -0.275 OA
BRANCH  16  23
ATOM     23  S   UNL A   1      34.371  22.072  26.085  1.00  0.00     0.243 S 
ATOM     24  O   UNL A   1      33.949  21.717  27.432  1.00  0.00    -0.207 OA
ATOM     25  O   UNL A   1      35.734  22.423  25.790  1.00  0.00    -0.207 OA
BRANCH  23  26
ATOM     26  C   UNL A   1      33.941  20.680  25.054  1.00  0.00     0.082 A 
ATOM     27  C   UNL A   1      32.775  17.316  22.616  1.00  0.00     0.044 C 
ATOM     28  C   UNL A   1      33.194  18.453  23.510  1.00  0.00    -0.048 A 
ATOM     29  C   UNL A   1      32.455  19.646  23.461  1.00  0.00     0.005 A 
ATOM     30  C   UNL A   1      34.300  18.364  24.381  1.00  0.00    -0.047 A 
ATOM     31  C   UNL A   1      32.817  20.748  24.236  1.00  0.00     0.022 A 
ATOM     32  C   UNL A   1      34.674  19.491  25.139  1.00  0.00     0.025 A 
ATOM     33  C   UNL A   1      35.079  17.091  24.582  1.00  0.00     0.044 C 
ENDBRANCH  23  26
ENDBRANCH  16  23
ENDBRANCH  10  15
ENDBRANCH   7   9
ENDBRANCH   6   7
ENDBRANCH   5   6
ENDBRANCH   4   5
ENDBRANCH   3   4
ENDBRANCH   2   3
ENDBRANCH   1   2
BRANCH   1  34
ATOM     34  O   UNL A   1      32.786  35.305  28.428  1.00  0.00    -0.377 OA
BRANCH  34  35
ATOM     35  C   UNL A   1      33.526  36.205  29.248  1.00  0.00     0.188 C 
BRANCH  35  36
ATOM     36  C   UNL A   1      32.891  36.869  30.488  1.00  0.00     0.188 C 
BRANCH  36  37
ATOM     37  O   UNL A   1      32.610  35.969  31.549  1.00  0.00    -0.376 OA
BRANCH  37  38
ATOM     38  C   UNL A   1      33.185  36.230  32.821  1.00  0.00     0.202 C 
BRANCH  38  39
ATOM     39  C   UNL A   1      34.645  35.795  32.991  1.00  0.00     0.261 C 
BRANCH  39  40
ATOM     40  O   UNL A   1      34.821  34.575  33.729  1.00  0.00    -0.460 OA
BRANCH  40  41
ATOM     41  C   UNL A   1      34.547  33.414  33.095  1.00  0.00     0.338 C 
ATOM     42  O   UNL A   1      33.450  32.908  32.942  1.00  0.00    -0.246 OA
BRANCH  41  43
ATOM     43  C   UNL A   1      35.792  32.878  32.497  1.00  0.00     0.060 A 
ATOM     44  C   UNL A   1      36.643  32.114  33.301  1.00  0.00     0.016 A 
ATOM     45  C   UNL A   1      36.157  33.184  31.183  1.00  0.00     0.016 A 
ATOM     46  C   UNL A   1      37.914  31.777  32.838  1.00  0.00     0.010 A 
ATOM     47  C   UNL A   1      37.442  32.896  30.737  1.00  0.00     0.010 A 
ATOM     48  C   UNL A   1      38.340  32.242  31.588  1.00  0.00    -0.014 A 
BRANCH  48  49
ATOM     49  C   UNL A   1      39.768  32.172  31.225  1.00  0.00     0.031 A 
ATOM     50  C   UNL A   1      40.248  31.034  30.369  1.00  0.00     0.074 A 
ATOM     51  C   UNL A   1      40.627  33.076  31.716  1.00  0.00     0.049 A 
ATOM     52  N   UNL A   1      41.432  30.817  29.859  1.00  0.00    -0.248 NA
ATOM     53  C   UNL A   1      39.268  29.977  30.075  1.00  0.00     0.031 C 
ATOM     54  C   UNL A   1      40.276  34.163  32.629  1.00  0.00     0.029 A 
ATOM     55  N   UNL A   1      41.972  33.216  31.517  1.00  0.00    -0.354 N 
ATOM     56  C   UNL A   1      41.338  29.605  29.184  1.00  0.00     0.074 A 
ATOM     57  C   UNL A   1      39.996  29.110  29.388  1.00  0.00     0.031 C 
ATOM     58  C   UNL A   1      41.387  34.863  32.914  1.00  0.00     0.029 A 
ATOM     59  C   UNL A   1      42.510  34.288  32.180  1.00  0.00     0.049 A 
ATOM     60  H   UNL A   1      42.502  32.607  30.954  1.00  0.00     0.167 HD
ATOM     61  C   UNL A   1      42.288  28.980  28.447  1.00  0.00     0.037 A 
ATOM     62  C   UNL A   1      43.764  34.772  32.155  1.00  0.00     0.037 A 
ATOM     63  C   UNL A   1      43.613  29.508  28.249  1.00  0.00     0.049 A 
ATOM     64  C   UNL A   1      44.767  34.134  31.237  1.00  0.00     0.074 A 
ATOM     65  C   UNL A   1      44.631  29.022  27.447  1.00  0.00     0.029 A 
ATOM     66  N   UNL A   1      44.104  30.648  28.871  1.00  0.00    -0.354 N 
ATOM     67  N   UNL A   1      44.641  33.064  30.490  1.00  0.00    -0.248 NA
ATOM     68  C   UNL A   1      46.068  34.805  31.117  1.00  0.00     0.031 C 
ATOM     69  C   UNL A   1      45.748  29.851  27.609  1.00  0.00     0.029 A 
ATOM     70  C   UNL A   1      45.409  30.881  28.474  1.00  0.00     0.049 A 
ATOM     71  H   UNL A   1      43.598  31.209  29.503  1.00  0.00     0.167 HD
ATOM     72  C   UNL A   1      45.833  32.947  29.786  1.00  0.00     0.074 A 
ATOM     73  C   UNL A   1      46.659  34.070  30.186  1.00  0.00     0.031 C 
ATOM     74  C   UNL A   1      46.211  32.004  28.889  1.00  0.00     0.037 A 
BRANCH  61  75
ATOM     75  C   UNL A   1      41.929  27.677  27.788  1.00  0.00     0.057 A 
ATOM     76  C   UNL A   1      41.992  26.456  28.475  1.00  0.00     0.134 A 
ATOM     77  C   UNL A   1      41.452  27.645  26.470  1.00  0.00     0.134 A 
ATOM     78  F   UNL A   1      42.446  26.408  29.735  1.00  0.00    -0.206 F 
ATOM     79  C   UNL A   1      41.615  25.254  27.871  1.00  0.00     0.040 A 
ATOM     80  C   UNL A   1      41.043  26.453  25.866  1.00  0.00     0.040 A 
ATOM     81  F   UNL A   1      41.358  28.774  25.752  1.00  0.00    -0.206 F 
ATOM     82  C   UNL A   1      41.130  25.252  26.566  1.00  0.00     0.006 A 
ENDBRANCH  61  75
BRANCH  62  83
ATOM     83  C   UNL A   1      44.085  35.991  32.933  1.00  0.00     0.057 A 
ATOM     84  C   UNL A   1      43.939  37.262  32.365  1.00  0.00     0.134 A 
ATOM     85  C   UNL A   1      44.490  35.920  34.270  1.00  0.00     0.134 A 
ATOM     86  F   UNL A   1      43.555  37.389  31.086  1.00  0.00    -0.206 F 
ATOM     87  C   UNL A   1      44.201  38.422  33.094  1.00  0.00     0.040 A 
ATOM     88  C   UNL A   1      44.735  37.073  35.018  1.00  0.00     0.040 A 
ATOM     89  F   UNL A   1      44.623  34.731  34.875  1.00  0.00    -0.206 F 
ATOM     90  C   UNL A   1      44.596  38.328  34.427  1.00  0.00     0.006 A 
ENDBRANCH  62  83
BRANCH  74  91
ATOM     91  C   UNL A   1      47.564  32.169  28.262  1.00  0.00     0.057 A 
ATOM     92  C   UNL A   1      47.758  32.946  27.112  1.00  0.00     0.134 A 
ATOM     93  C   UNL A   1      48.688  31.546  28.820  1.00  0.00     0.134 A 
ATOM     94  F   UNL A   1      46.720  33.560  26.524  1.00  0.00    -0.206 F 
ATOM     95  C   UNL A   1      49.013  33.062  26.516  1.00  0.00     0.040 A 
ATOM     96  C   UNL A   1      49.954  31.679  28.250  1.00  0.00     0.040 A 
ATOM     97  F   UNL A   1      48.574  30.799  29.929  1.00  0.00    -0.206 F 
ATOM     98  C   UNL A   1      50.117  32.430  27.087  1.00  0.00     0.006 A 
ENDBRANCH  74  91
ENDBRANCH  48  49
ENDBRANCH  41  43
ENDBRANCH  40  41
ENDBRANCH  39  40
ENDBRANCH  38  39
ENDBRANCH  37  38
ENDBRANCH  36  37
ENDBRANCH  35  36
ENDBRANCH  34  35
ENDBRANCH   1  34
TORSDOF 23
ENDMDL
MODEL 3
REMARK VINA RESULT:      -9.9      3.632     10.120
REMARK SMILES Cc1ccc(S(=O)(=O)N2CCN(C(=O)[C@H]3CCCC[C@H]3C(=O)OCCOCCOCCOCCOC(=O)c3ccc(-c4c5nc(c(-c6c(F)cccc6F)c6ccc([nH]6)c(-c6c(F)cccc6F)c6nc(c(-c7c(F)cccc7F)c7ccc4[nH]7)C=C6)C=C5)cc3)CC2)cc1C
REMARK SMILES IDX 28 1 27 2 26 3 25 4 24 5 23 6 21 7 22 8 20 9 15 10 16 11
REMARK SMILES IDX 17 12 19 13 18 14 13 15 9 16 10 17 93 18 11 19 92 20 12 21
REMARK SMILES IDX 14 22 6 23 7 24 8 25 5 26 1 27 2 28 3 29 95 30 4 31 94 32
REMARK SMILES IDX 96 33 29 34 30 35 31 36 32 37 33 38 34 39 35 40 36 41 37 42
REMARK SMILES IDX 38 43 39 44 91 45 40 46 90 47 41 48 42 49 43 50 84 51 44 52
REMARK SMILES IDX 89 53 83 54 85 55 45 56 88 57 82 58 81 59 46 61 72 62 55 63
REMARK SMILES IDX 71 64 56 65 59 66 70 67 86 68 57 69 58 70 69 72 87 73 60 74
REMARK SMILES IDX 47 75 48 76 53 77 49 78 50 79 52 80 54 81 51 82 73 83 74 84
REMARK SMILES IDX 79 85 75 86 76 87 78 88 80 89 77 90 61 91 62 92 67 93 63 94
REMARK SMILES IDX 64 95 66 96 68 97 65 98
REMARK H PARENT 85 60 59 71
REMARK Flexibility Score: inf
ROOT
ATOM      1  C   UNL A   1      34.213  20.985  26.022  1.00  0.00     0.188 C 
ENDROOT
BRANCH   1   2
ATOM      2  C   UNL A   1      33.108  21.618  25.163  1.00  0.00     0.188 C 
BRANCH   2   3
ATOM      3  O   UNL A   1      31.773  21.308  25.487  1.00  0.00    -0.376 OA
BRANCH   3   4
ATOM      4  C   UNL A   1      30.815  22.312  25.778  1.00  0.00     0.202 C 
BRANCH   4   5
ATOM      5  C   UNL A   1      31.112  23.769  26.177  1.00  0.00     0.261 C 
BRANCH   5   6
ATOM      6  O   UNL A   1      30.507  24.818  25.415  1.00  0.00    -0.463 OA
BRANCH   6   7
ATOM      7  C   UNL A   1      30.773  26.060  25.873  1.00  0.00     0.309 C 
ATOM      8  O   UNL A   1      31.071  26.300  27.044  1.00  0.00    -0.252 OA
BRANCH   7   9
ATOM      9  C   UNL A   1      30.728  27.181  24.850  1.00  0.00     0.111 C 
ATOM     10  C   UNL A   1      31.460  28.532  25.069  1.00  0.00     0.093 C 
ATOM     11  C   UNL A   1      31.196  29.442  23.845  1.00  0.00     0.014 C 
ATOM     12  C   UNL A   1      31.511  28.781  22.507  1.00  0.00     0.001 C 
ATOM     13  C   UNL A   1      31.043  26.533  23.490  1.00  0.00     0.016 C 
ATOM     14  C   UNL A   1      30.756  27.475  22.337  1.00  0.00     0.001 C 
BRANCH  10  15
ATOM     15  C   UNL A   1      32.958  28.424  25.390  1.00  0.00     0.226 C 
ATOM     16  N   UNL A   1      34.913  31.045  27.883  1.00  0.00    -0.194 NA
ATOM     17  C   UNL A   1      35.622  30.052  27.042  1.00  0.00     0.124 C 
ATOM     18  C   UNL A   1      33.481  31.250  27.567  1.00  0.00     0.124 C 
ATOM     19  C   UNL A   1      34.827  28.741  26.968  1.00  0.00     0.136 C 
ATOM     20  C   UNL A   1      32.736  29.897  27.489  1.00  0.00     0.136 C 
ATOM     21  N   UNL A   1      33.434  28.980  26.574  1.00  0.00    -0.340 N 
ATOM     22  O   UNL A   1      33.721  27.860  24.603  1.00  0.00    -0.275 OA
BRANCH  16  23
ATOM     23  S   UNL A   1      35.697  31.875  29.110  1.00  0.00     0.243 S 
ATOM     24  O   UNL A   1      34.685  32.476  29.967  1.00  0.00    -0.207 OA
ATOM     25  O   UNL A   1      36.748  32.659  28.520  1.00  0.00    -0.207 OA
BRANCH  23  26
ATOM     26  C   UNL A   1      36.466  30.594  30.087  1.00  0.00     0.082 A 
ATOM     27  C   UNL A   1      38.389  27.595  32.521  1.00  0.00     0.044 C 
ATOM     28  C   UNL A   1      37.766  28.645  31.639  1.00  0.00    -0.048 A 
ATOM     29  C   UNL A   1      36.982  29.641  32.242  1.00  0.00     0.005 A 
ATOM     30  C   UNL A   1      37.935  28.653  30.239  1.00  0.00    -0.047 A 
ATOM     31  C   UNL A   1      36.347  30.617  31.474  1.00  0.00     0.022 A 
ATOM     32  C   UNL A   1      37.267  29.627  29.469  1.00  0.00     0.025 A 
ATOM     33  C   UNL A   1      38.847  27.694  29.521  1.00  0.00     0.044 C 
ENDBRANCH  23  26
ENDBRANCH  16  23
ENDBRANCH  10  15
ENDBRANCH   7   9
ENDBRANCH   6   7
ENDBRANCH   5   6
ENDBRANCH   4   5
ENDBRANCH   3   4
ENDBRANCH   2   3
ENDBRANCH   1   2
BRANCH   1  34
ATOM     34  O   UNL A   1      35.547  21.051  25.557  1.00  0.00    -0.377 OA
BRANCH  34  35
ATOM     35  C   UNL A   1      36.217  22.307  25.476  1.00  0.00     0.188 C 
BRANCH  35  36
ATOM     36  C   UNL A   1      37.756  22.393  25.396  1.00  0.00     0.188 C 
BRANCH  36  37
ATOM     37  O   UNL A   1      38.294  23.617  25.871  1.00  0.00    -0.376 OA
BRANCH  37  38
ATOM     38  C   UNL A   1      39.316  23.564  26.855  1.00  0.00     0.202 C 
BRANCH  38  39
ATOM     39  C   UNL A   1      39.944  24.910  27.231  1.00  0.00     0.261 C 
BRANCH  39  40
ATOM     40  O   UNL A   1      40.543  25.616  26.132  1.00  0.00    -0.460 OA
BRANCH  40  41
ATOM     41  C   UNL A   1      41.808  26.060  26.288  1.00  0.00     0.338 C 
ATOM     42  O   UNL A   1      42.803  25.637  25.727  1.00  0.00    -0.246 OA
BRANCH  41  43
ATOM     43  C   UNL A   1      41.806  27.243  27.180  1.00  0.00     0.060 A 
ATOM     44  C   UNL A   1      41.147  28.400  26.752  1.00  0.00     0.016 A 
ATOM     45  C   UNL A   1      42.506  27.242  28.389  1.00  0.00     0.016 A 
ATOM     46  C   UNL A   1      41.306  29.588  27.462  1.00  0.00     0.010 A 
ATOM     47  C   UNL A   1      42.710  28.435  29.072  1.00  0.00     0.010 A 
ATOM     48  C   UNL A   1      42.156  29.621  28.575  1.00  0.00    -0.014 A 
BRANCH  48  49
ATOM     49  C   UNL A   1      42.583  30.916  29.137  1.00  0.00     0.031 A 
ATOM     50  C   UNL A   1      41.776  31.533  30.244  1.00  0.00     0.074 A 
ATOM     51  C   UNL A   1      43.637  31.557  28.610  1.00  0.00     0.049 A 
ATOM     52  N   UNL A   1      42.010  32.614  30.942  1.00  0.00    -0.248 NA
ATOM     53  C   UNL A   1      40.516  30.858  30.589  1.00  0.00     0.031 C 
ATOM     54  C   UNL A   1      44.427  31.087  27.474  1.00  0.00     0.029 A 
ATOM     55  N   UNL A   1      44.214  32.745  28.962  1.00  0.00    -0.354 N 
ATOM     56  C   UNL A   1      40.931  32.746  31.809  1.00  0.00     0.074 A 
ATOM     57  C   UNL A   1      40.018  31.663  31.517  1.00  0.00     0.031 C 
ATOM     58  C   UNL A   1      45.394  31.985  27.220  1.00  0.00     0.029 A 
ATOM     59  C   UNL A   1      45.301  33.069  28.194  1.00  0.00     0.049 A 
ATOM     60  H   UNL A   1      43.881  33.313  29.694  1.00  0.00     0.167 HD
ATOM     61  C   UNL A   1      40.736  33.680  32.770  1.00  0.00     0.037 A 
ATOM     62  C   UNL A   1      46.151  34.105  28.300  1.00  0.00     0.037 A 
ATOM     63  C   UNL A   1      41.673  34.739  33.047  1.00  0.00     0.049 A 
ATOM     64  C   UNL A   1      45.986  35.060  29.449  1.00  0.00     0.074 A 
ATOM     65  C   UNL A   1      41.639  35.686  34.056  1.00  0.00     0.029 A 
ATOM     66  N   UNL A   1      42.815  34.991  32.300  1.00  0.00    -0.354 N 
ATOM     67  N   UNL A   1      45.039  35.108  30.355  1.00  0.00    -0.248 NA
ATOM     68  C   UNL A   1      47.038  36.069  29.620  1.00  0.00     0.031 C 
ATOM     69  C   UNL A   1      42.746  36.530  33.899  1.00  0.00     0.029 A 
ATOM     70  C   UNL A   1      43.494  36.079  32.822  1.00  0.00     0.049 A 
ATOM     71  H   UNL A   1      43.101  34.473  31.513  1.00  0.00     0.167 HD
ATOM     72  C   UNL A   1      45.395  36.131  31.224  1.00  0.00     0.074 A 
ATOM     73  C   UNL A   1      46.655  36.662  30.742  1.00  0.00     0.031 C 
ATOM     74  C   UNL A   1      44.745  36.590  32.322  1.00  0.00     0.037 A 
BRANCH  61  75
ATOM     75  C   UNL A   1      39.486  33.592  33.601  1.00  0.00     0.057 A 
ATOM     76  C   UNL A   1      38.288  34.205  33.207  1.00  0.00     0.134 A 
ATOM     77  C   UNL A   1      39.458  32.831  34.778  1.00  0.00     0.134 A 
ATOM     78  F   UNL A   1      38.242  34.956  32.097  1.00  0.00    -0.206 F 
ATOM     79  C   UNL A   1      37.118  34.083  33.961  1.00  0.00     0.040 A 
ATOM     80  C   UNL A   1      38.286  32.676  35.524  1.00  0.00     0.040 A 
ATOM     81  F   UNL A   1      40.564  32.210  35.215  1.00  0.00    -0.206 F 
ATOM     82  C   UNL A   1      37.113  33.309  35.118  1.00  0.00     0.006 A 
ENDBRANCH  61  75
BRANCH  62  83
ATOM     83  C   UNL A   1      47.295  34.203  27.364  1.00  0.00     0.057 A 
ATOM     84  C   UNL A   1      48.475  33.491  27.598  1.00  0.00     0.134 A 
ATOM     85  C   UNL A   1      47.216  34.963  26.192  1.00  0.00     0.134 A 
ATOM     86  F   UNL A   1      48.606  32.747  28.707  1.00  0.00    -0.206 F 
ATOM     87  C   UNL A   1      49.548  33.543  26.708  1.00  0.00     0.040 A 
ATOM     88  C   UNL A   1      48.274  35.008  25.282  1.00  0.00     0.040 A 
ATOM     89  F   UNL A   1      46.100  35.648  25.902  1.00  0.00    -0.206 F 
ATOM     90  C   UNL A   1      49.446  34.299  25.543  1.00  0.00     0.006 A 
ENDBRANCH  62  83
BRANCH  74  91
ATOM     91  C   UNL A   1      45.406  37.698  33.087  1.00  0.00     0.057 A 
ATOM     92  C   UNL A   1      46.326  37.444  34.112  1.00  0.00     0.134 A 
ATOM     93  C   UNL A   1      45.119  39.036  32.790  1.00  0.00     0.134 A 
ATOM     94  F   UNL A   1      46.635  36.184  34.451  1.00  0.00    -0.206 F 
ATOM     95  C   UNL A   1      46.907  38.482  34.842  1.00  0.00     0.040 A 
ATOM     96  C   UNL A   1      45.715  40.083  33.493  1.00  0.00     0.040 A 
ATOM     97  F   UNL A   1      44.256  39.348  31.810  1.00  0.00    -0.206 F 
ATOM     98  C   UNL A   1      46.603  39.806  34.531  1.00  0.00     0.006 A 
ENDBRANCH  74  91
ENDBRANCH  48  49
ENDBRANCH  41  43
ENDBRANCH  40  41
ENDBRANCH  39  40
ENDBRANCH  38  39
ENDBRANCH  37  38
ENDBRANCH  36  37
ENDBRANCH  35  36
ENDBRANCH  34  35
ENDBRANCH   1  34
TORSDOF 23
ENDMDL
