MODEL 1
REMARK VINA RESULT:      -8.8      0.000      0.000
REMARK SMILES CCCn1ccnc1Cc1ccc(C(=O)OCCOCCOCCOCCOC(=O)c2ccc(-c3c4nc(c(-c5c(F)cccc5F)c5ccc([nH]5)c(-c5c(F)cccc5F)c5nc(c(-c6c(F)cccc6F)c6ccc3[nH]6)C=C5)C=C4)cc2)s1
REMARK SMILES IDX 21 1 20 2 19 3 18 4 17 5 16 6 14 7 15 8 13 9 10 10 11 11
REMARK SMILES IDX 85 12 12 13 9 14 8 15 4 16 5 17 6 18 7 19 3 20 2 21 1 22
REMARK SMILES IDX 22 23 23 24 24 25 25 26 26 27 27 28 28 29 29 30 30 31 31 32
REMARK SMILES IDX 32 33 84 34 33 35 83 36 34 37 35 38 36 39 77 40 37 41 82 42
REMARK SMILES IDX 76 43 78 44 38 45 81 46 75 47 74 48 39 50 65 51 48 52 64 53
REMARK SMILES IDX 49 54 52 55 63 56 79 57 50 58 51 59 62 61 80 62 53 63 40 64
REMARK SMILES IDX 41 65 46 66 42 67 43 68 45 69 47 70 44 71 66 72 67 73 72 74
REMARK SMILES IDX 68 75 69 76 71 77 73 78 70 79 54 80 55 81 60 82 56 83 57 84
REMARK SMILES IDX 59 85 61 86 58 87
REMARK H PARENT 78 49 52 60
REMARK Flexibility Score: inf
ROOT
ATOM      1  C   UNL A   1      38.013  23.332  26.209  1.00  0.00     0.188 C 
ENDROOT
BRANCH   1   2
ATOM      2  C   UNL A   1      37.121  23.221  24.955  1.00  0.00     0.188 C 
BRANCH   2   3
ATOM      3  O   UNL A   1      36.917  21.877  24.543  1.00  0.00    -0.376 OA
BRANCH   3   4
ATOM      4  C   UNL A   1      36.178  21.010  25.376  1.00  0.00     0.202 C 
BRANCH   4   5
ATOM      5  C   UNL A   1      34.750  20.742  24.891  1.00  0.00     0.261 C 
BRANCH   5   6
ATOM      6  O   UNL A   1      33.817  21.805  25.133  1.00  0.00    -0.459 OA
BRANCH   6   7
ATOM      7  C   UNL A   1      32.491  21.520  25.038  1.00  0.00     0.348 C 
ATOM      8  O   UNL A   1      32.003  20.410  25.252  1.00  0.00    -0.245 OA
BRANCH   7   9
ATOM      9  C   UNL A   1      31.755  22.754  24.881  1.00  0.00     0.112 A 
ATOM     10  C   UNL A   1      30.966  24.953  24.063  1.00  0.00     0.013 A 
ATOM     11  C   UNL A   1      30.612  24.721  25.380  1.00  0.00     0.017 A 
ATOM     12  S   UNL A   1      31.744  23.581  23.386  1.00  0.00    -0.133 S 
ATOM     13  C   UNL A   1      31.036  23.439  25.841  1.00  0.00     0.028 A 
BRANCH  10  14
ATOM     14  C   UNL A   1      30.709  26.174  23.214  1.00  0.00     0.122 C 
BRANCH  14  15
ATOM     15  C   UNL A   1      31.908  27.070  23.064  1.00  0.00     0.113 A 
ATOM     16  N   UNL A   1      32.277  28.079  23.933  1.00  0.00    -0.335 N 
ATOM     17  C   UNL A   1      33.459  28.609  23.477  1.00  0.00     0.107 A 
ATOM     18  C   UNL A   1      33.762  27.903  22.341  1.00  0.00     0.131 A 
ATOM     19  N   UNL A   1      32.804  26.958  22.095  1.00  0.00    -0.241 NA
BRANCH  16  20
ATOM     20  C   UNL A   1      31.653  28.480  25.180  1.00  0.00     0.123 C 
BRANCH  20  21
ATOM     21  C   UNL A   1      32.234  27.807  26.425  1.00  0.00     0.018 C 
ATOM     22  C   UNL A   1      31.545  28.227  27.710  1.00  0.00     0.006 C 
ENDBRANCH  20  21
ENDBRANCH  16  20
ENDBRANCH  14  15
ENDBRANCH  10  14
ENDBRANCH   7   9
ENDBRANCH   6   7
ENDBRANCH   5   6
ENDBRANCH   4   5
ENDBRANCH   3   4
ENDBRANCH   2   3
ENDBRANCH   1   2
BRANCH   1  23
ATOM     23  O   UNL A   1      39.413  23.081  26.106  1.00  0.00    -0.377 OA
BRANCH  23  24
ATOM     24  C   UNL A   1      40.034  22.428  27.201  1.00  0.00     0.188 C 
BRANCH  24  25
ATOM     25  C   UNL A   1      41.509  22.052  26.946  1.00  0.00     0.188 C 
BRANCH  25  26
ATOM     26  O   UNL A   1      42.515  22.487  27.847  1.00  0.00    -0.376 OA
BRANCH  26  27
ATOM     27  C   UNL A   1      43.603  23.349  27.549  1.00  0.00     0.202 C 
BRANCH  27  28
ATOM     28  C   UNL A   1      43.624  24.514  26.567  1.00  0.00     0.261 C 
BRANCH  28  29
ATOM     29  O   UNL A   1      42.795  25.597  26.884  1.00  0.00    -0.460 OA
BRANCH  29  30
ATOM     30  C   UNL A   1      41.733  25.738  26.090  1.00  0.00     0.338 C 
ATOM     31  O   UNL A   1      41.543  25.240  24.985  1.00  0.00    -0.246 OA
BRANCH  30  32
ATOM     32  C   UNL A   1      40.850  26.697  26.738  1.00  0.00     0.060 A 
ATOM     33  C   UNL A   1      41.057  28.038  26.423  1.00  0.00     0.016 A 
ATOM     34  C   UNL A   1      40.148  26.275  27.879  1.00  0.00     0.016 A 
ATOM     35  C   UNL A   1      40.818  28.959  27.410  1.00  0.00     0.010 A 
ATOM     36  C   UNL A   1      39.948  27.185  28.874  1.00  0.00     0.010 A 
ATOM     37  C   UNL A   1      40.387  28.487  28.653  1.00  0.00    -0.014 A 
BRANCH  37  38
ATOM     38  C   UNL A   1      40.378  29.409  29.758  1.00  0.00     0.031 A 
ATOM     39  C   UNL A   1      39.142  30.208  29.806  1.00  0.00     0.074 A 
ATOM     40  C   UNL A   1      41.364  29.385  30.673  1.00  0.00     0.049 A 
ATOM     41  N   UNL A   1      39.008  31.476  29.612  1.00  0.00    -0.248 NA
ATOM     42  C   UNL A   1      37.869  29.467  29.872  1.00  0.00     0.031 C 
ATOM     43  C   UNL A   1      42.441  28.397  30.809  1.00  0.00     0.029 A 
ATOM     44  N   UNL A   1      41.542  30.180  31.758  1.00  0.00    -0.354 N 
ATOM     45  C   UNL A   1      37.649  31.719  29.776  1.00  0.00     0.074 A 
ATOM     46  C   UNL A   1      36.990  30.448  29.675  1.00  0.00     0.031 C 
ATOM     47  C   UNL A   1      43.007  28.520  32.031  1.00  0.00     0.029 A 
ATOM     48  C   UNL A   1      42.418  29.664  32.704  1.00  0.00     0.049 A 
ATOM     49  H   UNL A   1      41.089  31.048  31.865  1.00  0.00     0.167 HD
ATOM     50  C   UNL A   1      37.226  32.884  30.330  1.00  0.00     0.037 A 
ATOM     51  C   UNL A   1      42.553  30.109  33.977  1.00  0.00     0.037 A 
ATOM     52  C   UNL A   1      38.252  33.896  30.229  1.00  0.00     0.049 A 
ATOM     53  C   UNL A   1      41.943  31.462  34.038  1.00  0.00     0.074 A 
ATOM     54  C   UNL A   1      38.921  34.518  29.194  1.00  0.00     0.029 A 
ATOM     55  N   UNL A   1      38.988  34.140  31.361  1.00  0.00    -0.354 N 
ATOM     56  N   UNL A   1      42.436  32.516  33.449  1.00  0.00    -0.248 NA
ATOM     57  C   UNL A   1      40.538  31.560  34.408  1.00  0.00     0.031 C 
ATOM     58  C   UNL A   1      40.235  34.771  29.689  1.00  0.00     0.029 A 
ATOM     59  C   UNL A   1      40.296  34.330  31.011  1.00  0.00     0.049 A 
ATOM     60  H   UNL A   1      38.632  34.172  32.279  1.00  0.00     0.167 HD
ATOM     61  C   UNL A   1      41.330  33.221  32.996  1.00  0.00     0.074 A 
ATOM     62  C   UNL A   1      40.198  32.654  33.720  1.00  0.00     0.031 C 
ATOM     63  C   UNL A   1      41.409  33.988  31.867  1.00  0.00     0.037 A 
BRANCH  50  64
ATOM     64  C   UNL A   1      36.129  32.953  31.378  1.00  0.00     0.057 A 
ATOM     65  C   UNL A   1      35.069  33.854  31.164  1.00  0.00     0.134 A 
ATOM     66  C   UNL A   1      36.214  32.447  32.694  1.00  0.00     0.134 A 
ATOM     67  F   UNL A   1      34.859  34.394  29.954  1.00  0.00    -0.206 F 
ATOM     68  C   UNL A   1      34.249  34.312  32.202  1.00  0.00     0.040 A 
ATOM     69  C   UNL A   1      35.370  32.862  33.726  1.00  0.00     0.040 A 
ATOM     70  F   UNL A   1      37.159  31.592  33.096  1.00  0.00    -0.206 F 
ATOM     71  C   UNL A   1      34.412  33.831  33.493  1.00  0.00     0.006 A 
ENDBRANCH  50  64
BRANCH  51  72
ATOM     72  C   UNL A   1      42.861  29.331  35.198  1.00  0.00     0.057 A 
ATOM     73  C   UNL A   1      42.189  28.132  35.474  1.00  0.00     0.134 A 
ATOM     74  C   UNL A   1      44.002  29.592  35.976  1.00  0.00     0.134 A 
ATOM     75  F   UNL A   1      41.114  27.774  34.757  1.00  0.00    -0.206 F 
ATOM     76  C   UNL A   1      42.640  27.232  36.448  1.00  0.00     0.040 A 
ATOM     77  C   UNL A   1      44.458  28.708  36.959  1.00  0.00     0.040 A 
ATOM     78  F   UNL A   1      44.767  30.669  35.749  1.00  0.00    -0.206 F 
ATOM     79  C   UNL A   1      43.785  27.514  37.188  1.00  0.00     0.006 A 
ENDBRANCH  51  72
BRANCH  63  80
ATOM     80  C   UNL A   1      42.784  34.308  31.349  1.00  0.00     0.057 A 
ATOM     81  C   UNL A   1      43.442  33.575  30.351  1.00  0.00     0.134 A 
ATOM     82  C   UNL A   1      43.405  35.482  31.790  1.00  0.00     0.134 A 
ATOM     83  F   UNL A   1      42.880  32.490  29.803  1.00  0.00    -0.206 F 
ATOM     84  C   UNL A   1      44.686  33.971  29.847  1.00  0.00     0.040 A 
ATOM     85  C   UNL A   1      44.628  35.907  31.270  1.00  0.00     0.040 A 
ATOM     86  F   UNL A   1      42.806  36.261  32.704  1.00  0.00    -0.206 F 
ATOM     87  C   UNL A   1      45.279  35.145  30.303  1.00  0.00     0.006 A 
ENDBRANCH  63  80
ENDBRANCH  37  38
ENDBRANCH  30  32
ENDBRANCH  29  30
ENDBRANCH  28  29
ENDBRANCH  27  28
ENDBRANCH  26  27
ENDBRANCH  25  26
ENDBRANCH  24  25
ENDBRANCH  23  24
ENDBRANCH   1  23
TORSDOF 24
ENDMDL
MODEL 2
REMARK VINA RESULT:      -8.6      2.132      6.171
REMARK SMILES CCCn1ccnc1Cc1ccc(C(=O)OCCOCCOCCOCCOC(=O)c2ccc(-c3c4nc(c(-c5c(F)cccc5F)c5ccc([nH]5)c(-c5c(F)cccc5F)c5nc(c(-c6c(F)cccc6F)c6ccc3[nH]6)C=C5)C=C4)cc2)s1
REMARK SMILES IDX 21 1 20 2 19 3 18 4 17 5 16 6 14 7 15 8 13 9 10 10 11 11
REMARK SMILES IDX 85 12 12 13 9 14 8 15 4 16 5 17 6 18 7 19 3 20 2 21 1 22
REMARK SMILES IDX 22 23 23 24 24 25 25 26 26 27 27 28 28 29 29 30 30 31 31 32
REMARK SMILES IDX 32 33 84 34 33 35 83 36 34 37 35 38 36 39 77 40 37 41 82 42
REMARK SMILES IDX 76 43 78 44 38 45 81 46 75 47 74 48 39 50 65 51 48 52 64 53
REMARK SMILES IDX 49 54 52 55 63 56 79 57 50 58 51 59 62 61 80 62 53 63 40 64
REMARK SMILES IDX 41 65 46 66 42 67 43 68 45 69 47 70 44 71 66 72 67 73 72 74
REMARK SMILES IDX 68 75 69 76 71 77 73 78 70 79 54 80 55 81 60 82 56 83 57 84
REMARK SMILES IDX 59 85 61 86 58 87
REMARK H PARENT 78 49 52 60
REMARK Flexibility Score: inf
ROOT
ATOM      1  C   UNL A   1      36.198  21.099  25.397  1.00  0.00     0.188 C 
ENDROOT
BRANCH   1   2
ATOM      2  C   UNL A   1      35.474  21.966  24.345  1.00  0.00     0.188 C 
BRANCH   2   3
ATOM      3  O   UNL A   1      34.064  21.804  24.376  1.00  0.00    -0.376 OA
BRANCH   3   4
ATOM      4  C   UNL A   1      33.505  20.828  25.229  1.00  0.00     0.202 C 
BRANCH   4   5
ATOM      5  C   UNL A   1      32.148  21.218  25.824  1.00  0.00     0.261 C 
BRANCH   5   6
ATOM      6  O   UNL A   1      32.137  22.458  26.547  1.00  0.00    -0.459 OA
BRANCH   6   7
ATOM      7  C   UNL A   1      31.074  23.287  26.368  1.00  0.00     0.348 C 
ATOM      8  O   UNL A   1      30.212  23.503  27.220  1.00  0.00    -0.245 OA
BRANCH   7   9
ATOM      9  C   UNL A   1      31.254  24.024  25.139  1.00  0.00     0.112 A 
ATOM     10  C   UNL A   1      31.694  25.828  23.502  1.00  0.00     0.013 A 
ATOM     11  C   UNL A   1      30.941  24.800  22.965  1.00  0.00     0.017 A 
ATOM     12  S   UNL A   1      32.177  25.461  25.107  1.00  0.00    -0.133 S 
ATOM     13  C   UNL A   1      30.717  23.743  23.897  1.00  0.00     0.028 A 
BRANCH  10  14
ATOM     14  C   UNL A   1      32.142  27.115  22.851  1.00  0.00     0.122 C 
BRANCH  14  15
ATOM     15  C   UNL A   1      31.175  28.253  23.030  1.00  0.00     0.113 A 
ATOM     16  N   UNL A   1      31.218  29.199  24.036  1.00  0.00    -0.335 N 
ATOM     17  C   UNL A   1      30.206  30.097  23.805  1.00  0.00     0.107 A 
ATOM     18  C   UNL A   1      29.581  29.659  22.666  1.00  0.00     0.131 A 
ATOM     19  N   UNL A   1      30.184  28.526  22.196  1.00  0.00    -0.241 NA
BRANCH  16  20
ATOM     20  C   UNL A   1      32.193  29.354  25.100  1.00  0.00     0.123 C 
BRANCH  20  21
ATOM     21  C   UNL A   1      31.727  30.228  26.265  1.00  0.00     0.018 C 
ATOM     22  C   UNL A   1      32.873  30.833  27.055  1.00  0.00     0.006 C 
ENDBRANCH  20  21
ENDBRANCH  16  20
ENDBRANCH  14  15
ENDBRANCH  10  14
ENDBRANCH   7   9
ENDBRANCH   6   7
ENDBRANCH   5   6
ENDBRANCH   4   5
ENDBRANCH   3   4
ENDBRANCH   2   3
ENDBRANCH   1   2
BRANCH   1  23
ATOM     23  O   UNL A   1      36.829  19.883  24.997  1.00  0.00    -0.377 OA
BRANCH  23  24
ATOM     24  C   UNL A   1      38.242  19.898  24.882  1.00  0.00     0.188 C 
BRANCH  24  25
ATOM     25  C   UNL A   1      38.919  21.040  25.668  1.00  0.00     0.188 C 
BRANCH  25  26
ATOM     26  O   UNL A   1      40.127  20.795  26.370  1.00  0.00    -0.376 OA
BRANCH  26  27
ATOM     27  C   UNL A   1      41.384  21.411  26.133  1.00  0.00     0.202 C 
BRANCH  27  28
ATOM     28  C   UNL A   1      41.964  22.638  26.829  1.00  0.00     0.261 C 
BRANCH  28  29
ATOM     29  O   UNL A   1      41.228  23.132  27.912  1.00  0.00    -0.460 OA
BRANCH  29  30
ATOM     30  C   UNL A   1      40.342  24.079  27.598  1.00  0.00     0.338 C 
ATOM     31  O   UNL A   1      39.161  23.940  27.297  1.00  0.00    -0.246 OA
BRANCH  30  32
ATOM     32  C   UNL A   1      41.068  25.341  27.577  1.00  0.00     0.060 A 
ATOM     33  C   UNL A   1      41.824  25.639  28.708  1.00  0.00     0.016 A 
ATOM     34  C   UNL A   1      40.667  26.311  26.643  1.00  0.00     0.016 A 
ATOM     35  C   UNL A   1      41.928  26.958  29.065  1.00  0.00     0.010 A 
ATOM     36  C   UNL A   1      40.736  27.620  27.019  1.00  0.00     0.010 A 
ATOM     37  C   UNL A   1      41.271  27.903  28.272  1.00  0.00    -0.014 A 
BRANCH  37  38
ATOM     38  C   UNL A   1      41.163  29.247  28.775  1.00  0.00     0.031 A 
ATOM     39  C   UNL A   1      42.334  30.068  28.423  1.00  0.00     0.074 A 
ATOM     40  C   UNL A   1      40.031  29.663  29.370  1.00  0.00     0.049 A 
ATOM     41  N   UNL A   1      43.229  30.555  29.213  1.00  0.00    -0.248 NA
ATOM     42  C   UNL A   1      42.663  30.185  26.991  1.00  0.00     0.031 C 
ATOM     43  C   UNL A   1      38.748  28.954  29.458  1.00  0.00     0.029 A 
ATOM     44  N   UNL A   1      39.750  30.869  29.923  1.00  0.00    -0.354 N 
ATOM     45  C   UNL A   1      44.101  31.247  28.380  1.00  0.00     0.074 A 
ATOM     46  C   UNL A   1      43.855  30.775  27.047  1.00  0.00     0.031 C 
ATOM     47  C   UNL A   1      37.781  29.827  29.817  1.00  0.00     0.029 A 
ATOM     48  C   UNL A   1      38.394  31.113  30.100  1.00  0.00     0.049 A 
ATOM     49  H   UNL A   1      40.447  31.517  30.177  1.00  0.00     0.167 HD
ATOM     50  C   UNL A   1      44.692  32.391  28.811  1.00  0.00     0.037 A 
ATOM     51  C   UNL A   1      37.839  32.321  30.363  1.00  0.00     0.037 A 
ATOM     52  C   UNL A   1      44.684  32.455  30.253  1.00  0.00     0.049 A 
ATOM     53  C   UNL A   1      38.928  33.212  30.840  1.00  0.00     0.074 A 
ATOM     54  C   UNL A   1      45.206  31.687  31.275  1.00  0.00     0.029 A 
ATOM     55  N   UNL A   1      43.730  33.257  30.828  1.00  0.00    -0.354 N 
ATOM     56  N   UNL A   1      39.544  33.070  31.979  1.00  0.00    -0.248 NA
ATOM     57  C   UNL A   1      39.630  34.019  29.852  1.00  0.00     0.031 C 
ATOM     58  C   UNL A   1      44.264  31.783  32.343  1.00  0.00     0.029 A 
ATOM     59  C   UNL A   1      43.235  32.635  31.941  1.00  0.00     0.049 A 
ATOM     60  H   UNL A   1      43.447  34.138  30.493  1.00  0.00     0.167 HD
ATOM     61  C   UNL A   1      40.866  33.395  31.713  1.00  0.00     0.074 A 
ATOM     62  C   UNL A   1      40.833  34.086  30.428  1.00  0.00     0.031 C 
ATOM     63  C   UNL A   1      41.881  32.810  32.417  1.00  0.00     0.037 A 
BRANCH  50  64
ATOM     64  C   UNL A   1      44.808  33.638  27.951  1.00  0.00     0.057 A 
ATOM     65  C   UNL A   1      46.098  34.107  27.641  1.00  0.00     0.134 A 
ATOM     66  C   UNL A   1      43.769  34.559  27.693  1.00  0.00     0.134 A 
ATOM     67  F   UNL A   1      47.174  33.326  27.817  1.00  0.00    -0.206 F 
ATOM     68  C   UNL A   1      46.343  35.424  27.236  1.00  0.00     0.040 A 
ATOM     69  C   UNL A   1      44.000  35.861  27.243  1.00  0.00     0.040 A 
ATOM     70  F   UNL A   1      42.479  34.305  27.935  1.00  0.00    -0.206 F 
ATOM     71  C   UNL A   1      45.293  36.313  27.055  1.00  0.00     0.006 A 
ENDBRANCH  50  64
BRANCH  51  72
ATOM     72  C   UNL A   1      36.529  32.849  29.920  1.00  0.00     0.057 A 
ATOM     73  C   UNL A   1      35.689  33.528  30.814  1.00  0.00     0.134 A 
ATOM     74  C   UNL A   1      36.190  32.947  28.559  1.00  0.00     0.134 A 
ATOM     75  F   UNL A   1      35.953  33.528  32.128  1.00  0.00    -0.206 F 
ATOM     76  C   UNL A   1      34.591  34.282  30.379  1.00  0.00     0.040 A 
ATOM     77  C   UNL A   1      35.092  33.688  28.111  1.00  0.00     0.040 A 
ATOM     78  F   UNL A   1      36.965  32.405  27.608  1.00  0.00    -0.206 F 
ATOM     79  C   UNL A   1      34.295  34.372  29.021  1.00  0.00     0.006 A 
ENDBRANCH  51  72
BRANCH  63  80
ATOM     80  C   UNL A   1      41.513  32.091  33.685  1.00  0.00     0.057 A 
ATOM     81  C   UNL A   1      41.349  32.719  34.929  1.00  0.00     0.134 A 
ATOM     82  C   UNL A   1      41.185  30.733  33.610  1.00  0.00     0.134 A 
ATOM     83  F   UNL A   1      41.548  34.035  35.073  1.00  0.00    -0.206 F 
ATOM     84  C   UNL A   1      40.921  32.012  36.058  1.00  0.00     0.040 A 
ATOM     85  C   UNL A   1      40.723  30.026  34.721  1.00  0.00     0.040 A 
ATOM     86  F   UNL A   1      41.266  30.082  32.439  1.00  0.00    -0.206 F 
ATOM     87  C   UNL A   1      40.600  30.662  35.953  1.00  0.00     0.006 A 
ENDBRANCH  63  80
ENDBRANCH  37  38
ENDBRANCH  30  32
ENDBRANCH  29  30
ENDBRANCH  28  29
ENDBRANCH  27  28
ENDBRANCH  26  27
ENDBRANCH  25  26
ENDBRANCH  24  25
ENDBRANCH  23  24
ENDBRANCH   1  23
TORSDOF 24
ENDMDL
MODEL 3
REMARK VINA RESULT:      -8.3      2.157      6.235
REMARK SMILES CCCn1ccnc1Cc1ccc(C(=O)OCCOCCOCCOCCOC(=O)c2ccc(-c3c4nc(c(-c5c(F)cccc5F)c5ccc([nH]5)c(-c5c(F)cccc5F)c5nc(c(-c6c(F)cccc6F)c6ccc3[nH]6)C=C5)C=C4)cc2)s1
REMARK SMILES IDX 21 1 20 2 19 3 18 4 17 5 16 6 14 7 15 8 13 9 10 10 11 11
REMARK SMILES IDX 85 12 12 13 9 14 8 15 4 16 5 17 6 18 7 19 3 20 2 21 1 22
REMARK SMILES IDX 22 23 23 24 24 25 25 26 26 27 27 28 28 29 29 30 30 31 31 32
REMARK SMILES IDX 32 33 84 34 33 35 83 36 34 37 35 38 36 39 77 40 37 41 82 42
REMARK SMILES IDX 76 43 78 44 38 45 81 46 75 47 74 48 39 50 65 51 48 52 64 53
REMARK SMILES IDX 49 54 52 55 63 56 79 57 50 58 51 59 62 61 80 62 53 63 40 64
REMARK SMILES IDX 41 65 46 66 42 67 43 68 45 69 47 70 44 71 66 72 67 73 72 74
REMARK SMILES IDX 68 75 69 76 71 77 73 78 70 79 54 80 55 81 60 82 56 83 57 84
REMARK SMILES IDX 59 85 61 86 58 87
REMARK H PARENT 78 49 52 60
REMARK Flexibility Score: inf
ROOT
ATOM      1  C   UNL A   1      35.350  21.768  25.195  1.00  0.00     0.188 C 
ENDROOT
BRANCH   1   2
ATOM      2  C   UNL A   1      34.702  22.269  23.888  1.00  0.00     0.188 C 
BRANCH   2   3
ATOM      3  O   UNL A   1      33.334  21.905  23.778  1.00  0.00    -0.376 OA
BRANCH   3   4
ATOM      4  C   UNL A   1      32.744  21.141  24.809  1.00  0.00     0.202 C 
BRANCH   4   5
ATOM      5  C   UNL A   1      31.498  21.781  25.428  1.00  0.00     0.261 C 
BRANCH   5   6
ATOM      6  O   UNL A   1      31.750  22.630  26.558  1.00  0.00    -0.459 OA
BRANCH   6   7
ATOM      7  C   UNL A   1      30.958  23.722  26.720  1.00  0.00     0.348 C 
ATOM      8  O   UNL A   1      29.847  23.702  27.252  1.00  0.00    -0.245 OA
BRANCH   7   9
ATOM      9  C   UNL A   1      31.716  24.907  26.386  1.00  0.00     0.112 A 
ATOM     10  C   UNL A   1      32.355  27.169  25.611  1.00  0.00     0.013 A 
ATOM     11  C   UNL A   1      33.422  26.289  25.609  1.00  0.00     0.017 A 
ATOM     12  S   UNL A   1      30.950  26.429  26.264  1.00  0.00    -0.133 S 
ATOM     13  C   UNL A   1      33.062  24.994  26.089  1.00  0.00     0.028 A 
BRANCH  10  14
ATOM     14  C   UNL A   1      32.319  28.616  25.181  1.00  0.00     0.122 C 
BRANCH  14  15
ATOM     15  C   UNL A   1      31.211  28.932  24.213  1.00  0.00     0.113 A 
ATOM     16  N   UNL A   1      30.754  28.101  23.209  1.00  0.00    -0.335 N 
ATOM     17  C   UNL A   1      29.696  28.729  22.599  1.00  0.00     0.107 A 
ATOM     18  C   UNL A   1      29.553  29.924  23.256  1.00  0.00     0.131 A 
ATOM     19  N   UNL A   1      30.487  30.040  24.247  1.00  0.00    -0.241 NA
BRANCH  16  20
ATOM     20  C   UNL A   1      31.178  26.753  22.878  1.00  0.00     0.123 C 
BRANCH  20  21
ATOM     21  C   UNL A   1      32.231  26.673  21.772  1.00  0.00     0.018 C 
ATOM     22  C   UNL A   1      33.282  25.608  22.023  1.00  0.00     0.006 C 
ENDBRANCH  20  21
ENDBRANCH  16  20
ENDBRANCH  14  15
ENDBRANCH  10  14
ENDBRANCH   7   9
ENDBRANCH   6   7
ENDBRANCH   5   6
ENDBRANCH   4   5
ENDBRANCH   3   4
ENDBRANCH   2   3
ENDBRANCH   1   2
BRANCH   1  23
ATOM     23  O   UNL A   1      35.921  20.462  25.246  1.00  0.00    -0.377 OA
BRANCH  23  24
ATOM     24  C   UNL A   1      37.285  20.339  24.877  1.00  0.00     0.188 C 
BRANCH  24  25
ATOM     25  C   UNL A   1      38.171  21.502  25.371  1.00  0.00     0.188 C 
BRANCH  25  26
ATOM     26  O   UNL A   1      39.282  21.236  26.212  1.00  0.00    -0.376 OA
BRANCH  26  27
ATOM     27  C   UNL A   1      40.585  21.786  26.092  1.00  0.00     0.202 C 
BRANCH  27  28
ATOM     28  C   UNL A   1      41.328  22.644  27.110  1.00  0.00     0.261 C 
BRANCH  28  29
ATOM     29  O   UNL A   1      40.528  23.358  28.010  1.00  0.00    -0.460 OA
BRANCH  29  30
ATOM     30  C   UNL A   1      39.864  24.382  27.475  1.00  0.00     0.338 C 
ATOM     31  O   UNL A   1      38.753  24.374  26.953  1.00  0.00    -0.246 OA
BRANCH  30  32
ATOM     32  C   UNL A   1      40.754  25.533  27.528  1.00  0.00     0.060 A 
ATOM     33  C   UNL A   1      41.484  25.698  28.703  1.00  0.00     0.016 A 
ATOM     34  C   UNL A   1      40.539  26.570  26.605  1.00  0.00     0.016 A 
ATOM     35  C   UNL A   1      41.748  26.981  29.104  1.00  0.00     0.010 A 
ATOM     36  C   UNL A   1      40.765  27.848  27.024  1.00  0.00     0.010 A 
ATOM     37  C   UNL A   1      41.268  28.025  28.309  1.00  0.00    -0.014 A 
BRANCH  37  38
ATOM     38  C   UNL A   1      41.317  29.360  28.847  1.00  0.00     0.031 A 
ATOM     39  C   UNL A   1      42.522  30.089  28.415  1.00  0.00     0.074 A 
ATOM     40  C   UNL A   1      40.277  29.853  29.543  1.00  0.00     0.049 A 
ATOM     41  N   UNL A   1      43.517  30.476  29.138  1.00  0.00    -0.248 NA
ATOM     42  C   UNL A   1      42.743  30.217  26.963  1.00  0.00     0.031 C 
ATOM     43  C   UNL A   1      38.949  29.253  29.722  1.00  0.00     0.029 A 
ATOM     44  N   UNL A   1      40.147  31.063  30.141  1.00  0.00    -0.354 N 
ATOM     45  C   UNL A   1      44.375  31.115  28.250  1.00  0.00     0.074 A 
ATOM     46  C   UNL A   1      43.982  30.703  26.933  1.00  0.00     0.031 C 
ATOM     47  C   UNL A   1      38.093  30.194  30.178  1.00  0.00     0.029 A 
ATOM     48  C   UNL A   1      38.836  31.415  30.435  1.00  0.00     0.049 A 
ATOM     49  H   UNL A   1      40.916  31.642  30.350  1.00  0.00     0.167 HD
ATOM     50  C   UNL A   1      45.096  32.193  28.653  1.00  0.00     0.037 A 
ATOM     51  C   UNL A   1      38.411  32.658  30.768  1.00  0.00     0.037 A 
ATOM     52  C   UNL A   1      45.211  32.217  30.092  1.00  0.00     0.049 A 
ATOM     53  C   UNL A   1      39.607  33.440  31.171  1.00  0.00     0.074 A 
ATOM     54  C   UNL A   1      45.745  31.380  31.051  1.00  0.00     0.029 A 
ATOM     55  N   UNL A   1      44.379  33.081  30.761  1.00  0.00    -0.354 N 
ATOM     56  N   UNL A   1      40.300  33.216  32.252  1.00  0.00    -0.248 NA
ATOM     57  C   UNL A   1      40.294  34.212  30.145  1.00  0.00     0.031 C 
ATOM     58  C   UNL A   1      44.905  31.526  32.195  1.00  0.00     0.029 A 
ATOM     59  C   UNL A   1      43.924  32.473  31.898  1.00  0.00     0.049 A 
ATOM     60  H   UNL A   1      44.146  33.992  30.468  1.00  0.00     0.167 HD
ATOM     61  C   UNL A   1      41.619  33.435  31.883  1.00  0.00     0.074 A 
ATOM     62  C   UNL A   1      41.542  34.162  30.620  1.00  0.00     0.031 C 
ATOM     63  C   UNL A   1      42.633  32.748  32.488  1.00  0.00     0.037 A 
BRANCH  50  64
ATOM     64  C   UNL A   1      45.248  33.449  27.813  1.00  0.00     0.057 A 
ATOM     65  C   UNL A   1      46.551  33.919  27.562  1.00  0.00     0.134 A 
ATOM     66  C   UNL A   1      44.222  34.374  27.522  1.00  0.00     0.134 A 
ATOM     67  F   UNL A   1      47.618  33.134  27.774  1.00  0.00    -0.206 F 
ATOM     68  C   UNL A   1      46.814  35.240  27.182  1.00  0.00     0.040 A 
ATOM     69  C   UNL A   1      44.473  35.680  27.096  1.00  0.00     0.040 A 
ATOM     70  F   UNL A   1      42.924  34.119  27.707  1.00  0.00    -0.206 F 
ATOM     71  C   UNL A   1      45.773  36.132  26.967  1.00  0.00     0.006 A 
ENDBRANCH  50  64
BRANCH  51  72
ATOM     72  C   UNL A   1      37.120  33.307  30.446  1.00  0.00     0.057 A 
ATOM     73  C   UNL A   1      36.765  33.581  29.118  1.00  0.00     0.134 A 
ATOM     74  C   UNL A   1      36.090  33.423  31.396  1.00  0.00     0.134 A 
ATOM     75  F   UNL A   1      37.666  33.458  28.134  1.00  0.00    -0.206 F 
ATOM     76  C   UNL A   1      35.456  33.924  28.752  1.00  0.00     0.040 A 
ATOM     77  C   UNL A   1      34.783  33.774  31.047  1.00  0.00     0.040 A 
ATOM     78  F   UNL A   1      36.294  33.109  32.684  1.00  0.00    -0.206 F 
ATOM     79  C   UNL A   1      34.457  34.011  29.717  1.00  0.00     0.006 A 
ENDBRANCH  51  72
BRANCH  63  80
ATOM     80  C   UNL A   1      42.308  32.028  33.768  1.00  0.00     0.057 A 
ATOM     81  C   UNL A   1      41.846  30.705  33.834  1.00  0.00     0.134 A 
ATOM     82  C   UNL A   1      42.601  32.661  34.981  1.00  0.00     0.134 A 
ATOM     83  F   UNL A   1      41.629  29.991  32.723  1.00  0.00    -0.206 F 
ATOM     84  C   UNL A   1      41.642  30.058  35.057  1.00  0.00     0.040 A 
ATOM     85  C   UNL A   1      42.435  32.013  36.206  1.00  0.00     0.040 A 
ATOM     86  F   UNL A   1      43.098  33.908  34.990  1.00  0.00    -0.206 F 
ATOM     87  C   UNL A   1      41.944  30.712  36.249  1.00  0.00     0.006 A 
ENDBRANCH  63  80
ENDBRANCH  37  38
ENDBRANCH  30  32
ENDBRANCH  29  30
ENDBRANCH  28  29
ENDBRANCH  27  28
ENDBRANCH  26  27
ENDBRANCH  25  26
ENDBRANCH  24  25
ENDBRANCH  23  24
ENDBRANCH   1  23
TORSDOF 24
ENDMDL
