MODEL 1
REMARK VINA RESULT:     -10.3      0.000      0.000
REMARK SMILES O=C(OCCOCCOCCOCCOC(=O)[C@@H]1Nc2c(cccc2C(F)(F)F)[C@@H]2C=CC[C@@H]12)c1ccc(-c2c3nc(c(-c4c(F)cccc4F)c4ccc([nH]4)c(-c4c(F)cccc4F)c4nc(c(-c5c(F)cccc5F)c5ccc2[nH]5)C=C4)C=C3)cc1
REMARK SMILES IDX 8 1 7 2 6 3 5 4 4 5 3 6 2 7 1 8 35 9 36 10 88 11 37 12 87 13
REMARK SMILES IDX 38 14 39 15 40 16 81 17 41 18 86 19 80 20 82 21 42 22 85 23
REMARK SMILES IDX 79 24 78 25 43 27 69 28 52 29 68 30 53 31 56 32 67 33 83 34
REMARK SMILES IDX 54 35 55 36 66 38 84 39 57 40 44 41 45 42 50 43 46 44 47 45
REMARK SMILES IDX 49 46 51 47 48 48 70 49 71 50 76 51 72 52 73 53 75 54 77 55
REMARK SMILES IDX 74 56 58 57 59 58 64 59 60 60 61 61 63 62 65 63 62 64 9 65
REMARK SMILES IDX 10 66 11 67 12 68 13 69 14 70 15 71 16 72 17 73 18 74 19 75
REMARK SMILES IDX 34 76 20 77 30 79 33 80 21 81 25 82 31 83 32 84 22 85 24 86
REMARK SMILES IDX 23 87 26 88 27 89 28 90 29 91
REMARK H PARENT 82 26 56 37 19 78
REMARK Flexibility Score: inf
ROOT
ATOM      1  C   UNL A   1      30.636  27.843  24.191  1.00  0.00     0.188 C 
ENDROOT
BRANCH   1   2
ATOM      2  C   UNL A   1      31.263  29.229  24.127  1.00  0.00     0.188 C 
BRANCH   2   3
ATOM      3  O   UNL A   1      31.502  29.666  25.460  1.00  0.00    -0.376 OA
BRANCH   3   4
ATOM      4  C   UNL A   1      31.833  28.655  26.398  1.00  0.00     0.202 C 
BRANCH   4   5
ATOM      5  C   UNL A   1      33.114  28.946  27.177  1.00  0.00     0.261 C 
BRANCH   5   6
ATOM      6  O   UNL A   1      33.564  30.302  27.026  1.00  0.00    -0.460 OA
BRANCH   6   7
ATOM      7  C   UNL A   1      34.523  30.961  27.718  1.00  0.00     0.338 C 
ATOM      8  O   UNL A   1      34.397  32.188  27.830  1.00  0.00    -0.246 OA
BRANCH   7   9
ATOM      9  C   UNL A   1      35.791  30.351  28.253  1.00  0.00     0.060 A 
ATOM     10  C   UNL A   1      36.874  30.252  27.356  1.00  0.00     0.016 A 
ATOM     11  C   UNL A   1      35.973  29.808  29.528  1.00  0.00     0.016 A 
ATOM     12  C   UNL A   1      38.070  29.624  27.722  1.00  0.00     0.010 A 
ATOM     13  C   UNL A   1      37.120  29.108  29.876  1.00  0.00     0.010 A 
ATOM     14  C   UNL A   1      38.188  29.049  28.990  1.00  0.00    -0.014 A 
BRANCH  14  15
ATOM     15  C   UNL A   1      39.486  28.660  29.555  1.00  0.00     0.031 A 
ATOM     16  C   UNL A   1      40.213  29.522  30.531  1.00  0.00     0.074 A 
ATOM     17  C   UNL A   1      40.060  27.588  28.979  1.00  0.00     0.049 A 
ATOM     18  N   UNL A   1      41.336  29.278  31.151  1.00  0.00    -0.248 NA
ATOM     19  C   UNL A   1      39.631  30.841  30.823  1.00  0.00     0.031 C 
ATOM     20  C   UNL A   1      39.469  26.815  27.877  1.00  0.00     0.029 A 
ATOM     21  N   UNL A   1      41.264  26.987  29.195  1.00  0.00    -0.354 N 
ATOM     22  C   UNL A   1      41.578  30.391  31.945  1.00  0.00     0.074 A 
ATOM     23  C   UNL A   1      40.525  31.346  31.665  1.00  0.00     0.031 C 
ATOM     24  C   UNL A   1      40.309  25.834  27.525  1.00  0.00     0.029 A 
ATOM     25  C   UNL A   1      41.478  25.899  28.387  1.00  0.00     0.049 A 
ATOM     26  H   UNL A   1      41.914  27.301  29.864  1.00  0.00     0.167 HD
ATOM     27  C   UNL A   1      42.580  30.567  32.840  1.00  0.00     0.037 A 
ATOM     28  C   UNL A   1      42.496  25.024  28.381  1.00  0.00     0.037 A 
ATOM     29  C   UNL A   1      43.638  29.601  33.027  1.00  0.00     0.049 A 
ATOM     30  C   UNL A   1      43.549  25.195  29.430  1.00  0.00     0.074 A 
ATOM     31  C   UNL A   1      44.681  29.609  33.936  1.00  0.00     0.029 A 
ATOM     32  N   UNL A   1      43.794  28.454  32.255  1.00  0.00    -0.354 N 
ATOM     33  N   UNL A   1      43.686  26.161  30.308  1.00  0.00    -0.248 NA
ATOM     34  C   UNL A   1      44.559  24.139  29.520  1.00  0.00     0.031 C 
ATOM     35  C   UNL A   1      45.486  28.489  33.687  1.00  0.00     0.029 A 
ATOM     36  C   UNL A   1      44.920  27.754  32.656  1.00  0.00     0.049 A 
ATOM     37  H   UNL A   1      43.189  28.179  31.529  1.00  0.00     0.167 HD
ATOM     38  C   UNL A   1      44.788  25.824  31.074  1.00  0.00     0.074 A 
ATOM     39  C   UNL A   1      45.258  24.544  30.571  1.00  0.00     0.031 C 
ATOM     40  C   UNL A   1      45.368  26.502  32.097  1.00  0.00     0.037 A 
BRANCH  27  41
ATOM     41  C   UNL A   1      42.555  31.812  33.685  1.00  0.00     0.057 A 
ATOM     42  C   UNL A   1      43.245  32.970  33.309  1.00  0.00     0.134 A 
ATOM     43  C   UNL A   1      41.868  31.851  34.909  1.00  0.00     0.134 A 
ATOM     44  F   UNL A   1      43.932  33.011  32.157  1.00  0.00    -0.206 F 
ATOM     45  C   UNL A   1      43.251  34.116  34.110  1.00  0.00     0.040 A 
ATOM     46  C   UNL A   1      41.845  32.998  35.708  1.00  0.00     0.040 A 
ATOM     47  F   UNL A   1      41.185  30.780  35.340  1.00  0.00    -0.206 F 
ATOM     48  C   UNL A   1      42.543  34.134  35.310  1.00  0.00     0.006 A 
ENDBRANCH  27  41
BRANCH  28  49
ATOM     49  C   UNL A   1      42.463  23.868  27.454  1.00  0.00     0.057 A 
ATOM     50  C   UNL A   1      43.011  23.939  26.169  1.00  0.00     0.134 A 
ATOM     51  C   UNL A   1      41.811  22.682  27.813  1.00  0.00     0.134 A 
ATOM     52  F   UNL A   1      43.616  25.062  25.751  1.00  0.00    -0.206 F 
ATOM     53  C   UNL A   1      42.914  22.873  25.273  1.00  0.00     0.040 A 
ATOM     54  C   UNL A   1      41.728  21.600  26.937  1.00  0.00     0.040 A 
ATOM     55  F   UNL A   1      41.254  22.559  29.026  1.00  0.00    -0.206 F 
ATOM     56  C   UNL A   1      42.276  21.695  25.660  1.00  0.00     0.006 A 
ENDBRANCH  28  49
BRANCH  40  57
ATOM     57  C   UNL A   1      46.569  25.845  32.707  1.00  0.00     0.057 A 
ATOM     58  C   UNL A   1      47.853  26.117  32.223  1.00  0.00     0.134 A 
ATOM     59  C   UNL A   1      46.453  24.979  33.803  1.00  0.00     0.134 A 
ATOM     60  F   UNL A   1      48.028  26.934  31.173  1.00  0.00    -0.206 F 
ATOM     61  C   UNL A   1      48.985  25.566  32.822  1.00  0.00     0.040 A 
ATOM     62  C   UNL A   1      47.580  24.447  34.429  1.00  0.00     0.040 A 
ATOM     63  F   UNL A   1      45.248  24.697  34.323  1.00  0.00    -0.206 F 
ATOM     64  C   UNL A   1      48.849  24.741  33.937  1.00  0.00     0.006 A 
ENDBRANCH  40  57
ENDBRANCH  14  15
ENDBRANCH   7   9
ENDBRANCH   6   7
ENDBRANCH   5   6
ENDBRANCH   4   5
ENDBRANCH   3   4
ENDBRANCH   2   3
ENDBRANCH   1   2
BRANCH   1  65
ATOM     65  O   UNL A   1      31.306  26.903  23.351  1.00  0.00    -0.377 OA
BRANCH  65  66
ATOM     66  C   UNL A   1      32.215  27.442  22.403  1.00  0.00     0.188 C 
BRANCH  66  67
ATOM     67  C   UNL A   1      33.575  26.749  22.400  1.00  0.00     0.188 C 
BRANCH  67  68
ATOM     68  O   UNL A   1      33.581  25.449  21.834  1.00  0.00    -0.376 OA
BRANCH  68  69
ATOM     69  C   UNL A   1      33.554  24.316  22.710  1.00  0.00     0.202 C 
BRANCH  69  70
ATOM     70  C   UNL A   1      32.779  23.030  22.343  1.00  0.00     0.261 C 
BRANCH  70  71
ATOM     71  O   UNL A   1      31.736  22.633  23.287  1.00  0.00    -0.462 OA
BRANCH  71  72
ATOM     72  C   UNL A   1      32.155  22.400  24.556  1.00  0.00     0.328 C 
ATOM     73  O   UNL A   1      31.866  23.154  25.493  1.00  0.00    -0.250 OA
BRANCH  72  74
ATOM     74  C   UNL A   1      33.117  21.207  24.849  1.00  0.00     0.194 C 
ATOM     75  N   UNL A   1      34.406  21.842  25.236  1.00  0.00    -0.371 N 
ATOM     76  C   UNL A   1      33.458  20.004  23.962  1.00  0.00     0.038 C 
ATOM     77  C   UNL A   1      35.643  21.220  25.189  1.00  0.00     0.051 A 
ATOM     78  H   UNL A   1      34.378  22.774  25.550  1.00  0.00     0.161 HD
ATOM     79  C   UNL A   1      34.419  19.115  24.799  1.00  0.00     0.050 C 
ATOM     80  C   UNL A   1      32.421  18.978  23.549  1.00  0.00     0.034 C 
ATOM     81  C   UNL A   1      35.723  19.835  24.914  1.00  0.00    -0.017 A 
ATOM     82  C   UNL A   1      36.835  21.940  25.334  1.00  0.00     0.079 A 
ATOM     83  C   UNL A   1      34.342  17.786  24.120  1.00  0.00    -0.023 C 
ATOM     84  C   UNL A   1      33.192  17.694  23.450  1.00  0.00    -0.030 C 
ATOM     85  C   UNL A   1      36.955  19.176  24.837  1.00  0.00     0.006 A 
ATOM     86  C   UNL A   1      38.069  21.264  25.232  1.00  0.00     0.015 A 
ATOM     87  C   UNL A   1      38.129  19.894  24.990  1.00  0.00     0.001 A 
BRANCH  82  88
ATOM     88  C   UNL A   1      36.865  23.425  25.580  1.00  0.00     0.418 C 
ATOM     89  F   UNL A   1      36.363  24.131  24.526  1.00  0.00    -0.166 F 
ATOM     90  F   UNL A   1      36.111  23.788  26.657  1.00  0.00    -0.166 F 
ATOM     91  F   UNL A   1      38.104  23.953  25.807  1.00  0.00    -0.166 F 
ENDBRANCH  82  88
ENDBRANCH  72  74
ENDBRANCH  71  72
ENDBRANCH  70  71
ENDBRANCH  69  70
ENDBRANCH  68  69
ENDBRANCH  67  68
ENDBRANCH  66  67
ENDBRANCH  65  66
ENDBRANCH   1  65
TORSDOF 21
ENDMDL
MODEL 2
REMARK VINA RESULT:     -10.2      1.494      6.164
REMARK SMILES O=C(OCCOCCOCCOCCOC(=O)[C@@H]1Nc2c(cccc2C(F)(F)F)[C@@H]2C=CC[C@@H]12)c1ccc(-c2c3nc(c(-c4c(F)cccc4F)c4ccc([nH]4)c(-c4c(F)cccc4F)c4nc(c(-c5c(F)cccc5F)c5ccc2[nH]5)C=C4)C=C3)cc1
REMARK SMILES IDX 8 1 7 2 6 3 5 4 4 5 3 6 2 7 1 8 35 9 36 10 88 11 37 12 87 13
REMARK SMILES IDX 38 14 39 15 40 16 81 17 41 18 86 19 80 20 82 21 42 22 85 23
REMARK SMILES IDX 79 24 78 25 43 27 69 28 52 29 68 30 53 31 56 32 67 33 83 34
REMARK SMILES IDX 54 35 55 36 66 38 84 39 57 40 44 41 45 42 50 43 46 44 47 45
REMARK SMILES IDX 49 46 51 47 48 48 70 49 71 50 76 51 72 52 73 53 75 54 77 55
REMARK SMILES IDX 74 56 58 57 59 58 64 59 60 60 61 61 63 62 65 63 62 64 9 65
REMARK SMILES IDX 10 66 11 67 12 68 13 69 14 70 15 71 16 72 17 73 18 74 19 75
REMARK SMILES IDX 34 76 20 77 30 79 33 80 21 81 25 82 31 83 32 84 22 85 24 86
REMARK SMILES IDX 23 87 26 88 27 89 28 90 29 91
REMARK H PARENT 82 26 56 37 19 78
REMARK Flexibility Score: inf
ROOT
ATOM      1  C   UNL A   1      30.549  27.893  24.149  1.00  0.00     0.188 C 
ENDROOT
BRANCH   1   2
ATOM      2  C   UNL A   1      31.259  29.235  24.262  1.00  0.00     0.188 C 
BRANCH   2   3
ATOM      3  O   UNL A   1      31.498  29.490  25.642  1.00  0.00    -0.376 OA
BRANCH   3   4
ATOM      4  C   UNL A   1      31.936  28.385  26.414  1.00  0.00     0.202 C 
BRANCH   4   5
ATOM      5  C   UNL A   1      33.158  28.694  27.276  1.00  0.00     0.261 C 
BRANCH   5   6
ATOM      6  O   UNL A   1      33.400  30.103  27.420  1.00  0.00    -0.460 OA
BRANCH   6   7
ATOM      7  C   UNL A   1      34.354  30.732  28.147  1.00  0.00     0.338 C 
ATOM      8  O   UNL A   1      34.085  31.864  28.571  1.00  0.00    -0.246 OA
BRANCH   7   9
ATOM      9  C   UNL A   1      35.754  30.227  28.376  1.00  0.00     0.060 A 
ATOM     10  C   UNL A   1      36.617  30.225  27.261  1.00  0.00     0.016 A 
ATOM     11  C   UNL A   1      36.256  29.694  29.567  1.00  0.00     0.016 A 
ATOM     12  C   UNL A   1      37.911  29.698  27.341  1.00  0.00     0.010 A 
ATOM     13  C   UNL A   1      37.504  29.091  29.638  1.00  0.00     0.010 A 
ATOM     14  C   UNL A   1      38.352  29.128  28.538  1.00  0.00    -0.014 A 
BRANCH  14  15
ATOM     15  C   UNL A   1      39.769  28.847  28.795  1.00  0.00     0.031 A 
ATOM     16  C   UNL A   1      40.379  27.520  28.493  1.00  0.00     0.074 A 
ATOM     17  C   UNL A   1      40.417  29.789  29.505  1.00  0.00     0.049 A 
ATOM     18  N   UNL A   1      41.626  27.151  28.617  1.00  0.00    -0.248 NA
ATOM     19  C   UNL A   1      39.474  26.457  28.031  1.00  0.00     0.031 C 
ATOM     20  C   UNL A   1      39.807  31.034  29.994  1.00  0.00     0.029 A 
ATOM     21  N   UNL A   1      41.696  29.842  29.973  1.00  0.00    -0.354 N 
ATOM     22  C   UNL A   1      41.670  25.826  28.204  1.00  0.00     0.074 A 
ATOM     23  C   UNL A   1      40.309  25.432  27.905  1.00  0.00     0.031 C 
ATOM     24  C   UNL A   1      40.719  31.732  30.683  1.00  0.00     0.029 A 
ATOM     25  C   UNL A   1      41.972  30.996  30.662  1.00  0.00     0.049 A 
ATOM     26  H   UNL A   1      42.356  29.125  29.831  1.00  0.00     0.167 HD
ATOM     27  C   UNL A   1      42.765  25.038  28.070  1.00  0.00     0.037 A 
ATOM     28  C   UNL A   1      43.133  31.426  31.181  1.00  0.00     0.037 A 
ATOM     29  C   UNL A   1      44.090  25.471  28.448  1.00  0.00     0.049 A 
ATOM     30  C   UNL A   1      44.341  30.574  30.951  1.00  0.00     0.074 A 
ATOM     31  C   UNL A   1      45.298  24.813  28.312  1.00  0.00     0.029 A 
ATOM     32  N   UNL A   1      44.367  26.685  29.069  1.00  0.00    -0.354 N 
ATOM     33  N   UNL A   1      44.416  29.386  30.398  1.00  0.00    -0.248 NA
ATOM     34  C   UNL A   1      45.626  31.134  31.372  1.00  0.00     0.031 C 
ATOM     35  C   UNL A   1      46.298  25.611  28.885  1.00  0.00     0.029 A 
ATOM     36  C   UNL A   1      45.722  26.790  29.335  1.00  0.00     0.049 A 
ATOM     37  H   UNL A   1      43.696  27.372  29.288  1.00  0.00     0.167 HD
ATOM     38  C   UNL A   1      45.761  29.059  30.383  1.00  0.00     0.074 A 
ATOM     39  C   UNL A   1      46.463  30.195  30.955  1.00  0.00     0.031 C 
ATOM     40  C   UNL A   1      46.369  27.928  29.942  1.00  0.00     0.037 A 
BRANCH  27  41
ATOM     41  C   UNL A   1      42.573  23.670  27.473  1.00  0.00     0.057 A 
ATOM     42  C   UNL A   1      42.623  23.457  26.090  1.00  0.00     0.134 A 
ATOM     43  C   UNL A   1      42.297  22.554  28.279  1.00  0.00     0.134 A 
ATOM     44  F   UNL A   1      42.874  24.475  25.252  1.00  0.00    -0.206 F 
ATOM     45  C   UNL A   1      42.410  22.193  25.533  1.00  0.00     0.040 A 
ATOM     46  C   UNL A   1      42.107  21.279  27.736  1.00  0.00     0.040 A 
ATOM     47  F   UNL A   1      42.231  22.678  29.613  1.00  0.00    -0.206 F 
ATOM     48  C   UNL A   1      42.159  21.098  26.357  1.00  0.00     0.006 A 
ENDBRANCH  27  41
BRANCH  28  49
ATOM     49  C   UNL A   1      43.200  32.763  31.818  1.00  0.00     0.057 A 
ATOM     50  C   UNL A   1      43.017  32.932  33.195  1.00  0.00     0.134 A 
ATOM     51  C   UNL A   1      43.376  33.916  31.045  1.00  0.00     0.134 A 
ATOM     52  F   UNL A   1      42.806  31.868  33.986  1.00  0.00    -0.206 F 
ATOM     53  C   UNL A   1      43.009  34.198  33.781  1.00  0.00     0.040 A 
ATOM     54  C   UNL A   1      43.395  35.186  31.620  1.00  0.00     0.040 A 
ATOM     55  F   UNL A   1      43.543  33.819  29.718  1.00  0.00    -0.206 F 
ATOM     56  C   UNL A   1      43.206  35.331  32.992  1.00  0.00     0.006 A 
ENDBRANCH  28  49
BRANCH  40  57
ATOM     57  C   UNL A   1      47.860  27.901  30.085  1.00  0.00     0.057 A 
ATOM     58  C   UNL A   1      48.683  28.418  29.078  1.00  0.00     0.134 A 
ATOM     59  C   UNL A   1      48.477  27.403  31.241  1.00  0.00     0.134 A 
ATOM     60  F   UNL A   1      48.152  28.904  27.946  1.00  0.00    -0.206 F 
ATOM     61  C   UNL A   1      50.068  28.461  29.225  1.00  0.00     0.040 A 
ATOM     62  C   UNL A   1      49.859  27.470  31.412  1.00  0.00     0.040 A 
ATOM     63  F   UNL A   1      47.738  26.913  32.249  1.00  0.00    -0.206 F 
ATOM     64  C   UNL A   1      50.657  27.999  30.400  1.00  0.00     0.006 A 
ENDBRANCH  40  57
ENDBRANCH  14  15
ENDBRANCH   7   9
ENDBRANCH   6   7
ENDBRANCH   5   6
ENDBRANCH   4   5
ENDBRANCH   3   4
ENDBRANCH   2   3
ENDBRANCH   1   2
BRANCH   1  65
ATOM     65  O   UNL A   1      31.238  26.984  23.290  1.00  0.00    -0.377 OA
BRANCH  65  66
ATOM     66  C   UNL A   1      32.314  27.522  22.536  1.00  0.00     0.188 C 
BRANCH  66  67
ATOM     67  C   UNL A   1      33.592  26.692  22.620  1.00  0.00     0.188 C 
BRANCH  67  68
ATOM     68  O   UNL A   1      33.540  25.446  21.945  1.00  0.00    -0.376 OA
BRANCH  68  69
ATOM     69  C   UNL A   1      33.503  24.243  22.721  1.00  0.00     0.202 C 
BRANCH  69  70
ATOM     70  C   UNL A   1      32.634  23.036  22.299  1.00  0.00     0.261 C 
BRANCH  70  71
ATOM     71  O   UNL A   1      31.671  22.574  23.297  1.00  0.00    -0.462 OA
BRANCH  71  72
ATOM     72  C   UNL A   1      32.164  22.404  24.549  1.00  0.00     0.328 C 
ATOM     73  O   UNL A   1      31.939  23.210  25.459  1.00  0.00    -0.250 OA
BRANCH  72  74
ATOM     74  C   UNL A   1      33.132  21.217  24.847  1.00  0.00     0.194 C 
ATOM     75  N   UNL A   1      34.417  21.860  25.236  1.00  0.00    -0.371 N 
ATOM     76  C   UNL A   1      33.482  20.013  23.964  1.00  0.00     0.038 C 
ATOM     77  C   UNL A   1      35.658  21.245  25.193  1.00  0.00     0.051 A 
ATOM     78  H   UNL A   1      34.384  22.793  25.547  1.00  0.00     0.161 HD
ATOM     79  C   UNL A   1      34.446  19.132  24.805  1.00  0.00     0.050 C 
ATOM     80  C   UNL A   1      32.452  18.981  23.551  1.00  0.00     0.034 C 
ATOM     81  C   UNL A   1      35.746  19.859  24.921  1.00  0.00    -0.017 A 
ATOM     82  C   UNL A   1      36.845  21.971  25.339  1.00  0.00     0.079 A 
ATOM     83  C   UNL A   1      34.378  17.800  24.129  1.00  0.00    -0.023 C 
ATOM     84  C   UNL A   1      33.230  17.701  23.457  1.00  0.00    -0.030 C 
ATOM     85  C   UNL A   1      36.981  19.207  24.849  1.00  0.00     0.006 A 
ATOM     86  C   UNL A   1      38.083  21.301  25.242  1.00  0.00     0.015 A 
ATOM     87  C   UNL A   1      38.151  19.932  25.003  1.00  0.00     0.001 A 
BRANCH  82  88
ATOM     88  C   UNL A   1      36.867  23.457  25.581  1.00  0.00     0.418 C 
ATOM     89  F   UNL A   1      38.138  23.946  25.661  1.00  0.00    -0.166 F 
ATOM     90  F   UNL A   1      36.267  24.155  24.575  1.00  0.00    -0.166 F 
ATOM     91  F   UNL A   1      36.251  23.869  26.728  1.00  0.00    -0.166 F 
ENDBRANCH  82  88
ENDBRANCH  72  74
ENDBRANCH  71  72
ENDBRANCH  70  71
ENDBRANCH  69  70
ENDBRANCH  68  69
ENDBRANCH  67  68
ENDBRANCH  66  67
ENDBRANCH  65  66
ENDBRANCH   1  65
TORSDOF 21
ENDMDL
MODEL 3
REMARK VINA RESULT:      -9.6      0.764      6.029
REMARK SMILES O=C(OCCOCCOCCOCCOC(=O)[C@@H]1Nc2c(cccc2C(F)(F)F)[C@@H]2C=CC[C@@H]12)c1ccc(-c2c3nc(c(-c4c(F)cccc4F)c4ccc([nH]4)c(-c4c(F)cccc4F)c4nc(c(-c5c(F)cccc5F)c5ccc2[nH]5)C=C4)C=C3)cc1
REMARK SMILES IDX 8 1 7 2 6 3 5 4 4 5 3 6 2 7 1 8 35 9 36 10 88 11 37 12 87 13
REMARK SMILES IDX 38 14 39 15 40 16 81 17 41 18 86 19 80 20 82 21 42 22 85 23
REMARK SMILES IDX 79 24 78 25 43 27 69 28 52 29 68 30 53 31 56 32 67 33 83 34
REMARK SMILES IDX 54 35 55 36 66 38 84 39 57 40 44 41 45 42 50 43 46 44 47 45
REMARK SMILES IDX 49 46 51 47 48 48 70 49 71 50 76 51 72 52 73 53 75 54 77 55
REMARK SMILES IDX 74 56 58 57 59 58 64 59 60 60 61 61 63 62 65 63 62 64 9 65
REMARK SMILES IDX 10 66 11 67 12 68 13 69 14 70 15 71 16 72 17 73 18 74 19 75
REMARK SMILES IDX 34 76 20 77 30 79 33 80 21 81 25 82 31 83 32 84 22 85 24 86
REMARK SMILES IDX 23 87 26 88 27 89 28 90 29 91
REMARK H PARENT 82 26 56 37 19 78
REMARK Flexibility Score: inf
ROOT
ATOM      1  C   UNL A   1      30.446  28.286  23.749  1.00  0.00     0.188 C 
ENDROOT
BRANCH   1   2
ATOM      2  C   UNL A   1      31.312  29.334  24.435  1.00  0.00     0.188 C 
BRANCH   2   3
ATOM      3  O   UNL A   1      31.387  29.004  25.817  1.00  0.00    -0.376 OA
BRANCH   3   4
ATOM      4  C   UNL A   1      32.153  27.857  26.145  1.00  0.00     0.202 C 
BRANCH   4   5
ATOM      5  C   UNL A   1      33.430  28.181  26.917  1.00  0.00     0.261 C 
BRANCH   5   6
ATOM      6  O   UNL A   1      33.894  29.522  26.694  1.00  0.00    -0.460 OA
BRANCH   6   7
ATOM      7  C   UNL A   1      34.621  30.318  27.514  1.00  0.00     0.338 C 
ATOM      8  O   UNL A   1      34.172  31.448  27.748  1.00  0.00    -0.246 OA
BRANCH   7   9
ATOM      9  C   UNL A   1      35.985  29.994  28.064  1.00  0.00     0.060 A 
ATOM     10  C   UNL A   1      36.037  29.529  29.393  1.00  0.00     0.016 A 
ATOM     11  C   UNL A   1      37.206  30.181  27.409  1.00  0.00     0.016 A 
ATOM     12  C   UNL A   1      37.257  29.281  30.032  1.00  0.00     0.010 A 
ATOM     13  C   UNL A   1      38.423  30.021  28.057  1.00  0.00     0.010 A 
ATOM     14  C   UNL A   1      38.454  29.531  29.357  1.00  0.00    -0.014 A 
BRANCH  14  15
ATOM     15  C   UNL A   1      39.743  29.010  29.828  1.00  0.00     0.031 A 
ATOM     16  C   UNL A   1      40.371  27.796  29.232  1.00  0.00     0.074 A 
ATOM     17  C   UNL A   1      40.207  29.575  30.958  1.00  0.00     0.049 A 
ATOM     18  N   UNL A   1      41.527  27.258  29.511  1.00  0.00    -0.248 NA
ATOM     19  C   UNL A   1      39.589  27.067  28.222  1.00  0.00     0.031 C 
ATOM     20  C   UNL A   1      39.527  30.650  31.694  1.00  0.00     0.029 A 
ATOM     21  N   UNL A   1      41.316  29.314  31.705  1.00  0.00    -0.354 N 
ATOM     22  C   UNL A   1      41.639  26.152  28.680  1.00  0.00     0.074 A 
ATOM     23  C   UNL A   1      40.396  26.049  27.945  1.00  0.00     0.031 C 
ATOM     24  C   UNL A   1      40.243  30.963  32.782  1.00  0.00     0.029 A 
ATOM     25  C   UNL A   1      41.433  30.129  32.802  1.00  0.00     0.049 A 
ATOM     26  H   UNL A   1      41.968  28.611  31.481  1.00  0.00     0.167 HD
ATOM     27  C   UNL A   1      42.706  25.327  28.541  1.00  0.00     0.037 A 
ATOM     28  C   UNL A   1      42.427  30.218  33.701  1.00  0.00     0.037 A 
ATOM     29  C   UNL A   1      43.895  25.445  29.353  1.00  0.00     0.049 A 
ATOM     30  C   UNL A   1      43.626  29.350  33.480  1.00  0.00     0.074 A 
ATOM     31  C   UNL A   1      45.076  24.727  29.286  1.00  0.00     0.029 A 
ATOM     32  N   UNL A   1      44.034  26.339  30.410  1.00  0.00    -0.354 N 
ATOM     33  N   UNL A   1      43.810  28.415  32.578  1.00  0.00    -0.248 NA
ATOM     34  C   UNL A   1      44.769  29.578  34.366  1.00  0.00     0.031 C 
ATOM     35  C   UNL A   1      45.910  25.161  30.324  1.00  0.00     0.029 A 
ATOM     36  C   UNL A   1      45.272  26.184  31.010  1.00  0.00     0.049 A 
ATOM     37  H   UNL A   1      43.350  26.989  30.690  1.00  0.00     0.167 HD
ATOM     38  C   UNL A   1      45.099  27.951  32.770  1.00  0.00     0.074 A 
ATOM     39  C   UNL A   1      45.658  28.737  33.856  1.00  0.00     0.031 C 
ATOM     40  C   UNL A   1      45.768  26.966  32.117  1.00  0.00     0.037 A 
BRANCH  27  41
ATOM     41  C   UNL A   1      42.639  24.270  27.472  1.00  0.00     0.057 A 
ATOM     42  C   UNL A   1      43.089  24.512  26.169  1.00  0.00     0.134 A 
ATOM     43  C   UNL A   1      42.083  23.006  27.728  1.00  0.00     0.134 A 
ATOM     44  F   UNL A   1      43.625  25.698  25.842  1.00  0.00    -0.206 F 
ATOM     45  C   UNL A   1      42.995  23.542  25.166  1.00  0.00     0.040 A 
ATOM     46  C   UNL A   1      42.006  22.019  26.742  1.00  0.00     0.040 A 
ATOM     47  F   UNL A   1      41.628  22.698  28.952  1.00  0.00    -0.206 F 
ATOM     48  C   UNL A   1      42.458  22.288  25.453  1.00  0.00     0.006 A 
ENDBRANCH  27  41
BRANCH  28  49
ATOM     49  C   UNL A   1      42.363  31.246  34.766  1.00  0.00     0.057 A 
ATOM     50  C   UNL A   1      41.823  30.968  36.026  1.00  0.00     0.134 A 
ATOM     51  C   UNL A   1      42.775  32.561  34.516  1.00  0.00     0.134 A 
ATOM     52  F   UNL A   1      41.375  29.736  36.315  1.00  0.00    -0.206 F 
ATOM     53  C   UNL A   1      41.698  31.958  37.002  1.00  0.00     0.040 A 
ATOM     54  C   UNL A   1      42.678  33.555  35.490  1.00  0.00     0.040 A 
ATOM     55  F   UNL A   1      43.287  32.892  33.322  1.00  0.00    -0.206 F 
ATOM     56  C   UNL A   1      42.133  33.256  36.737  1.00  0.00     0.006 A 
ENDBRANCH  28  49
BRANCH  40  57
ATOM     57  C   UNL A   1      47.166  26.712  32.592  1.00  0.00     0.057 A 
ATOM     58  C   UNL A   1      48.240  27.439  32.069  1.00  0.00     0.134 A 
ATOM     59  C   UNL A   1      47.439  25.779  33.601  1.00  0.00     0.134 A 
ATOM     60  F   UNL A   1      48.044  28.343  31.097  1.00  0.00    -0.206 F 
ATOM     61  C   UNL A   1      49.537  27.261  32.548  1.00  0.00     0.040 A 
ATOM     62  C   UNL A   1      48.726  25.615  34.110  1.00  0.00     0.040 A 
ATOM     63  F   UNL A   1      46.445  25.066  34.156  1.00  0.00    -0.206 F 
ATOM     64  C   UNL A   1      49.779  26.358  33.581  1.00  0.00     0.006 A 
ENDBRANCH  40  57
ENDBRANCH  14  15
ENDBRANCH   7   9
ENDBRANCH   6   7
ENDBRANCH   5   6
ENDBRANCH   4   5
ENDBRANCH   3   4
ENDBRANCH   2   3
ENDBRANCH   1   2
BRANCH   1  65
ATOM     65  O   UNL A   1      31.214  27.378  22.960  1.00  0.00    -0.377 OA
BRANCH  65  66
ATOM     66  C   UNL A   1      32.492  27.832  22.541  1.00  0.00     0.188 C 
BRANCH  66  67
ATOM     67  C   UNL A   1      33.612  26.828  22.800  1.00  0.00     0.188 C 
BRANCH  67  68
ATOM     68  O   UNL A   1      33.378  25.527  22.287  1.00  0.00    -0.376 OA
BRANCH  68  69
ATOM     69  C   UNL A   1      32.640  24.594  23.084  1.00  0.00     0.202 C 
BRANCH  69  70
ATOM     70  C   UNL A   1      32.729  23.071  22.835  1.00  0.00     0.261 C 
BRANCH  70  71
ATOM     71  O   UNL A   1      31.619  22.281  23.363  1.00  0.00    -0.462 OA
BRANCH  71  72
ATOM     72  C   UNL A   1      31.800  21.782  24.611  1.00  0.00     0.328 C 
ATOM     73  O   UNL A   1      31.160  22.199  25.585  1.00  0.00    -0.250 OA
BRANCH  72  74
ATOM     74  C   UNL A   1      32.915  20.723  24.870  1.00  0.00     0.194 C 
ATOM     75  N   UNL A   1      34.112  21.516  25.263  1.00  0.00    -0.371 N 
ATOM     76  C   UNL A   1      33.406  19.597  23.953  1.00  0.00     0.038 C 
ATOM     77  C   UNL A   1      35.420  21.067  25.194  1.00  0.00     0.051 A 
ATOM     78  H   UNL A   1      33.963  22.429  25.599  1.00  0.00     0.161 HD
ATOM     79  C   UNL A   1      34.485  18.826  24.762  1.00  0.00     0.050 C 
ATOM     80  C   UNL A   1      32.511  18.451  23.523  1.00  0.00     0.034 C 
ATOM     81  C   UNL A   1      35.682  19.711  24.885  1.00  0.00    -0.017 A 
ATOM     82  C   UNL A   1      36.507  21.936  25.347  1.00  0.00     0.079 A 
ATOM     83  C   UNL A   1      34.580  17.514  24.052  1.00  0.00    -0.023 C 
ATOM     84  C   UNL A   1      33.446  17.284  23.388  1.00  0.00    -0.030 C 
ATOM     85  C   UNL A   1      36.990  19.225  24.785  1.00  0.00     0.006 A 
ATOM     86  C   UNL A   1      37.819  21.434  25.222  1.00  0.00     0.015 A 
ATOM     87  C   UNL A   1      38.059  20.090  24.947  1.00  0.00     0.001 A 
BRANCH  82  88
ATOM     88  C   UNL A   1      36.340  23.406  25.628  1.00  0.00     0.418 C 
ATOM     89  F   UNL A   1      35.584  23.634  26.740  1.00  0.00    -0.166 F 
ATOM     90  F   UNL A   1      37.532  24.028  25.860  1.00  0.00    -0.166 F 
ATOM     91  F   UNL A   1      35.742  24.125  24.633  1.00  0.00    -0.166 F 
ENDBRANCH  82  88
ENDBRANCH  72  74
ENDBRANCH  71  72
ENDBRANCH  70  71
ENDBRANCH  69  70
ENDBRANCH  68  69
ENDBRANCH  67  68
ENDBRANCH  66  67
ENDBRANCH  65  66
ENDBRANCH   1  65
TORSDOF 21
ENDMDL
