MODEL 1
REMARK VINA RESULT:     -10.9      0.000      0.000
REMARK SMILES O=C(OCCOCCOCCOCCOC(=O)c1cc2c(c(S(=O)(=O)Nc3cc(C(F)(F)F)ccc3-n3cccn3)c1)CCC2)c1ccc(-c2c3nc(c(-c4c(F)cccc4F)c4ccc([nH]4)c(-c4c(F)cccc4F)c4nc(c(-c5c(F)cccc5F)c5ccc2[nH]5)C=C4)C=C3)cc1
REMARK SMILES IDX 10 1 9 2 8 3 7 4 6 5 5 6 4 7 3 8 2 9 1 10 46 11 47 12 99 13
REMARK SMILES IDX 48 14 98 15 49 16 50 17 51 18 92 19 52 20 97 21 91 22 93 23
REMARK SMILES IDX 53 24 96 25 90 26 89 27 54 29 80 30 63 31 79 32 64 33 67 34
REMARK SMILES IDX 78 35 94 36 65 37 66 38 77 40 95 41 68 42 55 43 56 44 61 45
REMARK SMILES IDX 57 46 58 47 60 48 62 49 59 50 81 51 82 52 87 53 83 54 84 55
REMARK SMILES IDX 86 56 88 57 85 58 69 59 70 60 75 61 71 62 72 63 74 64 76 65
REMARK SMILES IDX 73 66 11 67 12 68 13 69 14 70 15 71 16 72 17 73 18 74 19 75
REMARK SMILES IDX 42 76 20 77 22 78 21 79 45 80 43 81 44 82 23 83 24 84 25 85
REMARK SMILES IDX 26 86 27 88 28 89 36 90 29 91 35 92 34 93 37 94 38 95 41 96
REMARK SMILES IDX 39 97 40 98 30 99 31 100 32 101 33 102
REMARK H PARENT 93 28 67 39 26 87
REMARK Flexibility Score: inf
ROOT
ATOM      1  C   UNL A   1      40.161  21.583  26.459  1.00  0.00     0.188 C 
ENDROOT
BRANCH   1   2
ATOM      2  O   UNL A   1      40.006  20.184  26.502  1.00  0.00    -0.377 OA
BRANCH   2   3
ATOM      3  C   UNL A   1      41.147  19.478  26.053  1.00  0.00     0.188 C 
BRANCH   3   4
ATOM      4  C   UNL A   1      42.537  20.089  26.324  1.00  0.00     0.188 C 
BRANCH   4   5
ATOM      5  O   UNL A   1      43.676  20.104  25.474  1.00  0.00    -0.376 OA
BRANCH   5   6
ATOM      6  C   UNL A   1      44.507  21.155  25.031  1.00  0.00     0.202 C 
BRANCH   6   7
ATOM      7  C   UNL A   1      44.876  22.371  25.877  1.00  0.00     0.261 C 
BRANCH   7   8
ATOM      8  O   UNL A   1      43.792  23.026  26.512  1.00  0.00    -0.460 OA
BRANCH   8   9
ATOM      9  C   UNL A   1      42.960  23.935  25.973  1.00  0.00     0.338 C 
ATOM     10  O   UNL A   1      42.816  23.939  24.750  1.00  0.00    -0.246 OA
BRANCH   9  11
ATOM     11  C   UNL A   1      42.270  25.001  26.745  1.00  0.00     0.060 A 
ATOM     12  C   UNL A   1      41.346  25.926  26.252  1.00  0.00     0.016 A 
ATOM     13  C   UNL A   1      42.657  25.078  28.097  1.00  0.00     0.016 A 
ATOM     14  C   UNL A   1      41.024  27.037  26.995  1.00  0.00     0.010 A 
ATOM     15  C   UNL A   1      42.304  26.163  28.865  1.00  0.00     0.010 A 
ATOM     16  C   UNL A   1      41.600  27.186  28.250  1.00  0.00    -0.014 A 
BRANCH  16  17
ATOM     17  C   UNL A   1      41.480  28.484  28.871  1.00  0.00     0.031 A 
ATOM     18  C   UNL A   1      42.598  29.402  28.554  1.00  0.00     0.074 A 
ATOM     19  C   UNL A   1      40.409  28.736  29.648  1.00  0.00     0.049 A 
ATOM     20  N   UNL A   1      43.441  29.939  29.373  1.00  0.00    -0.248 NA
ATOM     21  C   UNL A   1      42.934  29.598  27.134  1.00  0.00     0.031 C 
ATOM     22  C   UNL A   1      39.210  27.910  29.839  1.00  0.00     0.029 A 
ATOM     23  N   UNL A   1      40.119  29.855  30.361  1.00  0.00    -0.354 N 
ATOM     24  C   UNL A   1      44.277  30.726  28.584  1.00  0.00     0.074 A 
ATOM     25  C   UNL A   1      44.039  30.337  27.222  1.00  0.00     0.031 C 
ATOM     26  C   UNL A   1      38.230  28.659  30.389  1.00  0.00     0.029 A 
ATOM     27  C   UNL A   1      38.778  29.956  30.722  1.00  0.00     0.049 A 
ATOM     28  H   UNL A   1      40.794  30.531  30.599  1.00  0.00     0.167 HD
ATOM     29  C   UNL A   1      44.879  31.828  29.106  1.00  0.00     0.037 A 
ATOM     30  C   UNL A   1      38.175  31.091  31.154  1.00  0.00     0.037 A 
ATOM     31  C   UNL A   1      45.013  31.708  30.537  1.00  0.00     0.049 A 
ATOM     32  C   UNL A   1      39.255  31.998  31.632  1.00  0.00     0.074 A 
ATOM     33  C   UNL A   1      45.670  30.829  31.377  1.00  0.00     0.029 A 
ATOM     34  N   UNL A   1      44.099  32.363  31.327  1.00  0.00    -0.354 N 
ATOM     35  N   UNL A   1      39.987  31.747  32.684  1.00  0.00    -0.248 NA
ATOM     36  C   UNL A   1      39.854  32.897  30.654  1.00  0.00     0.031 C 
ATOM     37  C   UNL A   1      44.795  30.655  32.489  1.00  0.00     0.029 A 
ATOM     38  C   UNL A   1      43.692  31.491  32.303  1.00  0.00     0.049 A 
ATOM     39  H   UNL A   1      43.790  33.291  31.212  1.00  0.00     0.167 HD
ATOM     40  C   UNL A   1      41.277  32.097  32.312  1.00  0.00     0.074 A 
ATOM     41  C   UNL A   1      41.124  32.850  31.068  1.00  0.00     0.031 C 
ATOM     42  C   UNL A   1      42.367  31.497  32.876  1.00  0.00     0.037 A 
BRANCH  29  43
ATOM     43  C   UNL A   1      44.897  33.165  28.395  1.00  0.00     0.057 A 
ATOM     44  C   UNL A   1      43.672  33.812  28.148  1.00  0.00     0.134 A 
ATOM     45  C   UNL A   1      45.994  33.673  27.666  1.00  0.00     0.134 A 
ATOM     46  F   UNL A   1      42.555  33.442  28.791  1.00  0.00    -0.206 F 
ATOM     47  C   UNL A   1      43.528  34.793  27.159  1.00  0.00     0.040 A 
ATOM     48  C   UNL A   1      45.867  34.681  26.707  1.00  0.00     0.040 A 
ATOM     49  F   UNL A   1      47.230  33.174  27.763  1.00  0.00    -0.206 F 
ATOM     50  C   UNL A   1      44.625  35.215  26.420  1.00  0.00     0.006 A 
ENDBRANCH  29  43
BRANCH  30  51
ATOM     51  C   UNL A   1      36.821  31.567  30.793  1.00  0.00     0.057 A 
ATOM     52  C   UNL A   1      35.910  31.978  31.775  1.00  0.00     0.134 A 
ATOM     53  C   UNL A   1      36.476  31.879  29.464  1.00  0.00     0.134 A 
ATOM     54  F   UNL A   1      36.173  31.770  33.073  1.00  0.00    -0.206 F 
ATOM     55  C   UNL A   1      34.732  32.669  31.455  1.00  0.00     0.040 A 
ATOM     56  C   UNL A   1      35.302  32.561  29.131  1.00  0.00     0.040 A 
ATOM     57  F   UNL A   1      37.310  31.611  28.449  1.00  0.00    -0.206 F 
ATOM     58  C   UNL A   1      34.429  32.969  30.129  1.00  0.00     0.006 A 
ENDBRANCH  30  51
BRANCH  42  59
ATOM     59  C   UNL A   1      42.138  30.587  34.052  1.00  0.00     0.057 A 
ATOM     60  C   UNL A   1      41.783  29.233  33.938  1.00  0.00     0.134 A 
ATOM     61  C   UNL A   1      42.452  31.050  35.333  1.00  0.00     0.134 A 
ATOM     62  F   UNL A   1      41.567  28.673  32.741  1.00  0.00    -0.206 F 
ATOM     63  C   UNL A   1      41.703  28.393  35.054  1.00  0.00     0.040 A 
ATOM     64  C   UNL A   1      42.408  30.215  36.452  1.00  0.00     0.040 A 
ATOM     65  F   UNL A   1      42.860  32.317  35.510  1.00  0.00    -0.206 F 
ATOM     66  C   UNL A   1      42.023  28.884  36.316  1.00  0.00     0.006 A 
ENDBRANCH  42  59
ENDBRANCH  16  17
ENDBRANCH   9  11
ENDBRANCH   8   9
ENDBRANCH   7   8
ENDBRANCH   6   7
ENDBRANCH   5   6
ENDBRANCH   4   5
ENDBRANCH   3   4
ENDBRANCH   2   3
ENDBRANCH   1   2
BRANCH   1  67
ATOM     67  C   UNL A   1      38.859  22.324  26.088  1.00  0.00     0.188 C 
BRANCH  67  68
ATOM     68  O   UNL A   1      37.781  21.641  25.470  1.00  0.00    -0.376 OA
BRANCH  68  69
ATOM     69  C   UNL A   1      37.081  22.200  24.370  1.00  0.00     0.202 C 
BRANCH  69  70
ATOM     70  C   UNL A   1      35.650  22.756  24.479  1.00  0.00     0.261 C 
BRANCH  70  71
ATOM     71  O   UNL A   1      35.480  24.020  25.124  1.00  0.00    -0.460 OA
BRANCH  71  72
ATOM     72  C   UNL A   1      34.447  24.125  26.002  1.00  0.00     0.338 C 
ATOM     73  O   UNL A   1      34.154  23.370  26.898  1.00  0.00    -0.246 OA
BRANCH  72  74
ATOM     74  C   UNL A   1      33.802  25.439  25.765  1.00  0.00     0.061 A 
ATOM     75  C   UNL A   1      33.103  26.015  26.816  1.00  0.00     0.019 A 
ATOM     76  C   UNL A   1      33.877  26.074  24.496  1.00  0.00     0.038 A 
ATOM     77  C   UNL A   1      32.535  27.247  26.589  1.00  0.00    -0.043 A 
ATOM     78  C   UNL A   1      33.224  27.300  24.252  1.00  0.00     0.092 A 
ATOM     79  C   UNL A   1      32.540  27.867  25.317  1.00  0.00    -0.024 A 
ATOM     80  C   UNL A   1      31.911  28.134  27.624  1.00  0.00     0.036 C 
ATOM     81  C   UNL A   1      31.755  29.135  25.438  1.00  0.00     0.037 C 
ATOM     82  C   UNL A   1      32.067  29.472  26.901  1.00  0.00     0.010 C 
BRANCH  78  83
ATOM     83  S   UNL A   1      33.122  27.910  22.576  1.00  0.00     0.262 S 
ATOM     84  O   UNL A   1      33.285  29.351  22.638  1.00  0.00    -0.201 OA
ATOM     85  O   UNL A   1      34.057  27.134  21.787  1.00  0.00    -0.201 OA
BRANCH  83  86
ATOM     86  N   UNL A   1      31.598  27.681  21.828  1.00  0.00    -0.277 N 
ATOM     87  H   UNL A   1      31.557  27.183  20.981  1.00  0.00     0.180 HD
BRANCH  86  88
ATOM     88  C   UNL A   1      30.378  28.188  22.392  1.00  0.00     0.075 A 
ATOM     89  C   UNL A   1      29.984  29.501  22.069  1.00  0.00     0.042 A 
ATOM     90  C   UNL A   1      29.516  27.383  23.151  1.00  0.00     0.089 A 
ATOM     91  C   UNL A   1      28.698  29.976  22.404  1.00  0.00     0.058 A 
ATOM     92  C   UNL A   1      28.245  27.858  23.507  1.00  0.00     0.031 A 
ATOM     93  C   UNL A   1      27.841  29.144  23.138  1.00  0.00     0.015 A 
BRANCH  90  94
ATOM     94  N   UNL A   1      29.876  26.067  23.530  1.00  0.00    -0.239 N 
ATOM     95  C   UNL A   1      29.858  25.510  24.788  1.00  0.00     0.115 A 
ATOM     96  N   UNL A   1      30.431  25.223  22.624  1.00  0.00    -0.177 NA
ATOM     97  C   UNL A   1      30.599  24.358  24.724  1.00  0.00     0.042 A 
ATOM     98  C   UNL A   1      30.953  24.246  23.371  1.00  0.00     0.135 A 
ENDBRANCH  90  94
BRANCH  91  99
ATOM     99  C   UNL A   1      28.221  31.321  21.901  1.00  0.00     0.416 C 
ATOM    100  F   UNL A   1      27.514  31.229  20.744  1.00  0.00    -0.166 F 
ATOM    101  F   UNL A   1      27.404  31.943  22.796  1.00  0.00    -0.166 F 
ATOM    102  F   UNL A   1      29.234  32.199  21.658  1.00  0.00    -0.166 F 
ENDBRANCH  91  99
ENDBRANCH  86  88
ENDBRANCH  83  86
ENDBRANCH  78  83
ENDBRANCH  72  74
ENDBRANCH  71  72
ENDBRANCH  70  71
ENDBRANCH  69  70
ENDBRANCH  68  69
ENDBRANCH  67  68
ENDBRANCH   1  67
TORSDOF 25
ENDMDL
MODEL 2
REMARK VINA RESULT:     -10.6      1.704      5.466
REMARK SMILES O=C(OCCOCCOCCOCCOC(=O)c1cc2c(c(S(=O)(=O)Nc3cc(C(F)(F)F)ccc3-n3cccn3)c1)CCC2)c1ccc(-c2c3nc(c(-c4c(F)cccc4F)c4ccc([nH]4)c(-c4c(F)cccc4F)c4nc(c(-c5c(F)cccc5F)c5ccc2[nH]5)C=C4)C=C3)cc1
REMARK SMILES IDX 10 1 9 2 8 3 7 4 6 5 5 6 4 7 3 8 2 9 1 10 46 11 47 12 99 13
REMARK SMILES IDX 48 14 98 15 49 16 50 17 51 18 92 19 52 20 97 21 91 22 93 23
REMARK SMILES IDX 53 24 96 25 90 26 89 27 54 29 80 30 63 31 79 32 64 33 67 34
REMARK SMILES IDX 78 35 94 36 65 37 66 38 77 40 95 41 68 42 55 43 56 44 61 45
REMARK SMILES IDX 57 46 58 47 60 48 62 49 59 50 81 51 82 52 87 53 83 54 84 55
REMARK SMILES IDX 86 56 88 57 85 58 69 59 70 60 75 61 71 62 72 63 74 64 76 65
REMARK SMILES IDX 73 66 11 67 12 68 13 69 14 70 15 71 16 72 17 73 18 74 19 75
REMARK SMILES IDX 42 76 20 77 22 78 21 79 45 80 43 81 44 82 23 83 24 84 25 85
REMARK SMILES IDX 26 86 27 88 28 89 36 90 29 91 35 92 34 93 37 94 38 95 41 96
REMARK SMILES IDX 39 97 40 98 30 99 31 100 32 101 33 102
REMARK H PARENT 93 28 67 39 26 87
REMARK Flexibility Score: inf
ROOT
ATOM      1  C   UNL A   1      39.820  22.034  26.575  1.00  0.00     0.188 C 
ENDROOT
BRANCH   1   2
ATOM      2  O   UNL A   1      40.306  20.771  26.188  1.00  0.00    -0.377 OA
BRANCH   2   3
ATOM      3  C   UNL A   1      41.710  20.648  26.303  1.00  0.00     0.188 C 
BRANCH   3   4
ATOM      4  C   UNL A   1      42.446  21.584  27.285  1.00  0.00     0.188 C 
BRANCH   4   5
ATOM      5  O   UNL A   1      43.741  22.155  27.158  1.00  0.00    -0.376 OA
BRANCH   5   6
ATOM      6  C   UNL A   1      44.192  23.334  26.526  1.00  0.00     0.202 C 
BRANCH   6   7
ATOM      7  C   UNL A   1      43.277  24.331  25.819  1.00  0.00     0.261 C 
BRANCH   7   8
ATOM      8  O   UNL A   1      42.159  24.772  26.569  1.00  0.00    -0.460 OA
BRANCH   8   9
ATOM      9  C   UNL A   1      41.200  25.630  26.175  1.00  0.00     0.338 C 
ATOM     10  O   UNL A   1      40.837  25.597  25.000  1.00  0.00    -0.246 OA
BRANCH   9  11
ATOM     11  C   UNL A   1      40.613  26.685  27.042  1.00  0.00     0.060 A 
ATOM     12  C   UNL A   1      40.439  28.033  26.718  1.00  0.00     0.016 A 
ATOM     13  C   UNL A   1      40.253  26.241  28.330  1.00  0.00     0.016 A 
ATOM     14  C   UNL A   1      40.173  28.948  27.709  1.00  0.00     0.010 A 
ATOM     15  C   UNL A   1      39.941  27.145  29.319  1.00  0.00     0.010 A 
ATOM     16  C   UNL A   1      40.037  28.493  29.013  1.00  0.00    -0.014 A 
BRANCH  16  17
ATOM     17  C   UNL A   1      40.055  29.492  30.056  1.00  0.00     0.031 A 
ATOM     18  C   UNL A   1      38.819  30.304  30.124  1.00  0.00     0.074 A 
ATOM     19  C   UNL A   1      41.145  29.594  30.841  1.00  0.00     0.049 A 
ATOM     20  N   UNL A   1      38.697  31.581  29.963  1.00  0.00    -0.248 NA
ATOM     21  C   UNL A   1      37.536  29.583  30.197  1.00  0.00     0.031 C 
ATOM     22  C   UNL A   1      42.305  28.695  30.904  1.00  0.00     0.029 A 
ATOM     23  N   UNL A   1      41.397  30.481  31.837  1.00  0.00    -0.354 N 
ATOM     24  C   UNL A   1      37.341  31.851  30.142  1.00  0.00     0.074 A 
ATOM     25  C   UNL A   1      36.663  30.585  30.098  1.00  0.00     0.031 C 
ATOM     26  C   UNL A   1      42.991  28.926  32.044  1.00  0.00     0.029 A 
ATOM     27  C   UNL A   1      42.409  30.075  32.704  1.00  0.00     0.049 A 
ATOM     28  H   UNL A   1      40.909  31.330  31.938  1.00  0.00     0.167 HD
ATOM     29  C   UNL A   1      36.936  33.066  30.598  1.00  0.00     0.037 A 
ATOM     30  C   UNL A   1      42.641  30.609  33.928  1.00  0.00     0.037 A 
ATOM     31  C   UNL A   1      37.919  34.078  30.299  1.00  0.00     0.049 A 
ATOM     32  C   UNL A   1      41.996  31.950  33.943  1.00  0.00     0.074 A 
ATOM     33  C   UNL A   1      38.461  34.586  29.133  1.00  0.00     0.029 A 
ATOM     34  N   UNL A   1      38.772  34.465  31.303  1.00  0.00    -0.354 N 
ATOM     35  N   UNL A   1      42.405  32.950  33.208  1.00  0.00    -0.248 NA
ATOM     36  C   UNL A   1      40.604  32.018  34.371  1.00  0.00     0.031 C 
ATOM     37  C   UNL A   1      39.835  34.817  29.433  1.00  0.00     0.029 A 
ATOM     38  C   UNL A   1      40.037  34.511  30.781  1.00  0.00     0.049 A 
ATOM     39  H   UNL A   1      38.519  34.672  32.233  1.00  0.00     0.167 HD
ATOM     40  C   UNL A   1      41.243  33.539  32.730  1.00  0.00     0.074 A 
ATOM     41  C   UNL A   1      40.164  32.954  33.524  1.00  0.00     0.031 C 
ATOM     42  C   UNL A   1      41.227  34.217  31.544  1.00  0.00     0.037 A 
BRANCH  29  43
ATOM     43  C   UNL A   1      35.911  33.226  31.701  1.00  0.00     0.057 A 
ATOM     44  C   UNL A   1      34.892  34.183  31.539  1.00  0.00     0.134 A 
ATOM     45  C   UNL A   1      36.063  32.738  33.016  1.00  0.00     0.134 A 
ATOM     46  F   UNL A   1      34.628  34.711  30.334  1.00  0.00    -0.206 F 
ATOM     47  C   UNL A   1      34.177  34.708  32.622  1.00  0.00     0.040 A 
ATOM     48  C   UNL A   1      35.325  33.226  34.098  1.00  0.00     0.040 A 
ATOM     49  F   UNL A   1      36.987  31.836  33.360  1.00  0.00    -0.206 F 
ATOM     50  C   UNL A   1      34.408  34.245  33.910  1.00  0.00     0.006 A 
ENDBRANCH  29  43
BRANCH  30  51
ATOM     51  C   UNL A   1      43.006  29.874  35.161  1.00  0.00     0.057 A 
ATOM     52  C   UNL A   1      42.245  28.787  35.610  1.00  0.00     0.134 A 
ATOM     53  C   UNL A   1      44.255  30.051  35.784  1.00  0.00     0.134 A 
ATOM     54  F   UNL A   1      41.062  28.507  35.044  1.00  0.00    -0.206 F 
ATOM     55  C   UNL A   1      42.704  27.920  36.612  1.00  0.00     0.040 A 
ATOM     56  C   UNL A   1      44.723  29.198  36.790  1.00  0.00     0.040 A 
ATOM     57  F   UNL A   1      45.105  31.005  35.379  1.00  0.00    -0.206 F 
ATOM     58  C   UNL A   1      43.952  28.120  37.199  1.00  0.00     0.006 A 
ENDBRANCH  30  51
BRANCH  42  59
ATOM     59  C   UNL A   1      42.544  34.477  30.865  1.00  0.00     0.057 A 
ATOM     60  C   UNL A   1      43.408  35.531  31.204  1.00  0.00     0.134 A 
ATOM     61  C   UNL A   1      43.029  33.533  29.954  1.00  0.00     0.134 A 
ATOM     62  F   UNL A   1      43.073  36.423  32.144  1.00  0.00    -0.206 F 
ATOM     63  C   UNL A   1      44.678  35.660  30.632  1.00  0.00     0.040 A 
ATOM     64  C   UNL A   1      44.307  33.633  29.399  1.00  0.00     0.040 A 
ATOM     65  F   UNL A   1      42.284  32.466  29.629  1.00  0.00    -0.206 F 
ATOM     66  C   UNL A   1      45.132  34.704  29.729  1.00  0.00     0.006 A 
ENDBRANCH  42  59
ENDBRANCH  16  17
ENDBRANCH   9  11
ENDBRANCH   8   9
ENDBRANCH   7   8
ENDBRANCH   6   7
ENDBRANCH   5   6
ENDBRANCH   4   5
ENDBRANCH   3   4
ENDBRANCH   2   3
ENDBRANCH   1   2
BRANCH   1  67
ATOM     67  C   UNL A   1      38.365  22.287  26.129  1.00  0.00     0.188 C 
BRANCH  67  68
ATOM     68  O   UNL A   1      37.717  21.408  25.224  1.00  0.00    -0.376 OA
BRANCH  68  69
ATOM     69  C   UNL A   1      36.880  21.895  24.188  1.00  0.00     0.202 C 
BRANCH  69  70
ATOM     70  C   UNL A   1      35.442  22.390  24.429  1.00  0.00     0.261 C 
BRANCH  70  71
ATOM     71  O   UNL A   1      35.278  23.718  24.933  1.00  0.00    -0.460 OA
BRANCH  71  72
ATOM     72  C   UNL A   1      34.309  23.901  25.870  1.00  0.00     0.338 C 
ATOM     73  O   UNL A   1      34.003  23.164  26.776  1.00  0.00    -0.246 OA
BRANCH  72  74
ATOM     74  C   UNL A   1      33.768  25.269  25.678  1.00  0.00     0.061 A 
ATOM     75  C   UNL A   1      33.105  25.857  26.746  1.00  0.00     0.019 A 
ATOM     76  C   UNL A   1      33.901  25.942  24.434  1.00  0.00     0.038 A 
ATOM     77  C   UNL A   1      32.635  27.136  26.562  1.00  0.00    -0.043 A 
ATOM     78  C   UNL A   1      33.345  27.223  24.232  1.00  0.00     0.092 A 
ATOM     79  C   UNL A   1      32.697  27.800  25.313  1.00  0.00    -0.024 A 
ATOM     80  C   UNL A   1      32.072  28.030  27.626  1.00  0.00     0.036 C 
ATOM     81  C   UNL A   1      32.010  29.119  25.478  1.00  0.00     0.037 C 
ATOM     82  C   UNL A   1      32.334  29.377  26.954  1.00  0.00     0.010 C 
BRANCH  78  83
ATOM     83  S   UNL A   1      33.304  27.899  22.579  1.00  0.00     0.262 S 
ATOM     84  O   UNL A   1      33.474  29.335  22.705  1.00  0.00    -0.201 OA
ATOM     85  O   UNL A   1      34.260  27.148  21.792  1.00  0.00    -0.201 OA
BRANCH  83  86
ATOM     86  N   UNL A   1      31.805  27.712  21.772  1.00  0.00    -0.277 N 
ATOM     87  H   UNL A   1      31.796  27.296  20.881  1.00  0.00     0.180 HD
BRANCH  86  88
ATOM     88  C   UNL A   1      30.560  28.139  22.348  1.00  0.00     0.075 A 
ATOM     89  C   UNL A   1      30.061  29.410  22.004  1.00  0.00     0.042 A 
ATOM     90  C   UNL A   1      29.775  27.289  23.142  1.00  0.00     0.089 A 
ATOM     91  C   UNL A   1      28.749  29.794  22.353  1.00  0.00     0.058 A 
ATOM     92  C   UNL A   1      28.478  27.674  23.511  1.00  0.00     0.031 A 
ATOM     93  C   UNL A   1      27.971  28.917  23.122  1.00  0.00     0.015 A 
BRANCH  90  94
ATOM     94  N   UNL A   1      30.241  26.014  23.543  1.00  0.00    -0.239 N 
ATOM     95  C   UNL A   1      30.743  25.005  22.753  1.00  0.00     0.115 A 
ATOM     96  N   UNL A   1      30.099  25.608  24.830  1.00  0.00    -0.177 NA
ATOM     97  C   UNL A   1      30.739  23.863  23.513  1.00  0.00     0.042 A 
ATOM     98  C   UNL A   1      30.302  24.289  24.777  1.00  0.00     0.135 A 
ENDBRANCH  90  94
BRANCH  91  99
ATOM     99  C   UNL A   1      28.163  31.086  21.830  1.00  0.00     0.416 C 
ATOM    100  F   UNL A   1      27.655  30.964  20.575  1.00  0.00    -0.166 F 
ATOM    101  F   UNL A   1      27.140  31.539  22.609  1.00  0.00    -0.166 F 
ATOM    102  F   UNL A   1      29.063  32.108  21.777  1.00  0.00    -0.166 F 
ENDBRANCH  91  99
ENDBRANCH  86  88
ENDBRANCH  83  86
ENDBRANCH  78  83
ENDBRANCH  72  74
ENDBRANCH  71  72
ENDBRANCH  70  71
ENDBRANCH  69  70
ENDBRANCH  68  69
ENDBRANCH  67  68
ENDBRANCH   1  67
TORSDOF 25
ENDMDL
MODEL 3
REMARK VINA RESULT:      -9.7      3.309      6.563
REMARK SMILES O=C(OCCOCCOCCOCCOC(=O)c1cc2c(c(S(=O)(=O)Nc3cc(C(F)(F)F)ccc3-n3cccn3)c1)CCC2)c1ccc(-c2c3nc(c(-c4c(F)cccc4F)c4ccc([nH]4)c(-c4c(F)cccc4F)c4nc(c(-c5c(F)cccc5F)c5ccc2[nH]5)C=C4)C=C3)cc1
REMARK SMILES IDX 10 1 9 2 8 3 7 4 6 5 5 6 4 7 3 8 2 9 1 10 46 11 47 12 99 13
REMARK SMILES IDX 48 14 98 15 49 16 50 17 51 18 92 19 52 20 97 21 91 22 93 23
REMARK SMILES IDX 53 24 96 25 90 26 89 27 54 29 80 30 63 31 79 32 64 33 67 34
REMARK SMILES IDX 78 35 94 36 65 37 66 38 77 40 95 41 68 42 55 43 56 44 61 45
REMARK SMILES IDX 57 46 58 47 60 48 62 49 59 50 81 51 82 52 87 53 83 54 84 55
REMARK SMILES IDX 86 56 88 57 85 58 69 59 70 60 75 61 71 62 72 63 74 64 76 65
REMARK SMILES IDX 73 66 11 67 12 68 13 69 14 70 15 71 16 72 17 73 18 74 19 75
REMARK SMILES IDX 42 76 20 77 22 78 21 79 45 80 43 81 44 82 23 83 24 84 25 85
REMARK SMILES IDX 26 86 27 88 28 89 36 90 29 91 35 92 34 93 37 94 38 95 41 96
REMARK SMILES IDX 39 97 40 98 30 99 31 100 32 101 33 102
REMARK H PARENT 93 28 67 39 26 87
REMARK Flexibility Score: inf
ROOT
ATOM      1  C   UNL A   1      40.412  21.949  26.613  1.00  0.00     0.188 C 
ENDROOT
BRANCH   1   2
ATOM      2  O   UNL A   1      41.052  20.786  26.142  1.00  0.00    -0.377 OA
BRANCH   2   3
ATOM      3  C   UNL A   1      42.464  20.871  26.167  1.00  0.00     0.188 C 
BRANCH   3   4
ATOM      4  C   UNL A   1      43.115  21.928  27.084  1.00  0.00     0.188 C 
BRANCH   4   5
ATOM      5  O   UNL A   1      44.466  22.367  27.104  1.00  0.00    -0.376 OA
BRANCH   5   6
ATOM      6  C   UNL A   1      45.122  23.429  26.446  1.00  0.00     0.202 C 
BRANCH   6   7
ATOM      7  C   UNL A   1      44.407  24.499  25.624  1.00  0.00     0.261 C 
BRANCH   7   8
ATOM      8  O   UNL A   1      43.247  25.054  26.221  1.00  0.00    -0.460 OA
BRANCH   8   9
ATOM      9  C   UNL A   1      42.474  26.043  25.735  1.00  0.00     0.338 C 
ATOM     10  O   UNL A   1      42.382  26.163  24.513  1.00  0.00    -0.246 OA
BRANCH   9  11
ATOM     11  C   UNL A   1      41.795  27.064  26.575  1.00  0.00     0.060 A 
ATOM     12  C   UNL A   1      41.920  28.451  26.468  1.00  0.00     0.016 A 
ATOM     13  C   UNL A   1      40.992  26.528  27.600  1.00  0.00     0.016 A 
ATOM     14  C   UNL A   1      41.485  29.260  27.491  1.00  0.00     0.010 A 
ATOM     15  C   UNL A   1      40.512  27.334  28.606  1.00  0.00     0.010 A 
ATOM     16  C   UNL A   1      40.884  28.668  28.595  1.00  0.00    -0.014 A 
BRANCH  16  17
ATOM     17  C   UNL A   1      40.711  29.498  29.763  1.00  0.00     0.031 A 
ATOM     18  C   UNL A   1      39.456  30.286  29.754  1.00  0.00     0.074 A 
ATOM     19  C   UNL A   1      41.661  29.485  30.718  1.00  0.00     0.049 A 
ATOM     20  N   UNL A   1      39.326  31.572  29.767  1.00  0.00    -0.248 NA
ATOM     21  C   UNL A   1      38.199  29.558  29.513  1.00  0.00     0.031 C 
ATOM     22  C   UNL A   1      42.821  28.591  30.831  1.00  0.00     0.029 A 
ATOM     23  N   UNL A   1      41.728  30.211  31.863  1.00  0.00    -0.354 N 
ATOM     24  C   UNL A   1      37.952  31.807  29.766  1.00  0.00     0.074 A 
ATOM     25  C   UNL A   1      37.325  30.560  29.427  1.00  0.00     0.031 C 
ATOM     26  C   UNL A   1      43.313  28.649  32.087  1.00  0.00     0.029 A 
ATOM     27  C   UNL A   1      42.603  29.683  32.809  1.00  0.00     0.049 A 
ATOM     28  H   UNL A   1      41.208  31.034  32.010  1.00  0.00     0.167 HD
ATOM     29  C   UNL A   1      37.447  32.938  30.327  1.00  0.00     0.037 A 
ATOM     30  C   UNL A   1      42.625  30.027  34.121  1.00  0.00     0.037 A 
ATOM     31  C   UNL A   1      38.436  33.987  30.342  1.00  0.00     0.049 A 
ATOM     32  C   UNL A   1      41.949  31.348  34.232  1.00  0.00     0.074 A 
ATOM     33  C   UNL A   1      39.140  34.667  29.366  1.00  0.00     0.029 A 
ATOM     34  N   UNL A   1      39.110  34.221  31.516  1.00  0.00    -0.354 N 
ATOM     35  N   UNL A   1      42.441  32.449  33.728  1.00  0.00    -0.248 NA
ATOM     36  C   UNL A   1      40.506  31.345  34.438  1.00  0.00     0.031 C 
ATOM     37  C   UNL A   1      40.443  34.855  29.912  1.00  0.00     0.029 A 
ATOM     38  C   UNL A   1      40.440  34.351  31.214  1.00  0.00     0.049 A 
ATOM     39  H   UNL A   1      38.709  34.284  32.414  1.00  0.00     0.167 HD
ATOM     40  C   UNL A   1      41.352  33.099  33.164  1.00  0.00     0.074 A 
ATOM     41  C   UNL A   1      40.178  32.397  33.680  1.00  0.00     0.031 C 
ATOM     42  C   UNL A   1      41.503  33.949  32.105  1.00  0.00     0.037 A 
BRANCH  29  43
ATOM     43  C   UNL A   1      36.258  32.925  31.265  1.00  0.00     0.057 A 
ATOM     44  C   UNL A   1      35.177  33.783  30.990  1.00  0.00     0.134 A 
ATOM     45  C   UNL A   1      36.264  32.375  32.564  1.00  0.00     0.134 A 
ATOM     46  F   UNL A   1      35.039  34.355  29.785  1.00  0.00    -0.206 F 
ATOM     47  C   UNL A   1      34.255  34.166  31.972  1.00  0.00     0.040 A 
ATOM     48  C   UNL A   1      35.324  32.719  33.539  1.00  0.00     0.040 A 
ATOM     49  F   UNL A   1      37.220  31.551  33.005  1.00  0.00    -0.206 F 
ATOM     50  C   UNL A   1      34.340  33.649  33.258  1.00  0.00     0.006 A 
ENDBRANCH  29  43
BRANCH  30  51
ATOM     51  C   UNL A   1      42.812  29.115  35.272  1.00  0.00     0.057 A 
ATOM     52  C   UNL A   1      42.106  27.909  35.366  1.00  0.00     0.134 A 
ATOM     53  C   UNL A   1      43.879  29.276  36.176  1.00  0.00     0.134 A 
ATOM     54  F   UNL A   1      41.105  27.642  34.516  1.00  0.00    -0.206 F 
ATOM     55  C   UNL A   1      42.448  26.916  36.296  1.00  0.00     0.040 A 
ATOM     56  C   UNL A   1      44.226  28.298  37.114  1.00  0.00     0.040 A 
ATOM     57  F   UNL A   1      44.678  30.352  36.124  1.00  0.00    -0.206 F 
ATOM     58  C   UNL A   1      43.517  27.107  37.168  1.00  0.00     0.006 A 
ENDBRANCH  30  51
BRANCH  42  59
ATOM     59  C   UNL A   1      42.902  34.313  31.690  1.00  0.00     0.057 A 
ATOM     60  C   UNL A   1      43.666  33.577  30.769  1.00  0.00     0.134 A 
ATOM     61  C   UNL A   1      43.430  35.539  32.108  1.00  0.00     0.134 A 
ATOM     62  F   UNL A   1      43.196  32.444  30.233  1.00  0.00    -0.206 F 
ATOM     63  C   UNL A   1      44.913  34.022  30.319  1.00  0.00     0.040 A 
ATOM     64  C   UNL A   1      44.660  36.011  31.642  1.00  0.00     0.040 A 
ATOM     65  F   UNL A   1      42.729  36.326  32.939  1.00  0.00    -0.206 F 
ATOM     66  C   UNL A   1      45.410  35.247  30.752  1.00  0.00     0.006 A 
ENDBRANCH  42  59
ENDBRANCH  16  17
ENDBRANCH   9  11
ENDBRANCH   8   9
ENDBRANCH   7   8
ENDBRANCH   6   7
ENDBRANCH   5   6
ENDBRANCH   4   5
ENDBRANCH   3   4
ENDBRANCH   2   3
ENDBRANCH   1   2
BRANCH   1  67
ATOM     67  C   UNL A   1      38.904  21.982  26.293  1.00  0.00     0.188 C 
BRANCH  67  68
ATOM     68  O   UNL A   1      38.328  21.047  25.395  1.00  0.00    -0.376 OA
BRANCH  68  69
ATOM     69  C   UNL A   1      37.488  21.461  24.330  1.00  0.00     0.202 C 
BRANCH  69  70
ATOM     70  C   UNL A   1      36.043  21.950  24.538  1.00  0.00     0.261 C 
BRANCH  70  71
ATOM     71  O   UNL A   1      35.776  23.335  24.308  1.00  0.00    -0.460 OA
BRANCH  71  72
ATOM     72  C   UNL A   1      36.041  24.188  25.334  1.00  0.00     0.338 C 
ATOM     73  O   UNL A   1      37.110  24.432  25.839  1.00  0.00    -0.246 OA
BRANCH  72  74
ATOM     74  C   UNL A   1      34.781  24.905  25.645  1.00  0.00     0.061 A 
ATOM     75  C   UNL A   1      34.836  26.286  25.772  1.00  0.00     0.019 A 
ATOM     76  C   UNL A   1      33.563  24.198  25.832  1.00  0.00     0.038 A 
ATOM     77  C   UNL A   1      33.653  26.938  26.032  1.00  0.00    -0.043 A 
ATOM     78  C   UNL A   1      32.371  24.870  26.177  1.00  0.00     0.092 A 
ATOM     79  C   UNL A   1      32.443  26.251  26.288  1.00  0.00    -0.024 A 
ATOM     80  C   UNL A   1      33.443  28.422  26.012  1.00  0.00     0.036 C 
ATOM     81  C   UNL A   1      31.409  27.280  26.617  1.00  0.00     0.037 C 
ATOM     82  C   UNL A   1      31.936  28.435  25.756  1.00  0.00     0.010 C 
BRANCH  78  83
ATOM     83  S   UNL A   1      30.945  23.912  26.666  1.00  0.00     0.262 S 
ATOM     84  O   UNL A   1      31.342  23.118  27.815  1.00  0.00    -0.201 OA
ATOM     85  O   UNL A   1      29.841  24.839  26.804  1.00  0.00    -0.201 OA
BRANCH  83  86
ATOM     86  N   UNL A   1      30.430  22.761  25.507  1.00  0.00    -0.277 N 
ATOM     87  H   UNL A   1      29.478  22.517  25.474  1.00  0.00     0.180 HD
BRANCH  86  88
ATOM     88  C   UNL A   1      31.336  22.141  24.580  1.00  0.00     0.075 A 
ATOM     89  C   UNL A   1      31.785  20.834  24.853  1.00  0.00     0.042 A 
ATOM     90  C   UNL A   1      31.689  22.745  23.364  1.00  0.00     0.089 A 
ATOM     91  C   UNL A   1      32.490  20.091  23.882  1.00  0.00     0.058 A 
ATOM     92  C   UNL A   1      32.408  22.019  22.404  1.00  0.00     0.031 A 
ATOM     93  C   UNL A   1      32.806  20.704  22.662  1.00  0.00     0.015 A 
BRANCH  90  94
ATOM     94  N   UNL A   1      31.290  24.067  23.053  1.00  0.00    -0.239 N 
ATOM     95  C   UNL A   1      32.068  25.100  22.582  1.00  0.00     0.115 A 
ATOM     96  N   UNL A   1      30.031  24.486  23.336  1.00  0.00    -0.177 NA
ATOM     97  C   UNL A   1      31.345  26.254  22.754  1.00  0.00     0.042 A 
ATOM     98  C   UNL A   1      30.107  25.817  23.252  1.00  0.00     0.135 A 
ENDBRANCH  90  94
BRANCH  91  99
ATOM     99  C   UNL A   1      32.813  18.632  24.118  1.00  0.00     0.416 C 
ATOM    100  F   UNL A   1      31.936  18.028  24.962  1.00  0.00    -0.166 F 
ATOM    101  F   UNL A   1      32.787  17.909  22.963  1.00  0.00    -0.166 F 
ATOM    102  F   UNL A   1      34.051  18.431  24.649  1.00  0.00    -0.166 F 
ENDBRANCH  91  99
ENDBRANCH  86  88
ENDBRANCH  83  86
ENDBRANCH  78  83
ENDBRANCH  72  74
ENDBRANCH  71  72
ENDBRANCH  70  71
ENDBRANCH  69  70
ENDBRANCH  68  69
ENDBRANCH  67  68
ENDBRANCH   1  67
TORSDOF 25
ENDMDL
