MODEL 1
REMARK VINA RESULT:      -9.1      0.000      0.000
REMARK SMILES O=C(N[C@H](CCBr)C(=O)OCCOCCOCCOCCOC(=O)c1ccc(-c2c3nc(c(-c4c(F)cccc4F)c4ccc([nH]4)c(-c4c(F)cccc4F)c4nc(c(-c5c(F)cccc5F)c5ccc2[nH]5)C=C4)C=C3)cc1)OCc1ccccc1
REMARK SMILES IDX 15 1 14 2 13 3 12 4 11 5 10 6 8 7 9 8 4 9 3 10 1 11 2 12
REMARK SMILES IDX 79 14 80 15 81 16 82 17 86 18 83 19 85 20 84 21 5 22 6 23
REMARK SMILES IDX 7 24 16 25 17 26 18 27 19 28 20 29 21 30 22 31 23 32 24 33
REMARK SMILES IDX 25 34 26 35 78 36 27 37 77 38 28 39 29 40 30 41 71 42 31 43
REMARK SMILES IDX 76 44 70 45 72 46 32 47 75 48 69 49 68 50 33 52 59 53 42 54
REMARK SMILES IDX 58 55 43 56 46 57 57 58 73 59 44 60 45 61 56 63 74 64 47 65
REMARK SMILES IDX 34 66 35 67 40 68 36 69 37 70 39 71 41 72 38 73 60 74 61 75
REMARK SMILES IDX 66 76 62 77 63 78 65 79 67 80 64 81 48 82 49 83 54 84 50 85
REMARK SMILES IDX 51 86 53 87 55 88 52 89
REMARK H PARENT 3 13 72 51 46 62
REMARK Flexibility Score: inf
ROOT
ATOM      1  C   UNL A   1      31.977  27.665  22.679  1.00  0.00     0.188 C 
ENDROOT
BRANCH   1   2
ATOM      2  C   UNL A   1      32.333  26.751  21.509  1.00  0.00     0.188 C 
BRANCH   2   3
ATOM      3  O   UNL A   1      33.536  25.999  21.624  1.00  0.00    -0.376 OA
BRANCH   3   4
ATOM      4  C   UNL A   1      33.641  25.052  22.683  1.00  0.00     0.202 C 
BRANCH   4   5
ATOM      5  C   UNL A   1      32.769  23.792  22.601  1.00  0.00     0.261 C 
BRANCH   5   6
ATOM      6  O   UNL A   1      33.518  22.582  22.805  1.00  0.00    -0.462 OA
BRANCH   6   7
ATOM      7  C   UNL A   1      33.153  21.824  23.876  1.00  0.00     0.328 C 
ATOM      8  O   UNL A   1      32.201  21.052  23.895  1.00  0.00    -0.250 OA
BRANCH   7   9
ATOM      9  C   UNL A   1      34.006  22.115  25.117  1.00  0.00     0.196 C 
BRANCH   9  10
ATOM     10  N   UNL A   1      33.095  22.433  26.219  1.00  0.00    -0.308 N 
ATOM     11  O   UNL A   1      31.324  22.943  27.421  1.00  0.00    -0.225 OA
ATOM     12  C   UNL A   1      31.965  23.173  26.394  1.00  0.00     0.408 C 
ATOM     13  H   UNL A   1      33.373  21.994  27.056  1.00  0.00     0.168 HD
BRANCH  12  14
ATOM     14  O   UNL A   1      31.483  24.070  25.510  1.00  0.00    -0.445 OA
BRANCH  14  15
ATOM     15  C   UNL A   1      31.147  25.471  25.606  1.00  0.00     0.270 C 
BRANCH  15  16
ATOM     16  C   UNL A   1      32.120  26.412  26.288  1.00  0.00    -0.011 A 
ATOM     17  C   UNL A   1      31.604  27.297  27.255  1.00  0.00     0.007 A 
ATOM     18  C   UNL A   1      33.456  26.564  25.889  1.00  0.00     0.007 A 
ATOM     19  C   UNL A   1      32.360  28.377  27.710  1.00  0.00     0.000 A 
ATOM     20  C   UNL A   1      34.195  27.670  26.315  1.00  0.00     0.000 A 
ATOM     21  C   UNL A   1      33.641  28.586  27.208  1.00  0.00     0.000 A 
ENDBRANCH  15  16
ENDBRANCH  14  15
ENDBRANCH  12  14
ENDBRANCH   9  10
BRANCH   9  22
ATOM     22  C   UNL A   1      35.223  23.021  24.972  1.00  0.00     0.048 C 
BRANCH  22  23
ATOM     23  C   UNL A   1      35.922  23.545  26.217  1.00  0.00     0.083 C 
ATOM     24  Br  UNL A   1      37.829  23.768  26.039  1.00  0.00    -0.093 Br
ENDBRANCH  22  23
ENDBRANCH   9  22
ENDBRANCH   7   9
ENDBRANCH   6   7
ENDBRANCH   5   6
ENDBRANCH   4   5
ENDBRANCH   3   4
ENDBRANCH   2   3
ENDBRANCH   1   2
BRANCH   1  25
ATOM     25  O   UNL A   1      30.623  28.108  22.624  1.00  0.00    -0.377 OA
BRANCH  25  26
ATOM     26  C   UNL A   1      30.251  29.272  23.366  1.00  0.00     0.188 C 
BRANCH  26  27
ATOM     27  C   UNL A   1      31.095  29.660  24.585  1.00  0.00     0.188 C 
BRANCH  27  28
ATOM     28  O   UNL A   1      30.834  30.905  25.239  1.00  0.00    -0.376 OA
BRANCH  28  29
ATOM     29  C   UNL A   1      31.619  31.299  26.358  1.00  0.00     0.202 C 
BRANCH  29  30
ATOM     30  C   UNL A   1      31.553  32.779  26.738  1.00  0.00     0.261 C 
BRANCH  30  31
ATOM     31  O   UNL A   1      32.842  33.400  26.744  1.00  0.00    -0.460 OA
BRANCH  31  32
ATOM     32  C   UNL A   1      33.248  33.824  27.961  1.00  0.00     0.338 C 
ATOM     33  O   UNL A   1      32.666  34.582  28.725  1.00  0.00    -0.246 OA
BRANCH  32  34
ATOM     34  C   UNL A   1      34.483  33.120  28.319  1.00  0.00     0.060 A 
ATOM     35  C   UNL A   1      34.390  31.806  28.796  1.00  0.00     0.016 A 
ATOM     36  C   UNL A   1      35.713  33.780  28.258  1.00  0.00     0.016 A 
ATOM     37  C   UNL A   1      35.526  31.156  29.254  1.00  0.00     0.010 A 
ATOM     38  C   UNL A   1      36.847  33.139  28.746  1.00  0.00     0.010 A 
ATOM     39  C   UNL A   1      36.742  31.845  29.282  1.00  0.00    -0.014 A 
BRANCH  39  40
ATOM     40  C   UNL A   1      37.853  31.292  30.078  1.00  0.00     0.031 A 
ATOM     41  C   UNL A   1      38.766  30.300  29.421  1.00  0.00     0.074 A 
ATOM     42  C   UNL A   1      38.046  31.695  31.342  1.00  0.00     0.049 A 
ATOM     43  N   UNL A   1      39.770  29.635  29.927  1.00  0.00    -0.248 NA
ATOM     44  C   UNL A   1      38.508  30.013  27.999  1.00  0.00     0.031 C 
ATOM     45  C   UNL A   1      37.241  32.692  32.043  1.00  0.00     0.029 A 
ATOM     46  N   UNL A   1      38.980  31.299  32.262  1.00  0.00    -0.354 N 
ATOM     47  C   UNL A   1      40.254  28.845  28.894  1.00  0.00     0.074 A 
ATOM     48  C   UNL A   1      39.420  29.089  27.740  1.00  0.00     0.031 C 
ATOM     49  C   UNL A   1      37.705  32.819  33.297  1.00  0.00     0.029 A 
ATOM     50  C   UNL A   1      38.813  31.886  33.490  1.00  0.00     0.049 A 
ATOM     51  H   UNL A   1      39.699  30.659  32.061  1.00  0.00     0.167 HD
ATOM     52  C   UNL A   1      41.308  27.996  28.911  1.00  0.00     0.037 A 
ATOM     53  C   UNL A   1      39.468  31.662  34.644  1.00  0.00     0.037 A 
ATOM     54  C   UNL A   1      42.121  27.763  30.074  1.00  0.00     0.049 A 
ATOM     55  C   UNL A   1      40.588  30.657  34.658  1.00  0.00     0.074 A 
ATOM     56  C   UNL A   1      43.223  26.939  30.206  1.00  0.00     0.029 A 
ATOM     57  N   UNL A   1      41.908  28.352  31.314  1.00  0.00    -0.354 N 
ATOM     58  N   UNL A   1      41.060  29.927  33.674  1.00  0.00    -0.248 NA
ATOM     59  C   UNL A   1      41.270  30.447  35.942  1.00  0.00     0.031 C 
ATOM     60  C   UNL A   1      43.638  26.982  31.541  1.00  0.00     0.029 A 
ATOM     61  C   UNL A   1      42.838  27.883  32.225  1.00  0.00     0.049 A 
ATOM     62  H   UNL A   1      41.200  29.006  31.515  1.00  0.00     0.167 HD
ATOM     63  C   UNL A   1      42.110  29.194  34.210  1.00  0.00     0.074 A 
ATOM     64  C   UNL A   1      42.214  29.580  35.604  1.00  0.00     0.031 C 
ATOM     65  C   UNL A   1      42.918  28.285  33.609  1.00  0.00     0.037 A 
BRANCH  52  66
ATOM     66  C   UNL A   1      41.603  27.233  27.652  1.00  0.00     0.057 A 
ATOM     67  C   UNL A   1      42.378  27.771  26.616  1.00  0.00     0.134 A 
ATOM     68  C   UNL A   1      41.106  25.934  27.478  1.00  0.00     0.134 A 
ATOM     69  F   UNL A   1      42.867  29.017  26.708  1.00  0.00    -0.206 F 
ATOM     70  C   UNL A   1      42.626  27.055  25.442  1.00  0.00     0.040 A 
ATOM     71  C   UNL A   1      41.373  25.198  26.322  1.00  0.00     0.040 A 
ATOM     72  F   UNL A   1      40.355  25.358  28.428  1.00  0.00    -0.206 F 
ATOM     73  C   UNL A   1      42.128  25.762  25.296  1.00  0.00     0.006 A 
ENDBRANCH  52  66
BRANCH  53  74
ATOM     74  C   UNL A   1      39.070  32.391  35.872  1.00  0.00     0.057 A 
ATOM     75  C   UNL A   1      38.236  31.803  36.829  1.00  0.00     0.134 A 
ATOM     76  C   UNL A   1      39.518  33.695  36.122  1.00  0.00     0.134 A 
ATOM     77  F   UNL A   1      37.762  30.563  36.639  1.00  0.00    -0.206 F 
ATOM     78  C   UNL A   1      37.849  32.488  37.982  1.00  0.00     0.040 A 
ATOM     79  C   UNL A   1      39.162  34.382  37.283  1.00  0.00     0.040 A 
ATOM     80  F   UNL A   1      40.326  34.313  35.247  1.00  0.00    -0.206 F 
ATOM     81  C   UNL A   1      38.318  33.780  38.214  1.00  0.00     0.006 A 
ENDBRANCH  53  74
BRANCH  65  82
ATOM     82  C   UNL A   1      44.006  27.677  34.446  1.00  0.00     0.057 A 
ATOM     83  C   UNL A   1      43.828  26.468  35.131  1.00  0.00     0.134 A 
ATOM     84  C   UNL A   1      45.262  28.292  34.535  1.00  0.00     0.134 A 
ATOM     85  F   UNL A   1      42.646  25.833  35.096  1.00  0.00    -0.206 F 
ATOM     86  C   UNL A   1      44.851  25.908  35.899  1.00  0.00     0.040 A 
ATOM     87  C   UNL A   1      46.302  27.725  35.272  1.00  0.00     0.040 A 
ATOM     88  F   UNL A   1      45.503  29.446  33.893  1.00  0.00    -0.206 F 
ATOM     89  C   UNL A   1      46.095  26.534  35.963  1.00  0.00     0.006 A 
ENDBRANCH  65  82
ENDBRANCH  39  40
ENDBRANCH  32  34
ENDBRANCH  31  32
ENDBRANCH  30  31
ENDBRANCH  29  30
ENDBRANCH  28  29
ENDBRANCH  27  28
ENDBRANCH  26  27
ENDBRANCH  25  26
ENDBRANCH   1  25
TORSDOF 26
ENDMDL
MODEL 2
REMARK VINA RESULT:      -9.0      0.927      6.052
REMARK SMILES O=C(N[C@H](CCBr)C(=O)OCCOCCOCCOCCOC(=O)c1ccc(-c2c3nc(c(-c4c(F)cccc4F)c4ccc([nH]4)c(-c4c(F)cccc4F)c4nc(c(-c5c(F)cccc5F)c5ccc2[nH]5)C=C4)C=C3)cc1)OCc1ccccc1
REMARK SMILES IDX 15 1 14 2 13 3 12 4 11 5 10 6 8 7 9 8 4 9 3 10 1 11 2 12
REMARK SMILES IDX 79 14 80 15 81 16 82 17 86 18 83 19 85 20 84 21 5 22 6 23
REMARK SMILES IDX 7 24 16 25 17 26 18 27 19 28 20 29 21 30 22 31 23 32 24 33
REMARK SMILES IDX 25 34 26 35 78 36 27 37 77 38 28 39 29 40 30 41 71 42 31 43
REMARK SMILES IDX 76 44 70 45 72 46 32 47 75 48 69 49 68 50 33 52 59 53 42 54
REMARK SMILES IDX 58 55 43 56 46 57 57 58 73 59 44 60 45 61 56 63 74 64 47 65
REMARK SMILES IDX 34 66 35 67 40 68 36 69 37 70 39 71 41 72 38 73 60 74 61 75
REMARK SMILES IDX 66 76 62 77 63 78 65 79 67 80 64 81 48 82 49 83 54 84 50 85
REMARK SMILES IDX 51 86 53 87 55 88 52 89
REMARK H PARENT 3 13 72 51 46 62
REMARK Flexibility Score: inf
ROOT
ATOM      1  C   UNL A   1      31.464  27.478  22.760  1.00  0.00     0.188 C 
ENDROOT
BRANCH   1   2
ATOM      2  C   UNL A   1      31.402  26.205  21.921  1.00  0.00     0.188 C 
BRANCH   2   3
ATOM      3  O   UNL A   1      32.611  25.466  21.785  1.00  0.00    -0.376 OA
BRANCH   3   4
ATOM      4  C   UNL A   1      33.035  24.658  22.879  1.00  0.00     0.202 C 
BRANCH   4   5
ATOM      5  C   UNL A   1      32.607  23.185  22.885  1.00  0.00     0.261 C 
BRANCH   5   6
ATOM      6  O   UNL A   1      33.450  22.364  23.711  1.00  0.00    -0.462 OA
BRANCH   6   7
ATOM      7  C   UNL A   1      32.824  21.654  24.690  1.00  0.00     0.328 C 
ATOM      8  O   UNL A   1      31.948  20.818  24.498  1.00  0.00    -0.250 OA
BRANCH   7   9
ATOM      9  C   UNL A   1      33.257  22.089  26.096  1.00  0.00     0.196 C 
BRANCH   9  10
ATOM     10  N   UNL A   1      32.050  22.464  26.838  1.00  0.00    -0.308 N 
ATOM     11  O   UNL A   1      30.047  23.182  27.397  1.00  0.00    -0.225 OA
ATOM     12  C   UNL A   1      31.056  23.387  26.720  1.00  0.00     0.408 C 
ATOM     13  H   UNL A   1      31.925  21.896  27.633  1.00  0.00     0.168 HD
BRANCH  12  14
ATOM     14  O   UNL A   1      31.078  24.446  25.884  1.00  0.00    -0.445 OA
BRANCH  14  15
ATOM     15  C   UNL A   1      30.841  25.858  26.071  1.00  0.00     0.270 C 
BRANCH  15  16
ATOM     16  C   UNL A   1      31.998  26.746  26.483  1.00  0.00    -0.011 A 
ATOM     17  C   UNL A   1      31.726  27.797  27.382  1.00  0.00     0.007 A 
ATOM     18  C   UNL A   1      33.268  26.684  25.893  1.00  0.00     0.007 A 
ATOM     19  C   UNL A   1      32.651  28.822  27.581  1.00  0.00     0.000 A 
ATOM     20  C   UNL A   1      34.175  27.733  26.063  1.00  0.00     0.000 A 
ATOM     21  C   UNL A   1      33.858  28.810  26.889  1.00  0.00     0.000 A 
ENDBRANCH  15  16
ENDBRANCH  14  15
ENDBRANCH  12  14
ENDBRANCH   9  10
BRANCH   9  22
ATOM     22  C   UNL A   1      34.447  23.030  26.236  1.00  0.00     0.048 C 
BRANCH  22  23
ATOM     23  C   UNL A   1      35.859  22.464  26.228  1.00  0.00     0.083 C 
ATOM     24  Br  UNL A   1      37.201  23.650  25.516  1.00  0.00    -0.093 Br
ENDBRANCH  22  23
ENDBRANCH   9  22
ENDBRANCH   7   9
ENDBRANCH   6   7
ENDBRANCH   5   6
ENDBRANCH   4   5
ENDBRANCH   3   4
ENDBRANCH   2   3
ENDBRANCH   1   2
BRANCH   1  25
ATOM     25  O   UNL A   1      30.194  28.117  22.865  1.00  0.00    -0.377 OA
BRANCH  25  26
ATOM     26  C   UNL A   1      30.147  29.495  23.243  1.00  0.00     0.188 C 
BRANCH  26  27
ATOM     27  C   UNL A   1      30.986  29.950  24.442  1.00  0.00     0.188 C 
BRANCH  27  28
ATOM     28  O   UNL A   1      30.664  31.189  25.081  1.00  0.00    -0.376 OA
BRANCH  28  29
ATOM     29  C   UNL A   1      31.107  31.440  26.409  1.00  0.00     0.202 C 
BRANCH  29  30
ATOM     30  C   UNL A   1      31.643  32.846  26.684  1.00  0.00     0.261 C 
BRANCH  30  31
ATOM     31  O   UNL A   1      32.974  32.832  27.210  1.00  0.00    -0.460 OA
BRANCH  31  32
ATOM     32  C   UNL A   1      33.249  33.849  28.055  1.00  0.00     0.338 C 
ATOM     33  O   UNL A   1      32.624  34.891  28.204  1.00  0.00    -0.246 OA
BRANCH  32  34
ATOM     34  C   UNL A   1      34.380  33.466  28.903  1.00  0.00     0.060 A 
ATOM     35  C   UNL A   1      35.672  33.828  28.500  1.00  0.00     0.016 A 
ATOM     36  C   UNL A   1      34.173  32.687  30.044  1.00  0.00     0.016 A 
ATOM     37  C   UNL A   1      36.771  33.379  29.217  1.00  0.00     0.010 A 
ATOM     38  C   UNL A   1      35.276  32.211  30.746  1.00  0.00     0.010 A 
ATOM     39  C   UNL A   1      36.573  32.523  30.305  1.00  0.00    -0.014 A 
BRANCH  39  40
ATOM     40  C   UNL A   1      37.725  31.777  30.840  1.00  0.00     0.031 A 
ATOM     41  C   UNL A   1      38.251  32.163  32.191  1.00  0.00     0.074 A 
ATOM     42  C   UNL A   1      38.262  30.767  30.141  1.00  0.00     0.049 A 
ATOM     43  N   UNL A   1      39.282  31.699  32.844  1.00  0.00    -0.248 NA
ATOM     44  C   UNL A   1      37.514  33.224  32.901  1.00  0.00     0.031 C 
ATOM     45  C   UNL A   1      37.784  30.289  28.845  1.00  0.00     0.029 A 
ATOM     46  N   UNL A   1      39.337  29.969  30.426  1.00  0.00    -0.354 N 
ATOM     47  C   UNL A   1      39.326  32.415  34.032  1.00  0.00     0.074 A 
ATOM     48  C   UNL A   1      38.238  33.365  34.001  1.00  0.00     0.031 C 
ATOM     49  C   UNL A   1      38.579  29.287  28.434  1.00  0.00     0.029 A 
ATOM     50  C   UNL A   1      39.636  29.083  29.422  1.00  0.00     0.049 A 
ATOM     51  H   UNL A   1      39.844  30.025  31.267  1.00  0.00     0.167 HD
ATOM     52  C   UNL A   1      40.198  32.284  35.058  1.00  0.00     0.037 A 
ATOM     53  C   UNL A   1      40.670  28.230  29.310  1.00  0.00     0.037 A 
ATOM     54  C   UNL A   1      41.279  31.335  35.065  1.00  0.00     0.049 A 
ATOM     55  C   UNL A   1      41.671  28.154  30.431  1.00  0.00     0.074 A 
ATOM     56  C   UNL A   1      42.215  31.100  36.054  1.00  0.00     0.029 A 
ATOM     57  N   UNL A   1      41.574  30.470  34.018  1.00  0.00    -0.354 N 
ATOM     58  N   UNL A   1      41.699  28.817  31.565  1.00  0.00    -0.248 NA
ATOM     59  C   UNL A   1      42.782  27.209  30.261  1.00  0.00     0.031 C 
ATOM     60  C   UNL A   1      43.113  30.137  35.581  1.00  0.00     0.029 A 
ATOM     61  C   UNL A   1      42.697  29.723  34.325  1.00  0.00     0.049 A 
ATOM     62  H   UNL A   1      41.059  30.400  33.182  1.00  0.00     0.167 HD
ATOM     63  C   UNL A   1      42.810  28.350  32.254  1.00  0.00     0.074 A 
ATOM     64  C   UNL A   1      43.421  27.337  31.415  1.00  0.00     0.031 C 
ATOM     65  C   UNL A   1      43.285  28.720  33.469  1.00  0.00     0.037 A 
BRANCH  52  66
ATOM     66  C   UNL A   1      40.039  33.214  36.225  1.00  0.00     0.057 A 
ATOM     67  C   UNL A   1      40.708  34.444  36.298  1.00  0.00     0.134 A 
ATOM     68  C   UNL A   1      39.197  32.876  37.292  1.00  0.00     0.134 A 
ATOM     69  F   UNL A   1      41.546  34.821  35.320  1.00  0.00    -0.206 F 
ATOM     70  C   UNL A   1      40.566  35.289  37.401  1.00  0.00     0.040 A 
ATOM     71  C   UNL A   1      39.023  33.726  38.386  1.00  0.00     0.040 A 
ATOM     72  F   UNL A   1      38.527  31.713  37.290  1.00  0.00    -0.206 F 
ATOM     73  C   UNL A   1      39.715  34.933  38.446  1.00  0.00     0.006 A 
ENDBRANCH  52  66
BRANCH  53  74
ATOM     74  C   UNL A   1      40.812  27.398  28.091  1.00  0.00     0.057 A 
ATOM     75  C   UNL A   1      40.181  26.154  27.982  1.00  0.00     0.134 A 
ATOM     76  C   UNL A   1      41.580  27.829  27.001  1.00  0.00     0.134 A 
ATOM     77  F   UNL A   1      39.446  25.679  28.998  1.00  0.00    -0.206 F 
ATOM     78  C   UNL A   1      40.320  25.362  26.841  1.00  0.00     0.040 A 
ATOM     79  C   UNL A   1      41.706  27.061  25.844  1.00  0.00     0.040 A 
ATOM     80  F   UNL A   1      42.205  29.016  27.040  1.00  0.00    -0.206 F 
ATOM     81  C   UNL A   1      41.080  25.818  25.765  1.00  0.00     0.006 A 
ENDBRANCH  53  74
BRANCH  65  82
ATOM     82  C   UNL A   1      44.501  28.001  33.978  1.00  0.00     0.057 A 
ATOM     83  C   UNL A   1      45.799  28.410  33.648  1.00  0.00     0.134 A 
ATOM     84  C   UNL A   1      44.368  26.906  34.843  1.00  0.00     0.134 A 
ATOM     85  F   UNL A   1      45.995  29.444  32.816  1.00  0.00    -0.206 F 
ATOM     86  C   UNL A   1      46.921  27.738  34.135  1.00  0.00     0.040 A 
ATOM     87  C   UNL A   1      45.482  26.247  35.363  1.00  0.00     0.040 A 
ATOM     88  F   UNL A   1      43.153  26.470  35.210  1.00  0.00    -0.206 F 
ATOM     89  C   UNL A   1      46.763  26.657  35.002  1.00  0.00     0.006 A 
ENDBRANCH  65  82
ENDBRANCH  39  40
ENDBRANCH  32  34
ENDBRANCH  31  32
ENDBRANCH  30  31
ENDBRANCH  29  30
ENDBRANCH  28  29
ENDBRANCH  27  28
ENDBRANCH  26  27
ENDBRANCH  25  26
ENDBRANCH   1  25
TORSDOF 26
ENDMDL
MODEL 3
REMARK VINA RESULT:      -9.0      1.402      2.150
REMARK SMILES O=C(N[C@H](CCBr)C(=O)OCCOCCOCCOCCOC(=O)c1ccc(-c2c3nc(c(-c4c(F)cccc4F)c4ccc([nH]4)c(-c4c(F)cccc4F)c4nc(c(-c5c(F)cccc5F)c5ccc2[nH]5)C=C4)C=C3)cc1)OCc1ccccc1
REMARK SMILES IDX 15 1 14 2 13 3 12 4 11 5 10 6 8 7 9 8 4 9 3 10 1 11 2 12
REMARK SMILES IDX 79 14 80 15 81 16 82 17 86 18 83 19 85 20 84 21 5 22 6 23
REMARK SMILES IDX 7 24 16 25 17 26 18 27 19 28 20 29 21 30 22 31 23 32 24 33
REMARK SMILES IDX 25 34 26 35 78 36 27 37 77 38 28 39 29 40 30 41 71 42 31 43
REMARK SMILES IDX 76 44 70 45 72 46 32 47 75 48 69 49 68 50 33 52 59 53 42 54
REMARK SMILES IDX 58 55 43 56 46 57 57 58 73 59 44 60 45 61 56 63 74 64 47 65
REMARK SMILES IDX 34 66 35 67 40 68 36 69 37 70 39 71 41 72 38 73 60 74 61 75
REMARK SMILES IDX 66 76 62 77 63 78 65 79 67 80 64 81 48 82 49 83 54 84 50 85
REMARK SMILES IDX 51 86 53 87 55 88 52 89
REMARK H PARENT 3 13 72 51 46 62
REMARK Flexibility Score: inf
ROOT
ATOM      1  C   UNL A   1      32.573  27.628  22.828  1.00  0.00     0.188 C 
ENDROOT
BRANCH   1   2
ATOM      2  C   UNL A   1      32.962  26.642  21.730  1.00  0.00     0.188 C 
BRANCH   2   3
ATOM      3  O   UNL A   1      34.043  25.760  22.012  1.00  0.00    -0.376 OA
BRANCH   3   4
ATOM      4  C   UNL A   1      33.821  24.692  22.928  1.00  0.00     0.202 C 
BRANCH   4   5
ATOM      5  C   UNL A   1      33.286  23.369  22.364  1.00  0.00     0.261 C 
BRANCH   5   6
ATOM      6  O   UNL A   1      33.385  22.284  23.302  1.00  0.00    -0.462 OA
BRANCH   6   7
ATOM      7  C   UNL A   1      32.443  21.307  23.191  1.00  0.00     0.328 C 
ATOM      8  O   UNL A   1      31.757  21.106  22.195  1.00  0.00    -0.250 OA
BRANCH   7   9
ATOM      9  C   UNL A   1      32.246  20.532  24.499  1.00  0.00     0.196 C 
BRANCH   9  10
ATOM     10  N   UNL A   1      31.442  21.367  25.395  1.00  0.00    -0.308 N 
ATOM     11  O   UNL A   1      30.534  23.065  26.458  1.00  0.00    -0.225 OA
ATOM     12  C   UNL A   1      31.574  22.569  26.021  1.00  0.00     0.408 C 
ATOM     13  H   UNL A   1      30.574  20.946  25.598  1.00  0.00     0.168 HD
BRANCH  12  14
ATOM     14  O   UNL A   1      32.726  23.262  26.132  1.00  0.00    -0.445 OA
BRANCH  14  15
ATOM     15  C   UNL A   1      33.897  23.107  26.962  1.00  0.00     0.270 C 
BRANCH  15  16
ATOM     16  C   UNL A   1      35.231  22.823  26.301  1.00  0.00    -0.011 A 
ATOM     17  C   UNL A   1      35.928  23.914  25.745  1.00  0.00     0.007 A 
ATOM     18  C   UNL A   1      35.718  21.529  26.067  1.00  0.00     0.007 A 
ATOM     19  C   UNL A   1      37.000  23.707  24.876  1.00  0.00     0.000 A 
ATOM     20  C   UNL A   1      36.764  21.324  25.165  1.00  0.00     0.000 A 
ATOM     21  C   UNL A   1      37.391  22.410  24.554  1.00  0.00     0.000 A 
ENDBRANCH  15  16
ENDBRANCH  14  15
ENDBRANCH  12  14
ENDBRANCH   9  10
BRANCH   9  22
ATOM     22  C   UNL A   1      33.451  19.843  25.130  1.00  0.00     0.048 C 
BRANCH  22  23
ATOM     23  C   UNL A   1      34.023  18.590  24.486  1.00  0.00     0.083 C 
ATOM     24  Br  UNL A   1      32.875  17.757  23.179  1.00  0.00    -0.093 Br
ENDBRANCH  22  23
ENDBRANCH   9  22
ENDBRANCH   7   9
ENDBRANCH   6   7
ENDBRANCH   5   6
ENDBRANCH   4   5
ENDBRANCH   3   4
ENDBRANCH   2   3
ENDBRANCH   1   2
BRANCH   1  25
ATOM     25  O   UNL A   1      31.201  28.007  22.751  1.00  0.00    -0.377 OA
BRANCH  25  26
ATOM     26  C   UNL A   1      30.755  29.132  23.513  1.00  0.00     0.188 C 
BRANCH  26  27
ATOM     27  C   UNL A   1      31.518  29.494  24.791  1.00  0.00     0.188 C 
BRANCH  27  28
ATOM     28  O   UNL A   1      31.068  30.604  25.575  1.00  0.00    -0.376 OA
BRANCH  28  29
ATOM     29  C   UNL A   1      31.944  31.209  26.518  1.00  0.00     0.202 C 
BRANCH  29  30
ATOM     30  C   UNL A   1      31.679  32.683  26.831  1.00  0.00     0.261 C 
BRANCH  30  31
ATOM     31  O   UNL A   1      32.880  33.460  26.864  1.00  0.00    -0.460 OA
BRANCH  31  32
ATOM     32  C   UNL A   1      33.268  33.831  28.103  1.00  0.00     0.338 C 
ATOM     33  O   UNL A   1      32.677  34.560  28.889  1.00  0.00    -0.246 OA
BRANCH  32  34
ATOM     34  C   UNL A   1      34.494  33.106  28.452  1.00  0.00     0.060 A 
ATOM     35  C   UNL A   1      34.379  31.823  29.000  1.00  0.00     0.016 A 
ATOM     36  C   UNL A   1      35.739  33.722  28.312  1.00  0.00     0.016 A 
ATOM     37  C   UNL A   1      35.511  31.160  29.450  1.00  0.00     0.010 A 
ATOM     38  C   UNL A   1      36.872  33.071  28.790  1.00  0.00     0.010 A 
ATOM     39  C   UNL A   1      36.748  31.810  29.397  1.00  0.00    -0.014 A 
BRANCH  39  40
ATOM     40  C   UNL A   1      37.871  31.263  30.179  1.00  0.00     0.031 A 
ATOM     41  C   UNL A   1      38.767  30.257  29.519  1.00  0.00     0.074 A 
ATOM     42  C   UNL A   1      38.090  31.681  31.433  1.00  0.00     0.049 A 
ATOM     43  N   UNL A   1      39.777  29.594  30.015  1.00  0.00    -0.248 NA
ATOM     44  C   UNL A   1      38.481  29.952  28.106  1.00  0.00     0.031 C 
ATOM     45  C   UNL A   1      37.302  32.692  32.136  1.00  0.00     0.029 A 
ATOM     46  N   UNL A   1      39.039  31.294  32.341  1.00  0.00    -0.354 N 
ATOM     47  C   UNL A   1      40.239  28.788  28.984  1.00  0.00     0.074 A 
ATOM     48  C   UNL A   1      39.384  29.021  27.842  1.00  0.00     0.031 C 
ATOM     49  C   UNL A   1      37.791  32.834  33.380  1.00  0.00     0.029 A 
ATOM     50  C   UNL A   1      38.898  31.898  33.564  1.00  0.00     0.049 A 
ATOM     51  H   UNL A   1      39.752  30.648  32.136  1.00  0.00     0.167 HD
ATOM     52  C   UNL A   1      41.288  27.935  28.993  1.00  0.00     0.037 A 
ATOM     53  C   UNL A   1      39.574  31.687  34.709  1.00  0.00     0.037 A 
ATOM     54  C   UNL A   1      42.123  27.714  30.143  1.00  0.00     0.049 A 
ATOM     55  C   UNL A   1      40.689  30.678  34.715  1.00  0.00     0.074 A 
ATOM     56  C   UNL A   1      43.223  26.887  30.266  1.00  0.00     0.029 A 
ATOM     57  N   UNL A   1      41.936  28.320  31.379  1.00  0.00    -0.354 N 
ATOM     58  N   UNL A   1      41.139  29.932  33.732  1.00  0.00    -0.248 NA
ATOM     59  C   UNL A   1      41.395  30.482  35.989  1.00  0.00     0.031 C 
ATOM     60  C   UNL A   1      43.664  26.945  31.592  1.00  0.00     0.029 A 
ATOM     61  C   UNL A   1      42.881  27.860  32.279  1.00  0.00     0.049 A 
ATOM     62  H   UNL A   1      41.234  28.980  31.584  1.00  0.00     0.167 HD
ATOM     63  C   UNL A   1      42.196  29.201  34.259  1.00  0.00     0.074 A 
ATOM     64  C   UNL A   1      42.328  29.605  35.645  1.00  0.00     0.031 C 
ATOM     65  C   UNL A   1      42.988  28.281  33.656  1.00  0.00     0.037 A 
BRANCH  52  66
ATOM     66  C   UNL A   1      41.556  27.154  27.739  1.00  0.00     0.057 A 
ATOM     67  C   UNL A   1      42.444  27.603  26.753  1.00  0.00     0.134 A 
ATOM     68  C   UNL A   1      40.918  25.926  27.520  1.00  0.00     0.134 A 
ATOM     69  F   UNL A   1      43.074  28.780  26.890  1.00  0.00    -0.206 F 
ATOM     70  C   UNL A   1      42.667  26.874  25.582  1.00  0.00     0.040 A 
ATOM     71  C   UNL A   1      41.155  25.173  26.368  1.00  0.00     0.040 A 
ATOM     72  F   UNL A   1      40.053  25.436  28.421  1.00  0.00    -0.206 F 
ATOM     73  C   UNL A   1      42.026  25.651  25.391  1.00  0.00     0.006 A 
ENDBRANCH  52  66
BRANCH  53  74
ATOM     74  C   UNL A   1      39.202  32.435  35.934  1.00  0.00     0.057 A 
ATOM     75  C   UNL A   1      38.284  31.915  36.852  1.00  0.00     0.134 A 
ATOM     76  C   UNL A   1      39.760  33.688  36.220  1.00  0.00     0.134 A 
ATOM     77  F   UNL A   1      37.704  30.727  36.628  1.00  0.00    -0.206 F 
ATOM     78  C   UNL A   1      37.922  32.619  38.003  1.00  0.00     0.040 A 
ATOM     79  C   UNL A   1      39.429  34.391  37.378  1.00  0.00     0.040 A 
ATOM     80  F   UNL A   1      40.652  34.239  35.382  1.00  0.00    -0.206 F 
ATOM     81  C   UNL A   1      38.501  33.859  38.270  1.00  0.00     0.006 A 
ENDBRANCH  53  74
BRANCH  65  82
ATOM     82  C   UNL A   1      44.090  27.678  34.480  1.00  0.00     0.057 A 
ATOM     83  C   UNL A   1      43.920  26.478  35.182  1.00  0.00     0.134 A 
ATOM     84  C   UNL A   1      45.348  28.290  34.540  1.00  0.00     0.134 A 
ATOM     85  F   UNL A   1      42.736  25.847  35.176  1.00  0.00    -0.206 F 
ATOM     86  C   UNL A   1      44.955  25.924  35.938  1.00  0.00     0.040 A 
ATOM     87  C   UNL A   1      46.400  27.728  35.264  1.00  0.00     0.040 A 
ATOM     88  F   UNL A   1      45.582  29.436  33.880  1.00  0.00    -0.206 F 
ATOM     89  C   UNL A   1      46.202  26.546  35.973  1.00  0.00     0.006 A 
ENDBRANCH  65  82
ENDBRANCH  39  40
ENDBRANCH  32  34
ENDBRANCH  31  32
ENDBRANCH  30  31
ENDBRANCH  29  30
ENDBRANCH  28  29
ENDBRANCH  27  28
ENDBRANCH  26  27
ENDBRANCH  25  26
ENDBRANCH   1  25
TORSDOF 26
ENDMDL
