MODEL 1
REMARK VINA RESULT:     -10.2      0.000      0.000
REMARK SMILES Cc1ccnc(C(=O)c2[nH]c3ccc(OC(F)(F)F)cc3c2CC(=O)OCCOCCOCCOCCOC(=O)c2ccc(-c3c4nc(c(-c5c(F)cccc5F)c5ccc([nH]5)c(-c5c(F)cccc5F)c5nc(c(-c6c(F)cccc6F)c6ccc3[nH]6)C=C5)C=C4)cc2)c1
REMARK SMILES IDX 31 1 30 2 29 3 28 4 27 5 26 6 24 7 25 8 23 9 22 10 9 11
REMARK SMILES IDX 10 12 11 13 21 15 12 16 20 17 13 18 14 19 7 20 8 21 6 22
REMARK SMILES IDX 1 23 2 24 3 25 95 26 4 27 5 28 15 29 16 30 17 31 18 32 19 33
REMARK SMILES IDX 32 34 33 35 34 36 35 37 36 38 37 39 38 40 39 41 40 42 41 43
REMARK SMILES IDX 42 44 94 45 43 46 93 47 44 48 45 49 46 50 87 51 47 52 92 53
REMARK SMILES IDX 86 54 88 55 48 56 91 57 85 58 84 59 49 61 75 62 58 63 74 64
REMARK SMILES IDX 59 65 62 66 73 67 89 68 60 69 61 70 72 72 90 73 63 74 50 75
REMARK SMILES IDX 51 76 56 77 52 78 53 79 55 80 57 81 54 82 76 83 77 84 82 85
REMARK SMILES IDX 78 86 79 87 81 88 83 89 80 90 64 91 65 92 70 93 66 94 67 95
REMARK SMILES IDX 69 96 71 97 68 98
REMARK H PARENT 10 14 88 60 62 71
REMARK Flexibility Score: inf
ROOT
ATOM      1  C   UNL A   1      36.216  31.114  27.948  1.00  0.00     0.188 C 
ENDROOT
BRANCH   1   2
ATOM      2  C   UNL A   1      34.752  30.682  28.025  1.00  0.00     0.188 C 
BRANCH   2   3
ATOM      3  O   UNL A   1      33.988  30.761  26.838  1.00  0.00    -0.376 OA
BRANCH   3   4
ATOM      4  C   UNL A   1      32.648  30.279  26.890  1.00  0.00     0.202 C 
BRANCH   4   5
ATOM      5  C   UNL A   1      31.964  29.726  25.622  1.00  0.00     0.261 C 
BRANCH   5   6
ATOM      6  O   UNL A   1      32.862  29.356  24.540  1.00  0.00    -0.463 OA
BRANCH   6   7
ATOM      7  C   UNL A   1      33.092  28.027  24.392  1.00  0.00     0.310 C 
ATOM      8  O   UNL A   1      33.956  27.430  25.037  1.00  0.00    -0.252 OA
BRANCH   7   9
ATOM      9  C   UNL A   1      32.215  27.248  23.427  1.00  0.00     0.161 C 
BRANCH   9  10
ATOM     10  C   UNL A   1      30.789  26.855  23.747  1.00  0.00     0.000 A 
ATOM     11  C   UNL A   1      30.267  25.561  23.930  1.00  0.00     0.093 A 
ATOM     12  N   UNL A   1      28.937  25.731  24.266  1.00  0.00    -0.352 N 
ATOM     13  C   UNL A   1      28.505  26.968  23.849  1.00  0.00     0.046 A 
ATOM     14  H   UNL A   1      28.382  25.064  24.732  1.00  0.00     0.167 HD
ATOM     15  C   UNL A   1      29.644  27.702  23.540  1.00  0.00     0.008 A 
ATOM     16  C   UNL A   1      27.210  27.477  23.696  1.00  0.00     0.030 A 
ATOM     17  C   UNL A   1      29.476  29.001  23.015  1.00  0.00     0.057 A 
ATOM     18  C   UNL A   1      27.072  28.747  23.117  1.00  0.00     0.049 A 
ATOM     19  C   UNL A   1      28.190  29.495  22.750  1.00  0.00     0.130 A 
BRANCH  11  20
ATOM     20  C   UNL A   1      30.959  24.279  23.789  1.00  0.00     0.227 C 
ATOM     21  O   UNL A   1      30.729  23.504  22.858  1.00  0.00    -0.285 OA
BRANCH  20  22
ATOM     22  C   UNL A   1      31.942  23.791  24.801  1.00  0.00     0.113 A 
ATOM     23  C   UNL A   1      35.642  24.003  25.563  1.00  0.00     0.044 C 
ATOM     24  C   UNL A   1      34.169  23.737  25.680  1.00  0.00    -0.047 A 
ATOM     25  C   UNL A   1      33.623  23.394  26.920  1.00  0.00     0.023 A 
ATOM     26  C   UNL A   1      33.308  23.944  24.596  1.00  0.00     0.036 A 
ATOM     27  C   UNL A   1      32.251  23.236  27.024  1.00  0.00     0.112 A 
ATOM     28  N   UNL A   1      31.404  23.411  25.990  1.00  0.00    -0.253 NA
ENDBRANCH  20  22
ENDBRANCH  11  20
BRANCH  19  29
ATOM     29  O   UNL A   1      28.182  30.705  22.113  1.00  0.00    -0.406 OA
BRANCH  29  30
ATOM     30  C   UNL A   1      28.194  31.875  22.911  1.00  0.00     0.573 C 
ATOM     31  F   UNL A   1      29.244  31.890  23.762  1.00  0.00    -0.132 F 
ATOM     32  F   UNL A   1      28.225  32.981  22.138  1.00  0.00    -0.132 F 
ATOM     33  F   UNL A   1      27.061  31.908  23.648  1.00  0.00    -0.132 F 
ENDBRANCH  29  30
ENDBRANCH  19  29
ENDBRANCH   9  10
ENDBRANCH   7   9
ENDBRANCH   6   7
ENDBRANCH   5   6
ENDBRANCH   4   5
ENDBRANCH   3   4
ENDBRANCH   2   3
ENDBRANCH   1   2
BRANCH   1  34
ATOM     34  O   UNL A   1      36.598  32.343  28.543  1.00  0.00    -0.377 OA
BRANCH  34  35
ATOM     35  C   UNL A   1      35.605  33.212  29.069  1.00  0.00     0.188 C 
BRANCH  35  36
ATOM     36  C   UNL A   1      35.100  34.354  28.188  1.00  0.00     0.188 C 
BRANCH  36  37
ATOM     37  O   UNL A   1      33.731  34.744  28.308  1.00  0.00    -0.376 OA
BRANCH  37  38
ATOM     38  C   UNL A   1      33.419  36.079  28.695  1.00  0.00     0.202 C 
BRANCH  38  39
ATOM     39  C   UNL A   1      32.777  36.203  30.073  1.00  0.00     0.261 C 
BRANCH  39  40
ATOM     40  O   UNL A   1      32.876  34.970  30.800  1.00  0.00    -0.460 OA
BRANCH  40  41
ATOM     41  C   UNL A   1      32.850  35.088  32.147  1.00  0.00     0.338 C 
ATOM     42  O   UNL A   1      31.907  35.406  32.851  1.00  0.00    -0.246 OA
BRANCH  41  43
ATOM     43  C   UNL A   1      34.130  34.593  32.681  1.00  0.00     0.060 A 
ATOM     44  C   UNL A   1      35.292  35.319  32.393  1.00  0.00     0.016 A 
ATOM     45  C   UNL A   1      34.186  33.424  33.441  1.00  0.00     0.016 A 
ATOM     46  C   UNL A   1      36.525  34.867  32.854  1.00  0.00     0.010 A 
ATOM     47  C   UNL A   1      35.423  32.959  33.884  1.00  0.00     0.010 A 
ATOM     48  C   UNL A   1      36.597  33.669  33.572  1.00  0.00    -0.014 A 
BRANCH  48  49
ATOM     49  C   UNL A   1      37.910  33.064  33.870  1.00  0.00     0.031 A 
ATOM     50  C   UNL A   1      38.451  32.032  32.926  1.00  0.00     0.074 A 
ATOM     51  C   UNL A   1      38.587  33.420  34.974  1.00  0.00     0.049 A 
ATOM     52  N   UNL A   1      39.513  31.280  33.040  1.00  0.00    -0.248 NA
ATOM     53  C   UNL A   1      37.685  31.814  31.687  1.00  0.00     0.031 C 
ATOM     54  C   UNL A   1      38.173  34.449  35.926  1.00  0.00     0.029 A 
ATOM     55  N   UNL A   1      39.763  32.936  35.488  1.00  0.00    -0.354 N 
ATOM     56  C   UNL A   1      39.537  30.491  31.898  1.00  0.00     0.074 A 
ATOM     57  C   UNL A   1      38.376  30.841  31.111  1.00  0.00     0.031 C 
ATOM     58  C   UNL A   1      39.073  34.503  36.925  1.00  0.00     0.029 A 
ATOM     59  C   UNL A   1      40.095  33.484  36.701  1.00  0.00     0.049 A 
ATOM     60  H   UNL A   1      40.314  32.260  35.031  1.00  0.00     0.167 HD
ATOM     61  C   UNL A   1      40.450  29.558  31.544  1.00  0.00     0.037 A 
ATOM     62  C   UNL A   1      41.094  33.167  37.548  1.00  0.00     0.037 A 
ATOM     63  C   UNL A   1      41.599  29.220  32.341  1.00  0.00     0.049 A 
ATOM     64  C   UNL A   1      42.040  32.056  37.172  1.00  0.00     0.074 A 
ATOM     65  C   UNL A   1      42.604  28.311  32.063  1.00  0.00     0.029 A 
ATOM     66  N   UNL A   1      41.886  29.771  33.581  1.00  0.00    -0.354 N 
ATOM     67  N   UNL A   1      42.078  31.334  36.076  1.00  0.00    -0.248 NA
ATOM     68  C   UNL A   1      43.078  31.710  38.153  1.00  0.00     0.031 C 
ATOM     69  C   UNL A   1      43.464  28.266  33.164  1.00  0.00     0.029 A 
ATOM     70  C   UNL A   1      43.029  29.190  34.101  1.00  0.00     0.049 A 
ATOM     71  H   UNL A   1      41.355  30.471  34.025  1.00  0.00     0.167 HD
ATOM     72  C   UNL A   1      43.155  30.469  36.225  1.00  0.00     0.074 A 
ATOM     73  C   UNL A   1      43.755  30.770  37.509  1.00  0.00     0.031 C 
ATOM     74  C   UNL A   1      43.609  29.509  35.381  1.00  0.00     0.037 A 
BRANCH  61  75
ATOM     75  C   UNL A   1      40.225  28.810  30.263  1.00  0.00     0.057 A 
ATOM     76  C   UNL A   1      39.421  27.665  30.201  1.00  0.00     0.134 A 
ATOM     77  C   UNL A   1      40.786  29.272  29.066  1.00  0.00     0.134 A 
ATOM     78  F   UNL A   1      38.869  27.159  31.314  1.00  0.00    -0.206 F 
ATOM     79  C   UNL A   1      39.195  26.998  28.995  1.00  0.00     0.040 A 
ATOM     80  C   UNL A   1      40.545  28.629  27.851  1.00  0.00     0.040 A 
ATOM     81  F   UNL A   1      41.566  30.363  29.055  1.00  0.00    -0.206 F 
ATOM     82  C   UNL A   1      39.751  27.485  27.813  1.00  0.00     0.006 A 
ENDBRANCH  61  75
BRANCH  62  83
ATOM     83  C   UNL A   1      41.235  33.874  38.846  1.00  0.00     0.057 A 
ATOM     84  C   UNL A   1      42.110  34.956  38.989  1.00  0.00     0.134 A 
ATOM     85  C   UNL A   1      40.528  33.463  39.985  1.00  0.00     0.134 A 
ATOM     86  F   UNL A   1      42.833  35.381  37.942  1.00  0.00    -0.206 F 
ATOM     87  C   UNL A   1      42.298  35.589  40.219  1.00  0.00     0.040 A 
ATOM     88  C   UNL A   1      40.684  34.106  41.214  1.00  0.00     0.040 A 
ATOM     89  F   UNL A   1      39.674  32.432  39.917  1.00  0.00    -0.206 F 
ATOM     90  C   UNL A   1      41.580  35.165  41.335  1.00  0.00     0.006 A 
ENDBRANCH  62  83
BRANCH  74  91
ATOM     91  C   UNL A   1      44.823  28.736  35.808  1.00  0.00     0.057 A 
ATOM     92  C   UNL A   1      46.120  29.177  35.517  1.00  0.00     0.134 A 
ATOM     93  C   UNL A   1      44.692  27.561  36.561  1.00  0.00     0.134 A 
ATOM     94  F   UNL A   1      46.314  30.287  34.790  1.00  0.00    -0.206 F 
ATOM     95  C   UNL A   1      47.243  28.465  35.941  1.00  0.00     0.040 A 
ATOM     96  C   UNL A   1      45.807  26.859  37.017  1.00  0.00     0.040 A 
ATOM     97  F   UNL A   1      43.478  27.091  36.884  1.00  0.00    -0.206 F 
ATOM     98  C   UNL A   1      47.087  27.306  36.700  1.00  0.00     0.006 A 
ENDBRANCH  74  91
ENDBRANCH  48  49
ENDBRANCH  41  43
ENDBRANCH  40  41
ENDBRANCH  39  40
ENDBRANCH  38  39
ENDBRANCH  37  38
ENDBRANCH  36  37
ENDBRANCH  35  36
ENDBRANCH  34  35
ENDBRANCH   1  34
TORSDOF 25
ENDMDL
MODEL 2
REMARK VINA RESULT:      -9.9      5.174      7.559
REMARK SMILES Cc1ccnc(C(=O)c2[nH]c3ccc(OC(F)(F)F)cc3c2CC(=O)OCCOCCOCCOCCOC(=O)c2ccc(-c3c4nc(c(-c5c(F)cccc5F)c5ccc([nH]5)c(-c5c(F)cccc5F)c5nc(c(-c6c(F)cccc6F)c6ccc3[nH]6)C=C5)C=C4)cc2)c1
REMARK SMILES IDX 31 1 30 2 29 3 28 4 27 5 26 6 24 7 25 8 23 9 22 10 9 11
REMARK SMILES IDX 10 12 11 13 21 15 12 16 20 17 13 18 14 19 7 20 8 21 6 22
REMARK SMILES IDX 1 23 2 24 3 25 95 26 4 27 5 28 15 29 16 30 17 31 18 32 19 33
REMARK SMILES IDX 32 34 33 35 34 36 35 37 36 38 37 39 38 40 39 41 40 42 41 43
REMARK SMILES IDX 42 44 94 45 43 46 93 47 44 48 45 49 46 50 87 51 47 52 92 53
REMARK SMILES IDX 86 54 88 55 48 56 91 57 85 58 84 59 49 61 75 62 58 63 74 64
REMARK SMILES IDX 59 65 62 66 73 67 89 68 60 69 61 70 72 72 90 73 63 74 50 75
REMARK SMILES IDX 51 76 56 77 52 78 53 79 55 80 57 81 54 82 76 83 77 84 82 85
REMARK SMILES IDX 78 86 79 87 81 88 83 89 80 90 64 91 65 92 70 93 66 94 67 95
REMARK SMILES IDX 69 96 71 97 68 98
REMARK H PARENT 10 14 88 60 62 71
REMARK Flexibility Score: inf
ROOT
ATOM      1  C   UNL A   1      34.659  34.477  29.140  1.00  0.00     0.188 C 
ENDROOT
BRANCH   1   2
ATOM      2  C   UNL A   1      33.833  33.502  28.303  1.00  0.00     0.188 C 
BRANCH   2   3
ATOM      3  O   UNL A   1      34.533  32.508  27.583  1.00  0.00    -0.376 OA
BRANCH   3   4
ATOM      4  C   UNL A   1      34.651  31.222  28.187  1.00  0.00     0.202 C 
BRANCH   4   5
ATOM      5  C   UNL A   1      35.171  30.018  27.373  1.00  0.00     0.261 C 
BRANCH   5   6
ATOM      6  O   UNL A   1      34.326  28.836  27.398  1.00  0.00    -0.463 OA
BRANCH   6   7
ATOM      7  C   UNL A   1      33.282  28.838  26.532  1.00  0.00     0.310 C 
ATOM      8  O   UNL A   1      32.488  29.778  26.456  1.00  0.00    -0.252 OA
BRANCH   7   9
ATOM      9  C   UNL A   1      33.121  27.653  25.596  1.00  0.00     0.161 C 
BRANCH   9  10
ATOM     10  C   UNL A   1      31.801  26.941  25.392  1.00  0.00     0.000 A 
ATOM     11  C   UNL A   1      31.518  25.573  25.561  1.00  0.00     0.093 A 
ATOM     12  N   UNL A   1      30.166  25.429  25.319  1.00  0.00    -0.352 N 
ATOM     13  C   UNL A   1      29.710  26.492  24.575  1.00  0.00     0.046 A 
ATOM     14  H   UNL A   1      29.611  24.677  25.631  1.00  0.00     0.167 HD
ATOM     15  C   UNL A   1      30.703  27.464  24.623  1.00  0.00     0.008 A 
ATOM     16  C   UNL A   1      28.523  26.655  23.849  1.00  0.00     0.030 A 
ATOM     17  C   UNL A   1      30.514  28.644  23.873  1.00  0.00     0.057 A 
ATOM     18  C   UNL A   1      28.390  27.812  23.068  1.00  0.00     0.049 A 
ATOM     19  C   UNL A   1      29.386  28.788  23.052  1.00  0.00     0.130 A 
BRANCH  11  20
ATOM     20  C   UNL A   1      32.447  24.495  25.907  1.00  0.00     0.227 C 
ATOM     21  O   UNL A   1      32.303  23.798  26.914  1.00  0.00    -0.285 OA
BRANCH  20  22
ATOM     22  C   UNL A   1      33.672  24.213  25.103  1.00  0.00     0.113 A 
ATOM     23  C   UNL A   1      37.410  23.857  25.573  1.00  0.00     0.044 C 
ATOM     24  C   UNL A   1      36.034  23.829  24.976  1.00  0.00    -0.047 A 
ATOM     25  C   UNL A   1      35.812  23.147  23.775  1.00  0.00     0.023 A 
ATOM     26  C   UNL A   1      34.938  24.371  25.657  1.00  0.00     0.036 A 
ATOM     27  C   UNL A   1      34.520  23.062  23.286  1.00  0.00     0.112 A 
ATOM     28  N   UNL A   1      33.451  23.592  23.914  1.00  0.00    -0.253 NA
ENDBRANCH  20  22
ENDBRANCH  11  20
BRANCH  19  29
ATOM     29  O   UNL A   1      29.404  29.915  22.279  1.00  0.00    -0.406 OA
BRANCH  29  30
ATOM     30  C   UNL A   1      28.840  31.098  22.817  1.00  0.00     0.573 C 
ATOM     31  F   UNL A   1      29.220  31.296  24.098  1.00  0.00    -0.132 F 
ATOM     32  F   UNL A   1      29.183  32.172  22.074  1.00  0.00    -0.132 F 
ATOM     33  F   UNL A   1      27.493  30.984  22.795  1.00  0.00    -0.132 F 
ENDBRANCH  29  30
ENDBRANCH  19  29
ENDBRANCH   9  10
ENDBRANCH   7   9
ENDBRANCH   6   7
ENDBRANCH   5   6
ENDBRANCH   4   5
ENDBRANCH   3   4
ENDBRANCH   2   3
ENDBRANCH   1   2
BRANCH   1  34
ATOM     34  O   UNL A   1      34.071  35.058  30.292  1.00  0.00    -0.377 OA
BRANCH  34  35
ATOM     35  C   UNL A   1      34.250  34.445  31.561  1.00  0.00     0.188 C 
BRANCH  35  36
ATOM     36  C   UNL A   1      34.967  35.236  32.654  1.00  0.00     0.188 C 
BRANCH  36  37
ATOM     37  O   UNL A   1      36.384  35.096  32.769  1.00  0.00    -0.376 OA
BRANCH  37  38
ATOM     38  C   UNL A   1      37.071  34.216  31.885  1.00  0.00     0.202 C 
BRANCH  38  39
ATOM     39  C   UNL A   1      37.091  32.758  32.334  1.00  0.00     0.261 C 
BRANCH  39  40
ATOM     40  O   UNL A   1      36.730  31.883  31.257  1.00  0.00    -0.460 OA
BRANCH  40  41
ATOM     41  C   UNL A   1      37.079  30.587  31.421  1.00  0.00     0.338 C 
ATOM     42  O   UNL A   1      36.389  29.674  31.839  1.00  0.00    -0.246 OA
BRANCH  41  43
ATOM     43  C   UNL A   1      38.418  30.390  30.840  1.00  0.00     0.060 A 
ATOM     44  C   UNL A   1      38.553  30.462  29.448  1.00  0.00     0.016 A 
ATOM     45  C   UNL A   1      39.520  30.121  31.654  1.00  0.00     0.016 A 
ATOM     46  C   UNL A   1      39.796  30.250  28.859  1.00  0.00     0.010 A 
ATOM     47  C   UNL A   1      40.761  29.887  31.062  1.00  0.00     0.010 A 
ATOM     48  C   UNL A   1      40.895  29.930  29.663  1.00  0.00    -0.014 A 
BRANCH  48  49
ATOM     49  C   UNL A   1      42.159  29.484  29.043  1.00  0.00     0.031 A 
ATOM     50  C   UNL A   1      42.274  28.053  28.610  1.00  0.00     0.074 A 
ATOM     51  C   UNL A   1      43.182  30.341  28.894  1.00  0.00     0.049 A 
ATOM     52  N   UNL A   1      43.315  27.405  28.158  1.00  0.00    -0.248 NA
ATOM     53  C   UNL A   1      41.050  27.240  28.705  1.00  0.00     0.031 C 
ATOM     54  C   UNL A   1      43.153  31.761  29.235  1.00  0.00     0.029 A 
ATOM     55  N   UNL A   1      44.456  30.129  28.432  1.00  0.00    -0.354 N 
ATOM     56  C   UNL A   1      42.876  26.108  27.928  1.00  0.00     0.074 A 
ATOM     57  C   UNL A   1      41.482  26.053  28.306  1.00  0.00     0.031 C 
ATOM     58  C   UNL A   1      44.365  32.291  28.990  1.00  0.00     0.029 A 
ATOM     59  C   UNL A   1      45.260  31.237  28.521  1.00  0.00     0.049 A 
ATOM     60  H   UNL A   1      44.763  29.265  28.072  1.00  0.00     0.167 HD
ATOM     61  C   UNL A   1      43.582  25.059  27.446  1.00  0.00     0.037 A 
ATOM     62  C   UNL A   1      46.580  31.367  28.284  1.00  0.00     0.037 A 
ATOM     63  C   UNL A   1      44.971  25.131  27.077  1.00  0.00     0.049 A 
ATOM     64  C   UNL A   1      47.362  30.158  27.840  1.00  0.00     0.074 A 
ATOM     65  C   UNL A   1      45.775  24.137  26.550  1.00  0.00     0.029 A 
ATOM     66  N   UNL A   1      45.764  26.260  27.213  1.00  0.00    -0.354 N 
ATOM     67  N   UNL A   1      46.937  28.941  27.593  1.00  0.00    -0.248 NA
ATOM     68  C   UNL A   1      48.808  30.338  27.649  1.00  0.00     0.031 C 
ATOM     69  C   UNL A   1      47.071  24.647  26.426  1.00  0.00     0.029 A 
ATOM     70  C   UNL A   1      47.060  25.976  26.820  1.00  0.00     0.049 A 
ATOM     71  H   UNL A   1      45.451  27.134  27.541  1.00  0.00     0.167 HD
ATOM     72  C   UNL A   1      48.056  28.220  27.194  1.00  0.00     0.074 A 
ATOM     73  C   UNL A   1      49.173  29.141  27.213  1.00  0.00     0.031 C 
ATOM     74  C   UNL A   1      48.155  26.912  26.845  1.00  0.00     0.037 A 
BRANCH  61  75
ATOM     75  C   UNL A   1      42.879  23.739  27.326  1.00  0.00     0.057 A 
ATOM     76  C   UNL A   1      42.391  23.264  26.102  1.00  0.00     0.134 A 
ATOM     77  C   UNL A   1      42.728  22.913  28.447  1.00  0.00     0.134 A 
ATOM     78  F   UNL A   1      42.487  24.013  24.993  1.00  0.00    -0.206 F 
ATOM     79  C   UNL A   1      41.766  22.019  26.001  1.00  0.00     0.040 A 
ATOM     80  C   UNL A   1      42.129  21.657  28.352  1.00  0.00     0.040 A 
ATOM     81  F   UNL A   1      43.171  23.309  29.649  1.00  0.00    -0.206 F 
ATOM     82  C   UNL A   1      41.642  21.207  27.127  1.00  0.00     0.006 A 
ENDBRANCH  61  75
BRANCH  62  83
ATOM     83  C   UNL A   1      47.258  32.671  28.495  1.00  0.00     0.057 A 
ATOM     84  C   UNL A   1      47.775  33.023  29.747  1.00  0.00     0.134 A 
ATOM     85  C   UNL A   1      47.374  33.613  27.465  1.00  0.00     0.134 A 
ATOM     86  F   UNL A   1      47.674  32.174  30.781  1.00  0.00    -0.206 F 
ATOM     87  C   UNL A   1      48.360  34.270  29.975  1.00  0.00     0.040 A 
ATOM     88  C   UNL A   1      47.982  34.853  27.671  1.00  0.00     0.040 A 
ATOM     89  F   UNL A   1      46.899  33.341  26.240  1.00  0.00    -0.206 F 
ATOM     90  C   UNL A   1      48.467  35.188  28.932  1.00  0.00     0.006 A 
ENDBRANCH  62  83
BRANCH  74  91
ATOM     91  C   UNL A   1      49.509  26.411  26.434  1.00  0.00     0.057 A 
ATOM     92  C   UNL A   1      49.966  26.516  25.115  1.00  0.00     0.134 A 
ATOM     93  C   UNL A   1      50.383  25.861  27.381  1.00  0.00     0.134 A 
ATOM     94  F   UNL A   1      49.174  27.022  24.158  1.00  0.00    -0.206 F 
ATOM     95  C   UNL A   1      51.237  26.071  24.747  1.00  0.00     0.040 A 
ATOM     96  C   UNL A   1      51.667  25.442  27.031  1.00  0.00     0.040 A 
ATOM     97  F   UNL A   1      50.012  25.742  28.664  1.00  0.00    -0.206 F 
ATOM     98  C   UNL A   1      52.094  25.540  25.709  1.00  0.00     0.006 A 
ENDBRANCH  74  91
ENDBRANCH  48  49
ENDBRANCH  41  43
ENDBRANCH  40  41
ENDBRANCH  39  40
ENDBRANCH  38  39
ENDBRANCH  37  38
ENDBRANCH  36  37
ENDBRANCH  35  36
ENDBRANCH  34  35
ENDBRANCH   1  34
TORSDOF 25
ENDMDL
MODEL 3
REMARK VINA RESULT:      -9.7      3.712      9.137
REMARK SMILES Cc1ccnc(C(=O)c2[nH]c3ccc(OC(F)(F)F)cc3c2CC(=O)OCCOCCOCCOCCOC(=O)c2ccc(-c3c4nc(c(-c5c(F)cccc5F)c5ccc([nH]5)c(-c5c(F)cccc5F)c5nc(c(-c6c(F)cccc6F)c6ccc3[nH]6)C=C5)C=C4)cc2)c1
REMARK SMILES IDX 31 1 30 2 29 3 28 4 27 5 26 6 24 7 25 8 23 9 22 10 9 11
REMARK SMILES IDX 10 12 11 13 21 15 12 16 20 17 13 18 14 19 7 20 8 21 6 22
REMARK SMILES IDX 1 23 2 24 3 25 95 26 4 27 5 28 15 29 16 30 17 31 18 32 19 33
REMARK SMILES IDX 32 34 33 35 34 36 35 37 36 38 37 39 38 40 39 41 40 42 41 43
REMARK SMILES IDX 42 44 94 45 43 46 93 47 44 48 45 49 46 50 87 51 47 52 92 53
REMARK SMILES IDX 86 54 88 55 48 56 91 57 85 58 84 59 49 61 75 62 58 63 74 64
REMARK SMILES IDX 59 65 62 66 73 67 89 68 60 69 61 70 72 72 90 73 63 74 50 75
REMARK SMILES IDX 51 76 56 77 52 78 53 79 55 80 57 81 54 82 76 83 77 84 82 85
REMARK SMILES IDX 78 86 79 87 81 88 83 89 80 90 64 91 65 92 70 93 66 94 67 95
REMARK SMILES IDX 69 96 71 97 68 98
REMARK H PARENT 10 14 88 60 62 71
REMARK Flexibility Score: inf
ROOT
ATOM      1  C   UNL A   1      39.587  24.516  27.566  1.00  0.00     0.188 C 
ENDROOT
BRANCH   1   2
ATOM      2  C   UNL A   1      38.724  23.860  26.490  1.00  0.00     0.188 C 
BRANCH   2   3
ATOM      3  O   UNL A   1      39.053  22.539  26.110  1.00  0.00    -0.376 OA
BRANCH   3   4
ATOM      4  C   UNL A   1      37.986  21.698  25.676  1.00  0.00     0.202 C 
BRANCH   4   5
ATOM      5  C   UNL A   1      37.370  21.876  24.272  1.00  0.00     0.261 C 
BRANCH   5   6
ATOM      6  O   UNL A   1      35.922  22.005  24.238  1.00  0.00    -0.463 OA
BRANCH   6   7
ATOM      7  C   UNL A   1      35.444  23.273  24.195  1.00  0.00     0.310 C 
ATOM      8  O   UNL A   1      35.372  23.919  23.147  1.00  0.00    -0.252 OA
BRANCH   7   9
ATOM      9  C   UNL A   1      34.940  23.896  25.486  1.00  0.00     0.161 C 
BRANCH   9  10
ATOM     10  C   UNL A   1      33.495  23.811  25.929  1.00  0.00     0.000 A 
ATOM     11  C   UNL A   1      32.748  22.659  26.236  1.00  0.00     0.093 A 
ATOM     12  N   UNL A   1      31.507  23.106  26.648  1.00  0.00    -0.352 N 
ATOM     13  C   UNL A   1      31.291  24.380  26.177  1.00  0.00     0.046 A 
ATOM     14  H   UNL A   1      30.872  22.589  27.195  1.00  0.00     0.167 HD
ATOM     15  C   UNL A   1      32.523  24.856  25.742  1.00  0.00     0.008 A 
ATOM     16  C   UNL A   1      30.111  25.126  26.077  1.00  0.00     0.030 A 
ATOM     17  C   UNL A   1      32.567  26.131  25.140  1.00  0.00     0.057 A 
ATOM     18  C   UNL A   1      30.176  26.366  25.421  1.00  0.00     0.049 A 
ATOM     19  C   UNL A   1      31.385  26.856  24.929  1.00  0.00     0.130 A 
BRANCH  11  20
ATOM     20  C   UNL A   1      33.166  21.259  26.137  1.00  0.00     0.227 C 
ATOM     21  O   UNL A   1      33.671  20.652  27.084  1.00  0.00    -0.285 OA
BRANCH  20  22
ATOM     22  C   UNL A   1      33.075  20.491  24.861  1.00  0.00     0.113 A 
ATOM     23  C   UNL A   1      33.418  16.939  23.603  1.00  0.00     0.044 C 
ATOM     24  C   UNL A   1      33.118  18.407  23.679  1.00  0.00    -0.047 A 
ATOM     25  C   UNL A   1      32.356  19.013  22.675  1.00  0.00     0.023 A 
ATOM     26  C   UNL A   1      33.482  19.163  24.799  1.00  0.00     0.036 A 
ATOM     27  C   UNL A   1      32.019  20.349  22.809  1.00  0.00     0.112 A 
ATOM     28  N   UNL A   1      32.374  21.102  23.869  1.00  0.00    -0.253 NA
ENDBRANCH  20  22
ENDBRANCH  11  20
BRANCH  19  29
ATOM     29  O   UNL A   1      31.561  28.006  24.212  1.00  0.00    -0.406 OA
BRANCH  29  30
ATOM     30  C   UNL A   1      31.620  29.230  24.924  1.00  0.00     0.573 C 
ATOM     31  F   UNL A   1      30.669  30.096  24.511  1.00  0.00    -0.132 F 
ATOM     32  F   UNL A   1      31.490  29.017  26.251  1.00  0.00    -0.132 F 
ATOM     33  F   UNL A   1      32.826  29.799  24.705  1.00  0.00    -0.132 F 
ENDBRANCH  29  30
ENDBRANCH  19  29
ENDBRANCH   9  10
ENDBRANCH   7   9
ENDBRANCH   6   7
ENDBRANCH   5   6
ENDBRANCH   4   5
ENDBRANCH   3   4
ENDBRANCH   2   3
ENDBRANCH   1   2
BRANCH   1  34
ATOM     34  O   UNL A   1      40.323  25.683  27.236  1.00  0.00    -0.377 OA
BRANCH  34  35
ATOM     35  C   UNL A   1      40.991  25.765  25.985  1.00  0.00     0.188 C 
BRANCH  35  36
ATOM     36  C   UNL A   1      42.463  25.359  25.922  1.00  0.00     0.188 C 
BRANCH  36  37
ATOM     37  O   UNL A   1      42.860  24.411  24.931  1.00  0.00    -0.376 OA
BRANCH  37  38
ATOM     38  C   UNL A   1      43.142  23.071  25.322  1.00  0.00     0.202 C 
BRANCH  38  39
ATOM     39  C   UNL A   1      44.619  22.782  25.572  1.00  0.00     0.261 C 
BRANCH  39  40
ATOM     40  O   UNL A   1      44.922  22.828  26.974  1.00  0.00    -0.460 OA
BRANCH  40  41
ATOM     41  C   UNL A   1      45.769  23.812  27.352  1.00  0.00     0.338 C 
ATOM     42  O   UNL A   1      46.936  23.957  27.033  1.00  0.00    -0.246 OA
BRANCH  41  43
ATOM     43  C   UNL A   1      45.002  24.822  28.101  1.00  0.00     0.060 A 
ATOM     44  C   UNL A   1      45.396  26.162  27.999  1.00  0.00     0.016 A 
ATOM     45  C   UNL A   1      43.923  24.451  28.906  1.00  0.00     0.016 A 
ATOM     46  C   UNL A   1      44.716  27.141  28.717  1.00  0.00     0.010 A 
ATOM     47  C   UNL A   1      43.257  25.430  29.643  1.00  0.00     0.010 A 
ATOM     48  C   UNL A   1      43.667  26.773  29.565  1.00  0.00    -0.014 A 
BRANCH  48  49
ATOM     49  C   UNL A   1      43.089  27.761  30.497  1.00  0.00     0.031 A 
ATOM     50  C   UNL A   1      43.725  27.927  31.845  1.00  0.00     0.074 A 
ATOM     51  C   UNL A   1      42.006  28.475  30.146  1.00  0.00     0.049 A 
ATOM     52  N   UNL A   1      43.326  28.636  32.868  1.00  0.00    -0.248 NA
ATOM     53  C   UNL A   1      44.977  27.187  32.073  1.00  0.00     0.031 C 
ATOM     54  C   UNL A   1      41.346  28.425  28.843  1.00  0.00     0.029 A 
ATOM     55  N   UNL A   1      41.261  29.370  30.870  1.00  0.00    -0.354 N 
ATOM     56  C   UNL A   1      44.270  28.418  33.863  1.00  0.00     0.074 A 
ATOM     57  C   UNL A   1      45.250  27.499  33.331  1.00  0.00     0.031 C 
ATOM     58  C   UNL A   1      40.276  29.240  28.867  1.00  0.00     0.029 A 
ATOM     59  C   UNL A   1      40.156  29.828  30.199  1.00  0.00     0.049 A 
ATOM     60  H   UNL A   1      41.497  29.655  31.782  1.00  0.00     0.167 HD
ATOM     61  C   UNL A   1      44.307  28.942  35.110  1.00  0.00     0.037 A 
ATOM     62  C   UNL A   1      39.144  30.606  30.631  1.00  0.00     0.037 A 
ATOM     63  C   UNL A   1      43.320  29.854  35.625  1.00  0.00     0.049 A 
ATOM     64  C   UNL A   1      39.162  31.096  32.056  1.00  0.00     0.074 A 
ATOM     65  C   UNL A   1      43.277  30.468  36.863  1.00  0.00     0.029 A 
ATOM     66  N   UNL A   1      42.194  30.270  34.930  1.00  0.00    -0.354 N 
ATOM     67  N   UNL A   1      40.072  30.914  32.985  1.00  0.00    -0.248 NA
ATOM     68  C   UNL A   1      38.009  31.894  32.496  1.00  0.00     0.031 C 
ATOM     69  C   UNL A   1      42.092  31.206  36.940  1.00  0.00     0.029 A 
ATOM     70  C   UNL A   1      41.427  31.099  35.728  1.00  0.00     0.049 A 
ATOM     71  H   UNL A   1      41.974  30.013  34.005  1.00  0.00     0.167 HD
ATOM     72  C   UNL A   1      39.614  31.594  34.106  1.00  0.00     0.074 A 
ATOM     73  C   UNL A   1      38.355  32.208  33.736  1.00  0.00     0.031 C 
ATOM     74  C   UNL A   1      40.179  31.701  35.335  1.00  0.00     0.037 A 
BRANCH  61  75
ATOM     75  C   UNL A   1      45.424  28.513  36.015  1.00  0.00     0.057 A 
ATOM     76  C   UNL A   1      46.630  29.219  36.095  1.00  0.00     0.134 A 
ATOM     77  C   UNL A   1      45.269  27.400  36.851  1.00  0.00     0.134 A 
ATOM     78  F   UNL A   1      46.850  30.283  35.309  1.00  0.00    -0.206 F 
ATOM     79  C   UNL A   1      47.649  28.825  36.966  1.00  0.00     0.040 A 
ATOM     80  C   UNL A   1      46.269  27.013  37.744  1.00  0.00     0.040 A 
ATOM     81  F   UNL A   1      44.139  26.678  36.824  1.00  0.00    -0.206 F 
ATOM     82  C   UNL A   1      47.466  27.724  37.801  1.00  0.00     0.006 A 
ENDBRANCH  61  75
BRANCH  62  83
ATOM     83  C   UNL A   1      38.012  30.940  29.730  1.00  0.00     0.057 A 
ATOM     84  C   UNL A   1      37.917  32.198  29.124  1.00  0.00     0.134 A 
ATOM     85  C   UNL A   1      36.979  30.027  29.481  1.00  0.00     0.134 A 
ATOM     86  F   UNL A   1      38.862  33.125  29.343  1.00  0.00    -0.206 F 
ATOM     87  C   UNL A   1      36.827  32.546  28.325  1.00  0.00     0.040 A 
ATOM     88  C   UNL A   1      35.898  30.352  28.660  1.00  0.00     0.040 A 
ATOM     89  F   UNL A   1      37.008  28.804  30.031  1.00  0.00    -0.206 F 
ATOM     90  C   UNL A   1      35.814  31.619  28.089  1.00  0.00     0.006 A 
ENDBRANCH  62  83
BRANCH  74  91
ATOM     91  C   UNL A   1      39.454  32.530  36.355  1.00  0.00     0.057 A 
ATOM     92  C   UNL A   1      38.396  32.012  37.111  1.00  0.00     0.134 A 
ATOM     93  C   UNL A   1      39.852  33.848  36.617  1.00  0.00     0.134 A 
ATOM     94  F   UNL A   1      37.958  30.761  36.902  1.00  0.00    -0.206 F 
ATOM     95  C   UNL A   1      37.744  32.782  38.076  1.00  0.00     0.040 A 
ATOM     96  C   UNL A   1      39.230  34.616  37.601  1.00  0.00     0.040 A 
ATOM     97  F   UNL A   1      40.867  34.402  35.937  1.00  0.00    -0.206 F 
ATOM     98  C   UNL A   1      38.167  34.086  38.328  1.00  0.00     0.006 A 
ENDBRANCH  74  91
ENDBRANCH  48  49
ENDBRANCH  41  43
ENDBRANCH  40  41
ENDBRANCH  39  40
ENDBRANCH  38  39
ENDBRANCH  37  38
ENDBRANCH  36  37
ENDBRANCH  35  36
ENDBRANCH  34  35
ENDBRANCH   1  34
TORSDOF 25
ENDMDL
