MODEL 1
REMARK VINA RESULT:      -9.9      0.000      0.000
REMARK SMILES NC(=O)[C@@H]1CCCCN1C(=O)N[C@H]1C=C[C@@H](C(=O)OCCOCCOCCOCCOC(=O)c2ccc(-c3c4nc(c(-c5c(F)cccc5F)c5ccc([nH]5)c(-c5c(F)cccc5F)c5nc(c(-c6c(F)cccc6F)c6ccc3[nH]6)C=C5)C=C4)cc2)C1
REMARK SMILES IDX 24 1 23 2 22 3 21 4 20 5 19 6 17 7 18 8 16 9 13 10 14 11
REMARK SMILES IDX 88 12 15 13 12 14 10 15 11 16 9 18 4 19 5 20 6 21 8 22 7 23
REMARK SMILES IDX 2 24 1 25 3 28 25 29 26 30 27 31 28 32 29 33 30 34 31 35
REMARK SMILES IDX 32 36 33 37 34 38 35 39 87 40 36 41 86 42 37 43 38 44 39 45
REMARK SMILES IDX 80 46 40 47 85 48 79 49 81 50 41 51 84 52 78 53 77 54 42 56
REMARK SMILES IDX 68 57 51 58 67 59 52 60 55 61 66 62 82 63 53 64 54 65 65 67
REMARK SMILES IDX 83 68 56 69 43 70 44 71 49 72 45 73 46 74 48 75 50 76 47 77
REMARK SMILES IDX 69 78 70 79 75 80 71 81 72 82 74 83 76 84 73 85 57 86 58 87
REMARK SMILES IDX 63 88 59 89 60 90 62 91 64 92 61 93
REMARK H PARENT 12 17 1 26 1 27 81 55 55 66
REMARK Flexibility Score: inf
ROOT
ATOM      1  C   UNL A   1      32.915  31.988  27.459  1.00  0.00     0.188 C 
ENDROOT
BRANCH   1   2
ATOM      2  C   UNL A   1      34.191  31.156  27.662  1.00  0.00     0.188 C 
BRANCH   2   3
ATOM      3  O   UNL A   1      34.115  29.770  27.962  1.00  0.00    -0.376 OA
BRANCH   3   4
ATOM      4  C   UNL A   1      34.438  28.789  26.988  1.00  0.00     0.202 C 
BRANCH   4   5
ATOM      5  C   UNL A   1      34.036  28.921  25.508  1.00  0.00     0.261 C 
BRANCH   5   6
ATOM      6  O   UNL A   1      33.194  27.891  24.964  1.00  0.00    -0.463 OA
BRANCH   6   7
ATOM      7  C   UNL A   1      31.865  28.068  25.134  1.00  0.00     0.312 C 
ATOM      8  O   UNL A   1      31.348  29.132  25.464  1.00  0.00    -0.252 OA
BRANCH   7   9
ATOM      9  C   UNL A   1      31.025  26.817  24.912  1.00  0.00     0.124 C 
ATOM     10  C   UNL A   1      30.659  24.578  24.089  1.00  0.00     0.107 C 
ATOM     11  C   UNL A   1      31.143  24.550  25.507  1.00  0.00    -0.006 C 
ATOM     12  C   UNL A   1      31.180  25.954  23.657  1.00  0.00     0.048 C 
ATOM     13  C   UNL A   1      31.300  25.796  25.979  1.00  0.00    -0.014 C 
BRANCH  10  14
ATOM     14  N   UNL A   1      31.175  23.474  23.322  1.00  0.00    -0.332 N 
ATOM     15  C   UNL A   1      32.388  22.905  23.144  1.00  0.00     0.318 C 
ATOM     16  O   UNL A   1      32.460  22.200  22.135  1.00  0.00    -0.249 OA
ATOM     17  H   UNL A   1      30.472  23.023  22.800  1.00  0.00     0.165 HD
BRANCH  15  18
ATOM     18  N   UNL A   1      33.454  23.078  23.995  1.00  0.00    -0.313 N 
ATOM     19  C   UNL A   1      33.767  22.006  24.988  1.00  0.00     0.176 C 
ATOM     20  C   UNL A   1      34.242  22.620  26.331  1.00  0.00     0.035 C 
ATOM     21  C   UNL A   1      35.361  23.632  26.170  1.00  0.00     0.004 C 
ATOM     22  C   UNL A   1      34.537  24.048  23.851  1.00  0.00     0.122 C 
ATOM     23  C   UNL A   1      34.949  24.690  25.167  1.00  0.00     0.022 C 
BRANCH  19  24
ATOM     24  C   UNL A   1      32.710  20.967  25.455  1.00  0.00     0.240 C 
ATOM     25  N   UNL A   1      33.226  19.912  26.169  1.00  0.00    -0.368 N 
ATOM     26  H   UNL A   1      32.628  19.207  26.504  1.00  0.00     0.159 HD
ATOM     27  H   UNL A   1      34.194  19.863  26.343  1.00  0.00     0.159 HD
ATOM     28  O   UNL A   1      31.495  21.095  25.336  1.00  0.00    -0.273 OA
ENDBRANCH  19  24
ENDBRANCH  15  18
ENDBRANCH  10  14
ENDBRANCH   7   9
ENDBRANCH   6   7
ENDBRANCH   5   6
ENDBRANCH   4   5
ENDBRANCH   3   4
ENDBRANCH   2   3
ENDBRANCH   1   2
BRANCH   1  29
ATOM     29  O   UNL A   1      33.022  33.338  27.855  1.00  0.00    -0.377 OA
BRANCH  29  30
ATOM     30  C   UNL A   1      34.336  33.871  27.952  1.00  0.00     0.188 C 
BRANCH  30  31
ATOM     31  C   UNL A   1      34.778  34.471  29.304  1.00  0.00     0.188 C 
BRANCH  31  32
ATOM     32  O   UNL A   1      33.927  34.142  30.395  1.00  0.00    -0.376 OA
BRANCH  32  33
ATOM     33  C   UNL A   1      33.958  34.965  31.554  1.00  0.00     0.202 C 
BRANCH  33  34
ATOM     34  C   UNL A   1      35.209  34.903  32.446  1.00  0.00     0.261 C 
BRANCH  34  35
ATOM     35  O   UNL A   1      36.230  33.972  32.057  1.00  0.00    -0.460 OA
BRANCH  35  36
ATOM     36  C   UNL A   1      36.228  32.751  32.627  1.00  0.00     0.338 C 
ATOM     37  O   UNL A   1      35.444  32.329  33.462  1.00  0.00    -0.246 OA
BRANCH  36  38
ATOM     38  C   UNL A   1      37.222  31.919  31.916  1.00  0.00     0.060 A 
ATOM     39  C   UNL A   1      38.151  31.185  32.666  1.00  0.00     0.016 A 
ATOM     40  C   UNL A   1      37.235  31.860  30.521  1.00  0.00     0.016 A 
ATOM     41  C   UNL A   1      39.126  30.425  32.021  1.00  0.00     0.010 A 
ATOM     42  C   UNL A   1      38.227  31.116  29.875  1.00  0.00     0.010 A 
ATOM     43  C   UNL A   1      39.200  30.428  30.623  1.00  0.00    -0.014 A 
BRANCH  43  44
ATOM     44  C   UNL A   1      40.410  29.899  29.949  1.00  0.00     0.031 A 
ATOM     45  C   UNL A   1      41.560  30.839  29.712  1.00  0.00     0.074 A 
ATOM     46  C   UNL A   1      40.498  28.616  29.561  1.00  0.00     0.049 A 
ATOM     47  N   UNL A   1      42.691  30.635  29.088  1.00  0.00    -0.248 NA
ATOM     48  C   UNL A   1      41.403  32.200  30.247  1.00  0.00     0.031 C 
ATOM     49  C   UNL A   1      39.473  27.598  29.767  1.00  0.00     0.029 A 
ATOM     50  N   UNL A   1      41.502  27.959  28.893  1.00  0.00    -0.354 N 
ATOM     51  C   UNL A   1      43.373  31.843  29.144  1.00  0.00     0.074 A 
ATOM     52  C   UNL A   1      42.515  32.782  29.832  1.00  0.00     0.031 C 
ATOM     53  C   UNL A   1      39.890  26.446  29.214  1.00  0.00     0.029 A 
ATOM     54  C   UNL A   1      41.194  26.658  28.586  1.00  0.00     0.049 A 
ATOM     55  H   UNL A   1      42.360  28.381  28.658  1.00  0.00     0.167 HD
ATOM     56  C   UNL A   1      44.607  32.143  28.671  1.00  0.00     0.037 A 
ATOM     57  C   UNL A   1      41.873  25.753  27.853  1.00  0.00     0.037 A 
ATOM     58  C   UNL A   1      45.450  31.208  27.974  1.00  0.00     0.049 A 
ATOM     59  C   UNL A   1      43.210  26.125  27.267  1.00  0.00     0.074 A 
ATOM     60  C   UNL A   1      46.725  31.404  27.472  1.00  0.00     0.029 A 
ATOM     61  N   UNL A   1      45.092  29.905  27.659  1.00  0.00    -0.354 N 
ATOM     62  N   UNL A   1      43.866  27.257  27.351  1.00  0.00    -0.248 NA
ATOM     63  C   UNL A   1      43.903  25.089  26.487  1.00  0.00     0.031 C 
ATOM     64  C   UNL A   1      47.111  30.241  26.798  1.00  0.00     0.029 A 
ATOM     65  C   UNL A   1      46.107  29.295  26.940  1.00  0.00     0.049 A 
ATOM     66  H   UNL A   1      44.243  29.475  27.911  1.00  0.00     0.167 HD
ATOM     67  C   UNL A   1      45.057  27.065  26.660  1.00  0.00     0.074 A 
ATOM     68  C   UNL A   1      45.036  25.701  26.171  1.00  0.00     0.031 C 
ATOM     69  C   UNL A   1      46.077  27.936  26.456  1.00  0.00     0.037 A 
BRANCH  56  70
ATOM     70  C   UNL A   1      45.083  33.556  28.853  1.00  0.00     0.057 A 
ATOM     71  C   UNL A   1      45.737  33.981  30.019  1.00  0.00     0.134 A 
ATOM     72  C   UNL A   1      44.867  34.513  27.853  1.00  0.00     0.134 A 
ATOM     73  F   UNL A   1      45.964  33.120  31.024  1.00  0.00    -0.206 F 
ATOM     74  C   UNL A   1      46.116  35.312  30.202  1.00  0.00     0.040 A 
ATOM     75  C   UNL A   1      45.272  35.839  28.010  1.00  0.00     0.040 A 
ATOM     76  F   UNL A   1      44.253  34.177  26.710  1.00  0.00    -0.206 F 
ATOM     77  C   UNL A   1      45.886  36.245  29.193  1.00  0.00     0.006 A 
ENDBRANCH  56  70
BRANCH  57  78
ATOM     78  C   UNL A   1      41.283  24.410  27.623  1.00  0.00     0.057 A 
ATOM     79  C   UNL A   1      41.747  23.283  28.310  1.00  0.00     0.134 A 
ATOM     80  C   UNL A   1      40.228  24.227  26.720  1.00  0.00     0.134 A 
ATOM     81  F   UNL A   1      42.771  23.389  29.169  1.00  0.00    -0.206 F 
ATOM     82  C   UNL A   1      41.183  22.022  28.107  1.00  0.00     0.040 A 
ATOM     83  C   UNL A   1      39.639  22.977  26.527  1.00  0.00     0.040 A 
ATOM     84  F   UNL A   1      39.740  25.268  26.030  1.00  0.00    -0.206 F 
ATOM     85  C   UNL A   1      40.119  21.868  27.220  1.00  0.00     0.006 A 
ENDBRANCH  57  78
BRANCH  69  86
ATOM     86  C   UNL A   1      47.278  27.437  25.702  1.00  0.00     0.057 A 
ATOM     87  C   UNL A   1      48.320  26.744  26.331  1.00  0.00     0.134 A 
ATOM     88  C   UNL A   1      47.364  27.605  24.313  1.00  0.00     0.134 A 
ATOM     89  F   UNL A   1      48.307  26.555  27.660  1.00  0.00    -0.206 F 
ATOM     90  C   UNL A   1      49.414  26.258  25.610  1.00  0.00     0.040 A 
ATOM     91  C   UNL A   1      48.437  27.097  23.578  1.00  0.00     0.040 A 
ATOM     92  F   UNL A   1      46.396  28.249  23.643  1.00  0.00    -0.206 F 
ATOM     93  C   UNL A   1      49.470  26.426  24.229  1.00  0.00     0.006 A 
ENDBRANCH  69  86
ENDBRANCH  43  44
ENDBRANCH  36  38
ENDBRANCH  35  36
ENDBRANCH  34  35
ENDBRANCH  33  34
ENDBRANCH  32  33
ENDBRANCH  31  32
ENDBRANCH  30  31
ENDBRANCH  29  30
ENDBRANCH   1  29
TORSDOF 23
ENDMDL
MODEL 2
REMARK VINA RESULT:      -8.5      3.800      8.802
REMARK SMILES NC(=O)[C@@H]1CCCCN1C(=O)N[C@H]1C=C[C@@H](C(=O)OCCOCCOCCOCCOC(=O)c2ccc(-c3c4nc(c(-c5c(F)cccc5F)c5ccc([nH]5)c(-c5c(F)cccc5F)c5nc(c(-c6c(F)cccc6F)c6ccc3[nH]6)C=C5)C=C4)cc2)C1
REMARK SMILES IDX 24 1 23 2 22 3 21 4 20 5 19 6 17 7 18 8 16 9 13 10 14 11
REMARK SMILES IDX 88 12 15 13 12 14 10 15 11 16 9 18 4 19 5 20 6 21 8 22 7 23
REMARK SMILES IDX 2 24 1 25 3 28 25 29 26 30 27 31 28 32 29 33 30 34 31 35
REMARK SMILES IDX 32 36 33 37 34 38 35 39 87 40 36 41 86 42 37 43 38 44 39 45
REMARK SMILES IDX 80 46 40 47 85 48 79 49 81 50 41 51 84 52 78 53 77 54 42 56
REMARK SMILES IDX 68 57 51 58 67 59 52 60 55 61 66 62 82 63 53 64 54 65 65 67
REMARK SMILES IDX 83 68 56 69 43 70 44 71 49 72 45 73 46 74 48 75 50 76 47 77
REMARK SMILES IDX 69 78 70 79 75 80 71 81 72 82 74 83 76 84 73 85 57 86 58 87
REMARK SMILES IDX 63 88 59 89 60 90 62 91 64 92 61 93
REMARK H PARENT 12 17 1 26 1 27 81 55 55 66
REMARK Flexibility Score: inf
ROOT
ATOM      1  C   UNL A   1      35.380  23.789  26.008  1.00  0.00     0.188 C 
ENDROOT
BRANCH   1   2
ATOM      2  C   UNL A   1      35.000  24.320  24.616  1.00  0.00     0.188 C 
BRANCH   2   3
ATOM      3  O   UNL A   1      33.846  25.127  24.436  1.00  0.00    -0.376 OA
BRANCH   3   4
ATOM      4  C   UNL A   1      32.558  24.548  24.302  1.00  0.00     0.202 C 
BRANCH   4   5
ATOM      5  C   UNL A   1      31.514  24.567  25.433  1.00  0.00     0.261 C 
BRANCH   5   6
ATOM      6  O   UNL A   1      31.528  25.699  26.318  1.00  0.00    -0.463 OA
BRANCH   6   7
ATOM      7  C   UNL A   1      31.006  26.842  25.819  1.00  0.00     0.312 C 
ATOM      8  O   UNL A   1      30.013  26.889  25.098  1.00  0.00    -0.252 OA
BRANCH   7   9
ATOM      9  C   UNL A   1      31.769  28.105  26.197  1.00  0.00     0.124 C 
ATOM     10  C   UNL A   1      33.758  29.327  26.811  1.00  0.00     0.107 C 
ATOM     11  C   UNL A   1      33.559  29.347  25.325  1.00  0.00    -0.006 C 
ATOM     12  C   UNL A   1      32.949  28.074  27.170  1.00  0.00     0.048 C 
ATOM     13  C   UNL A   1      32.428  28.708  24.989  1.00  0.00    -0.014 C 
BRANCH  10  14
ATOM     14  N   UNL A   1      35.151  29.265  27.167  1.00  0.00    -0.332 N 
ATOM     15  C   UNL A   1      36.047  30.118  27.712  1.00  0.00     0.318 C 
ATOM     16  O   UNL A   1      37.220  29.786  27.527  1.00  0.00    -0.249 OA
ATOM     17  H   UNL A   1      35.548  28.386  26.965  1.00  0.00     0.165 HD
BRANCH  15  18
ATOM     18  N   UNL A   1      35.707  31.251  28.413  1.00  0.00    -0.313 N 
ATOM     19  C   UNL A   1      36.287  31.459  29.774  1.00  0.00     0.176 C 
ATOM     20  C   UNL A   1      35.246  32.110  30.722  1.00  0.00     0.035 C 
ATOM     21  C   UNL A   1      34.603  33.358  30.148  1.00  0.00     0.004 C 
ATOM     22  C   UNL A   1      35.089  32.458  27.871  1.00  0.00     0.122 C 
ATOM     23  C   UNL A   1      34.024  33.049  28.783  1.00  0.00     0.022 C 
BRANCH  19  24
ATOM     24  C   UNL A   1      36.833  30.287  30.637  1.00  0.00     0.240 C 
ATOM     25  N   UNL A   1      38.191  30.099  30.546  1.00  0.00    -0.368 N 
ATOM     26  H   UNL A   1      38.622  29.379  31.059  1.00  0.00     0.159 HD
ATOM     27  H   UNL A   1      38.731  30.684  29.967  1.00  0.00     0.159 HD
ATOM     28  O   UNL A   1      36.173  29.639  31.444  1.00  0.00    -0.273 OA
ENDBRANCH  19  24
ENDBRANCH  15  18
ENDBRANCH  10  14
ENDBRANCH   7   9
ENDBRANCH   6   7
ENDBRANCH   5   6
ENDBRANCH   4   5
ENDBRANCH   3   4
ENDBRANCH   2   3
ENDBRANCH   1   2
BRANCH   1  29
ATOM     29  O   UNL A   1      36.733  23.411  26.146  1.00  0.00    -0.377 OA
BRANCH  29  30
ATOM     30  C   UNL A   1      37.349  22.826  25.006  1.00  0.00     0.188 C 
BRANCH  30  31
ATOM     31  C   UNL A   1      37.656  21.313  25.043  1.00  0.00     0.188 C 
BRANCH  31  32
ATOM     32  O   UNL A   1      38.941  20.990  25.561  1.00  0.00    -0.376 OA
BRANCH  32  33
ATOM     33  C   UNL A   1      39.536  21.872  26.503  1.00  0.00     0.202 C 
BRANCH  33  34
ATOM     34  C   UNL A   1      40.978  22.339  26.240  1.00  0.00     0.261 C 
BRANCH  34  35
ATOM     35  O   UNL A   1      41.461  23.419  27.053  1.00  0.00    -0.460 OA
BRANCH  35  36
ATOM     36  C   UNL A   1      41.231  24.680  26.638  1.00  0.00     0.338 C 
ATOM     37  O   UNL A   1      40.146  25.214  26.471  1.00  0.00    -0.246 OA
BRANCH  36  38
ATOM     38  C   UNL A   1      42.526  25.391  26.612  1.00  0.00     0.060 A 
ATOM     39  C   UNL A   1      43.133  25.737  27.826  1.00  0.00     0.016 A 
ATOM     40  C   UNL A   1      43.140  25.711  25.398  1.00  0.00     0.016 A 
ATOM     41  C   UNL A   1      44.336  26.445  27.832  1.00  0.00     0.010 A 
ATOM     42  C   UNL A   1      44.333  26.440  25.405  1.00  0.00     0.010 A 
ATOM     43  C   UNL A   1      44.913  26.844  26.621  1.00  0.00    -0.014 A 
BRANCH  43  44
ATOM     44  C   UNL A   1      45.993  27.860  26.621  1.00  0.00     0.031 A 
ATOM     45  C   UNL A   1      45.606  29.309  26.716  1.00  0.00     0.074 A 
ATOM     46  C   UNL A   1      47.289  27.512  26.547  1.00  0.00     0.049 A 
ATOM     47  N   UNL A   1      46.356  30.379  26.668  1.00  0.00    -0.248 NA
ATOM     48  C   UNL A   1      44.170  29.585  26.878  1.00  0.00     0.031 C 
ATOM     49  C   UNL A   1      47.796  26.145  26.490  1.00  0.00     0.029 A 
ATOM     50  N   UNL A   1      48.415  28.297  26.490  1.00  0.00    -0.354 N 
ATOM     51  C   UNL A   1      45.483  31.454  26.781  1.00  0.00     0.074 A 
ATOM     52  C   UNL A   1      44.147  30.908  26.864  1.00  0.00     0.031 C 
ATOM     53  C   UNL A   1      49.135  26.184  26.383  1.00  0.00     0.029 A 
ATOM     54  C   UNL A   1      49.573  27.579  26.326  1.00  0.00     0.049 A 
ATOM     55  H   UNL A   1      48.393  29.278  26.560  1.00  0.00     0.167 HD
ATOM     56  C   UNL A   1      45.769  32.778  26.817  1.00  0.00     0.037 A 
ATOM     57  C   UNL A   1      50.836  28.002  26.122  1.00  0.00     0.037 A 
ATOM     58  C   UNL A   1      47.100  33.316  26.719  1.00  0.00     0.049 A 
ATOM     59  C   UNL A   1      51.129  29.479  26.088  1.00  0.00     0.074 A 
ATOM     60  C   UNL A   1      47.500  34.640  26.767  1.00  0.00     0.029 A 
ATOM     61  N   UNL A   1      48.246  32.558  26.529  1.00  0.00    -0.354 N 
ATOM     62  N   UNL A   1      50.306  30.491  26.229  1.00  0.00    -0.248 NA
ATOM     63  C   UNL A   1      52.529  29.874  25.871  1.00  0.00     0.031 C 
ATOM     64  C   UNL A   1      48.880  34.687  26.539  1.00  0.00     0.029 A 
ATOM     65  C   UNL A   1      49.351  33.388  26.422  1.00  0.00     0.049 A 
ATOM     66  H   UNL A   1      48.272  31.575  26.478  1.00  0.00     0.167 HD
ATOM     67  C   UNL A   1      51.087  31.637  26.144  1.00  0.00     0.074 A 
ATOM     68  C   UNL A   1      52.453  31.195  25.949  1.00  0.00     0.031 C 
ATOM     69  C   UNL A   1      50.708  32.938  26.227  1.00  0.00     0.037 A 
BRANCH  56  70
ATOM     70  C   UNL A   1      44.607  33.725  26.920  1.00  0.00     0.057 A 
ATOM     71  C   UNL A   1      43.951  34.229  25.787  1.00  0.00     0.134 A 
ATOM     72  C   UNL A   1      44.150  34.154  28.172  1.00  0.00     0.134 A 
ATOM     73  F   UNL A   1      44.347  33.872  24.556  1.00  0.00    -0.206 F 
ATOM     74  C   UNL A   1      42.915  35.159  25.896  1.00  0.00     0.040 A 
ATOM     75  C   UNL A   1      43.093  35.058  28.294  1.00  0.00     0.040 A 
ATOM     76  F   UNL A   1      44.726  33.709  29.298  1.00  0.00    -0.206 F 
ATOM     77  C   UNL A   1      42.482  35.573  27.153  1.00  0.00     0.006 A 
ENDBRANCH  56  70
BRANCH  57  78
ATOM     78  C   UNL A   1      51.916  27.003  25.918  1.00  0.00     0.057 A 
ATOM     79  C   UNL A   1      52.682  26.529  26.988  1.00  0.00     0.134 A 
ATOM     80  C   UNL A   1      52.195  26.487  24.646  1.00  0.00     0.134 A 
ATOM     81  F   UNL A   1      52.480  27.002  28.226  1.00  0.00    -0.206 F 
ATOM     82  C   UNL A   1      53.687  25.578  26.801  1.00  0.00     0.040 A 
ATOM     83  C   UNL A   1      53.179  25.518  24.449  1.00  0.00     0.040 A 
ATOM     84  F   UNL A   1      51.496  26.903  23.579  1.00  0.00    -0.206 F 
ATOM     85  C   UNL A   1      53.932  25.063  25.529  1.00  0.00     0.006 A 
ENDBRANCH  57  78
BRANCH  69  86
ATOM     86  C   UNL A   1      51.785  33.983  26.146  1.00  0.00     0.057 A 
ATOM     87  C   UNL A   1      52.204  34.532  24.928  1.00  0.00     0.134 A 
ATOM     88  C   UNL A   1      52.374  34.487  27.315  1.00  0.00     0.134 A 
ATOM     89  F   UNL A   1      51.690  34.090  23.770  1.00  0.00    -0.206 F 
ATOM     90  C   UNL A   1      53.184  35.527  24.873  1.00  0.00     0.040 A 
ATOM     91  C   UNL A   1      53.331  35.502  27.274  1.00  0.00     0.040 A 
ATOM     92  F   UNL A   1      52.013  34.015  28.518  1.00  0.00    -0.206 F 
ATOM     93  C   UNL A   1      53.743  36.020  26.048  1.00  0.00     0.006 A 
ENDBRANCH  69  86
ENDBRANCH  43  44
ENDBRANCH  36  38
ENDBRANCH  35  36
ENDBRANCH  34  35
ENDBRANCH  33  34
ENDBRANCH  32  33
ENDBRANCH  31  32
ENDBRANCH  30  31
ENDBRANCH  29  30
ENDBRANCH   1  29
TORSDOF 23
ENDMDL
MODEL 3
REMARK VINA RESULT:      -8.5      4.912     10.256
REMARK SMILES NC(=O)[C@@H]1CCCCN1C(=O)N[C@H]1C=C[C@@H](C(=O)OCCOCCOCCOCCOC(=O)c2ccc(-c3c4nc(c(-c5c(F)cccc5F)c5ccc([nH]5)c(-c5c(F)cccc5F)c5nc(c(-c6c(F)cccc6F)c6ccc3[nH]6)C=C5)C=C4)cc2)C1
REMARK SMILES IDX 24 1 23 2 22 3 21 4 20 5 19 6 17 7 18 8 16 9 13 10 14 11
REMARK SMILES IDX 88 12 15 13 12 14 10 15 11 16 9 18 4 19 5 20 6 21 8 22 7 23
REMARK SMILES IDX 2 24 1 25 3 28 25 29 26 30 27 31 28 32 29 33 30 34 31 35
REMARK SMILES IDX 32 36 33 37 34 38 35 39 87 40 36 41 86 42 37 43 38 44 39 45
REMARK SMILES IDX 80 46 40 47 85 48 79 49 81 50 41 51 84 52 78 53 77 54 42 56
REMARK SMILES IDX 68 57 51 58 67 59 52 60 55 61 66 62 82 63 53 64 54 65 65 67
REMARK SMILES IDX 83 68 56 69 43 70 44 71 49 72 45 73 46 74 48 75 50 76 47 77
REMARK SMILES IDX 69 78 70 79 75 80 71 81 72 82 74 83 76 84 73 85 57 86 58 87
REMARK SMILES IDX 63 88 59 89 60 90 62 91 64 92 61 93
REMARK H PARENT 12 17 1 26 1 27 81 55 55 66
REMARK Flexibility Score: inf
ROOT
ATOM      1  C   UNL A   1      42.755  22.590  27.872  1.00  0.00     0.188 C 
ENDROOT
BRANCH   1   2
ATOM      2  C   UNL A   1      42.888  21.212  27.202  1.00  0.00     0.188 C 
BRANCH   2   3
ATOM      3  O   UNL A   1      41.818  20.667  26.443  1.00  0.00    -0.376 OA
BRANCH   3   4
ATOM      4  C   UNL A   1      40.473  21.042  26.695  1.00  0.00     0.202 C 
BRANCH   4   5
ATOM      5  C   UNL A   1      39.751  22.142  25.896  1.00  0.00     0.261 C 
BRANCH   5   6
ATOM      6  O   UNL A   1      38.317  22.184  25.987  1.00  0.00    -0.463 OA
BRANCH   6   7
ATOM      7  C   UNL A   1      37.778  23.405  26.202  1.00  0.00     0.312 C 
ATOM      8  O   UNL A   1      38.432  24.411  26.467  1.00  0.00    -0.252 OA
BRANCH   7   9
ATOM      9  C   UNL A   1      36.257  23.450  26.121  1.00  0.00     0.124 C 
ATOM     10  C   UNL A   1      34.164  23.801  24.974  1.00  0.00     0.107 C 
ATOM     11  C   UNL A   1      34.577  22.362  24.896  1.00  0.00    -0.006 C 
ATOM     12  C   UNL A   1      35.526  24.456  25.230  1.00  0.00     0.048 C 
ATOM     13  C   UNL A   1      35.716  22.159  25.575  1.00  0.00    -0.014 C 
BRANCH  10  14
ATOM     14  N   UNL A   1      33.505  24.237  23.770  1.00  0.00    -0.332 N 
ATOM     15  C   UNL A   1      32.710  25.276  23.427  1.00  0.00     0.318 C 
ATOM     16  O   UNL A   1      32.076  25.090  22.386  1.00  0.00    -0.249 OA
ATOM     17  H   UNL A   1      33.674  23.632  23.013  1.00  0.00     0.165 HD
BRANCH  15  18
ATOM     18  N   UNL A   1      32.605  26.440  24.152  1.00  0.00    -0.313 N 
ATOM     19  C   UNL A   1      31.678  26.479  25.324  1.00  0.00     0.176 C 
ATOM     20  C   UNL A   1      30.980  27.861  25.427  1.00  0.00     0.035 C 
ATOM     21  C   UNL A   1      31.946  29.030  25.388  1.00  0.00     0.004 C 
ATOM     22  C   UNL A   1      33.528  27.571  24.124  1.00  0.00     0.122 C 
ATOM     23  C   UNL A   1      32.827  28.921  24.160  1.00  0.00     0.022 C 
BRANCH  19  24
ATOM     24  C   UNL A   1      30.486  25.494  25.478  1.00  0.00     0.240 C 
ATOM     25  N   UNL A   1      29.559  25.560  24.465  1.00  0.00    -0.368 N 
ATOM     26  H   UNL A   1      28.771  24.972  24.481  1.00  0.00     0.159 HD
ATOM     27  H   UNL A   1      29.685  26.196  23.724  1.00  0.00     0.159 HD
ATOM     28  O   UNL A   1      30.397  24.624  26.340  1.00  0.00    -0.273 OA
ENDBRANCH  19  24
ENDBRANCH  15  18
ENDBRANCH  10  14
ENDBRANCH   7   9
ENDBRANCH   6   7
ENDBRANCH   5   6
ENDBRANCH   4   5
ENDBRANCH   3   4
ENDBRANCH   2   3
ENDBRANCH   1   2
BRANCH   1  29
ATOM     29  O   UNL A   1      43.839  23.464  27.641  1.00  0.00    -0.377 OA
BRANCH  29  30
ATOM     30  C   UNL A   1      44.642  23.195  26.499  1.00  0.00     0.188 C 
BRANCH  30  31
ATOM     31  C   UNL A   1      46.115  23.657  26.523  1.00  0.00     0.188 C 
BRANCH  31  32
ATOM     32  O   UNL A   1      46.638  24.005  25.247  1.00  0.00    -0.376 OA
BRANCH  32  33
ATOM     33  C   UNL A   1      46.309  25.274  24.700  1.00  0.00     0.202 C 
BRANCH  33  34
ATOM     34  C   UNL A   1      45.660  26.313  25.632  1.00  0.00     0.261 C 
BRANCH  34  35
ATOM     35  O   UNL A   1      44.519  27.014  25.116  1.00  0.00    -0.460 OA
BRANCH  35  36
ATOM     36  C   UNL A   1      43.305  26.448  25.264  1.00  0.00     0.338 C 
ATOM     37  O   UNL A   1      42.881  25.454  24.695  1.00  0.00    -0.246 OA
BRANCH  36  38
ATOM     38  C   UNL A   1      42.630  27.115  26.397  1.00  0.00     0.060 A 
ATOM     39  C   UNL A   1      42.711  28.510  26.507  1.00  0.00     0.016 A 
ATOM     40  C   UNL A   1      41.919  26.372  27.342  1.00  0.00     0.016 A 
ATOM     41  C   UNL A   1      42.119  29.162  27.589  1.00  0.00     0.010 A 
ATOM     42  C   UNL A   1      41.346  27.024  28.437  1.00  0.00     0.010 A 
ATOM     43  C   UNL A   1      41.478  28.417  28.585  1.00  0.00    -0.014 A 
BRANCH  43  44
ATOM     44  C   UNL A   1      41.140  29.056  29.879  1.00  0.00     0.031 A 
ATOM     45  C   UNL A   1      39.952  29.976  29.929  1.00  0.00     0.074 A 
ATOM     46  C   UNL A   1      41.860  28.826  30.990  1.00  0.00     0.049 A 
ATOM     47  N   UNL A   1      39.497  30.700  30.918  1.00  0.00    -0.248 NA
ATOM     48  C   UNL A   1      39.177  30.099  28.684  1.00  0.00     0.031 C 
ATOM     49  C   UNL A   1      43.007  27.928  31.083  1.00  0.00     0.029 A 
ATOM     50  N   UNL A   1      41.733  29.350  32.253  1.00  0.00    -0.354 N 
ATOM     51  C   UNL A   1      38.393  31.374  30.412  1.00  0.00     0.074 A 
ATOM     52  C   UNL A   1      38.268  30.999  29.021  1.00  0.00     0.031 C 
ATOM     53  C   UNL A   1      43.497  27.981  32.333  1.00  0.00     0.029 A 
ATOM     54  C   UNL A   1      42.720  28.943  33.115  1.00  0.00     0.049 A 
ATOM     55  H   UNL A   1      41.006  29.959  32.514  1.00  0.00     0.167 HD
ATOM     56  C   UNL A   1      37.553  32.225  31.050  1.00  0.00     0.037 A 
ATOM     57  C   UNL A   1      42.983  29.327  34.380  1.00  0.00     0.037 A 
ATOM     58  C   UNL A   1      37.691  32.607  32.430  1.00  0.00     0.049 A 
ATOM     59  C   UNL A   1      42.086  30.334  35.052  1.00  0.00     0.074 A 
ATOM     60  C   UNL A   1      36.883  33.446  33.178  1.00  0.00     0.029 A 
ATOM     61  N   UNL A   1      38.719  32.192  33.265  1.00  0.00    -0.354 N 
ATOM     62  N   UNL A   1      41.024  30.942  34.581  1.00  0.00    -0.248 NA
ATOM     63  C   UNL A   1      42.422  30.703  36.435  1.00  0.00     0.031 C 
ATOM     64  C   UNL A   1      37.459  33.590  34.445  1.00  0.00     0.029 A 
ATOM     65  C   UNL A   1      38.586  32.785  34.511  1.00  0.00     0.049 A 
ATOM     66  H   UNL A   1      39.436  31.568  33.011  1.00  0.00     0.167 HD
ATOM     67  C   UNL A   1      40.550  31.744  35.612  1.00  0.00     0.074 A 
ATOM     68  C   UNL A   1      41.437  31.536  36.740  1.00  0.00     0.031 C 
ATOM     69  C   UNL A   1      39.475  32.572  35.627  1.00  0.00     0.037 A 
BRANCH  56  70
ATOM     70  C   UNL A   1      36.447  32.833  30.234  1.00  0.00     0.057 A 
ATOM     71  C   UNL A   1      36.650  33.951  29.413  1.00  0.00     0.134 A 
ATOM     72  C   UNL A   1      35.153  32.301  30.287  1.00  0.00     0.134 A 
ATOM     73  F   UNL A   1      37.862  34.521  29.327  1.00  0.00    -0.206 F 
ATOM     74  C   UNL A   1      35.598  34.545  28.712  1.00  0.00     0.040 A 
ATOM     75  C   UNL A   1      34.100  32.864  29.564  1.00  0.00     0.040 A 
ATOM     76  F   UNL A   1      34.886  31.228  31.046  1.00  0.00    -0.206 F 
ATOM     77  C   UNL A   1      34.319  33.998  28.785  1.00  0.00     0.006 A 
ENDBRANCH  56  70
BRANCH  57  78
ATOM     78  C   UNL A   1      44.163  28.764  35.084  1.00  0.00     0.057 A 
ATOM     79  C   UNL A   1      45.428  29.348  34.967  1.00  0.00     0.134 A 
ATOM     80  C   UNL A   1      44.046  27.635  35.906  1.00  0.00     0.134 A 
ATOM     81  F   UNL A   1      45.610  30.415  34.175  1.00  0.00    -0.206 F 
ATOM     82  C   UNL A   1      46.537  28.830  35.640  1.00  0.00     0.040 A 
ATOM     83  C   UNL A   1      45.140  27.123  36.605  1.00  0.00     0.040 A 
ATOM     84  F   UNL A   1      42.860  27.029  36.058  1.00  0.00    -0.206 F 
ATOM     85  C   UNL A   1      46.391  27.720  36.470  1.00  0.00     0.006 A 
ENDBRANCH  57  78
BRANCH  69  86
ATOM     86  C   UNL A   1      39.168  33.291  36.911  1.00  0.00     0.057 A 
ATOM     87  C   UNL A   1      38.347  32.735  37.900  1.00  0.00     0.134 A 
ATOM     88  C   UNL A   1      39.749  34.537  37.183  1.00  0.00     0.134 A 
ATOM     89  F   UNL A   1      37.750  31.550  37.702  1.00  0.00    -0.206 F 
ATOM     90  C   UNL A   1      38.097  33.402  39.102  1.00  0.00     0.040 A 
ATOM     91  C   UNL A   1      39.532  35.199  38.392  1.00  0.00     0.040 A 
ATOM     92  F   UNL A   1      40.555  35.124  36.285  1.00  0.00    -0.206 F 
ATOM     93  C   UNL A   1      38.698  34.633  39.355  1.00  0.00     0.006 A 
ENDBRANCH  69  86
ENDBRANCH  43  44
ENDBRANCH  36  38
ENDBRANCH  35  36
ENDBRANCH  34  35
ENDBRANCH  33  34
ENDBRANCH  32  33
ENDBRANCH  31  32
ENDBRANCH  30  31
ENDBRANCH  29  30
ENDBRANCH   1  29
TORSDOF 23
ENDMDL
