MODEL 1
REMARK VINA RESULT:     -11.5      0.000      0.000
REMARK SMILES O=C(OCCOCCOCCOCCOC(=O)c1ccc(-c2c3nc(c(-c4c(F)cccc4F)c4ccc([nH]4)c(-c4c(F)cccc4F)c4nc(c(-c5c(F)cccc5F)c5ccc2[nH]5)C=C4)C=C3)cc1)C1=Cc2cc(Cl)c(Cl)c(Cl)c2O[C@@H]1C(F)(F)F
REMARK SMILES IDX 10 1 9 2 8 3 7 4 6 5 5 6 4 7 3 8 2 9 1 10 72 11 73 12 84 13
REMARK SMILES IDX 74 14 83 15 75 16 82 17 76 18 80 19 77 20 78 21 81 22 79 23
REMARK SMILES IDX 85 24 86 25 87 26 88 27 11 28 12 29 13 30 14 31 15 32 16 33
REMARK SMILES IDX 17 34 18 35 19 36 71 37 20 38 70 39 21 40 22 41 23 42 64 43
REMARK SMILES IDX 24 44 69 45 63 46 65 47 25 48 68 49 62 50 61 51 26 53 52 54
REMARK SMILES IDX 35 55 51 56 36 57 39 58 50 59 66 60 37 61 38 62 49 64 67 65
REMARK SMILES IDX 40 66 27 67 28 68 33 69 29 70 30 71 32 72 34 73 31 74 53 75
REMARK SMILES IDX 54 76 59 77 55 78 56 79 58 80 60 81 57 82 41 83 42 84 47 85
REMARK SMILES IDX 43 86 44 87 46 88 48 89 45 90
REMARK H PARENT 65 52 39 63
REMARK Flexibility Score: inf
ROOT
ATOM      1  C   UNL A   1      33.929  32.648  28.345  1.00  0.00     0.188 C 
ENDROOT
BRANCH   1   2
ATOM      2  O   UNL A   1      34.771  31.720  27.703  1.00  0.00    -0.377 OA
BRANCH   2   3
ATOM      3  C   UNL A   1      34.073  30.569  27.296  1.00  0.00     0.188 C 
BRANCH   3   4
ATOM      4  C   UNL A   1      32.589  30.787  26.975  1.00  0.00     0.188 C 
BRANCH   4   5
ATOM      5  O   UNL A   1      31.860  30.089  25.907  1.00  0.00    -0.376 OA
BRANCH   5   6
ATOM      6  C   UNL A   1      31.858  28.530  25.354  1.00  0.00     0.202 C 
BRANCH   6   7
ATOM      7  C   UNL A   1      32.188  26.714  26.523  1.00  0.00     0.261 C 
BRANCH   7   8
ATOM      8  O   UNL A   1      31.158  25.669  26.872  1.00  0.00    -0.460 OA
BRANCH   8   9
ATOM      9  C   UNL A   1      31.660  24.429  26.839  1.00  0.00     0.338 C 
ATOM     10  O   UNL A   1      31.736  23.635  27.742  1.00  0.00    -0.246 OA
BRANCH   9  11
ATOM     11  C   UNL A   1      32.458  24.586  25.631  1.00  0.00     0.087 C 
ATOM     12  C   UNL A   1      33.909  24.563  25.853  1.00  0.00     0.027 C 
ATOM     13  C   UNL A   1      31.476  23.228  24.694  1.00  0.00     0.316 C 
ATOM     14  C   UNL A   1      34.970  23.152  25.497  1.00  0.00     0.020 A 
ATOM     15  O   UNL A   1      32.560  21.627  24.430  1.00  0.00    -0.474 OA
ATOM     16  C   UNL A   1      36.297  23.230  25.816  1.00  0.00     0.034 A 
ATOM     17  C   UNL A   1      34.343  21.650  24.904  1.00  0.00     0.148 A 
ATOM     18  C   UNL A   1      37.044  22.050  25.615  1.00  0.00     0.062 A 
ATOM     19  C   UNL A   1      35.132  20.524  24.808  1.00  0.00     0.103 A 
ATOM     20  Cl  UNL A   1      38.736  22.215  26.028  1.00  0.00    -0.083 Cl
ATOM     21  C   UNL A   1      36.504  20.763  25.145  1.00  0.00     0.082 A 
ATOM     22  Cl  UNL A   1      34.509  18.964  24.475  1.00  0.00    -0.079 Cl
ATOM     23  Cl  UNL A   1      37.638  19.433  24.997  1.00  0.00    -0.081 Cl
BRANCH  13  24
ATOM     24  C   UNL A   1      30.821  24.345  23.627  1.00  0.00     0.430 C 
ATOM     25  F   UNL A   1      31.648  24.989  22.786  1.00  0.00    -0.167 F 
ATOM     26  F   UNL A   1      29.989  23.643  22.797  1.00  0.00    -0.167 F 
ATOM     27  F   UNL A   1      30.011  25.274  24.197  1.00  0.00    -0.167 F 
ENDBRANCH  13  24
ENDBRANCH   9  11
ENDBRANCH   8   9
ENDBRANCH   7   8
ENDBRANCH   6   7
ENDBRANCH   5   6
ENDBRANCH   4   5
ENDBRANCH   3   4
ENDBRANCH   2   3
ENDBRANCH   1   2
BRANCH   1  28
ATOM     28  C   UNL A   1      34.612  33.702  29.221  1.00  0.00     0.188 C 
BRANCH  28  29
ATOM     29  O   UNL A   1      34.393  33.803  30.616  1.00  0.00    -0.376 OA
BRANCH  29  30
ATOM     30  C   UNL A   1      35.442  33.614  31.548  1.00  0.00     0.202 C 
BRANCH  30  31
ATOM     31  C   UNL A   1      36.815  33.061  31.136  1.00  0.00     0.261 C 
BRANCH  31  32
ATOM     32  O   UNL A   1      37.162  31.762  31.633  1.00  0.00    -0.460 OA
BRANCH  32  33
ATOM     33  C   UNL A   1      36.707  30.719  30.906  1.00  0.00     0.338 C 
ATOM     34  O   UNL A   1      35.548  30.480  30.614  1.00  0.00    -0.246 OA
BRANCH  33  35
ATOM     35  C   UNL A   1      37.852  29.981  30.328  1.00  0.00     0.060 A 
ATOM     36  C   UNL A   1      38.801  29.439  31.211  1.00  0.00     0.016 A 
ATOM     37  C   UNL A   1      38.011  29.832  28.950  1.00  0.00     0.016 A 
ATOM     38  C   UNL A   1      39.930  28.789  30.724  1.00  0.00     0.010 A 
ATOM     39  C   UNL A   1      39.172  29.226  28.459  1.00  0.00     0.010 A 
ATOM     40  C   UNL A   1      40.155  28.750  29.346  1.00  0.00    -0.014 A 
BRANCH  40  41
ATOM     41  C   UNL A   1      41.522  28.457  28.858  1.00  0.00     0.031 A 
ATOM     42  C   UNL A   1      41.815  27.059  28.385  1.00  0.00     0.074 A 
ATOM     43  C   UNL A   1      42.463  29.412  28.783  1.00  0.00     0.049 A 
ATOM     44  N   UNL A   1      42.939  26.538  27.971  1.00  0.00    -0.248 NA
ATOM     45  C   UNL A   1      40.680  26.120  28.387  1.00  0.00     0.031 C 
ATOM     46  C   UNL A   1      42.274  30.813  29.144  1.00  0.00     0.029 A 
ATOM     47  N   UNL A   1      43.773  29.336  28.383  1.00  0.00    -0.354 N 
ATOM     48  C   UNL A   1      42.653  25.210  27.681  1.00  0.00     0.074 A 
ATOM     49  C   UNL A   1      41.258  24.996  27.997  1.00  0.00     0.031 C 
ATOM     50  C   UNL A   1      43.435  31.468  28.966  1.00  0.00     0.029 A 
ATOM     51  C   UNL A   1      44.455  30.520  28.520  1.00  0.00     0.049 A 
ATOM     52  H   UNL A   1      44.184  28.513  28.033  1.00  0.00     0.167 HD
ATOM     53  C   UNL A   1      43.479  24.258  27.188  1.00  0.00     0.037 A 
ATOM     54  C   UNL A   1      45.762  30.793  28.338  1.00  0.00     0.037 A 
ATOM     55  C   UNL A   1      44.867  24.482  26.884  1.00  0.00     0.049 A 
ATOM     56  C   UNL A   1      46.685  29.690  27.884  1.00  0.00     0.074 A 
ATOM     57  C   UNL A   1      45.790  23.588  26.372  1.00  0.00     0.029 A 
ATOM     58  N   UNL A   1      45.535  25.682  27.079  1.00  0.00    -0.354 N 
ATOM     59  N   UNL A   1      46.407  28.440  27.597  1.00  0.00    -0.248 NA
ATOM     60  C   UNL A   1      48.104  30.037  27.729  1.00  0.00     0.031 C 
ATOM     61  C   UNL A   1      47.034  24.225  26.331  1.00  0.00     0.029 A 
ATOM     62  C   UNL A   1      46.869  25.541  26.734  1.00  0.00     0.049 A 
ATOM     63  H   UNL A   1      45.123  26.511  27.414  1.00  0.00     0.167 HD
ATOM     64  C   UNL A   1      47.607  27.865  27.192  1.00  0.00     0.074 A 
ATOM     65  C   UNL A   1      48.610  28.906  27.257  1.00  0.00     0.031 C 
ATOM     66  C   UNL A   1      47.856  26.590  26.800  1.00  0.00     0.037 A 
BRANCH  53  67
ATOM     67  C   UNL A   1      42.912  22.880  26.995  1.00  0.00     0.057 A 
ATOM     68  C   UNL A   1      42.621  22.361  25.726  1.00  0.00     0.134 A 
ATOM     69  C   UNL A   1      42.678  22.049  28.098  1.00  0.00     0.134 A 
ATOM     70  F   UNL A   1      42.808  23.107  24.626  1.00  0.00    -0.206 F 
ATOM     71  C   UNL A   1      42.088  21.081  25.565  1.00  0.00     0.040 A 
ATOM     72  C   UNL A   1      42.180  20.755  27.948  1.00  0.00     0.040 A 
ATOM     73  F   UNL A   1      42.937  22.479  29.343  1.00  0.00    -0.206 F 
ATOM     74  C   UNL A   1      41.874  20.270  26.678  1.00  0.00     0.006 A 
ENDBRANCH  53  67
BRANCH  54  75
ATOM     75  C   UNL A   1      46.286  32.157  28.609  1.00  0.00     0.057 A 
ATOM     76  C   UNL A   1      46.718  32.531  29.886  1.00  0.00     0.134 A 
ATOM     77  C   UNL A   1      46.335  33.131  27.603  1.00  0.00     0.134 A 
ATOM     78  F   UNL A   1      46.673  31.653  30.899  1.00  0.00    -0.206 F 
ATOM     79  C   UNL A   1      47.155  33.829  30.161  1.00  0.00     0.040 A 
ATOM     80  C   UNL A   1      46.803  34.422  27.856  1.00  0.00     0.040 A 
ATOM     81  F   UNL A   1      45.937  32.841  26.356  1.00  0.00    -0.206 F 
ATOM     82  C   UNL A   1      47.204  34.777  29.141  1.00  0.00     0.006 A 
ENDBRANCH  54  75
BRANCH  66  83
ATOM     83  C   UNL A   1      49.257  26.260  26.363  1.00  0.00     0.057 A 
ATOM     84  C   UNL A   1      49.753  26.623  25.105  1.00  0.00     0.134 A 
ATOM     85  C   UNL A   1      50.136  25.604  27.235  1.00  0.00     0.134 A 
ATOM     86  F   UNL A   1      48.965  27.247  24.216  1.00  0.00    -0.206 F 
ATOM     87  C   UNL A   1      51.059  26.315  24.718  1.00  0.00     0.040 A 
ATOM     88  C   UNL A   1      51.455  25.325  26.876  1.00  0.00     0.040 A 
ATOM     89  F   UNL A   1      49.734  25.240  28.463  1.00  0.00    -0.206 F 
ATOM     90  C   UNL A   1      51.916  25.672  25.609  1.00  0.00     0.006 A 
ENDBRANCH  66  83
ENDBRANCH  40  41
ENDBRANCH  33  35
ENDBRANCH  32  33
ENDBRANCH  31  32
ENDBRANCH  30  31
ENDBRANCH  29  30
ENDBRANCH  28  29
ENDBRANCH   1  28
TORSDOF 21
ENDMDL
MODEL 2
REMARK VINA RESULT:     -10.9      5.288      9.929
REMARK SMILES O=C(OCCOCCOCCOCCOC(=O)c1ccc(-c2c3nc(c(-c4c(F)cccc4F)c4ccc([nH]4)c(-c4c(F)cccc4F)c4nc(c(-c5c(F)cccc5F)c5ccc2[nH]5)C=C4)C=C3)cc1)C1=Cc2cc(Cl)c(Cl)c(Cl)c2O[C@@H]1C(F)(F)F
REMARK SMILES IDX 10 1 9 2 8 3 7 4 6 5 5 6 4 7 3 8 2 9 1 10 72 11 73 12 84 13
REMARK SMILES IDX 74 14 83 15 75 16 82 17 76 18 80 19 77 20 78 21 81 22 79 23
REMARK SMILES IDX 85 24 86 25 87 26 88 27 11 28 12 29 13 30 14 31 15 32 16 33
REMARK SMILES IDX 17 34 18 35 19 36 71 37 20 38 70 39 21 40 22 41 23 42 64 43
REMARK SMILES IDX 24 44 69 45 63 46 65 47 25 48 68 49 62 50 61 51 26 53 52 54
REMARK SMILES IDX 35 55 51 56 36 57 39 58 50 59 66 60 37 61 38 62 49 64 67 65
REMARK SMILES IDX 40 66 27 67 28 68 33 69 29 70 30 71 32 72 34 73 31 74 53 75
REMARK SMILES IDX 54 76 59 77 55 78 56 79 58 80 60 81 57 82 41 83 42 84 47 85
REMARK SMILES IDX 43 86 44 87 46 88 48 89 45 90
REMARK H PARENT 65 52 39 63
REMARK Flexibility Score: inf
ROOT
ATOM      1  C   UNL A   1      32.940  35.676  30.462  1.00  0.00     0.188 C 
ENDROOT
BRANCH   1   2
ATOM      2  O   UNL A   1      32.554  36.705  31.342  1.00  0.00    -0.377 OA
BRANCH   2   3
ATOM      3  C   UNL A   1      33.626  37.148  32.139  1.00  0.00     0.188 C 
BRANCH   3   4
ATOM      4  C   UNL A   1      34.647  36.067  32.514  1.00  0.00     0.188 C 
BRANCH   4   5
ATOM      5  O   UNL A   1      34.458  35.085  33.592  1.00  0.00    -0.376 OA
BRANCH   5   6
ATOM      6  C   UNL A   1      34.744  33.461  33.722  1.00  0.00     0.202 C 
BRANCH   6   7
ATOM      7  C   UNL A   1      36.678  32.449  33.623  1.00  0.00     0.261 C 
BRANCH   7   8
ATOM      8  O   UNL A   1      37.646  32.471  32.468  1.00  0.00    -0.460 OA
BRANCH   8   9
ATOM      9  C   UNL A   1      38.546  33.455  32.578  1.00  0.00     0.338 C 
ATOM     10  O   UNL A   1      38.354  34.605  32.886  1.00  0.00    -0.246 OA
BRANCH   9  11
ATOM     11  C   UNL A   1      39.593  32.840  31.773  1.00  0.00     0.087 C 
ATOM     12  C   UNL A   1      39.766  33.436  30.443  1.00  0.00     0.027 C 
ATOM     13  C   UNL A   1      40.879  32.949  33.194  1.00  0.00     0.316 C 
ATOM     14  C   UNL A   1      41.098  34.566  30.000  1.00  0.00     0.020 A 
ATOM     15  O   UNL A   1      42.252  34.279  32.804  1.00  0.00    -0.474 OA
ATOM     16  C   UNL A   1      41.110  35.111  28.747  1.00  0.00     0.034 A 
ATOM     17  C   UNL A   1      42.278  35.099  31.152  1.00  0.00     0.148 A 
ATOM     18  C   UNL A   1      42.115  36.071  28.508  1.00  0.00     0.062 A 
ATOM     19  C   UNL A   1      43.180  36.098  30.853  1.00  0.00     0.103 A 
ATOM     20  Cl  UNL A   1      42.086  36.722  26.884  1.00  0.00    -0.083 Cl
ATOM     21  C   UNL A   1      43.095  36.551  29.496  1.00  0.00     0.082 A 
ATOM     22  Cl  UNL A   1      44.189  36.835  32.024  1.00  0.00    -0.079 Cl
ATOM     23  Cl  UNL A   1      44.234  37.772  28.957  1.00  0.00    -0.081 Cl
BRANCH  13  24
ATOM     24  C   UNL A   1      40.929  31.281  33.365  1.00  0.00     0.430 C 
ATOM     25  F   UNL A   1      39.885  30.559  32.922  1.00  0.00    -0.167 F 
ATOM     26  F   UNL A   1      41.977  30.846  32.598  1.00  0.00    -0.167 F 
ATOM     27  F   UNL A   1      41.231  30.841  34.613  1.00  0.00    -0.167 F 
ENDBRANCH  13  24
ENDBRANCH   9  11
ENDBRANCH   8   9
ENDBRANCH   7   8
ENDBRANCH   6   7
ENDBRANCH   5   6
ENDBRANCH   4   5
ENDBRANCH   3   4
ENDBRANCH   2   3
ENDBRANCH   1   2
BRANCH   1  28
ATOM     28  C   UNL A   1      33.381  36.105  29.059  1.00  0.00     0.188 C 
BRANCH  28  29
ATOM     29  O   UNL A   1      34.380  35.423  28.324  1.00  0.00    -0.376 OA
BRANCH  29  30
ATOM     30  C   UNL A   1      34.663  34.054  28.551  1.00  0.00     0.202 C 
BRANCH  30  31
ATOM     31  C   UNL A   1      36.042  33.441  28.259  1.00  0.00     0.261 C 
BRANCH  31  32
ATOM     32  O   UNL A   1      36.622  32.636  29.292  1.00  0.00    -0.460 OA
BRANCH  32  33
ATOM     33  C   UNL A   1      36.194  31.356  29.341  1.00  0.00     0.338 C 
ATOM     34  O   UNL A   1      35.041  30.971  29.426  1.00  0.00    -0.246 OA
BRANCH  33  35
ATOM     35  C   UNL A   1      37.330  30.444  29.080  1.00  0.00     0.060 A 
ATOM     36  C   UNL A   1      38.028  29.925  30.183  1.00  0.00     0.016 A 
ATOM     37  C   UNL A   1      37.723  30.111  27.782  1.00  0.00     0.016 A 
ATOM     38  C   UNL A   1      39.142  29.114  29.998  1.00  0.00     0.010 A 
ATOM     39  C   UNL A   1      38.873  29.340  27.595  1.00  0.00     0.010 A 
ATOM     40  C   UNL A   1      39.612  28.883  28.703  1.00  0.00    -0.014 A 
BRANCH  40  41
ATOM     41  C   UNL A   1      41.001  28.401  28.526  1.00  0.00     0.031 A 
ATOM     42  C   UNL A   1      42.116  29.395  28.699  1.00  0.00     0.074 A 
ATOM     43  C   UNL A   1      41.272  27.110  28.273  1.00  0.00     0.049 A 
ATOM     44  N   UNL A   1      43.404  29.238  28.540  1.00  0.00    -0.248 NA
ATOM     45  C   UNL A   1      41.721  30.755  29.102  1.00  0.00     0.031 C 
ATOM     46  C   UNL A   1      40.280  26.047  28.156  1.00  0.00     0.029 A 
ATOM     47  N   UNL A   1      42.473  26.481  28.061  1.00  0.00    -0.354 N 
ATOM     48  C   UNL A   1      43.968  30.480  28.805  1.00  0.00     0.074 A 
ATOM     49  C   UNL A   1      42.883  31.387  29.103  1.00  0.00     0.031 C 
ATOM     50  C   UNL A   1      40.910  24.893  27.874  1.00  0.00     0.029 A 
ATOM     51  C   UNL A   1      42.344  25.150  27.750  1.00  0.00     0.049 A 
ATOM     52  H   UNL A   1      43.341  26.940  28.124  1.00  0.00     0.167 HD
ATOM     53  C   UNL A   1      45.276  30.828  28.806  1.00  0.00     0.037 A 
ATOM     54  C   UNL A   1      43.279  24.255  27.374  1.00  0.00     0.037 A 
ATOM     55  C   UNL A   1      46.347  29.917  28.501  1.00  0.00     0.049 A 
ATOM     56  C   UNL A   1      44.719  24.692  27.286  1.00  0.00     0.074 A 
ATOM     57  C   UNL A   1      47.708  30.165  28.483  1.00  0.00     0.029 A 
ATOM     58  N   UNL A   1      46.176  28.587  28.146  1.00  0.00    -0.354 N 
ATOM     59  N   UNL A   1      45.251  25.862  27.552  1.00  0.00    -0.248 NA
ATOM     60  C   UNL A   1      45.691  23.682  26.845  1.00  0.00     0.031 C 
ATOM     61  C   UNL A   1      48.354  29.006  28.041  1.00  0.00     0.029 A 
ATOM     62  C   UNL A   1      47.405  28.011  27.868  1.00  0.00     0.049 A 
ATOM     63  H   UNL A   1      45.311  28.121  28.097  1.00  0.00     0.167 HD
ATOM     64  C   UNL A   1      46.619  25.717  27.346  1.00  0.00     0.074 A 
ATOM     65  C   UNL A   1      46.836  24.343  26.949  1.00  0.00     0.031 C 
ATOM     66  C   UNL A   1      47.606  26.638  27.478  1.00  0.00     0.037 A 
BRANCH  53  67
ATOM     67  C   UNL A   1      45.612  32.262  29.101  1.00  0.00     0.057 A 
ATOM     68  C   UNL A   1      45.882  32.717  30.398  1.00  0.00     0.134 A 
ATOM     69  C   UNL A   1      45.691  33.199  28.062  1.00  0.00     0.134 A 
ATOM     70  F   UNL A   1      45.812  31.877  31.443  1.00  0.00    -0.206 F 
ATOM     71  C   UNL A   1      46.186  34.055  30.655  1.00  0.00     0.040 A 
ATOM     72  C   UNL A   1      46.028  34.531  28.301  1.00  0.00     0.040 A 
ATOM     73  F   UNL A   1      45.447  32.833  26.794  1.00  0.00    -0.206 F 
ATOM     74  C   UNL A   1      46.269  34.965  29.603  1.00  0.00     0.006 A 
ENDBRANCH  53  67
BRANCH  54  75
ATOM     75  C   UNL A   1      42.885  22.865  27.028  1.00  0.00     0.057 A 
ATOM     76  C   UNL A   1      42.782  22.447  25.697  1.00  0.00     0.134 A 
ATOM     77  C   UNL A   1      42.568  21.928  28.021  1.00  0.00     0.134 A 
ATOM     78  F   UNL A   1      43.048  23.302  24.697  1.00  0.00    -0.206 F 
ATOM     79  C   UNL A   1      42.356  21.160  25.362  1.00  0.00     0.040 A 
ATOM     80  C   UNL A   1      42.174  20.627  27.702  1.00  0.00     0.040 A 
ATOM     81  F   UNL A   1      42.645  22.261  29.317  1.00  0.00    -0.206 F 
ATOM     82  C   UNL A   1      42.055  20.244  26.369  1.00  0.00     0.006 A 
ENDBRANCH  54  75
BRANCH  66  83
ATOM     83  C   UNL A   1      49.018  26.179  27.237  1.00  0.00     0.057 A 
ATOM     84  C   UNL A   1      49.576  26.116  25.955  1.00  0.00     0.134 A 
ATOM     85  C   UNL A   1      49.846  25.835  28.315  1.00  0.00     0.134 A 
ATOM     86  F   UNL A   1      48.841  26.424  24.875  1.00  0.00    -0.206 F 
ATOM     87  C   UNL A   1      50.892  25.695  25.750  1.00  0.00     0.040 A 
ATOM     88  C   UNL A   1      51.174  25.451  28.128  1.00  0.00     0.040 A 
ATOM     89  F   UNL A   1      49.383  25.887  29.574  1.00  0.00    -0.206 F 
ATOM     90  C   UNL A   1      51.697  25.369  26.840  1.00  0.00     0.006 A 
ENDBRANCH  66  83
ENDBRANCH  40  41
ENDBRANCH  33  35
ENDBRANCH  32  33
ENDBRANCH  31  32
ENDBRANCH  30  31
ENDBRANCH  29  30
ENDBRANCH  28  29
ENDBRANCH   1  28
TORSDOF 21
ENDMDL
MODEL 3
REMARK VINA RESULT:     -10.8      5.584     10.682
REMARK SMILES O=C(OCCOCCOCCOCCOC(=O)c1ccc(-c2c3nc(c(-c4c(F)cccc4F)c4ccc([nH]4)c(-c4c(F)cccc4F)c4nc(c(-c5c(F)cccc5F)c5ccc2[nH]5)C=C4)C=C3)cc1)C1=Cc2cc(Cl)c(Cl)c(Cl)c2O[C@@H]1C(F)(F)F
REMARK SMILES IDX 10 1 9 2 8 3 7 4 6 5 5 6 4 7 3 8 2 9 1 10 72 11 73 12 84 13
REMARK SMILES IDX 74 14 83 15 75 16 82 17 76 18 80 19 77 20 78 21 81 22 79 23
REMARK SMILES IDX 85 24 86 25 87 26 88 27 11 28 12 29 13 30 14 31 15 32 16 33
REMARK SMILES IDX 17 34 18 35 19 36 71 37 20 38 70 39 21 40 22 41 23 42 64 43
REMARK SMILES IDX 24 44 69 45 63 46 65 47 25 48 68 49 62 50 61 51 26 53 52 54
REMARK SMILES IDX 35 55 51 56 36 57 39 58 50 59 66 60 37 61 38 62 49 64 67 65
REMARK SMILES IDX 40 66 27 67 28 68 33 69 29 70 30 71 32 72 34 73 31 74 53 75
REMARK SMILES IDX 54 76 59 77 55 78 56 79 58 80 60 81 57 82 41 83 42 84 47 85
REMARK SMILES IDX 43 86 44 87 46 88 48 89 45 90
REMARK H PARENT 65 52 39 63
REMARK Flexibility Score: inf
ROOT
ATOM      1  C   UNL A   1      32.621  36.164  30.664  1.00  0.00     0.188 C 
ENDROOT
BRANCH   1   2
ATOM      2  O   UNL A   1      32.714  37.037  31.765  1.00  0.00    -0.377 OA
BRANCH   2   3
ATOM      3  C   UNL A   1      33.934  36.892  32.450  1.00  0.00     0.188 C 
BRANCH   3   4
ATOM      4  C   UNL A   1      34.253  35.465  32.916  1.00  0.00     0.188 C 
BRANCH   4   5
ATOM      5  O   UNL A   1      34.829  34.422  32.057  1.00  0.00    -0.376 OA
BRANCH   5   6
ATOM      6  C   UNL A   1      36.322  34.192  31.383  1.00  0.00     0.202 C 
BRANCH   6   7
ATOM      7  C   UNL A   1      38.263  34.463  32.347  1.00  0.00     0.261 C 
BRANCH   7   8
ATOM      8  O   UNL A   1      38.509  34.950  33.754  1.00  0.00    -0.460 OA
BRANCH   8   9
ATOM      9  C   UNL A   1      37.728  34.332  34.648  1.00  0.00     0.338 C 
ATOM     10  O   UNL A   1      36.577  34.569  34.918  1.00  0.00    -0.246 OA
BRANCH   9  11
ATOM     11  C   UNL A   1      38.793  33.730  35.438  1.00  0.00     0.087 C 
ATOM     12  C   UNL A   1      39.154  34.481  36.645  1.00  0.00     0.027 C 
ATOM     13  C   UNL A   1      37.946  32.006  35.436  1.00  0.00     0.316 C 
ATOM     14  C   UNL A   1      38.651  34.026  38.314  1.00  0.00     0.020 A 
ATOM     15  O   UNL A   1      37.256  31.557  37.205  1.00  0.00    -0.474 OA
ATOM     16  C   UNL A   1      38.992  34.849  39.352  1.00  0.00     0.034 A 
ATOM     17  C   UNL A   1      37.627  32.666  38.632  1.00  0.00     0.148 A 
ATOM     18  C   UNL A   1      38.469  34.491  40.612  1.00  0.00     0.062 A 
ATOM     19  C   UNL A   1      37.101  32.433  39.885  1.00  0.00     0.103 A 
ATOM     20  Cl  UNL A   1      38.950  35.573  41.900  1.00  0.00    -0.083 Cl
ATOM     21  C   UNL A   1      37.570  33.356  40.877  1.00  0.00     0.082 A 
ATOM     22  Cl  UNL A   1      35.891  31.262  40.195  1.00  0.00    -0.079 Cl
ATOM     23  Cl  UNL A   1      37.037  33.134  42.534  1.00  0.00    -0.081 Cl
BRANCH  13  24
ATOM     24  C   UNL A   1      39.157  31.339  34.485  1.00  0.00     0.430 C 
ATOM     25  F   UNL A   1      40.320  32.002  34.370  1.00  0.00    -0.167 F 
ATOM     26  F   UNL A   1      39.509  30.159  35.083  1.00  0.00    -0.167 F 
ATOM     27  F   UNL A   1      38.768  30.973  33.237  1.00  0.00    -0.167 F 
ENDBRANCH  13  24
ENDBRANCH   9  11
ENDBRANCH   8   9
ENDBRANCH   7   8
ENDBRANCH   6   7
ENDBRANCH   5   6
ENDBRANCH   4   5
ENDBRANCH   3   4
ENDBRANCH   2   3
ENDBRANCH   1   2
BRANCH   1  28
ATOM     28  C   UNL A   1      33.218  36.662  29.343  1.00  0.00     0.188 C 
BRANCH  28  29
ATOM     29  O   UNL A   1      34.043  35.858  28.521  1.00  0.00    -0.376 OA
BRANCH  29  30
ATOM     30  C   UNL A   1      33.747  34.495  28.279  1.00  0.00     0.202 C 
BRANCH  30  31
ATOM     31  C   UNL A   1      34.843  33.423  28.172  1.00  0.00     0.261 C 
BRANCH  31  32
ATOM     32  O   UNL A   1      34.729  32.294  29.047  1.00  0.00    -0.460 OA
BRANCH  32  33
ATOM     33  C   UNL A   1      34.546  31.102  28.439  1.00  0.00     0.338 C 
ATOM     34  O   UNL A   1      33.569  30.746  27.803  1.00  0.00    -0.246 OA
BRANCH  33  35
ATOM     35  C   UNL A   1      35.804  30.324  28.485  1.00  0.00     0.060 A 
ATOM     36  C   UNL A   1      36.187  29.760  29.713  1.00  0.00     0.016 A 
ATOM     37  C   UNL A   1      36.609  30.160  27.357  1.00  0.00     0.016 A 
ATOM     38  C   UNL A   1      37.389  29.072  29.831  1.00  0.00     0.010 A 
ATOM     39  C   UNL A   1      37.842  29.515  27.487  1.00  0.00     0.010 A 
ATOM     40  C   UNL A   1      38.255  29.015  28.737  1.00  0.00    -0.014 A 
BRANCH  40  41
ATOM     41  C   UNL A   1      39.677  28.677  28.972  1.00  0.00     0.031 A 
ATOM     42  C   UNL A   1      40.540  29.705  29.651  1.00  0.00     0.074 A 
ATOM     43  C   UNL A   1      40.179  27.475  28.645  1.00  0.00     0.049 A 
ATOM     44  N   UNL A   1      41.820  29.675  29.914  1.00  0.00    -0.248 NA
ATOM     45  C   UNL A   1      39.864  30.940  30.085  1.00  0.00     0.031 C 
ATOM     46  C   UNL A   1      39.423  26.378  28.051  1.00  0.00     0.029 A 
ATOM     47  N   UNL A   1      41.455  26.985  28.763  1.00  0.00    -0.354 N 
ATOM     48  C   UNL A   1      42.105  30.889  30.528  1.00  0.00     0.074 A 
ATOM     49  C   UNL A   1      40.874  31.646  30.568  1.00  0.00     0.031 C 
ATOM     50  C   UNL A   1      40.253  25.343  27.837  1.00  0.00     0.029 A 
ATOM     51  C   UNL A   1      41.606  25.723  28.242  1.00  0.00     0.049 A 
ATOM     52  H   UNL A   1      42.190  27.489  29.181  1.00  0.00     0.167 HD
ATOM     53  C   UNL A   1      43.287  31.328  31.019  1.00  0.00     0.037 A 
ATOM     54  C   UNL A   1      42.718  24.981  28.081  1.00  0.00     0.037 A 
ATOM     55  C   UNL A   1      44.507  30.568  30.967  1.00  0.00     0.049 A 
ATOM     56  C   UNL A   1      44.042  25.533  28.546  1.00  0.00     0.074 A 
ATOM     57  C   UNL A   1      45.758  30.915  31.444  1.00  0.00     0.029 A 
ATOM     58  N   UNL A   1      44.632  29.312  30.390  1.00  0.00    -0.354 N 
ATOM     59  N   UNL A   1      44.305  26.673  29.139  1.00  0.00    -0.248 NA
ATOM     60  C   UNL A   1      45.226  24.691  28.320  1.00  0.00     0.031 C 
ATOM     61  C   UNL A   1      46.656  29.904  31.087  1.00  0.00     0.029 A 
ATOM     62  C   UNL A   1      45.948  28.888  30.464  1.00  0.00     0.049 A 
ATOM     63  H   UNL A   1      43.895  28.799  29.987  1.00  0.00     0.167 HD
ATOM     64  C   UNL A   1      45.673  26.669  29.388  1.00  0.00     0.074 A 
ATOM     65  C   UNL A   1      46.181  25.407  28.897  1.00  0.00     0.031 C 
ATOM     66  C   UNL A   1      46.439  27.624  29.974  1.00  0.00     0.037 A 
BRANCH  53  67
ATOM     67  C   UNL A   1      43.323  32.709  31.610  1.00  0.00     0.057 A 
ATOM     68  C   UNL A   1      43.278  32.933  32.992  1.00  0.00     0.134 A 
ATOM     69  C   UNL A   1      43.430  33.832  30.779  1.00  0.00     0.134 A 
ATOM     70  F   UNL A   1      43.162  31.904  33.846  1.00  0.00    -0.206 F 
ATOM     71  C   UNL A   1      43.306  34.223  33.524  1.00  0.00     0.040 A 
ATOM     72  C   UNL A   1      43.495  35.124  31.300  1.00  0.00     0.040 A 
ATOM     73  F   UNL A   1      43.482  33.691  29.446  1.00  0.00    -0.206 F 
ATOM     74  C   UNL A   1      43.423  35.324  32.677  1.00  0.00     0.006 A 
ENDBRANCH  53  67
BRANCH  54  75
ATOM     75  C   UNL A   1      42.639  23.648  27.428  1.00  0.00     0.057 A 
ATOM     76  C   UNL A   1      42.414  22.485  28.172  1.00  0.00     0.134 A 
ATOM     77  C   UNL A   1      42.821  23.501  26.047  1.00  0.00     0.134 A 
ATOM     78  F   UNL A   1      42.256  22.554  29.503  1.00  0.00    -0.206 F 
ATOM     79  C   UNL A   1      42.397  21.223  27.575  1.00  0.00     0.040 A 
ATOM     80  C   UNL A   1      42.772  22.249  25.430  1.00  0.00     0.040 A 
ATOM     81  F   UNL A   1      43.041  24.573  25.273  1.00  0.00    -0.206 F 
ATOM     82  C   UNL A   1      42.571  21.105  26.197  1.00  0.00     0.006 A 
ENDBRANCH  54  75
BRANCH  66  83
ATOM     83  C   UNL A   1      47.901  27.321  30.161  1.00  0.00     0.057 A 
ATOM     84  C   UNL A   1      48.380  26.599  31.261  1.00  0.00     0.134 A 
ATOM     85  C   UNL A   1      48.837  27.725  29.199  1.00  0.00     0.134 A 
ATOM     86  F   UNL A   1      47.541  26.187  32.224  1.00  0.00    -0.206 F 
ATOM     87  C   UNL A   1      49.740  26.321  31.415  1.00  0.00     0.040 A 
ATOM     88  C   UNL A   1      50.193  27.418  29.322  1.00  0.00     0.040 A 
ATOM     89  F   UNL A   1      48.448  28.407  28.111  1.00  0.00    -0.206 F 
ATOM     90  C   UNL A   1      50.649  26.724  30.439  1.00  0.00     0.006 A 
ENDBRANCH  66  83
ENDBRANCH  40  41
ENDBRANCH  33  35
ENDBRANCH  32  33
ENDBRANCH  31  32
ENDBRANCH  30  31
ENDBRANCH  29  30
ENDBRANCH  28  29
ENDBRANCH   1  28
TORSDOF 21
ENDMDL
