MODEL 1
REMARK VINA RESULT:      -9.7      0.000      0.000
REMARK SMILES CCOc1ccc(-c2nc(C(=O)OCCOCCOCCOCCOC(=O)c3ccc(-c4c5nc(c(-c6c(F)cccc6F)c6ccc([nH]6)c(-c6c(F)cccc6F)c6nc(c(-c7c(F)cccc7F)c7ccc4[nH]7)C=C6)C=C5)cc3)cc(=O)[nH]2)cc1
REMARK SMILES IDX 18 1 17 2 16 3 15 4 14 5 13 6 11 7 12 8 10 9 8 10 9 11 85 12
REMARK SMILES IDX 83 13 82 15 84 16 7 17 4 18 5 19 87 20 6 21 86 22 3 23 2 24
REMARK SMILES IDX 1 25 19 26 20 27 21 28 22 29 23 30 24 31 25 32 26 33 27 34
REMARK SMILES IDX 28 35 29 36 81 37 30 38 80 39 31 40 32 41 33 42 74 43 34 44
REMARK SMILES IDX 79 45 73 46 75 47 35 48 78 49 72 50 71 51 36 53 62 54 45 55
REMARK SMILES IDX 61 56 46 57 49 58 60 59 76 60 47 61 48 62 59 64 77 65 50 66
REMARK SMILES IDX 37 67 38 68 43 69 39 70 40 71 42 72 44 73 41 74 63 75 64 76
REMARK SMILES IDX 69 77 65 78 66 79 68 80 70 81 67 82 51 83 52 84 57 85 53 86
REMARK SMILES IDX 54 87 56 88 58 89 55 90
REMARK H PARENT 85 14 75 52 49 63
REMARK Flexibility Score: inf
ROOT
ATOM      1  C   UNL A   1      32.395  30.434  26.537  1.00  0.00     0.188 C 
ENDROOT
BRANCH   1   2
ATOM      2  C   UNL A   1      31.934  29.132  25.853  1.00  0.00     0.188 C 
BRANCH   2   3
ATOM      3  O   UNL A   1      31.250  29.365  24.634  1.00  0.00    -0.376 OA
BRANCH   3   4
ATOM      4  C   UNL A   1      31.097  28.302  23.712  1.00  0.00     0.202 C 
BRANCH   4   5
ATOM      5  C   UNL A   1      32.325  27.519  23.214  1.00  0.00     0.261 C 
BRANCH   5   6
ATOM      6  O   UNL A   1      32.753  26.421  24.026  1.00  0.00    -0.459 OA
BRANCH   6   7
ATOM      7  C   UNL A   1      32.922  25.218  23.425  1.00  0.00     0.357 C 
ATOM      8  O   UNL A   1      33.606  25.009  22.436  1.00  0.00    -0.244 OA
BRANCH   7   9
ATOM      9  C   UNL A   1      32.290  24.158  24.289  1.00  0.00     0.156 A 
ATOM     10  C   UNL A   1      32.107  21.948  24.822  1.00  0.00     0.141 A 
ATOM     11  N   UNL A   1      32.593  22.839  24.020  1.00  0.00    -0.223 NA
ATOM     12  N   UNL A   1      31.319  22.253  25.898  1.00  0.00    -0.306 N 
ATOM     13  C   UNL A   1      30.994  23.538  26.215  1.00  0.00     0.251 A 
ATOM     14  H   UNL A   1      30.976  21.522  26.461  1.00  0.00     0.171 HD
ATOM     15  C   UNL A   1      31.539  24.566  25.322  1.00  0.00     0.107 A 
ATOM     16  O   UNL A   1      30.300  23.827  27.181  1.00  0.00    -0.269 OA
BRANCH  10  17
ATOM     17  C   UNL A   1      32.387  20.517  24.623  1.00  0.00     0.018 A 
ATOM     18  C   UNL A   1      33.068  17.854  24.200  1.00  0.00     0.119 A 
ATOM     19  C   UNL A   1      32.509  18.602  23.162  1.00  0.00     0.047 A 
ATOM     20  C   UNL A   1      33.294  18.438  25.447  1.00  0.00     0.047 A 
ATOM     21  C   UNL A   1      32.155  19.937  23.374  1.00  0.00     0.016 A 
ATOM     22  C   UNL A   1      32.950  19.775  25.664  1.00  0.00     0.016 A 
BRANCH  18  23
ATOM     23  O   UNL A   1      33.545  16.609  23.905  1.00  0.00    -0.494 OA
BRANCH  23  24
ATOM     24  C   UNL A   1      33.853  15.813  25.054  1.00  0.00     0.226 C 
ATOM     25  C   UNL A   1      32.728  14.845  25.381  1.00  0.00     0.049 C 
ENDBRANCH  23  24
ENDBRANCH  18  23
ENDBRANCH  10  17
ENDBRANCH   7   9
ENDBRANCH   6   7
ENDBRANCH   5   6
ENDBRANCH   4   5
ENDBRANCH   3   4
ENDBRANCH   2   3
ENDBRANCH   1   2
BRANCH   1  26
ATOM     26  O   UNL A   1      33.468  30.310  27.459  1.00  0.00    -0.377 OA
BRANCH  26  27
ATOM     27  C   UNL A   1      34.330  31.426  27.689  1.00  0.00     0.188 C 
BRANCH  27  28
ATOM     28  C   UNL A   1      35.464  31.421  28.746  1.00  0.00     0.188 C 
BRANCH  28  29
ATOM     29  O   UNL A   1      35.075  31.841  30.043  1.00  0.00    -0.376 OA
BRANCH  29  30
ATOM     30  C   UNL A   1      34.591  33.164  30.195  1.00  0.00     0.202 C 
BRANCH  30  31
ATOM     31  C   UNL A   1      34.808  33.808  31.570  1.00  0.00     0.261 C 
BRANCH  31  32
ATOM     32  O   UNL A   1      35.823  33.207  32.387  1.00  0.00    -0.460 OA
BRANCH  32  33
ATOM     33  C   UNL A   1      37.029  33.819  32.422  1.00  0.00     0.338 C 
ATOM     34  O   UNL A   1      37.332  34.818  33.037  1.00  0.00    -0.246 OA
BRANCH  33  35
ATOM     35  C   UNL A   1      37.985  32.945  31.706  1.00  0.00     0.060 A 
ATOM     36  C   UNL A   1      38.688  31.970  32.424  1.00  0.00     0.016 A 
ATOM     37  C   UNL A   1      38.173  33.089  30.330  1.00  0.00     0.016 A 
ATOM     38  C   UNL A   1      39.614  31.156  31.768  1.00  0.00     0.010 A 
ATOM     39  C   UNL A   1      39.111  32.286  29.680  1.00  0.00     0.010 A 
ATOM     40  C   UNL A   1      39.861  31.341  30.402  1.00  0.00    -0.014 A 
BRANCH  40  41
ATOM     41  C   UNL A   1      41.033  30.693  29.765  1.00  0.00     0.031 A 
ATOM     42  C   UNL A   1      42.265  31.523  29.531  1.00  0.00     0.074 A 
ATOM     43  C   UNL A   1      41.014  29.398  29.409  1.00  0.00     0.049 A 
ATOM     44  N   UNL A   1      43.392  31.200  28.949  1.00  0.00    -0.248 NA
ATOM     45  C   UNL A   1      42.215  32.911  30.018  1.00  0.00     0.031 C 
ATOM     46  C   UNL A   1      39.901  28.476  29.624  1.00  0.00     0.029 A 
ATOM     47  N   UNL A   1      41.969  28.637  28.781  1.00  0.00    -0.354 N 
ATOM     48  C   UNL A   1      44.179  32.344  28.993  1.00  0.00     0.074 A 
ATOM     49  C   UNL A   1      43.387  33.379  29.623  1.00  0.00     0.031 C 
ATOM     50  C   UNL A   1      40.237  27.269  29.135  1.00  0.00     0.029 A 
ATOM     51  C   UNL A   1      41.571  27.345  28.540  1.00  0.00     0.049 A 
ATOM     52  H   UNL A   1      42.854  28.984  28.528  1.00  0.00     0.167 HD
ATOM     53  C   UNL A   1      45.449  32.517  28.557  1.00  0.00     0.037 A 
ATOM     54  C   UNL A   1      42.207  26.347  27.896  1.00  0.00     0.037 A 
ATOM     55  C   UNL A   1      46.228  31.489  27.918  1.00  0.00     0.049 A 
ATOM     56  C   UNL A   1      43.581  26.592  27.326  1.00  0.00     0.074 A 
ATOM     57  C   UNL A   1      47.529  31.556  27.452  1.00  0.00     0.029 A 
ATOM     58  N   UNL A   1      45.771  30.208  27.643  1.00  0.00    -0.354 N 
ATOM     59  N   UNL A   1      44.330  27.666  27.395  1.00  0.00    -0.248 NA
ATOM     60  C   UNL A   1      44.196  25.481  26.584  1.00  0.00     0.031 C 
ATOM     61  C   UNL A   1      47.836  30.338  26.836  1.00  0.00     0.029 A 
ATOM     62  C   UNL A   1      46.750  29.487  26.980  1.00  0.00     0.049 A 
ATOM     63  H   UNL A   1      44.880  29.863  27.882  1.00  0.00     0.167 HD
ATOM     64  C   UNL A   1      45.517  27.349  26.743  1.00  0.00     0.074 A 
ATOM     65  C   UNL A   1      45.390  25.979  26.292  1.00  0.00     0.031 C 
ATOM     66  C   UNL A   1      46.615  28.119  26.542  1.00  0.00     0.037 A 
BRANCH  53  67
ATOM     67  C   UNL A   1      46.051  33.883  28.723  1.00  0.00     0.057 A 
ATOM     68  C   UNL A   1      46.020  34.842  27.701  1.00  0.00     0.134 A 
ATOM     69  C   UNL A   1      46.680  34.242  29.922  1.00  0.00     0.134 A 
ATOM     70  F   UNL A   1      45.448  34.559  26.520  1.00  0.00    -0.206 F 
ATOM     71  C   UNL A   1      46.627  36.090  27.850  1.00  0.00     0.040 A 
ATOM     72  C   UNL A   1      47.261  35.499  30.095  1.00  0.00     0.040 A 
ATOM     73  F   UNL A   1      46.743  33.377  30.945  1.00  0.00    -0.206 F 
ATOM     74  C   UNL A   1      47.245  36.424  29.052  1.00  0.00     0.006 A 
ENDBRANCH  53  67
BRANCH  54  75
ATOM     75  C   UNL A   1      41.561  25.017  27.755  1.00  0.00     0.057 A 
ATOM     76  C   UNL A   1      41.960  23.935  28.549  1.00  0.00     0.134 A 
ATOM     77  C   UNL A   1      40.551  24.786  26.814  1.00  0.00     0.134 A 
ATOM     78  F   UNL A   1      42.941  24.085  29.451  1.00  0.00    -0.206 F 
ATOM     79  C   UNL A   1      41.389  22.669  28.403  1.00  0.00     0.040 A 
ATOM     80  C   UNL A   1      39.952  23.533  26.676  1.00  0.00     0.040 A 
ATOM     81  F   UNL A   1      40.124  25.779  26.020  1.00  0.00    -0.206 F 
ATOM     82  C   UNL A   1      40.377  22.468  27.468  1.00  0.00     0.006 A 
ENDBRANCH  54  75
BRANCH  66  83
ATOM     83  C   UNL A   1      47.788  27.488  25.845  1.00  0.00     0.057 A 
ATOM     84  C   UNL A   1      47.887  27.437  24.449  1.00  0.00     0.134 A 
ATOM     85  C   UNL A   1      48.853  26.958  26.587  1.00  0.00     0.134 A 
ATOM     86  F   UNL A   1      46.900  27.917  23.678  1.00  0.00    -0.206 F 
ATOM     87  C   UNL A   1      48.991  26.860  23.816  1.00  0.00     0.040 A 
ATOM     88  C   UNL A   1      49.975  26.407  25.965  1.00  0.00     0.040 A 
ATOM     89  F   UNL A   1      48.828  26.982  27.927  1.00  0.00    -0.206 F 
ATOM     90  C   UNL A   1      50.042  26.350  24.576  1.00  0.00     0.006 A 
ENDBRANCH  66  83
ENDBRANCH  40  41
ENDBRANCH  33  35
ENDBRANCH  32  33
ENDBRANCH  31  32
ENDBRANCH  30  31
ENDBRANCH  29  30
ENDBRANCH  28  29
ENDBRANCH  27  28
ENDBRANCH  26  27
ENDBRANCH   1  26
TORSDOF 23
ENDMDL
MODEL 2
REMARK VINA RESULT:      -9.4      2.249      6.740
REMARK SMILES CCOc1ccc(-c2nc(C(=O)OCCOCCOCCOCCOC(=O)c3ccc(-c4c5nc(c(-c6c(F)cccc6F)c6ccc([nH]6)c(-c6c(F)cccc6F)c6nc(c(-c7c(F)cccc7F)c7ccc4[nH]7)C=C6)C=C5)cc3)cc(=O)[nH]2)cc1
REMARK SMILES IDX 18 1 17 2 16 3 15 4 14 5 13 6 11 7 12 8 10 9 8 10 9 11 85 12
REMARK SMILES IDX 83 13 82 15 84 16 7 17 4 18 5 19 87 20 6 21 86 22 3 23 2 24
REMARK SMILES IDX 1 25 19 26 20 27 21 28 22 29 23 30 24 31 25 32 26 33 27 34
REMARK SMILES IDX 28 35 29 36 81 37 30 38 80 39 31 40 32 41 33 42 74 43 34 44
REMARK SMILES IDX 79 45 73 46 75 47 35 48 78 49 72 50 71 51 36 53 62 54 45 55
REMARK SMILES IDX 61 56 46 57 49 58 60 59 76 60 47 61 48 62 59 64 77 65 50 66
REMARK SMILES IDX 37 67 38 68 43 69 39 70 40 71 42 72 44 73 41 74 63 75 64 76
REMARK SMILES IDX 69 77 65 78 66 79 68 80 70 81 67 82 51 83 52 84 57 85 53 86
REMARK SMILES IDX 54 87 56 88 58 89 55 90
REMARK H PARENT 85 14 75 52 49 63
REMARK Flexibility Score: inf
ROOT
ATOM      1  C   UNL A   1      33.738  34.781  28.862  1.00  0.00     0.188 C 
ENDROOT
BRANCH   1   2
ATOM      2  C   UNL A   1      33.482  33.605  27.900  1.00  0.00     0.188 C 
BRANCH   2   3
ATOM      3  O   UNL A   1      34.601  32.743  27.776  1.00  0.00    -0.376 OA
BRANCH   3   4
ATOM      4  C   UNL A   1      34.423  31.349  27.950  1.00  0.00     0.202 C 
BRANCH   4   5
ATOM      5  C   UNL A   1      33.244  30.624  27.279  1.00  0.00     0.261 C 
BRANCH   5   6
ATOM      6  O   UNL A   1      33.516  29.325  26.743  1.00  0.00    -0.459 OA
BRANCH   6   7
ATOM      7  C   UNL A   1      32.899  28.977  25.587  1.00  0.00     0.357 C 
ATOM      8  O   UNL A   1      32.899  29.633  24.557  1.00  0.00    -0.244 OA
BRANCH   7   9
ATOM      9  C   UNL A   1      32.386  27.568  25.723  1.00  0.00     0.156 A 
ATOM     10  C   UNL A   1      32.858  25.344  25.908  1.00  0.00     0.141 A 
ATOM     11  N   UNL A   1      33.307  26.539  25.708  1.00  0.00    -0.223 NA
ATOM     12  N   UNL A   1      31.536  25.062  26.126  1.00  0.00    -0.306 N 
ATOM     13  C   UNL A   1      30.586  26.038  26.160  1.00  0.00     0.251 A 
ATOM     14  H   UNL A   1      31.263  24.126  26.263  1.00  0.00     0.171 HD
ATOM     15  C   UNL A   1      31.073  27.403  25.940  1.00  0.00     0.107 A 
ATOM     16  O   UNL A   1      29.402  25.802  26.365  1.00  0.00    -0.269 OA
BRANCH  10  17
ATOM     17  C   UNL A   1      33.766  24.186  25.923  1.00  0.00     0.018 A 
ATOM     18  C   UNL A   1      35.419  21.953  25.804  1.00  0.00     0.119 A 
ATOM     19  C   UNL A   1      34.160  21.855  26.399  1.00  0.00     0.047 A 
ATOM     20  C   UNL A   1      35.850  23.164  25.262  1.00  0.00     0.047 A 
ATOM     21  C   UNL A   1      33.331  22.977  26.471  1.00  0.00     0.016 A 
ATOM     22  C   UNL A   1      35.023  24.289  25.322  1.00  0.00     0.016 A 
BRANCH  18  23
ATOM     23  O   UNL A   1      36.127  20.800  25.612  1.00  0.00    -0.494 OA
BRANCH  23  24
ATOM     24  C   UNL A   1      37.205  20.924  24.678  1.00  0.00     0.226 C 
ATOM     25  C   UNL A   1      38.491  21.355  25.364  1.00  0.00     0.049 C 
ENDBRANCH  23  24
ENDBRANCH  18  23
ENDBRANCH  10  17
ENDBRANCH   7   9
ENDBRANCH   6   7
ENDBRANCH   5   6
ENDBRANCH   4   5
ENDBRANCH   3   4
ENDBRANCH   2   3
ENDBRANCH   1   2
BRANCH   1  26
ATOM     26  O   UNL A   1      32.741  35.011  29.847  1.00  0.00    -0.377 OA
BRANCH  26  27
ATOM     27  C   UNL A   1      33.033  35.862  30.958  1.00  0.00     0.188 C 
BRANCH  27  28
ATOM     28  C   UNL A   1      33.775  35.375  32.230  1.00  0.00     0.188 C 
BRANCH  28  29
ATOM     29  O   UNL A   1      33.521  34.028  32.591  1.00  0.00    -0.376 OA
BRANCH  29  30
ATOM     30  C   UNL A   1      34.635  33.184  32.827  1.00  0.00     0.202 C 
BRANCH  30  31
ATOM     31  C   UNL A   1      35.179  32.430  31.608  1.00  0.00     0.261 C 
BRANCH  31  32
ATOM     32  O   UNL A   1      36.570  32.079  31.662  1.00  0.00    -0.460 OA
BRANCH  32  33
ATOM     33  C   UNL A   1      36.874  30.761  31.631  1.00  0.00     0.338 C 
ATOM     34  O   UNL A   1      36.143  29.828  31.882  1.00  0.00    -0.246 OA
BRANCH  33  35
ATOM     35  C   UNL A   1      38.231  30.638  31.054  1.00  0.00     0.060 A 
ATOM     36  C   UNL A   1      38.392  30.705  29.664  1.00  0.00     0.016 A 
ATOM     37  C   UNL A   1      39.336  30.467  31.890  1.00  0.00     0.016 A 
ATOM     38  C   UNL A   1      39.662  30.564  29.103  1.00  0.00     0.010 A 
ATOM     39  C   UNL A   1      40.603  30.309  31.326  1.00  0.00     0.010 A 
ATOM     40  C   UNL A   1      40.767  30.321  29.929  1.00  0.00    -0.014 A 
BRANCH  40  41
ATOM     41  C   UNL A   1      42.055  29.884  29.338  1.00  0.00     0.031 A 
ATOM     42  C   UNL A   1      42.193  28.447  28.918  1.00  0.00     0.074 A 
ATOM     43  C   UNL A   1      43.077  30.738  29.167  1.00  0.00     0.049 A 
ATOM     44  N   UNL A   1      43.229  27.816  28.426  1.00  0.00    -0.248 NA
ATOM     45  C   UNL A   1      40.997  27.605  29.081  1.00  0.00     0.031 C 
ATOM     46  C   UNL A   1      43.053  32.164  29.488  1.00  0.00     0.029 A 
ATOM     47  N   UNL A   1      44.342  30.522  28.681  1.00  0.00    -0.354 N 
ATOM     48  C   UNL A   1      42.813  26.506  28.229  1.00  0.00     0.074 A 
ATOM     49  C   UNL A   1      41.444  26.422  28.691  1.00  0.00     0.031 C 
ATOM     50  C   UNL A   1      44.251  32.696  29.190  1.00  0.00     0.029 A 
ATOM     51  C   UNL A   1      45.135  31.642  28.694  1.00  0.00     0.049 A 
ATOM     52  H   UNL A   1      44.651  29.647  28.355  1.00  0.00     0.167 HD
ATOM     53  C   UNL A   1      43.504  25.466  27.704  1.00  0.00     0.037 A 
ATOM     54  C   UNL A   1      46.432  31.791  28.360  1.00  0.00     0.037 A 
ATOM     55  C   UNL A   1      44.870  25.550  27.259  1.00  0.00     0.049 A 
ATOM     56  C   UNL A   1      47.213  30.597  27.875  1.00  0.00     0.074 A 
ATOM     57  C   UNL A   1      45.658  24.560  26.699  1.00  0.00     0.029 A 
ATOM     58  N   UNL A   1      45.657  26.689  27.339  1.00  0.00    -0.354 N 
ATOM     59  N   UNL A   1      46.807  29.367  27.665  1.00  0.00    -0.248 NA
ATOM     60  C   UNL A   1      48.638  30.812  27.583  1.00  0.00     0.031 C 
ATOM     61  C   UNL A   1      46.940  25.082  26.500  1.00  0.00     0.029 A 
ATOM     62  C   UNL A   1      46.933  26.417  26.872  1.00  0.00     0.049 A 
ATOM     63  H   UNL A   1      45.354  27.562  27.679  1.00  0.00     0.167 HD
ATOM     64  C   UNL A   1      47.912  28.676  27.180  1.00  0.00     0.074 A 
ATOM     65  C   UNL A   1      49.004  29.624  27.120  1.00  0.00     0.031 C 
ATOM     66  C   UNL A   1      48.012  27.374  26.811  1.00  0.00     0.037 A 
BRANCH  53  67
ATOM     67  C   UNL A   1      42.796  24.143  27.625  1.00  0.00     0.057 A 
ATOM     68  C   UNL A   1      41.913  23.830  26.583  1.00  0.00     0.134 A 
ATOM     69  C   UNL A   1      42.994  23.171  28.614  1.00  0.00     0.134 A 
ATOM     70  F   UNL A   1      41.663  24.722  25.611  1.00  0.00    -0.206 F 
ATOM     71  C   UNL A   1      41.223  22.617  26.548  1.00  0.00     0.040 A 
ATOM     72  C   UNL A   1      42.336  21.941  28.572  1.00  0.00     0.040 A 
ATOM     73  F   UNL A   1      43.829  23.400  29.638  1.00  0.00    -0.206 F 
ATOM     74  C   UNL A   1      41.438  21.666  27.543  1.00  0.00     0.006 A 
ENDBRANCH  53  67
BRANCH  54  75
ATOM     75  C   UNL A   1      47.083  33.122  28.465  1.00  0.00     0.057 A 
ATOM     76  C   UNL A   1      47.600  33.577  29.684  1.00  0.00     0.134 A 
ATOM     77  C   UNL A   1      47.186  33.979  27.363  1.00  0.00     0.134 A 
ATOM     78  F   UNL A   1      47.510  32.813  30.783  1.00  0.00    -0.206 F 
ATOM     79  C   UNL A   1      48.182  34.840  29.808  1.00  0.00     0.040 A 
ATOM     80  C   UNL A   1      47.788  35.234  27.465  1.00  0.00     0.040 A 
ATOM     81  F   UNL A   1      46.707  33.606  26.167  1.00  0.00    -0.206 F 
ATOM     82  C   UNL A   1      48.282  35.670  28.694  1.00  0.00     0.006 A 
ENDBRANCH  54  75
BRANCH  66  83
ATOM     83  C   UNL A   1      49.331  26.907  26.263  1.00  0.00     0.057 A 
ATOM     84  C   UNL A   1      50.259  26.209  27.047  1.00  0.00     0.134 A 
ATOM     85  C   UNL A   1      49.659  27.127  24.918  1.00  0.00     0.134 A 
ATOM     86  F   UNL A   1      50.014  25.973  28.344  1.00  0.00    -0.206 F 
ATOM     87  C   UNL A   1      51.476  25.768  26.519  1.00  0.00     0.040 A 
ATOM     88  C   UNL A   1      50.858  26.664  24.372  1.00  0.00     0.040 A 
ATOM     89  F   UNL A   1      48.813  27.779  24.108  1.00  0.00    -0.206 F 
ATOM     90  C   UNL A   1      51.774  25.990  25.176  1.00  0.00     0.006 A 
ENDBRANCH  66  83
ENDBRANCH  40  41
ENDBRANCH  33  35
ENDBRANCH  32  33
ENDBRANCH  31  32
ENDBRANCH  30  31
ENDBRANCH  29  30
ENDBRANCH  28  29
ENDBRANCH  27  28
ENDBRANCH  26  27
ENDBRANCH   1  26
TORSDOF 23
ENDMDL
MODEL 3
REMARK VINA RESULT:      -9.4      1.649      6.371
REMARK SMILES CCOc1ccc(-c2nc(C(=O)OCCOCCOCCOCCOC(=O)c3ccc(-c4c5nc(c(-c6c(F)cccc6F)c6ccc([nH]6)c(-c6c(F)cccc6F)c6nc(c(-c7c(F)cccc7F)c7ccc4[nH]7)C=C6)C=C5)cc3)cc(=O)[nH]2)cc1
REMARK SMILES IDX 18 1 17 2 16 3 15 4 14 5 13 6 11 7 12 8 10 9 8 10 9 11 85 12
REMARK SMILES IDX 83 13 82 15 84 16 7 17 4 18 5 19 87 20 6 21 86 22 3 23 2 24
REMARK SMILES IDX 1 25 19 26 20 27 21 28 22 29 23 30 24 31 25 32 26 33 27 34
REMARK SMILES IDX 28 35 29 36 81 37 30 38 80 39 31 40 32 41 33 42 74 43 34 44
REMARK SMILES IDX 79 45 73 46 75 47 35 48 78 49 72 50 71 51 36 53 62 54 45 55
REMARK SMILES IDX 61 56 46 57 49 58 60 59 76 60 47 61 48 62 59 64 77 65 50 66
REMARK SMILES IDX 37 67 38 68 43 69 39 70 40 71 42 72 44 73 41 74 63 75 64 76
REMARK SMILES IDX 69 77 65 78 66 79 68 80 70 81 67 82 51 83 52 84 57 85 53 86
REMARK SMILES IDX 54 87 56 88 58 89 55 90
REMARK H PARENT 85 14 75 52 49 63
REMARK Flexibility Score: inf
ROOT
ATOM      1  C   UNL A   1      32.209  31.035  26.842  1.00  0.00     0.188 C 
ENDROOT
BRANCH   1   2
ATOM      2  C   UNL A   1      32.064  29.565  26.404  1.00  0.00     0.188 C 
BRANCH   2   3
ATOM      3  O   UNL A   1      31.770  29.431  25.023  1.00  0.00    -0.376 OA
BRANCH   3   4
ATOM      4  C   UNL A   1      31.314  28.184  24.531  1.00  0.00     0.202 C 
BRANCH   4   5
ATOM      5  C   UNL A   1      32.031  27.502  23.353  1.00  0.00     0.261 C 
BRANCH   5   6
ATOM      6  O   UNL A   1      32.992  26.495  23.688  1.00  0.00    -0.459 OA
BRANCH   6   7
ATOM      7  C   UNL A   1      32.914  25.306  23.042  1.00  0.00     0.357 C 
ATOM      8  O   UNL A   1      33.341  25.078  21.922  1.00  0.00    -0.244 OA
BRANCH   7   9
ATOM      9  C   UNL A   1      32.394  24.271  24.005  1.00  0.00     0.156 A 
ATOM     10  C   UNL A   1      32.247  22.072  24.592  1.00  0.00     0.141 A 
ATOM     11  N   UNL A   1      32.629  22.942  23.715  1.00  0.00    -0.223 NA
ATOM     12  N   UNL A   1      31.631  22.407  25.768  1.00  0.00    -0.306 N 
ATOM     13  C   UNL A   1      31.381  23.703  26.109  1.00  0.00     0.251 A 
ATOM     14  H   UNL A   1      31.359  21.690  26.386  1.00  0.00     0.171 HD
ATOM     15  C   UNL A   1      31.810  24.707  25.130  1.00  0.00     0.107 A 
ATOM     16  O   UNL A   1      30.841  24.018  27.161  1.00  0.00    -0.269 OA
BRANCH  10  17
ATOM     17  C   UNL A   1      32.467  20.633  24.377  1.00  0.00     0.018 A 
ATOM     18  C   UNL A   1      32.721  17.890  23.998  1.00  0.00     0.119 A 
ATOM     19  C   UNL A   1      32.881  18.433  25.274  1.00  0.00     0.047 A 
ATOM     20  C   UNL A   1      32.427  18.716  22.913  1.00  0.00     0.047 A 
ATOM     21  C   UNL A   1      32.766  19.812  25.467  1.00  0.00     0.016 A 
ATOM     22  C   UNL A   1      32.302  20.095  23.099  1.00  0.00     0.016 A 
BRANCH  18  23
ATOM     23  O   UNL A   1      32.683  16.529  23.883  1.00  0.00    -0.494 OA
BRANCH  23  24
ATOM     24  C   UNL A   1      33.547  15.840  24.793  1.00  0.00     0.226 C 
ATOM     25  C   UNL A   1      32.785  14.818  25.620  1.00  0.00     0.049 C 
ENDBRANCH  23  24
ENDBRANCH  18  23
ENDBRANCH  10  17
ENDBRANCH   7   9
ENDBRANCH   6   7
ENDBRANCH   5   6
ENDBRANCH   4   5
ENDBRANCH   3   4
ENDBRANCH   2   3
ENDBRANCH   1   2
BRANCH   1  26
ATOM     26  O   UNL A   1      33.358  31.346  27.617  1.00  0.00    -0.377 OA
BRANCH  26  27
ATOM     27  C   UNL A   1      33.586  32.696  28.026  1.00  0.00     0.188 C 
BRANCH  27  28
ATOM     28  C   UNL A   1      34.995  33.341  28.081  1.00  0.00     0.188 C 
BRANCH  28  29
ATOM     29  O   UNL A   1      35.753  33.027  29.237  1.00  0.00    -0.376 OA
BRANCH  29  30
ATOM     30  C   UNL A   1      35.053  32.817  30.451  1.00  0.00     0.202 C 
BRANCH  30  31
ATOM     31  C   UNL A   1      35.418  31.546  31.228  1.00  0.00     0.261 C 
BRANCH  31  32
ATOM     32  O   UNL A   1      36.521  30.791  30.706  1.00  0.00    -0.460 OA
BRANCH  32  33
ATOM     33  C   UNL A   1      37.201  30.012  31.578  1.00  0.00     0.338 C 
ATOM     34  O   UNL A   1      36.753  29.389  32.516  1.00  0.00    -0.246 OA
BRANCH  33  35
ATOM     35  C   UNL A   1      38.590  29.902  31.078  1.00  0.00     0.060 A 
ATOM     36  C   UNL A   1      38.878  30.303  29.768  1.00  0.00     0.016 A 
ATOM     37  C   UNL A   1      39.599  29.413  31.910  1.00  0.00     0.016 A 
ATOM     38  C   UNL A   1      40.177  30.181  29.272  1.00  0.00     0.010 A 
ATOM     39  C   UNL A   1      40.894  29.276  31.407  1.00  0.00     0.010 A 
ATOM     40  C   UNL A   1      41.181  29.625  30.076  1.00  0.00    -0.014 A 
BRANCH  40  41
ATOM     41  C   UNL A   1      42.476  29.225  29.475  1.00  0.00     0.031 A 
ATOM     42  C   UNL A   1      42.603  27.833  28.921  1.00  0.00     0.074 A 
ATOM     43  C   UNL A   1      43.515  30.073  29.412  1.00  0.00     0.049 A 
ATOM     44  N   UNL A   1      43.641  27.235  28.395  1.00  0.00    -0.248 NA
ATOM     45  C   UNL A   1      41.390  27.001  28.972  1.00  0.00     0.031 C 
ATOM     46  C   UNL A   1      43.505  31.461  29.871  1.00  0.00     0.029 A 
ATOM     47  N   UNL A   1      44.789  29.882  28.938  1.00  0.00    -0.354 N 
ATOM     48  C   UNL A   1      43.210  25.957  28.061  1.00  0.00     0.074 A 
ATOM     49  C   UNL A   1      41.828  25.853  28.480  1.00  0.00     0.031 C 
ATOM     50  C   UNL A   1      44.719  31.998  29.654  1.00  0.00     0.029 A 
ATOM     51  C   UNL A   1      45.599  30.982  29.079  1.00  0.00     0.049 A 
ATOM     52  H   UNL A   1      45.092  29.037  28.536  1.00  0.00     0.167 HD
ATOM     53  C   UNL A   1      43.897  24.961  27.453  1.00  0.00     0.037 A 
ATOM     54  C   UNL A   1      46.906  31.139  28.792  1.00  0.00     0.037 A 
ATOM     55  C   UNL A   1      45.275  25.063  27.052  1.00  0.00     0.049 A 
ATOM     56  C   UNL A   1      47.681  29.983  28.211  1.00  0.00     0.074 A 
ATOM     57  C   UNL A   1      46.061  24.118  26.416  1.00  0.00     0.029 A 
ATOM     58  N   UNL A   1      46.078  26.175  27.261  1.00  0.00    -0.354 N 
ATOM     59  N   UNL A   1      47.261  28.788  27.873  1.00  0.00    -0.248 NA
ATOM     60  C   UNL A   1      49.116  30.201  27.975  1.00  0.00     0.031 C 
ATOM     61  C   UNL A   1      47.356  24.634  26.300  1.00  0.00     0.029 A 
ATOM     62  C   UNL A   1      47.361  25.927  26.800  1.00  0.00     0.049 A 
ATOM     63  H   UNL A   1      45.780  27.016  27.676  1.00  0.00     0.167 HD
ATOM     64  C   UNL A   1      48.366  28.127  27.349  1.00  0.00     0.074 A 
ATOM     65  C   UNL A   1      49.474  29.057  27.408  1.00  0.00     0.031 C 
ATOM     66  C   UNL A   1      48.455  26.865  26.857  1.00  0.00     0.037 A 
BRANCH  53  67
ATOM     67  C   UNL A   1      43.171  23.665  27.229  1.00  0.00     0.057 A 
ATOM     68  C   UNL A   1      43.033  22.703  28.240  1.00  0.00     0.134 A 
ATOM     69  C   UNL A   1      42.611  23.371  25.980  1.00  0.00     0.134 A 
ATOM     70  F   UNL A   1      43.560  22.913  29.456  1.00  0.00    -0.206 F 
ATOM     71  C   UNL A   1      42.400  21.481  28.004  1.00  0.00     0.040 A 
ATOM     72  C   UNL A   1      41.946  22.167  25.742  1.00  0.00     0.040 A 
ATOM     73  F   UNL A   1      42.700  24.247  24.968  1.00  0.00    -0.206 F 
ATOM     74  C   UNL A   1      41.850  21.212  26.753  1.00  0.00     0.006 A 
ENDBRANCH  53  67
BRANCH  54  75
ATOM     75  C   UNL A   1      47.575  32.442  29.041  1.00  0.00     0.057 A 
ATOM     76  C   UNL A   1      47.654  33.414  28.036  1.00  0.00     0.134 A 
ATOM     77  C   UNL A   1      48.168  32.740  30.273  1.00  0.00     0.134 A 
ATOM     78  F   UNL A   1      47.128  33.178  26.825  1.00  0.00    -0.206 F 
ATOM     79  C   UNL A   1      48.312  34.628  28.242  1.00  0.00     0.040 A 
ATOM     80  C   UNL A   1      48.805  33.961  30.502  1.00  0.00     0.040 A 
ATOM     81  F   UNL A   1      48.130  31.851  31.276  1.00  0.00    -0.206 F 
ATOM     82  C   UNL A   1      48.884  34.907  29.481  1.00  0.00     0.006 A 
ENDBRANCH  54  75
BRANCH  66  83
ATOM     83  C   UNL A   1      49.781  26.430  26.298  1.00  0.00     0.057 A 
ATOM     84  C   UNL A   1      50.178  26.744  24.992  1.00  0.00     0.134 A 
ATOM     85  C   UNL A   1      50.689  25.721  27.095  1.00  0.00     0.134 A 
ATOM     86  F   UNL A   1      49.354  27.412  24.171  1.00  0.00    -0.206 F 
ATOM     87  C   UNL A   1      51.421  26.345  24.491  1.00  0.00     0.040 A 
ATOM     88  C   UNL A   1      51.946  25.344  26.616  1.00  0.00     0.040 A 
ATOM     89  F   UNL A   1      50.378  25.396  28.359  1.00  0.00    -0.206 F 
ATOM     90  C   UNL A   1      52.310  25.649  25.308  1.00  0.00     0.006 A 
ENDBRANCH  66  83
ENDBRANCH  40  41
ENDBRANCH  33  35
ENDBRANCH  32  33
ENDBRANCH  31  32
ENDBRANCH  30  31
ENDBRANCH  29  30
ENDBRANCH  28  29
ENDBRANCH  27  28
ENDBRANCH  26  27
ENDBRANCH   1  26
TORSDOF 23
ENDMDL
