MODEL 1
REMARK VINA RESULT:     -12.1      0.000      0.000
REMARK SMILES Cc1ccc(-c2cc(C(=O)OCCOCCOCCOCCOC(=O)c3ccc(-c4c5nc(c(-c6c(F)cccc6F)c6ccc([nH]6)c(-c6c(F)cccc6F)c6nc(c(-c7c(F)cccc7F)c7ccc4[nH]7)C=C6)C=C5)cc3)c3c(-c4cccc([N+](=O)[O-])c4)[nH]nc3n2)cc1
REMARK SMILES IDX 17 1 16 2 15 3 14 4 13 5 12 6 11 7 9 8 10 9 8 10 6 11 7 12
REMARK SMILES IDX 94 13 93 14 80 15 92 16 81 17 91 18 5 20 1 21 2 22 3 23
REMARK SMILES IDX 96 24 4 25 95 26 82 27 83 28 90 29 84 30 86 31 85 32 87 33
REMARK SMILES IDX 88 34 89 35 18 36 19 37 20 38 21 39 22 40 23 41 24 42 25 43
REMARK SMILES IDX 26 44 27 45 79 46 28 47 78 48 29 49 30 50 31 51 72 52 32 53
REMARK SMILES IDX 77 54 71 55 73 56 33 57 76 58 70 59 69 60 34 62 60 63 43 64
REMARK SMILES IDX 59 65 44 66 47 67 58 68 74 69 45 70 46 71 57 73 75 74 48 75
REMARK SMILES IDX 35 76 36 77 41 78 37 79 38 80 40 81 42 82 39 83 61 84 62 85
REMARK SMILES IDX 67 86 63 87 64 88 66 89 68 90 65 91 49 92 50 93 55 94 51 95
REMARK SMILES IDX 52 96 54 97 56 98 53 99
REMARK H PARENT 91 19 73 61 47 72
REMARK Flexibility Score: inf
ROOT
ATOM      1  O   UNL A   1      39.338  31.412  31.663  1.00  0.00    -0.377 OA
ENDROOT
BRANCH   1   2
ATOM      2  C   UNL A   1      38.058  31.991  31.418  1.00  0.00     0.188 C 
BRANCH   2   3
ATOM      3  C   UNL A   1      36.665  31.472  30.618  1.00  0.00     0.188 C 
BRANCH   3   4
ATOM      4  O   UNL A   1      36.150  30.974  28.930  1.00  0.00    -0.376 OA
BRANCH   4   5
ATOM      5  C   UNL A   1      35.278  29.609  28.227  1.00  0.00     0.202 C 
BRANCH   5   6
ATOM      6  C   UNL A   1      33.724  29.693  27.186  1.00  0.00     0.261 C 
BRANCH   6   7
ATOM      7  O   UNL A   1      32.513  28.326  27.030  1.00  0.00    -0.460 OA
BRANCH   7   8
ATOM      8  C   UNL A   1      32.237  26.899  26.648  1.00  0.00     0.339 C 
ATOM      9  O   UNL A   1      31.345  26.237  27.174  1.00  0.00    -0.246 OA
BRANCH   8  10
ATOM     10  C   UNL A   1      32.943  25.966  25.566  1.00  0.00     0.075 A 
ATOM     11  C   UNL A   1      34.611  24.197  24.685  1.00  0.00     0.074 A 
ATOM     12  C   UNL A   1      34.156  25.213  25.571  1.00  0.00     0.045 A 
ATOM     13  N   UNL A   1      33.986  23.895  23.543  1.00  0.00    -0.226 NA
ATOM     14  C   UNL A   1      32.957  24.743  23.293  1.00  0.00     0.182 A 
ATOM     15  C   UNL A   1      32.467  25.757  24.234  1.00  0.00     0.061 A 
ATOM     16  N   UNL A   1      32.308  24.773  22.134  1.00  0.00    -0.154 NA
ATOM     17  C   UNL A   1      31.603  26.514  23.439  1.00  0.00     0.076 A 
ATOM     18  N   UNL A   1      31.500  25.823  22.257  1.00  0.00    -0.275 N 
ATOM     19  H   UNL A   1      30.871  26.087  21.548  1.00  0.00     0.190 HD
BRANCH  11  20
ATOM     20  C   UNL A   1      35.842  23.430  25.032  1.00  0.00     0.000 A 
ATOM     21  C   UNL A   1      39.579  21.349  25.900  1.00  0.00     0.044 C 
ATOM     22  C   UNL A   1      38.299  22.074  25.592  1.00  0.00    -0.051 A 
ATOM     23  C   UNL A   1      37.306  21.475  24.808  1.00  0.00     0.004 A 
ATOM     24  C   UNL A   1      38.053  23.347  26.112  1.00  0.00     0.004 A 
ATOM     25  C   UNL A   1      36.096  22.144  24.533  1.00  0.00     0.010 A 
ATOM     26  C   UNL A   1      36.847  24.013  25.831  1.00  0.00     0.010 A 
ENDBRANCH  11  20
BRANCH  17  27
ATOM     27  C   UNL A   1      30.900  27.791  23.541  1.00  0.00     0.007 A 
ATOM     28  C   UNL A   1      31.511  28.859  24.207  1.00  0.00     0.011 A 
ATOM     29  C   UNL A   1      29.622  27.969  22.992  1.00  0.00     0.096 A 
ATOM     30  C   UNL A   1      30.899  30.113  24.255  1.00  0.00     0.008 A 
ATOM     31  C   UNL A   1      29.018  29.239  23.037  1.00  0.00     0.270 A 
ATOM     32  C   UNL A   1      29.661  30.317  23.654  1.00  0.00     0.085 A 
BRANCH  31  33
ATOM     33  N   UNL A   1      27.760  29.478  22.316  1.00  0.00     0.062 N 
ATOM     34  O   UNL A   1      26.715  29.557  22.980  1.00  0.00    -0.258 OA
ATOM     35  O   UNL A   1      27.823  29.642  21.089  1.00  0.00    -0.258 OA
ENDBRANCH  31  33
ENDBRANCH  17  27
ENDBRANCH   8  10
ENDBRANCH   7   8
ENDBRANCH   6   7
ENDBRANCH   5   6
ENDBRANCH   4   5
ENDBRANCH   3   4
ENDBRANCH   2   3
ENDBRANCH   1   2
BRANCH   1  36
ATOM     36  C   UNL A   1      39.816  30.173  31.190  1.00  0.00     0.188 C 
BRANCH  36  37
ATOM     37  C   UNL A   1      39.311  28.869  31.738  1.00  0.00     0.188 C 
BRANCH  37  38
ATOM     38  O   UNL A   1      39.118  27.925  30.710  1.00  0.00    -0.376 OA
BRANCH  38  39
ATOM     39  C   UNL A   1      40.260  27.757  29.886  1.00  0.00     0.202 C 
BRANCH  39  40
ATOM     40  C   UNL A   1      39.899  27.245  28.479  1.00  0.00     0.261 C 
BRANCH  40  41
ATOM     41  O   UNL A   1      41.086  27.131  27.654  1.00  0.00    -0.460 OA
BRANCH  41  42
ATOM     42  C   UNL A   1      41.486  25.895  27.230  1.00  0.00     0.338 C 
ATOM     43  O   UNL A   1      41.394  24.845  27.892  1.00  0.00    -0.246 OA
BRANCH  42  44
ATOM     44  C   UNL A   1      42.365  26.036  26.031  1.00  0.00     0.060 A 
ATOM     45  C   UNL A   1      43.471  25.214  25.740  1.00  0.00     0.016 A 
ATOM     46  C   UNL A   1      42.399  27.270  25.497  1.00  0.00     0.016 A 
ATOM     47  C   UNL A   1      44.768  25.751  25.348  1.00  0.00     0.010 A 
ATOM     48  C   UNL A   1      43.674  27.749  25.249  1.00  0.00     0.010 A 
ATOM     49  C   UNL A   1      45.029  27.117  25.338  1.00  0.00    -0.014 A 
BRANCH  49  50
ATOM     50  C   UNL A   1      46.728  27.930  25.347  1.00  0.00     0.031 A 
ATOM     51  C   UNL A   1      47.815  28.138  23.650  1.00  0.00     0.074 A 
ATOM     52  C   UNL A   1      47.124  28.165  26.730  1.00  0.00     0.049 A 
ATOM     53  N   UNL A   1      49.081  27.673  23.435  1.00  0.00    -0.248 NA
ATOM     54  C   UNL A   1      47.457  28.116  22.025  1.00  0.00     0.031 C 
ATOM     55  C   UNL A   1      48.316  28.779  27.414  1.00  0.00     0.029 A 
ATOM     56  N   UNL A   1      46.514  27.729  27.941  1.00  0.00    -0.354 N 
ATOM     57  C   UNL A   1      49.636  27.692  22.191  1.00  0.00     0.074 A 
ATOM     58  C   UNL A   1      48.525  27.732  21.333  1.00  0.00     0.031 C 
ATOM     59  C   UNL A   1      48.375  28.733  28.737  1.00  0.00     0.029 A 
ATOM     60  C   UNL A   1      47.472  27.713  29.001  1.00  0.00     0.049 A 
ATOM     61  H   UNL A   1      45.568  27.475  28.035  1.00  0.00     0.167 HD
ATOM     62  C   UNL A   1      50.990  27.771  22.019  1.00  0.00     0.037 A 
ATOM     63  C   UNL A   1      47.983  26.598  29.571  1.00  0.00     0.037 A 
ATOM     64  C   UNL A   1      51.690  27.924  23.317  1.00  0.00     0.049 A 
ATOM     65  C   UNL A   1      49.448  26.301  29.058  1.00  0.00     0.074 A 
ATOM     66  C   UNL A   1      52.142  29.051  23.991  1.00  0.00     0.029 A 
ATOM     67  N   UNL A   1      51.696  26.904  24.279  1.00  0.00    -0.354 N 
ATOM     68  N   UNL A   1      49.934  26.524  27.840  1.00  0.00    -0.248 NA
ATOM     69  C   UNL A   1      50.536  26.028  29.997  1.00  0.00     0.031 C 
ATOM     70  C   UNL A   1      52.233  28.743  25.385  1.00  0.00     0.029 A 
ATOM     71  C   UNL A   1      51.930  27.395  25.576  1.00  0.00     0.049 A 
ATOM     72  H   UNL A   1      51.553  25.952  24.070  1.00  0.00     0.167 HD
ATOM     73  C   UNL A   1      51.321  26.383  27.806  1.00  0.00     0.074 A 
ATOM     74  C   UNL A   1      51.627  26.104  29.209  1.00  0.00     0.031 C 
ATOM     75  C   UNL A   1      52.199  26.509  26.730  1.00  0.00     0.037 A 
BRANCH  62  76
ATOM     76  C   UNL A   1      51.530  28.160  20.643  1.00  0.00     0.057 A 
ATOM     77  C   UNL A   1      51.721  29.502  20.277  1.00  0.00     0.134 A 
ATOM     78  C   UNL A   1      51.761  27.250  19.586  1.00  0.00     0.134 A 
ATOM     79  F   UNL A   1      51.708  30.483  21.188  1.00  0.00    -0.206 F 
ATOM     80  C   UNL A   1      51.933  29.910  18.946  1.00  0.00     0.040 A 
ATOM     81  C   UNL A   1      51.896  27.641  18.242  1.00  0.00     0.040 A 
ATOM     82  F   UNL A   1      51.903  25.937  19.815  1.00  0.00    -0.206 F 
ATOM     83  C   UNL A   1      51.958  28.983  17.914  1.00  0.00     0.006 A 
ENDBRANCH  62  76
BRANCH  63  84
ATOM     84  C   UNL A   1      46.785  25.868  30.071  1.00  0.00     0.057 A 
ATOM     85  C   UNL A   1      46.092  26.525  31.146  1.00  0.00     0.134 A 
ATOM     86  C   UNL A   1      46.013  25.077  29.233  1.00  0.00     0.134 A 
ATOM     87  F   UNL A   1      46.766  27.332  31.987  1.00  0.00    -0.206 F 
ATOM     88  C   UNL A   1      44.698  26.611  31.194  1.00  0.00     0.040 A 
ATOM     89  C   UNL A   1      44.611  25.074  29.346  1.00  0.00     0.040 A 
ATOM     90  F   UNL A   1      46.569  24.472  28.176  1.00  0.00    -0.206 F 
ATOM     91  C   UNL A   1      43.953  25.898  30.271  1.00  0.00     0.006 A 
ENDBRANCH  63  84
BRANCH  75  92
ATOM     92  C   UNL A   1      53.577  25.816  26.656  1.00  0.00     0.057 A 
ATOM     93  C   UNL A   1      54.672  26.166  27.457  1.00  0.00     0.134 A 
ATOM     94  C   UNL A   1      53.760  24.599  25.937  1.00  0.00     0.134 A 
ATOM     95  F   UNL A   1      54.647  27.234  28.263  1.00  0.00    -0.206 F 
ATOM     96  C   UNL A   1      55.840  25.392  27.528  1.00  0.00     0.040 A 
ATOM     97  C   UNL A   1      54.883  23.779  26.066  1.00  0.00     0.040 A 
ATOM     98  F   UNL A   1      52.846  24.107  25.091  1.00  0.00    -0.206 F 
ATOM     99  C   UNL A   1      55.938  24.180  26.860  1.00  0.00     0.006 A 
ENDBRANCH  75  92
ENDBRANCH  49  50
ENDBRANCH  42  44
ENDBRANCH  41  42
ENDBRANCH  40  41
ENDBRANCH  39  40
ENDBRANCH  38  39
ENDBRANCH  37  38
ENDBRANCH  36  37
ENDBRANCH   1  36
TORSDOF 23
ENDMDL
MODEL 2
REMARK VINA RESULT:     -11.7      4.009      9.372
REMARK SMILES Cc1ccc(-c2cc(C(=O)OCCOCCOCCOCCOC(=O)c3ccc(-c4c5nc(c(-c6c(F)cccc6F)c6ccc([nH]6)c(-c6c(F)cccc6F)c6nc(c(-c7c(F)cccc7F)c7ccc4[nH]7)C=C6)C=C5)cc3)c3c(-c4cccc([N+](=O)[O-])c4)[nH]nc3n2)cc1
REMARK SMILES IDX 17 1 16 2 15 3 14 4 13 5 12 6 11 7 9 8 10 9 8 10 6 11 7 12
REMARK SMILES IDX 94 13 93 14 80 15 92 16 81 17 91 18 5 20 1 21 2 22 3 23
REMARK SMILES IDX 96 24 4 25 95 26 82 27 83 28 90 29 84 30 86 31 85 32 87 33
REMARK SMILES IDX 88 34 89 35 18 36 19 37 20 38 21 39 22 40 23 41 24 42 25 43
REMARK SMILES IDX 26 44 27 45 79 46 28 47 78 48 29 49 30 50 31 51 72 52 32 53
REMARK SMILES IDX 77 54 71 55 73 56 33 57 76 58 70 59 69 60 34 62 60 63 43 64
REMARK SMILES IDX 59 65 44 66 47 67 58 68 74 69 45 70 46 71 57 73 75 74 48 75
REMARK SMILES IDX 35 76 36 77 41 78 37 79 38 80 40 81 42 82 39 83 61 84 62 85
REMARK SMILES IDX 67 86 63 87 64 88 66 89 68 90 65 91 49 92 50 93 55 94 51 95
REMARK SMILES IDX 52 96 54 97 56 98 53 99
REMARK H PARENT 91 19 73 61 47 72
REMARK Flexibility Score: inf
ROOT
ATOM      1  O   UNL A   1      41.692  27.706  27.209  1.00  0.00    -0.377 OA
ENDROOT
BRANCH   1   2
ATOM      2  C   UNL A   1      40.940  28.918  27.213  1.00  0.00     0.188 C 
BRANCH   2   3
ATOM      3  C   UNL A   1      39.321  29.299  26.927  1.00  0.00     0.188 C 
BRANCH   3   4
ATOM      4  O   UNL A   1      37.856  29.880  27.864  1.00  0.00    -0.376 OA
BRANCH   4   5
ATOM      5  C   UNL A   1      36.226  29.272  28.165  1.00  0.00     0.202 C 
BRANCH   5   6
ATOM      6  C   UNL A   1      34.634  29.933  27.434  1.00  0.00     0.261 C 
BRANCH   6   7
ATOM      7  O   UNL A   1      33.276  28.879  26.798  1.00  0.00    -0.460 OA
BRANCH   7   8
ATOM      8  C   UNL A   1      32.696  27.503  26.631  1.00  0.00     0.339 C 
ATOM      9  O   UNL A   1      31.742  27.105  27.296  1.00  0.00    -0.246 OA
BRANCH   8  10
ATOM     10  C   UNL A   1      33.109  26.322  25.644  1.00  0.00     0.075 A 
ATOM     11  C   UNL A   1      34.491  24.303  24.808  1.00  0.00     0.074 A 
ATOM     12  C   UNL A   1      34.276  25.508  25.534  1.00  0.00     0.045 A 
ATOM     13  N   UNL A   1      33.608  23.814  23.932  1.00  0.00    -0.226 NA
ATOM     14  C   UNL A   1      32.562  24.658  23.748  1.00  0.00     0.182 A 
ATOM     15  C   UNL A   1      32.327  25.875  24.534  1.00  0.00     0.061 A 
ATOM     16  N   UNL A   1      31.656  24.491  22.790  1.00  0.00    -0.154 NA
ATOM     17  C   UNL A   1      31.310  26.507  23.814  1.00  0.00     0.076 A 
ATOM     18  N   UNL A   1      30.918  25.596  22.865  1.00  0.00    -0.275 N 
ATOM     19  H   UNL A   1      30.141  25.749  22.280  1.00  0.00     0.190 HD
BRANCH  11  20
ATOM     20  C   UNL A   1      35.757  23.545  25.021  1.00  0.00     0.000 A 
ATOM     21  C   UNL A   1      39.322  21.133  25.745  1.00  0.00     0.044 C 
ATOM     22  C   UNL A   1      38.086  21.954  25.502  1.00  0.00    -0.051 A 
ATOM     23  C   UNL A   1      37.834  23.109  26.251  1.00  0.00     0.004 A 
ATOM     24  C   UNL A   1      37.180  21.605  24.498  1.00  0.00     0.004 A 
ATOM     25  C   UNL A   1      36.687  23.892  26.014  1.00  0.00     0.010 A 
ATOM     26  C   UNL A   1      36.034  22.386  24.267  1.00  0.00     0.010 A 
ENDBRANCH  11  20
BRANCH  17  27
ATOM     27  C   UNL A   1      30.671  27.822  23.796  1.00  0.00     0.007 A 
ATOM     28  C   UNL A   1      31.438  28.961  24.067  1.00  0.00     0.011 A 
ATOM     29  C   UNL A   1      29.304  27.968  23.520  1.00  0.00     0.096 A 
ATOM     30  C   UNL A   1      30.876  30.235  23.982  1.00  0.00     0.008 A 
ATOM     31  C   UNL A   1      28.749  29.258  23.427  1.00  0.00     0.270 A 
ATOM     32  C   UNL A   1      29.536  30.393  23.642  1.00  0.00     0.085 A 
BRANCH  31  33
ATOM     33  N   UNL A   1      27.363  29.427  22.971  1.00  0.00     0.062 N 
ATOM     34  O   UNL A   1      27.121  30.344  22.171  1.00  0.00    -0.258 OA
ATOM     35  O   UNL A   1      26.522  28.606  23.368  1.00  0.00    -0.258 OA
ENDBRANCH  31  33
ENDBRANCH  17  27
ENDBRANCH   8  10
ENDBRANCH   7   8
ENDBRANCH   6   7
ENDBRANCH   5   6
ENDBRANCH   4   5
ENDBRANCH   3   4
ENDBRANCH   2   3
ENDBRANCH   1   2
BRANCH   1  36
ATOM     36  C   UNL A   1      41.301  26.461  27.743  1.00  0.00     0.188 C 
BRANCH  36  37
ATOM     37  C   UNL A   1      40.219  25.633  27.110  1.00  0.00     0.188 C 
BRANCH  37  38
ATOM     38  O   UNL A   1      40.687  24.344  26.789  1.00  0.00    -0.376 OA
BRANCH  38  39
ATOM     39  C   UNL A   1      41.485  23.770  27.810  1.00  0.00     0.202 C 
BRANCH  39  40
ATOM     40  C   UNL A   1      42.550  22.807  27.252  1.00  0.00     0.261 C 
BRANCH  40  41
ATOM     41  O   UNL A   1      43.829  23.025  27.900  1.00  0.00    -0.460 OA
BRANCH  41  42
ATOM     42  C   UNL A   1      44.510  24.185  27.657  1.00  0.00     0.338 C 
ATOM     43  O   UNL A   1      44.930  24.550  26.544  1.00  0.00    -0.246 OA
BRANCH  42  44
ATOM     44  C   UNL A   1      44.989  24.765  28.947  1.00  0.00     0.060 A 
ATOM     45  C   UNL A   1      44.249  24.788  30.145  1.00  0.00     0.016 A 
ATOM     46  C   UNL A   1      45.930  25.719  28.824  1.00  0.00     0.016 A 
ATOM     47  C   UNL A   1      44.115  25.987  30.963  1.00  0.00     0.010 A 
ATOM     48  C   UNL A   1      45.676  26.867  29.552  1.00  0.00     0.010 A 
ATOM     49  C   UNL A   1      44.622  27.218  30.558  1.00  0.00    -0.014 A 
BRANCH  49  50
ATOM     50  C   UNL A   1      44.120  28.906  31.223  1.00  0.00     0.031 A 
ATOM     51  C   UNL A   1      42.180  29.484  31.300  1.00  0.00     0.074 A 
ATOM     52  C   UNL A   1      45.326  29.692  31.455  1.00  0.00     0.049 A 
ATOM     53  N   UNL A   1      41.642  30.600  30.725  1.00  0.00    -0.248 NA
ATOM     54  C   UNL A   1      40.721  28.683  31.272  1.00  0.00     0.031 C 
ATOM     55  C   UNL A   1      45.622  31.071  31.980  1.00  0.00     0.029 A 
ATOM     56  N   UNL A   1      46.678  29.417  31.099  1.00  0.00    -0.354 N 
ATOM     57  C   UNL A   1      40.293  30.783  30.668  1.00  0.00     0.074 A 
ATOM     58  C   UNL A   1      39.777  29.481  30.783  1.00  0.00     0.031 C 
ATOM     59  C   UNL A   1      46.877  31.496  31.959  1.00  0.00     0.029 A 
ATOM     60  C   UNL A   1      47.428  30.630  31.026  1.00  0.00     0.049 A 
ATOM     61  H   UNL A   1      47.042  28.518  30.928  1.00  0.00     0.167 HD
ATOM     62  C   UNL A   1      39.748  32.036  30.627  1.00  0.00     0.037 A 
ATOM     63  C   UNL A   1      47.883  31.195  29.884  1.00  0.00     0.037 A 
ATOM     64  C   UNL A   1      40.791  33.082  30.750  1.00  0.00     0.049 A 
ATOM     65  C   UNL A   1      46.997  32.429  29.452  1.00  0.00     0.074 A 
ATOM     66  C   UNL A   1      41.260  33.789  31.849  1.00  0.00     0.029 A 
ATOM     67  N   UNL A   1      41.758  33.281  29.755  1.00  0.00    -0.354 N 
ATOM     68  N   UNL A   1      45.682  32.569  29.605  1.00  0.00    -0.248 NA
ATOM     69  C   UNL A   1      47.606  33.714  29.109  1.00  0.00     0.031 C 
ATOM     70  C   UNL A   1      42.587  34.245  31.566  1.00  0.00     0.029 A 
ATOM     71  C   UNL A   1      42.915  33.907  30.253  1.00  0.00     0.049 A 
ATOM     72  H   UNL A   1      41.641  33.014  28.814  1.00  0.00     0.167 HD
ATOM     73  C   UNL A   1      45.269  33.876  29.346  1.00  0.00     0.074 A 
ATOM     74  C   UNL A   1      46.543  34.541  29.074  1.00  0.00     0.031 C 
ATOM     75  C   UNL A   1      43.987  34.422  29.373  1.00  0.00     0.037 A 
BRANCH  62  76
ATOM     76  C   UNL A   1      38.259  32.195  30.939  1.00  0.00     0.057 A 
ATOM     77  C   UNL A   1      37.751  32.005  32.234  1.00  0.00     0.134 A 
ATOM     78  C   UNL A   1      37.256  32.411  29.966  1.00  0.00     0.134 A 
ATOM     79  F   UNL A   1      38.559  31.952  33.300  1.00  0.00    -0.206 F 
ATOM     80  C   UNL A   1      36.377  31.855  32.502  1.00  0.00     0.040 A 
ATOM     81  C   UNL A   1      35.888  32.189  30.201  1.00  0.00     0.040 A 
ATOM     82  F   UNL A   1      37.556  32.885  28.748  1.00  0.00    -0.206 F 
ATOM     83  C   UNL A   1      35.444  31.885  31.476  1.00  0.00     0.006 A 
ENDBRANCH  62  76
BRANCH  63  84
ATOM     84  C   UNL A   1      48.730  30.134  29.271  1.00  0.00     0.057 A 
ATOM     85  C   UNL A   1      48.188  29.557  28.070  1.00  0.00     0.134 A 
ATOM     86  C   UNL A   1      50.113  30.160  29.373  1.00  0.00     0.134 A 
ATOM     87  F   UNL A   1      46.856  29.520  27.884  1.00  0.00    -0.206 F 
ATOM     88  C   UNL A   1      48.976  29.299  26.945  1.00  0.00     0.040 A 
ATOM     89  C   UNL A   1      50.917  29.795  28.276  1.00  0.00     0.040 A 
ATOM     90  F   UNL A   1      50.701  30.727  30.433  1.00  0.00    -0.206 F 
ATOM     91  C   UNL A   1      50.349  29.442  27.043  1.00  0.00     0.006 A 
ENDBRANCH  63  84
BRANCH  75  92
ATOM     92  C   UNL A   1      43.564  35.667  28.564  1.00  0.00     0.057 A 
ATOM     93  C   UNL A   1      43.141  35.625  27.229  1.00  0.00     0.134 A 
ATOM     94  C   UNL A   1      43.336  36.924  29.198  1.00  0.00     0.134 A 
ATOM     95  F   UNL A   1      43.202  34.504  26.502  1.00  0.00    -0.206 F 
ATOM     96  C   UNL A   1      42.560  36.726  26.581  1.00  0.00     0.040 A 
ATOM     97  C   UNL A   1      42.682  37.997  28.587  1.00  0.00     0.040 A 
ATOM     98  F   UNL A   1      43.698  37.181  30.460  1.00  0.00    -0.206 F 
ATOM     99  C   UNL A   1      42.298  37.904  27.265  1.00  0.00     0.006 A 
ENDBRANCH  75  92
ENDBRANCH  49  50
ENDBRANCH  42  44
ENDBRANCH  41  42
ENDBRANCH  40  41
ENDBRANCH  39  40
ENDBRANCH  38  39
ENDBRANCH  37  38
ENDBRANCH  36  37
ENDBRANCH   1  36
TORSDOF 23
ENDMDL
MODEL 3
REMARK VINA RESULT:     -11.4      4.455      9.666
REMARK SMILES Cc1ccc(-c2cc(C(=O)OCCOCCOCCOCCOC(=O)c3ccc(-c4c5nc(c(-c6c(F)cccc6F)c6ccc([nH]6)c(-c6c(F)cccc6F)c6nc(c(-c7c(F)cccc7F)c7ccc4[nH]7)C=C6)C=C5)cc3)c3c(-c4cccc([N+](=O)[O-])c4)[nH]nc3n2)cc1
REMARK SMILES IDX 17 1 16 2 15 3 14 4 13 5 12 6 11 7 9 8 10 9 8 10 6 11 7 12
REMARK SMILES IDX 94 13 93 14 80 15 92 16 81 17 91 18 5 20 1 21 2 22 3 23
REMARK SMILES IDX 96 24 4 25 95 26 82 27 83 28 90 29 84 30 86 31 85 32 87 33
REMARK SMILES IDX 88 34 89 35 18 36 19 37 20 38 21 39 22 40 23 41 24 42 25 43
REMARK SMILES IDX 26 44 27 45 79 46 28 47 78 48 29 49 30 50 31 51 72 52 32 53
REMARK SMILES IDX 77 54 71 55 73 56 33 57 76 58 70 59 69 60 34 62 60 63 43 64
REMARK SMILES IDX 59 65 44 66 47 67 58 68 74 69 45 70 46 71 57 73 75 74 48 75
REMARK SMILES IDX 35 76 36 77 41 78 37 79 38 80 40 81 42 82 39 83 61 84 62 85
REMARK SMILES IDX 67 86 63 87 64 88 66 89 68 90 65 91 49 92 50 93 55 94 51 95
REMARK SMILES IDX 52 96 54 97 56 98 53 99
REMARK H PARENT 91 19 73 61 47 72
REMARK Flexibility Score: inf
ROOT
ATOM      1  O   UNL A   1      41.285  28.046  28.188  1.00  0.00    -0.377 OA
ENDROOT
BRANCH   1   2
ATOM      2  C   UNL A   1      40.487  29.172  27.828  1.00  0.00     0.188 C 
BRANCH   2   3
ATOM      3  C   UNL A   1      38.883  29.370  27.343  1.00  0.00     0.188 C 
BRANCH   3   4
ATOM      4  O   UNL A   1      37.297  29.974  28.037  1.00  0.00    -0.376 OA
BRANCH   4   5
ATOM      5  C   UNL A   1      35.649  29.351  28.150  1.00  0.00     0.202 C 
BRANCH   5   6
ATOM      6  C   UNL A   1      34.243  29.686  26.960  1.00  0.00     0.261 C 
BRANCH   6   7
ATOM      7  O   UNL A   1      33.181  28.385  26.225  1.00  0.00    -0.460 OA
BRANCH   7   8
ATOM      8  C   UNL A   1      32.783  26.937  26.175  1.00  0.00     0.339 C 
ATOM      9  O   UNL A   1      31.849  26.487  26.835  1.00  0.00    -0.246 OA
BRANCH   8  10
ATOM     10  C   UNL A   1      33.391  25.728  25.332  1.00  0.00     0.075 A 
ATOM     11  C   UNL A   1      35.038  23.812  24.782  1.00  0.00     0.074 A 
ATOM     12  C   UNL A   1      34.643  25.044  25.375  1.00  0.00     0.045 A 
ATOM     13  N   UNL A   1      34.279  23.153  23.901  1.00  0.00    -0.226 NA
ATOM     14  C   UNL A   1      33.166  23.855  23.571  1.00  0.00     0.182 A 
ATOM     15  C   UNL A   1      32.745  25.101  24.221  1.00  0.00     0.061 A 
ATOM     16  N   UNL A   1      32.357  23.505  22.577  1.00  0.00    -0.154 NA
ATOM     17  C   UNL A   1      31.724  25.551  23.381  1.00  0.00     0.076 A 
ATOM     18  N   UNL A   1      31.502  24.522  22.499  1.00  0.00    -0.275 N 
ATOM     19  H   UNL A   1      30.760  24.535  21.853  1.00  0.00     0.190 HD
BRANCH  11  20
ATOM     20  C   UNL A   1      36.358  23.222  25.147  1.00  0.00     0.000 A 
ATOM     21  C   UNL A   1      40.096  21.328  26.368  1.00  0.00     0.044 C 
ATOM     22  C   UNL A   1      38.801  21.972  25.956  1.00  0.00    -0.051 A 
ATOM     23  C   UNL A   1      38.479  23.268  26.378  1.00  0.00     0.004 A 
ATOM     24  C   UNL A   1      37.907  21.309  25.113  1.00  0.00     0.004 A 
ATOM     25  C   UNL A   1      37.275  23.882  25.979  1.00  0.00     0.010 A 
ATOM     26  C   UNL A   1      36.705  21.924  24.721  1.00  0.00     0.010 A 
ENDBRANCH  11  20
BRANCH  17  27
ATOM     27  C   UNL A   1      30.953  26.778  23.198  1.00  0.00     0.007 A 
ATOM     28  C   UNL A   1      31.574  27.903  22.643  1.00  0.00     0.011 A 
ATOM     29  C   UNL A   1      29.604  26.858  23.572  1.00  0.00     0.096 A 
ATOM     30  C   UNL A   1      30.846  29.064  22.384  1.00  0.00     0.008 A 
ATOM     31  C   UNL A   1      28.876  28.031  23.297  1.00  0.00     0.270 A 
ATOM     32  C   UNL A   1      29.490  29.130  22.690  1.00  0.00     0.085 A 
BRANCH  31  33
ATOM     33  N   UNL A   1      27.425  28.062  23.527  1.00  0.00     0.062 N 
ATOM     34  O   UNL A   1      26.900  27.078  24.070  1.00  0.00    -0.258 OA
ATOM     35  O   UNL A   1      26.815  29.096  23.214  1.00  0.00    -0.258 OA
ENDBRANCH  31  33
ENDBRANCH  17  27
ENDBRANCH   8  10
ENDBRANCH   7   8
ENDBRANCH   6   7
ENDBRANCH   5   6
ENDBRANCH   4   5
ENDBRANCH   3   4
ENDBRANCH   2   3
ENDBRANCH   1   2
BRANCH   1  36
ATOM     36  C   UNL A   1      40.919  26.979  29.034  1.00  0.00     0.188 C 
BRANCH  36  37
ATOM     37  C   UNL A   1      40.265  25.736  28.501  1.00  0.00     0.188 C 
BRANCH  37  38
ATOM     38  O   UNL A   1      41.223  24.827  28.011  1.00  0.00    -0.376 OA
BRANCH  38  39
ATOM     39  C   UNL A   1      42.446  24.865  28.727  1.00  0.00     0.202 C 
BRANCH  39  40
ATOM     40  C   UNL A   1      43.525  23.966  28.095  1.00  0.00     0.261 C 
BRANCH  40  41
ATOM     41  O   UNL A   1      44.847  24.524  28.305  1.00  0.00    -0.460 OA
BRANCH  41  42
ATOM     42  C   UNL A   1      45.331  25.446  27.419  1.00  0.00     0.338 C 
ATOM     43  O   UNL A   1      45.291  25.338  26.180  1.00  0.00    -0.246 OA
BRANCH  42  44
ATOM     44  C   UNL A   1      46.221  26.408  28.132  1.00  0.00     0.060 A 
ATOM     45  C   UNL A   1      46.381  26.477  29.530  1.00  0.00     0.016 A 
ATOM     46  C   UNL A   1      46.481  27.544  27.459  1.00  0.00     0.016 A 
ATOM     47  C   UNL A   1      46.326  27.734  30.266  1.00  0.00     0.010 A 
ATOM     48  C   UNL A   1      46.306  28.699  28.200  1.00  0.00     0.010 A 
ATOM     49  C   UNL A   1      46.005  28.938  29.648  1.00  0.00    -0.014 A 
BRANCH  49  50
ATOM     50  C   UNL A   1      45.417  30.510  30.502  1.00  0.00     0.031 A 
ATOM     51  C   UNL A   1      43.461  30.815  30.936  1.00  0.00     0.074 A 
ATOM     52  C   UNL A   1      46.535  31.441  30.586  1.00  0.00     0.049 A 
ATOM     53  N   UNL A   1      42.696  31.873  30.534  1.00  0.00    -0.248 NA
ATOM     54  C   UNL A   1      42.132  29.825  31.091  1.00  0.00     0.031 C 
ATOM     55  C   UNL A   1      46.741  32.821  31.150  1.00  0.00     0.029 A 
ATOM     56  N   UNL A   1      47.830  31.369  29.996  1.00  0.00    -0.354 N 
ATOM     57  C   UNL A   1      41.346  31.873  30.712  1.00  0.00     0.074 A 
ATOM     58  C   UNL A   1      41.025  30.510  30.820  1.00  0.00     0.031 C 
ATOM     59  C   UNL A   1      47.910  33.413  30.954  1.00  0.00     0.029 A 
ATOM     60  C   UNL A   1      48.398  32.674  29.885  1.00  0.00     0.049 A 
ATOM     61  H   UNL A   1      48.270  30.537  29.706  1.00  0.00     0.167 HD
ATOM     62  C   UNL A   1      40.648  33.041  30.848  1.00  0.00     0.037 A 
ATOM     63  C   UNL A   1      48.575  33.349  28.726  1.00  0.00     0.037 A 
ATOM     64  C   UNL A   1      41.556  34.212  30.870  1.00  0.00     0.049 A 
ATOM     65  C   UNL A   1      47.480  34.470  28.531  1.00  0.00     0.074 A 
ATOM     66  C   UNL A   1      42.114  34.924  31.923  1.00  0.00     0.029 A 
ATOM     67  N   UNL A   1      42.306  34.588  29.746  1.00  0.00    -0.354 N 
ATOM     68  N   UNL A   1      46.204  34.422  28.907  1.00  0.00    -0.248 NA
ATOM     69  C   UNL A   1      47.855  35.841  28.182  1.00  0.00     0.031 C 
ATOM     70  C   UNL A   1      43.304  35.569  31.459  1.00  0.00     0.029 A 
ATOM     71  C   UNL A   1      43.443  35.341  30.090  1.00  0.00     0.049 A 
ATOM     72  H   UNL A   1      42.063  34.351  28.821  1.00  0.00     0.167 HD
ATOM     73  C   UNL A   1      45.592  35.672  28.810  1.00  0.00     0.074 A 
ATOM     74  C   UNL A   1      46.705  36.517  28.379  1.00  0.00     0.031 C 
ATOM     75  C   UNL A   1      44.275  36.037  29.084  1.00  0.00     0.037 A 
BRANCH  62  76
ATOM     76  C   UNL A   1      39.226  32.982  31.409  1.00  0.00     0.057 A 
ATOM     77  C   UNL A   1      38.102  32.954  30.570  1.00  0.00     0.134 A 
ATOM     78  C   UNL A   1      38.903  33.078  32.782  1.00  0.00     0.134 A 
ATOM     79  F   UNL A   1      38.214  32.700  29.260  1.00  0.00    -0.206 F 
ATOM     80  C   UNL A   1      36.794  33.191  31.034  1.00  0.00     0.040 A 
ATOM     81  C   UNL A   1      37.617  33.392  33.255  1.00  0.00     0.040 A 
ATOM     82  F   UNL A   1      39.816  32.835  33.733  1.00  0.00    -0.206 F 
ATOM     83  C   UNL A   1      36.555  33.473  32.371  1.00  0.00     0.006 A 
ENDBRANCH  62  76
BRANCH  63  84
ATOM     84  C   UNL A   1      49.431  32.443  27.910  1.00  0.00     0.057 A 
ATOM     85  C   UNL A   1      50.747  32.223  28.446  1.00  0.00     0.134 A 
ATOM     86  C   UNL A   1      48.888  31.408  27.163  1.00  0.00     0.134 A 
ATOM     87  F   UNL A   1      51.332  33.169  29.204  1.00  0.00    -0.206 F 
ATOM     88  C   UNL A   1      51.340  30.958  28.473  1.00  0.00     0.040 A 
ATOM     89  C   UNL A   1      49.536  30.161  27.096  1.00  0.00     0.040 A 
ATOM     90  F   UNL A   1      47.647  31.509  26.672  1.00  0.00    -0.206 F 
ATOM     91  C   UNL A   1      50.717  29.914  27.811  1.00  0.00     0.006 A 
ENDBRANCH  63  84
BRANCH  75  92
ATOM     92  C   UNL A   1      43.565  37.250  28.443  1.00  0.00     0.057 A 
ATOM     93  C   UNL A   1      42.890  37.202  27.217  1.00  0.00     0.134 A 
ATOM     94  C   UNL A   1      43.334  38.450  29.178  1.00  0.00     0.134 A 
ATOM     95  F   UNL A   1      42.925  36.120  26.431  1.00  0.00    -0.206 F 
ATOM     96  C   UNL A   1      42.076  38.248  26.757  1.00  0.00     0.040 A 
ATOM     97  C   UNL A   1      42.460  39.459  28.766  1.00  0.00     0.040 A 
ATOM     98  F   UNL A   1      43.913  38.706  30.357  1.00  0.00    -0.206 F 
ATOM     99  C   UNL A   1      41.830  39.364  27.542  1.00  0.00     0.006 A 
ENDBRANCH  75  92
ENDBRANCH  49  50
ENDBRANCH  42  44
ENDBRANCH  41  42
ENDBRANCH  40  41
ENDBRANCH  39  40
ENDBRANCH  38  39
ENDBRANCH  37  38
ENDBRANCH  36  37
ENDBRANCH   1  36
TORSDOF 23
ENDMDL
