MODEL 1
REMARK VINA RESULT:     -10.8      0.000      0.000
REMARK SMILES Cc1cc(OC(F)(F)F)cc2c1O[C@H](C(F)(F)F)C(C(=O)OCCOCCOCCOCCOC(=O)c1ccc(-c3c4nc(c(-c5c(F)cccc5F)c5ccc([nH]5)c(-c5c(F)cccc5F)c5nc(c(-c6c(F)cccc6F)c6ccc3[nH]6)C=C5)C=C4)cc1)=C2
REMARK SMILES IDX 28 1 27 2 26 3 25 4 24 5 23 6 22 7 20 8 21 9 19 10 1 11 2 12
REMARK SMILES IDX 3 13 12 14 4 15 11 16 13 17 10 18 91 19 14 20 5 21 6 22 7 23
REMARK SMILES IDX 8 24 9 25 15 26 16 27 17 28 18 29 29 30 30 31 31 32 32 33
REMARK SMILES IDX 33 34 34 35 35 36 36 37 37 38 38 39 90 40 39 41 89 42 40 43
REMARK SMILES IDX 41 44 42 45 83 46 43 47 88 48 82 49 84 50 44 51 87 52 81 53
REMARK SMILES IDX 80 54 45 56 71 57 54 58 70 59 55 60 58 61 69 62 85 63 56 64
REMARK SMILES IDX 57 65 68 67 86 68 59 69 46 70 47 71 52 72 48 73 49 74 51 75
REMARK SMILES IDX 53 76 50 77 72 78 73 79 78 80 74 81 75 82 77 83 79 84 76 85
REMARK SMILES IDX 60 86 61 87 66 88 62 89 63 90 65 91 67 92 64 93
REMARK H PARENT 84 55 58 66
REMARK Flexibility Score: inf
ROOT
ATOM      1  O   UNL A   1      33.251  30.365  27.434  1.00  0.00    -0.377 OA
ENDROOT
BRANCH   1   2
ATOM      2  C   UNL A   1      33.505  29.563  26.292  1.00  0.00     0.188 C 
BRANCH   2   3
ATOM      3  C   UNL A   1      32.465  28.442  26.100  1.00  0.00     0.188 C 
BRANCH   3   4
ATOM      4  O   UNL A   1      31.997  28.235  24.782  1.00  0.00    -0.376 OA
BRANCH   4   5
ATOM      5  C   UNL A   1      31.477  27.000  24.319  1.00  0.00     0.202 C 
BRANCH   5   6
ATOM      6  C   UNL A   1      32.271  25.793  23.780  1.00  0.00     0.261 C 
BRANCH   6   7
ATOM      7  O   UNL A   1      31.676  24.504  23.867  1.00  0.00    -0.460 OA
BRANCH   7   8
ATOM      8  C   UNL A   1      31.771  23.870  25.050  1.00  0.00     0.338 C 
ATOM      9  O   UNL A   1      31.088  24.060  26.040  1.00  0.00    -0.246 OA
BRANCH   8  10
ATOM     10  C   UNL A   1      32.744  22.771  24.888  1.00  0.00     0.087 C 
ATOM     11  C   UNL A   1      36.901  19.795  24.911  1.00  0.00     0.048 C 
ATOM     12  C   UNL A   1      35.426  19.587  24.701  1.00  0.00    -0.005 A 
ATOM     13  C   UNL A   1      34.924  18.282  24.540  1.00  0.00     0.054 A 
ATOM     14  C   UNL A   1      34.542  20.674  24.659  1.00  0.00     0.131 A 
ATOM     15  C   UNL A   1      33.560  18.063  24.342  1.00  0.00     0.130 A 
ATOM     16  C   UNL A   1      33.172  20.453  24.508  1.00  0.00     0.021 A 
ATOM     17  O   UNL A   1      35.089  21.920  24.780  1.00  0.00    -0.475 OA
ATOM     18  C   UNL A   1      32.692  19.156  24.312  1.00  0.00     0.058 A 
ATOM     19  C   UNL A   1      32.240  21.557  24.637  1.00  0.00     0.027 C 
ATOM     20  C   UNL A   1      34.219  23.073  24.937  1.00  0.00     0.316 C 
BRANCH  15  21
ATOM     21  O   UNL A   1      32.946  16.855  24.177  1.00  0.00    -0.406 OA
BRANCH  21  22
ATOM     22  C   UNL A   1      33.149  15.874  25.180  1.00  0.00     0.573 C 
ATOM     23  F   UNL A   1      32.444  14.756  24.912  1.00  0.00    -0.132 F 
ATOM     24  F   UNL A   1      34.457  15.566  25.307  1.00  0.00    -0.132 F 
ATOM     25  F   UNL A   1      32.718  16.369  26.362  1.00  0.00    -0.132 F 
ENDBRANCH  21  22
ENDBRANCH  15  21
BRANCH  20  26
ATOM     26  C   UNL A   1      34.619  23.798  26.227  1.00  0.00     0.430 C 
ATOM     27  F   UNL A   1      34.010  23.253  27.308  1.00  0.00    -0.167 F 
ATOM     28  F   UNL A   1      35.951  23.728  26.459  1.00  0.00    -0.167 F 
ATOM     29  F   UNL A   1      34.285  25.108  26.191  1.00  0.00    -0.167 F 
ENDBRANCH  20  26
ENDBRANCH   8  10
ENDBRANCH   7   8
ENDBRANCH   6   7
ENDBRANCH   5   6
ENDBRANCH   4   5
ENDBRANCH   3   4
ENDBRANCH   2   3
ENDBRANCH   1   2
BRANCH   1  30
ATOM     30  C   UNL A   1      34.066  31.524  27.605  1.00  0.00     0.188 C 
BRANCH  30  31
ATOM     31  C   UNL A   1      33.424  32.904  27.886  1.00  0.00     0.188 C 
BRANCH  31  32
ATOM     32  O   UNL A   1      34.311  33.842  28.480  1.00  0.00    -0.376 OA
BRANCH  32  33
ATOM     33  C   UNL A   1      33.869  34.607  29.587  1.00  0.00     0.202 C 
BRANCH  33  34
ATOM     34  C   UNL A   1      34.334  34.152  30.978  1.00  0.00     0.261 C 
BRANCH  34  35
ATOM     35  O   UNL A   1      34.645  32.759  31.112  1.00  0.00    -0.460 OA
BRANCH  35  36
ATOM     36  C   UNL A   1      35.460  32.398  32.124  1.00  0.00     0.338 C 
ATOM     37  O   UNL A   1      35.311  32.623  33.314  1.00  0.00    -0.246 OA
BRANCH  36  38
ATOM     38  C   UNL A   1      36.500  31.523  31.556  1.00  0.00     0.060 A 
ATOM     39  C   UNL A   1      37.279  30.728  32.406  1.00  0.00     0.016 A 
ATOM     40  C   UNL A   1      36.703  31.500  30.174  1.00  0.00     0.016 A 
ATOM     41  C   UNL A   1      38.291  29.927  31.878  1.00  0.00     0.010 A 
ATOM     42  C   UNL A   1      37.737  30.727  29.650  1.00  0.00     0.010 A 
ATOM     43  C   UNL A   1      38.557  29.969  30.504  1.00  0.00    -0.014 A 
BRANCH  43  44
ATOM     44  C   UNL A   1      39.837  29.441  29.981  1.00  0.00     0.031 A 
ATOM     45  C   UNL A   1      40.991  30.397  29.871  1.00  0.00     0.074 A 
ATOM     46  C   UNL A   1      39.964  28.164  29.587  1.00  0.00     0.049 A 
ATOM     47  N   UNL A   1      42.168  30.224  29.330  1.00  0.00    -0.248 NA
ATOM     48  C   UNL A   1      40.782  31.736  30.447  1.00  0.00     0.031 C 
ATOM     49  C   UNL A   1      38.937  27.133  29.699  1.00  0.00     0.029 A 
ATOM     50  N   UNL A   1      41.021  27.528  28.986  1.00  0.00    -0.354 N 
ATOM     51  C   UNL A   1      42.838  31.430  29.500  1.00  0.00     0.074 A 
ATOM     52  C   UNL A   1      41.927  32.335  30.164  1.00  0.00     0.031 C 
ATOM     53  C   UNL A   1      39.405  25.994  29.160  1.00  0.00     0.029 A 
ATOM     54  C   UNL A   1      40.746  26.232  28.627  1.00  0.00     0.049 A 
ATOM     55  H   UNL A   1      41.892  27.959  28.828  1.00  0.00     0.167 HD
ATOM     56  C   UNL A   1      44.101  31.753  29.136  1.00  0.00     0.037 A 
ATOM     57  C   UNL A   1      41.484  25.359  27.914  1.00  0.00     0.037 A 
ATOM     58  C   UNL A   1      44.987  30.859  28.443  1.00  0.00     0.049 A 
ATOM     59  C   UNL A   1      42.836  25.788  27.398  1.00  0.00     0.074 A 
ATOM     60  C   UNL A   1      46.287  31.082  28.025  1.00  0.00     0.029 A 
ATOM     61  N   UNL A   1      44.654  29.573  28.045  1.00  0.00    -0.354 N 
ATOM     62  N   UNL A   1      43.475  26.918  27.580  1.00  0.00    -0.248 NA
ATOM     63  C   UNL A   1      43.563  24.817  26.567  1.00  0.00     0.031 C 
ATOM     64  C   UNL A   1      46.717  29.954  27.318  1.00  0.00     0.029 A 
ATOM     65  C   UNL A   1      45.708  29.003  27.351  1.00  0.00     0.049 A 
ATOM     66  H   UNL A   1      43.794  29.129  28.229  1.00  0.00     0.167 HD
ATOM     67  C   UNL A   1      44.687  26.785  26.911  1.00  0.00     0.074 A 
ATOM     68  C   UNL A   1      44.700  25.456  26.336  1.00  0.00     0.031 C 
ATOM     69  C   UNL A   1      45.700  27.679  26.782  1.00  0.00     0.037 A 
BRANCH  56  70
ATOM     70  C   UNL A   1      44.567  33.145  29.447  1.00  0.00     0.057 A 
ATOM     71  C   UNL A   1      45.208  33.428  30.661  1.00  0.00     0.134 A 
ATOM     72  C   UNL A   1      44.390  34.206  28.548  1.00  0.00     0.134 A 
ATOM     73  F   UNL A   1      45.410  32.460  31.567  1.00  0.00    -0.206 F 
ATOM     74  C   UNL A   1      45.659  34.713  30.966  1.00  0.00     0.040 A 
ATOM     75  C   UNL A   1      44.864  35.488  28.830  1.00  0.00     0.040 A 
ATOM     76  F   UNL A   1      43.802  33.999  27.360  1.00  0.00    -0.206 F 
ATOM     77  C   UNL A   1      45.495  35.745  30.045  1.00  0.00     0.006 A 
ENDBRANCH  56  70
BRANCH  57  78
ATOM     78  C   UNL A   1      40.961  24.003  27.608  1.00  0.00     0.057 A 
ATOM     79  C   UNL A   1      39.964  23.802  26.645  1.00  0.00     0.134 A 
ATOM     80  C   UNL A   1      41.483  22.869  28.240  1.00  0.00     0.134 A 
ATOM     81  F   UNL A   1      39.424  24.845  25.999  1.00  0.00    -0.206 F 
ATOM     82  C   UNL A   1      39.504  22.523  26.324  1.00  0.00     0.040 A 
ATOM     83  C   UNL A   1      41.053  21.583  27.908  1.00  0.00     0.040 A 
ATOM     84  F   UNL A   1      42.458  22.995  29.151  1.00  0.00    -0.206 F 
ATOM     85  C   UNL A   1      40.057  21.409  26.950  1.00  0.00     0.006 A 
ENDBRANCH  57  78
BRANCH  69  86
ATOM     86  C   UNL A   1      46.912  27.239  26.012  1.00  0.00     0.057 A 
ATOM     87  C   UNL A   1      47.966  26.578  26.657  1.00  0.00     0.134 A 
ATOM     88  C   UNL A   1      47.056  27.501  24.644  1.00  0.00     0.134 A 
ATOM     89  F   UNL A   1      47.899  26.307  27.969  1.00  0.00    -0.206 F 
ATOM     90  C   UNL A   1      49.119  26.197  25.969  1.00  0.00     0.040 A 
ATOM     91  C   UNL A   1      48.192  27.096  23.939  1.00  0.00     0.040 A 
ATOM     92  F   UNL A   1      46.079  28.119  23.963  1.00  0.00    -0.206 F 
ATOM     93  C   UNL A   1      49.230  26.449  24.604  1.00  0.00     0.006 A 
ENDBRANCH  69  86
ENDBRANCH  43  44
ENDBRANCH  36  38
ENDBRANCH  35  36
ENDBRANCH  34  35
ENDBRANCH  33  34
ENDBRANCH  32  33
ENDBRANCH  31  32
ENDBRANCH  30  31
ENDBRANCH   1  30
TORSDOF 23
ENDMDL
MODEL 2
REMARK VINA RESULT:     -10.3      4.577      6.955
REMARK SMILES Cc1cc(OC(F)(F)F)cc2c1O[C@H](C(F)(F)F)C(C(=O)OCCOCCOCCOCCOC(=O)c1ccc(-c3c4nc(c(-c5c(F)cccc5F)c5ccc([nH]5)c(-c5c(F)cccc5F)c5nc(c(-c6c(F)cccc6F)c6ccc3[nH]6)C=C5)C=C4)cc1)=C2
REMARK SMILES IDX 28 1 27 2 26 3 25 4 24 5 23 6 22 7 20 8 21 9 19 10 1 11 2 12
REMARK SMILES IDX 3 13 12 14 4 15 11 16 13 17 10 18 91 19 14 20 5 21 6 22 7 23
REMARK SMILES IDX 8 24 9 25 15 26 16 27 17 28 18 29 29 30 30 31 31 32 32 33
REMARK SMILES IDX 33 34 34 35 35 36 36 37 37 38 38 39 90 40 39 41 89 42 40 43
REMARK SMILES IDX 41 44 42 45 83 46 43 47 88 48 82 49 84 50 44 51 87 52 81 53
REMARK SMILES IDX 80 54 45 56 71 57 54 58 70 59 55 60 58 61 69 62 85 63 56 64
REMARK SMILES IDX 57 65 68 67 86 68 59 69 46 70 47 71 52 72 48 73 49 74 51 75
REMARK SMILES IDX 53 76 50 77 72 78 73 79 78 80 74 81 75 82 77 83 79 84 76 85
REMARK SMILES IDX 60 86 61 87 66 88 62 89 63 90 65 91 67 92 64 93
REMARK H PARENT 84 55 58 66
REMARK Flexibility Score: inf
ROOT
ATOM      1  O   UNL A   1      35.135  31.409  28.567  1.00  0.00    -0.377 OA
ENDROOT
BRANCH   1   2
ATOM      2  C   UNL A   1      35.541  30.236  27.880  1.00  0.00     0.188 C 
BRANCH   2   3
ATOM      3  C   UNL A   1      34.404  29.592  27.064  1.00  0.00     0.188 C 
BRANCH   3   4
ATOM      4  O   UNL A   1      33.628  28.613  27.726  1.00  0.00    -0.376 OA
BRANCH   4   5
ATOM      5  C   UNL A   1      32.285  28.314  27.385  1.00  0.00     0.202 C 
BRANCH   5   6
ATOM      6  C   UNL A   1      31.560  28.636  26.062  1.00  0.00     0.261 C 
BRANCH   6   7
ATOM      7  O   UNL A   1      31.329  27.572  25.146  1.00  0.00    -0.460 OA
BRANCH   7   8
ATOM      8  C   UNL A   1      32.385  27.148  24.430  1.00  0.00     0.338 C 
ATOM      9  O   UNL A   1      33.144  27.831  23.768  1.00  0.00    -0.246 OA
BRANCH   8  10
ATOM     10  C   UNL A   1      32.574  25.712  24.725  1.00  0.00     0.087 C 
ATOM     11  C   UNL A   1      32.131  20.633  25.084  1.00  0.00     0.048 C 
ATOM     12  C   UNL A   1      33.230  21.637  25.297  1.00  0.00    -0.005 A 
ATOM     13  C   UNL A   1      34.531  21.192  25.596  1.00  0.00     0.054 A 
ATOM     14  C   UNL A   1      32.977  23.013  25.207  1.00  0.00     0.131 A 
ATOM     15  C   UNL A   1      35.567  22.105  25.799  1.00  0.00     0.130 A 
ATOM     16  C   UNL A   1      34.021  23.926  25.364  1.00  0.00     0.021 A 
ATOM     17  O   UNL A   1      31.688  23.390  24.956  1.00  0.00    -0.475 OA
ATOM     18  C   UNL A   1      35.300  23.472  25.697  1.00  0.00     0.058 A 
ATOM     19  C   UNL A   1      33.801  25.335  25.102  1.00  0.00     0.027 C 
ATOM     20  C   UNL A   1      31.392  24.781  24.661  1.00  0.00     0.316 C 
BRANCH  15  21
ATOM     21  O   UNL A   1      36.867  21.807  26.089  1.00  0.00    -0.406 OA
BRANCH  21  22
ATOM     22  C   UNL A   1      37.695  21.379  25.022  1.00  0.00     0.573 C 
ATOM     23  F   UNL A   1      37.299  21.924  23.853  1.00  0.00    -0.132 F 
ATOM     24  F   UNL A   1      38.989  21.688  25.251  1.00  0.00    -0.132 F 
ATOM     25  F   UNL A   1      37.598  20.035  24.912  1.00  0.00    -0.132 F 
ENDBRANCH  21  22
ENDBRANCH  15  21
BRANCH  20  26
ATOM     26  C   UNL A   1      30.681  24.839  23.304  1.00  0.00     0.430 C 
ATOM     27  F   UNL A   1      31.549  25.131  22.305  1.00  0.00    -0.167 F 
ATOM     28  F   UNL A   1      30.105  23.658  22.981  1.00  0.00    -0.167 F 
ATOM     29  F   UNL A   1      29.711  25.780  23.285  1.00  0.00    -0.167 F 
ENDBRANCH  20  26
ENDBRANCH   8  10
ENDBRANCH   7   8
ENDBRANCH   6   7
ENDBRANCH   5   6
ENDBRANCH   4   5
ENDBRANCH   3   4
ENDBRANCH   2   3
ENDBRANCH   1   2
BRANCH   1  30
ATOM     30  C   UNL A   1      35.616  32.654  28.062  1.00  0.00     0.188 C 
BRANCH  30  31
ATOM     31  C   UNL A   1      34.647  33.840  27.836  1.00  0.00     0.188 C 
BRANCH  31  32
ATOM     32  O   UNL A   1      34.942  34.983  28.625  1.00  0.00    -0.376 OA
BRANCH  32  33
ATOM     33  C   UNL A   1      34.073  36.100  28.577  1.00  0.00     0.202 C 
BRANCH  33  34
ATOM     34  C   UNL A   1      32.691  35.935  29.226  1.00  0.00     0.261 C 
BRANCH  34  35
ATOM     35  O   UNL A   1      32.632  35.068  30.367  1.00  0.00    -0.460 OA
BRANCH  35  36
ATOM     36  C   UNL A   1      32.762  35.632  31.584  1.00  0.00     0.338 C 
ATOM     37  O   UNL A   1      32.014  36.438  32.114  1.00  0.00    -0.246 OA
BRANCH  36  38
ATOM     38  C   UNL A   1      33.898  34.973  32.251  1.00  0.00     0.060 A 
ATOM     39  C   UNL A   1      35.175  35.543  32.173  1.00  0.00     0.016 A 
ATOM     40  C   UNL A   1      33.691  33.782  32.952  1.00  0.00     0.016 A 
ATOM     41  C   UNL A   1      36.262  34.903  32.769  1.00  0.00     0.010 A 
ATOM     42  C   UNL A   1      34.782  33.125  33.517  1.00  0.00     0.010 A 
ATOM     43  C   UNL A   1      36.075  33.665  33.394  1.00  0.00    -0.014 A 
BRANCH  43  44
ATOM     44  C   UNL A   1      37.239  32.801  33.690  1.00  0.00     0.031 A 
ATOM     45  C   UNL A   1      38.003  33.073  34.955  1.00  0.00     0.074 A 
ATOM     46  C   UNL A   1      37.627  31.828  32.851  1.00  0.00     0.049 A 
ATOM     47  N   UNL A   1      39.126  32.554  35.379  1.00  0.00    -0.248 NA
ATOM     48  C   UNL A   1      37.420  34.075  35.862  1.00  0.00     0.031 C 
ATOM     49  C   UNL A   1      36.934  31.434  31.628  1.00  0.00     0.029 A 
ATOM     50  N   UNL A   1      38.725  31.006  32.900  1.00  0.00    -0.354 N 
ATOM     51  C   UNL A   1      39.383  33.166  36.600  1.00  0.00     0.074 A 
ATOM     52  C   UNL A   1      38.319  34.117  36.833  1.00  0.00     0.031 C 
ATOM     53  C   UNL A   1      37.638  30.460  31.025  1.00  0.00     0.029 A 
ATOM     54  C   UNL A   1      38.851  30.196  31.798  1.00  0.00     0.049 A 
ATOM     55  H   UNL A   1      39.361  30.999  33.651  1.00  0.00     0.167 HD
ATOM     56  C   UNL A   1      40.412  32.953  37.451  1.00  0.00     0.037 A 
ATOM     57  C   UNL A   1      39.854  29.370  31.446  1.00  0.00     0.037 A 
ATOM     58  C   UNL A   1      41.486  32.032  37.194  1.00  0.00     0.049 A 
ATOM     59  C   UNL A   1      41.060  29.251  32.344  1.00  0.00     0.074 A 
ATOM     60  C   UNL A   1      42.581  31.739  37.986  1.00  0.00     0.029 A 
ATOM     61  N   UNL A   1      41.609  31.271  36.042  1.00  0.00    -0.354 N 
ATOM     62  N   UNL A   1      41.289  29.813  33.508  1.00  0.00    -0.248 NA
ATOM     63  C   UNL A   1      42.153  28.388  31.872  1.00  0.00     0.031 C 
ATOM     64  C   UNL A   1      43.400  30.847  37.285  1.00  0.00     0.029 A 
ATOM     65  C   UNL A   1      42.782  30.537  36.083  1.00  0.00     0.049 A 
ATOM     66  H   UNL A   1      40.958  31.254  35.303  1.00  0.00     0.167 HD
ATOM     67  C   UNL A   1      42.536  29.352  33.917  1.00  0.00     0.074 A 
ATOM     68  C   UNL A   1      43.004  28.450  32.885  1.00  0.00     0.031 C 
ATOM     69  C   UNL A   1      43.233  29.646  35.043  1.00  0.00     0.037 A 
BRANCH  56  70
ATOM     70  C   UNL A   1      40.437  33.767  38.711  1.00  0.00     0.057 A 
ATOM     71  C   UNL A   1      39.684  33.378  39.827  1.00  0.00     0.134 A 
ATOM     72  C   UNL A   1      41.209  34.932  38.828  1.00  0.00     0.134 A 
ATOM     73  F   UNL A   1      38.923  32.275  39.784  1.00  0.00    -0.206 F 
ATOM     74  C   UNL A   1      39.701  34.116  41.012  1.00  0.00     0.040 A 
ATOM     75  C   UNL A   1      41.258  35.660  40.018  1.00  0.00     0.040 A 
ATOM     76  F   UNL A   1      41.970  35.349  37.804  1.00  0.00    -0.206 F 
ATOM     77  C   UNL A   1      40.496  35.254  41.113  1.00  0.00     0.006 A 
ENDBRANCH  56  70
BRANCH  57  78
ATOM     78  C   UNL A   1      39.792  28.610  30.171  1.00  0.00     0.057 A 
ATOM     79  C   UNL A   1      40.385  29.095  28.998  1.00  0.00     0.134 A 
ATOM     80  C   UNL A   1      39.179  27.354  30.109  1.00  0.00     0.134 A 
ATOM     81  F   UNL A   1      40.993  30.291  28.990  1.00  0.00    -0.206 F 
ATOM     82  C   UNL A   1      40.366  28.361  27.811  1.00  0.00     0.040 A 
ATOM     83  C   UNL A   1      39.178  26.597  28.936  1.00  0.00     0.040 A 
ATOM     84  F   UNL A   1      38.617  26.823  31.205  1.00  0.00    -0.206 F 
ATOM     85  C   UNL A   1      39.770  27.103  27.782  1.00  0.00     0.006 A 
ENDBRANCH  57  78
BRANCH  69  86
ATOM     86  C   UNL A   1      44.561  28.968  35.227  1.00  0.00     0.057 A 
ATOM     87  C   UNL A   1      45.738  29.562  34.752  1.00  0.00     0.134 A 
ATOM     88  C   UNL A   1      44.674  27.713  35.839  1.00  0.00     0.134 A 
ATOM     89  F   UNL A   1      45.701  30.758  34.145  1.00  0.00    -0.206 F 
ATOM     90  C   UNL A   1      46.976  28.931  34.876  1.00  0.00     0.040 A 
ATOM     91  C   UNL A   1      45.911  27.086  35.997  1.00  0.00     0.040 A 
ATOM     92  F   UNL A   1      43.587  27.095  36.327  1.00  0.00    -0.206 F 
ATOM     93  C   UNL A   1      47.066  27.693  35.507  1.00  0.00     0.006 A 
ENDBRANCH  69  86
ENDBRANCH  43  44
ENDBRANCH  36  38
ENDBRANCH  35  36
ENDBRANCH  34  35
ENDBRANCH  33  34
ENDBRANCH  32  33
ENDBRANCH  31  32
ENDBRANCH  30  31
ENDBRANCH   1  30
TORSDOF 23
ENDMDL
MODEL 3
REMARK VINA RESULT:      -9.6      3.713      7.184
REMARK SMILES Cc1cc(OC(F)(F)F)cc2c1O[C@H](C(F)(F)F)C(C(=O)OCCOCCOCCOCCOC(=O)c1ccc(-c3c4nc(c(-c5c(F)cccc5F)c5ccc([nH]5)c(-c5c(F)cccc5F)c5nc(c(-c6c(F)cccc6F)c6ccc3[nH]6)C=C5)C=C4)cc1)=C2
REMARK SMILES IDX 28 1 27 2 26 3 25 4 24 5 23 6 22 7 20 8 21 9 19 10 1 11 2 12
REMARK SMILES IDX 3 13 12 14 4 15 11 16 13 17 10 18 91 19 14 20 5 21 6 22 7 23
REMARK SMILES IDX 8 24 9 25 15 26 16 27 17 28 18 29 29 30 30 31 31 32 32 33
REMARK SMILES IDX 33 34 34 35 35 36 36 37 37 38 38 39 90 40 39 41 89 42 40 43
REMARK SMILES IDX 41 44 42 45 83 46 43 47 88 48 82 49 84 50 44 51 87 52 81 53
REMARK SMILES IDX 80 54 45 56 71 57 54 58 70 59 55 60 58 61 69 62 85 63 56 64
REMARK SMILES IDX 57 65 68 67 86 68 59 69 46 70 47 71 52 72 48 73 49 74 51 75
REMARK SMILES IDX 53 76 50 77 72 78 73 79 78 80 74 81 75 82 77 83 79 84 76 85
REMARK SMILES IDX 60 86 61 87 66 88 62 89 63 90 65 91 67 92 64 93
REMARK H PARENT 84 55 58 66
REMARK Flexibility Score: inf
ROOT
ATOM      1  O   UNL A   1      35.561  31.377  28.772  1.00  0.00    -0.377 OA
ENDROOT
BRANCH   1   2
ATOM      2  C   UNL A   1      35.605  30.138  28.082  1.00  0.00     0.188 C 
BRANCH   2   3
ATOM      3  C   UNL A   1      34.321  29.848  27.282  1.00  0.00     0.188 C 
BRANCH   3   4
ATOM      4  O   UNL A   1      33.869  28.508  27.279  1.00  0.00    -0.376 OA
BRANCH   4   5
ATOM      5  C   UNL A   1      32.502  28.141  27.355  1.00  0.00     0.202 C 
BRANCH   5   6
ATOM      6  C   UNL A   1      31.403  28.399  26.304  1.00  0.00     0.261 C 
BRANCH   6   7
ATOM      7  O   UNL A   1      31.214  27.434  25.277  1.00  0.00    -0.460 OA
BRANCH   7   8
ATOM      8  C   UNL A   1      32.302  27.078  24.571  1.00  0.00     0.338 C 
ATOM      9  O   UNL A   1      33.043  27.813  23.945  1.00  0.00    -0.246 OA
BRANCH   8  10
ATOM     10  C   UNL A   1      32.548  25.644  24.828  1.00  0.00     0.087 C 
ATOM     11  C   UNL A   1      32.327  20.541  25.024  1.00  0.00     0.048 C 
ATOM     12  C   UNL A   1      33.374  21.586  25.294  1.00  0.00    -0.005 A 
ATOM     13  C   UNL A   1      34.687  21.191  25.612  1.00  0.00     0.054 A 
ATOM     14  C   UNL A   1      33.062  22.952  25.240  1.00  0.00     0.131 A 
ATOM     15  C   UNL A   1      35.676  22.142  25.868  1.00  0.00     0.130 A 
ATOM     16  C   UNL A   1      34.060  23.905  25.449  1.00  0.00     0.021 A 
ATOM     17  O   UNL A   1      31.764  23.278  24.968  1.00  0.00    -0.475 OA
ATOM     18  C   UNL A   1      35.350  23.498  25.800  1.00  0.00     0.058 A 
ATOM     19  C   UNL A   1      33.782  25.310  25.224  1.00  0.00     0.027 C 
ATOM     20  C   UNL A   1      31.411  24.663  24.707  1.00  0.00     0.316 C 
BRANCH  15  21
ATOM     21  O   UNL A   1      36.981  21.894  26.181  1.00  0.00    -0.406 OA
BRANCH  21  22
ATOM     22  C   UNL A   1      37.844  21.498  25.129  1.00  0.00     0.573 C 
ATOM     23  F   UNL A   1      37.460  22.045  23.957  1.00  0.00    -0.132 F 
ATOM     24  F   UNL A   1      39.124  21.838  25.391  1.00  0.00    -0.132 F 
ATOM     25  F   UNL A   1      37.784  20.153  25.004  1.00  0.00    -0.132 F 
ENDBRANCH  21  22
ENDBRANCH  15  21
BRANCH  20  26
ATOM     26  C   UNL A   1      30.731  24.731  23.335  1.00  0.00     0.430 C 
ATOM     27  F   UNL A   1      29.773  25.689  23.306  1.00  0.00    -0.167 F 
ATOM     28  F   UNL A   1      31.607  25.032  22.347  1.00  0.00    -0.167 F 
ATOM     29  F   UNL A   1      30.141  23.559  23.008  1.00  0.00    -0.167 F 
ENDBRANCH  20  26
ENDBRANCH   8  10
ENDBRANCH   7   8
ENDBRANCH   6   7
ENDBRANCH   5   6
ENDBRANCH   4   5
ENDBRANCH   3   4
ENDBRANCH   2   3
ENDBRANCH   1   2
BRANCH   1  30
ATOM     30  C   UNL A   1      35.516  32.560  27.975  1.00  0.00     0.188 C 
BRANCH  30  31
ATOM     31  C   UNL A   1      34.298  33.513  28.047  1.00  0.00     0.188 C 
BRANCH  31  32
ATOM     32  O   UNL A   1      34.641  34.890  27.998  1.00  0.00    -0.376 OA
BRANCH  32  33
ATOM     33  C   UNL A   1      33.956  35.804  28.835  1.00  0.00     0.202 C 
BRANCH  33  34
ATOM     34  C   UNL A   1      33.145  35.211  29.996  1.00  0.00     0.261 C 
BRANCH  34  35
ATOM     35  O   UNL A   1      33.815  34.227  30.793  1.00  0.00    -0.460 OA
BRANCH  35  36
ATOM     36  C   UNL A   1      34.758  34.659  31.654  1.00  0.00     0.338 C 
ATOM     37  O   UNL A   1      34.651  35.542  32.491  1.00  0.00    -0.246 OA
BRANCH  36  38
ATOM     38  C   UNL A   1      35.914  33.755  31.525  1.00  0.00     0.060 A 
ATOM     39  C   UNL A   1      35.903  32.517  32.179  1.00  0.00     0.016 A 
ATOM     40  C   UNL A   1      37.012  34.145  30.756  1.00  0.00     0.016 A 
ATOM     41  C   UNL A   1      37.010  31.673  32.094  1.00  0.00     0.010 A 
ATOM     42  C   UNL A   1      38.133  33.319  30.699  1.00  0.00     0.010 A 
ATOM     43  C   UNL A   1      38.149  32.099  31.398  1.00  0.00    -0.014 A 
BRANCH  43  44
ATOM     44  C   UNL A   1      39.443  31.413  31.606  1.00  0.00     0.031 A 
ATOM     45  C   UNL A   1      39.746  30.222  30.742  1.00  0.00     0.074 A 
ATOM     46  C   UNL A   1      40.309  31.812  32.552  1.00  0.00     0.049 A 
ATOM     47  N   UNL A   1      40.739  29.375  30.809  1.00  0.00    -0.248 NA
ATOM     48  C   UNL A   1      38.790  29.948  29.657  1.00  0.00     0.031 C 
ATOM     49  C   UNL A   1      40.151  32.984  33.408  1.00  0.00     0.029 A 
ATOM     50  N   UNL A   1      41.491  31.248  32.959  1.00  0.00    -0.354 N 
ATOM     51  C   UNL A   1      40.527  28.468  29.776  1.00  0.00     0.074 A 
ATOM     52  C   UNL A   1      39.296  28.849  29.120  1.00  0.00     0.031 C 
ATOM     53  C   UNL A   1      41.189  33.039  34.262  1.00  0.00     0.029 A 
ATOM     54  C   UNL A   1      42.056  31.883  34.038  1.00  0.00     0.049 A 
ATOM     55  H   UNL A   1      41.895  30.464  32.522  1.00  0.00     0.167 HD
ATOM     56  C   UNL A   1      41.291  27.414  29.407  1.00  0.00     0.037 A 
ATOM     57  C   UNL A   1      43.128  31.539  34.777  1.00  0.00     0.037 A 
ATOM     58  C   UNL A   1      42.494  27.020  30.089  1.00  0.00     0.049 A 
ATOM     59  C   UNL A   1      43.887  30.281  34.433  1.00  0.00     0.074 A 
ATOM     60  C   UNL A   1      43.345  25.969  29.801  1.00  0.00     0.029 A 
ATOM     61  N   UNL A   1      43.005  27.654  31.211  1.00  0.00    -0.354 N 
ATOM     62  N   UNL A   1      43.698  29.441  33.443  1.00  0.00    -0.248 NA
ATOM     63  C   UNL A   1      45.004  29.920  35.318  1.00  0.00     0.031 C 
ATOM     64  C   UNL A   1      44.335  25.927  30.789  1.00  0.00     0.029 A 
ATOM     65  C   UNL A   1      44.137  26.992  31.655  1.00  0.00     0.049 A 
ATOM     66  H   UNL A   1      42.618  28.457  31.632  1.00  0.00     0.167 HD
ATOM     67  C   UNL A   1      44.685  28.470  33.571  1.00  0.00     0.074 A 
ATOM     68  C   UNL A   1      45.482  28.837  34.723  1.00  0.00     0.031 C 
ATOM     69  C   UNL A   1      44.915  27.372  32.807  1.00  0.00     0.037 A 
BRANCH  56  70
ATOM     70  C   UNL A   1      40.813  26.598  28.243  1.00  0.00     0.057 A 
ATOM     71  C   UNL A   1      39.721  25.730  28.380  1.00  0.00     0.134 A 
ATOM     72  C   UNL A   1      41.425  26.671  26.984  1.00  0.00     0.134 A 
ATOM     73  F   UNL A   1      39.089  25.611  29.557  1.00  0.00    -0.206 F 
ATOM     74  C   UNL A   1      39.255  24.969  27.307  1.00  0.00     0.040 A 
ATOM     75  C   UNL A   1      40.948  25.938  25.896  1.00  0.00     0.040 A 
ATOM     76  F   UNL A   1      42.463  27.497  26.779  1.00  0.00    -0.206 F 
ATOM     77  C   UNL A   1      39.862  25.079  26.058  1.00  0.00     0.006 A 
ENDBRANCH  56  70
BRANCH  57  78
ATOM     78  C   UNL A   1      43.539  32.367  35.939  1.00  0.00     0.057 A 
ATOM     79  C   UNL A   1      43.026  32.138  37.222  1.00  0.00     0.134 A 
ATOM     80  C   UNL A   1      44.497  33.379  35.801  1.00  0.00     0.134 A 
ATOM     81  F   UNL A   1      42.109  31.181  37.424  1.00  0.00    -0.206 F 
ATOM     82  C   UNL A   1      43.446  32.886  38.323  1.00  0.00     0.040 A 
ATOM     83  C   UNL A   1      44.947  34.115  36.898  1.00  0.00     0.040 A 
ATOM     84  F   UNL A   1      45.045  33.628  34.603  1.00  0.00    -0.206 F 
ATOM     85  C   UNL A   1      44.418  33.872  38.163  1.00  0.00     0.006 A 
ENDBRANCH  57  78
BRANCH  69  86
ATOM     86  C   UNL A   1      46.086  26.508  33.178  1.00  0.00     0.057 A 
ATOM     87  C   UNL A   1      47.357  26.761  32.645  1.00  0.00     0.134 A 
ATOM     88  C   UNL A   1      45.953  25.406  34.032  1.00  0.00     0.134 A 
ATOM     89  F   UNL A   1      47.553  27.793  31.810  1.00  0.00    -0.206 F 
ATOM     90  C   UNL A   1      48.450  25.947  32.943  1.00  0.00     0.040 A 
ATOM     91  C   UNL A   1      47.046  24.603  34.363  1.00  0.00     0.040 A 
ATOM     92  F   UNL A   1      44.767  25.115  34.587  1.00  0.00    -0.206 F 
ATOM     93  C   UNL A   1      48.298  24.869  33.811  1.00  0.00     0.006 A 
ENDBRANCH  69  86
ENDBRANCH  43  44
ENDBRANCH  36  38
ENDBRANCH  35  36
ENDBRANCH  34  35
ENDBRANCH  33  34
ENDBRANCH  32  33
ENDBRANCH  31  32
ENDBRANCH  30  31
ENDBRANCH   1  30
TORSDOF 23
ENDMDL
