MODEL 1
REMARK VINA RESULT:     -10.6      0.000      0.000
REMARK SMILES Cc1ccc(/C=C/C(=O)N2C[C@@H](O)C[C@H]2C(=O)OCCOCCOCCOCCOC(=O)c2ccc(-c3c4nc(c(-c5c(F)cccc5F)c5ccc([nH]5)c(-c5c(F)cccc5F)c5nc(c(-c6c(F)cccc6F)c6ccc3[nH]6)C=C5)C=C4)cc2)c(C)c1
REMARK SMILES IDX 23 1 22 2 21 3 20 4 19 5 18 6 16 7 17 8 15 9 10 10 11 11
REMARK SMILES IDX 12 12 14 13 8 14 9 15 7 16 6 17 5 18 1 19 2 20 3 21 89 22
REMARK SMILES IDX 4 23 87 24 88 25 13 26 24 28 25 29 26 30 27 31 28 32 29 33
REMARK SMILES IDX 30 34 31 35 32 36 33 37 34 38 86 39 35 40 85 41 36 42 37 43
REMARK SMILES IDX 38 44 79 45 39 46 84 47 78 48 80 49 40 50 83 51 77 52 76 53
REMARK SMILES IDX 41 55 67 56 50 57 66 58 51 59 54 60 65 61 81 62 52 63 53 64
REMARK SMILES IDX 64 66 82 67 55 68 42 69 43 70 48 71 44 72 45 73 47 74 49 75
REMARK SMILES IDX 46 76 68 77 69 78 74 79 70 80 71 81 73 82 75 83 72 84 56 85
REMARK SMILES IDX 57 86 62 87 58 88 59 89 61 90 63 91 60 92
REMARK H PARENT 13 27 80 54 54 65
REMARK Flexibility Score: inf
ROOT
ATOM      1  C   UNL A   1      35.114  33.574  28.051  1.00  0.00     0.188 C 
ENDROOT
BRANCH   1   2
ATOM      2  C   UNL A   1      34.171  32.360  28.040  1.00  0.00     0.188 C 
BRANCH   2   3
ATOM      3  O   UNL A   1      34.744  31.182  27.528  1.00  0.00    -0.376 OA
BRANCH   3   4
ATOM      4  C   UNL A   1      33.938  30.061  27.236  1.00  0.00     0.202 C 
BRANCH   4   5
ATOM      5  C   UNL A   1      34.464  28.643  26.933  1.00  0.00     0.261 C 
BRANCH   5   6
ATOM      6  O   UNL A   1      33.549  27.625  26.496  1.00  0.00    -0.462 OA
BRANCH   6   7
ATOM      7  C   UNL A   1      32.467  28.030  25.782  1.00  0.00     0.329 C 
ATOM      8  O   UNL A   1      31.479  28.550  26.294  1.00  0.00    -0.250 OA
BRANCH   7   9
ATOM      9  C   UNL A   1      32.504  27.625  24.285  1.00  0.00     0.198 C 
ATOM     10  N   UNL A   1      31.421  26.860  23.622  1.00  0.00    -0.323 N 
ATOM     11  C   UNL A   1      30.620  27.726  22.784  1.00  0.00     0.152 C 
ATOM     12  C   UNL A   1      31.660  28.720  22.279  1.00  0.00     0.136 C 
ATOM     13  C   UNL A   1      32.553  28.945  23.497  1.00  0.00     0.071 C 
BRANCH  10  14
ATOM     14  C   UNL A   1      31.489  25.485  23.517  1.00  0.00     0.247 C 
ATOM     15  O   UNL A   1      30.536  24.799  23.153  1.00  0.00    -0.270 OA
BRANCH  14  16
ATOM     16  C   UNL A   1      32.776  24.818  23.846  1.00  0.00     0.072 C 
ATOM     17  C   UNL A   1      32.788  23.479  23.768  1.00  0.00     0.014 C 
BRANCH  17  18
ATOM     18  C   UNL A   1      33.922  22.542  23.887  1.00  0.00    -0.023 A 
ATOM     19  C   UNL A   1      37.602  20.535  24.997  1.00  0.00     0.044 C 
ATOM     20  C   UNL A   1      36.339  21.198  24.530  1.00  0.00    -0.051 A 
ATOM     21  C   UNL A   1      36.371  22.418  23.859  1.00  0.00     0.004 A 
ATOM     22  C   UNL A   1      35.096  20.621  24.809  1.00  0.00     0.007 A 
ATOM     23  C   UNL A   1      35.180  23.076  23.544  1.00  0.00     0.008 A 
ATOM     24  C   UNL A   1      33.879  21.271  24.494  1.00  0.00    -0.044 A 
ATOM     25  C   UNL A   1      32.625  20.567  24.934  1.00  0.00     0.045 C 
ENDBRANCH  17  18
ENDBRANCH  14  16
ENDBRANCH  10  14
BRANCH  12  26
ATOM     26  O   UNL A   1      31.098  29.927  21.809  1.00  0.00    -0.391 OA
ATOM     27  H   UNL A   1      30.726  29.789  20.923  1.00  0.00     0.211 HD
ENDBRANCH  12  26
ENDBRANCH   7   9
ENDBRANCH   6   7
ENDBRANCH   5   6
ENDBRANCH   4   5
ENDBRANCH   3   4
ENDBRANCH   2   3
ENDBRANCH   1   2
BRANCH   1  28
ATOM     28  O   UNL A   1      34.703  34.869  28.455  1.00  0.00    -0.377 OA
BRANCH  28  29
ATOM     29  C   UNL A   1      33.345  35.118  28.755  1.00  0.00     0.188 C 
BRANCH  29  30
ATOM     30  C   UNL A   1      32.962  35.685  30.132  1.00  0.00     0.188 C 
BRANCH  30  31
ATOM     31  O   UNL A   1      33.228  34.821  31.221  1.00  0.00    -0.376 OA
BRANCH  31  32
ATOM     32  C   UNL A   1      33.911  35.350  32.346  1.00  0.00     0.202 C 
BRANCH  32  33
ATOM     33  C   UNL A   1      35.360  34.903  32.601  1.00  0.00     0.261 C 
BRANCH  33  34
ATOM     34  O   UNL A   1      35.752  33.647  32.031  1.00  0.00    -0.460 OA
BRANCH  34  35
ATOM     35  C   UNL A   1      36.272  32.728  32.873  1.00  0.00     0.338 C 
ATOM     36  O   UNL A   1      35.931  32.492  34.013  1.00  0.00    -0.246 OA
BRANCH  35  37
ATOM     37  C   UNL A   1      37.233  31.916  32.098  1.00  0.00     0.060 A 
ATOM     38  C   UNL A   1      38.265  31.264  32.783  1.00  0.00     0.016 A 
ATOM     39  C   UNL A   1      37.109  31.794  30.712  1.00  0.00     0.016 A 
ATOM     40  C   UNL A   1      39.196  30.506  32.077  1.00  0.00     0.010 A 
ATOM     41  C   UNL A   1      38.062  31.061  30.001  1.00  0.00     0.010 A 
ATOM     42  C   UNL A   1      39.129  30.446  30.679  1.00  0.00    -0.014 A 
BRANCH  42  43
ATOM     43  C   UNL A   1      40.308  29.945  29.935  1.00  0.00     0.031 A 
ATOM     44  C   UNL A   1      41.446  30.898  29.699  1.00  0.00     0.074 A 
ATOM     45  C   UNL A   1      40.398  28.664  29.540  1.00  0.00     0.049 A 
ATOM     46  N   UNL A   1      42.589  30.698  29.096  1.00  0.00    -0.248 NA
ATOM     47  C   UNL A   1      41.270  32.264  30.218  1.00  0.00     0.031 C 
ATOM     48  C   UNL A   1      39.378  27.639  29.752  1.00  0.00     0.029 A 
ATOM     49  N   UNL A   1      41.403  28.010  28.875  1.00  0.00    -0.354 N 
ATOM     50  C   UNL A   1      43.267  31.909  29.166  1.00  0.00     0.074 A 
ATOM     51  C   UNL A   1      42.391  32.849  29.831  1.00  0.00     0.031 C 
ATOM     52  C   UNL A   1      39.807  26.484  29.214  1.00  0.00     0.029 A 
ATOM     53  C   UNL A   1      41.115  26.696  28.599  1.00  0.00     0.049 A 
ATOM     54  H   UNL A   1      42.250  28.441  28.620  1.00  0.00     0.167 HD
ATOM     55  C   UNL A   1      44.512  32.208  28.728  1.00  0.00     0.037 A 
ATOM     56  C   UNL A   1      41.825  25.780  27.911  1.00  0.00     0.037 A 
ATOM     57  C   UNL A   1      45.372  31.274  28.053  1.00  0.00     0.049 A 
ATOM     58  C   UNL A   1      43.177  26.157  27.363  1.00  0.00     0.074 A 
ATOM     59  C   UNL A   1      46.651  31.474  27.567  1.00  0.00     0.029 A 
ATOM     60  N   UNL A   1      45.031  29.962  27.758  1.00  0.00    -0.354 N 
ATOM     61  N   UNL A   1      43.821  27.296  27.452  1.00  0.00    -0.248 NA
ATOM     62  C   UNL A   1      43.906  25.115  26.626  1.00  0.00     0.031 C 
ATOM     63  C   UNL A   1      47.060  30.299  26.926  1.00  0.00     0.029 A 
ATOM     64  C   UNL A   1      46.064  29.347  27.072  1.00  0.00     0.049 A 
ATOM     65  H   UNL A   1      44.179  29.531  28.001  1.00  0.00     0.167 HD
ATOM     66  C   UNL A   1      45.038  27.101  26.811  1.00  0.00     0.074 A 
ATOM     67  C   UNL A   1      45.050  25.728  26.352  1.00  0.00     0.031 C 
ATOM     68  C   UNL A   1      46.058  27.977  26.621  1.00  0.00     0.037 A 
BRANCH  55  69
ATOM     69  C   UNL A   1      44.991  33.617  28.936  1.00  0.00     0.057 A 
ATOM     70  C   UNL A   1      45.664  34.010  30.103  1.00  0.00     0.134 A 
ATOM     71  C   UNL A   1      44.773  34.595  27.959  1.00  0.00     0.134 A 
ATOM     72  F   UNL A   1      45.889  33.128  31.089  1.00  0.00    -0.206 F 
ATOM     73  C   UNL A   1      46.072  35.330  30.301  1.00  0.00     0.040 A 
ATOM     74  C   UNL A   1      45.204  35.911  28.132  1.00  0.00     0.040 A 
ATOM     75  F   UNL A   1      44.136  34.289  26.819  1.00  0.00    -0.206 F 
ATOM     76  C   UNL A   1      45.847  36.285  29.311  1.00  0.00     0.006 A 
ENDBRANCH  55  69
BRANCH  56  77
ATOM     77  C   UNL A   1      41.263  24.423  27.685  1.00  0.00     0.057 A 
ATOM     78  C   UNL A   1      41.746  23.304  28.372  1.00  0.00     0.134 A 
ATOM     79  C   UNL A   1      40.235  24.212  26.755  1.00  0.00     0.134 A 
ATOM     80  F   UNL A   1      42.745  23.436  29.258  1.00  0.00    -0.206 F 
ATOM     81  C   UNL A   1      41.243  22.023  28.133  1.00  0.00     0.040 A 
ATOM     82  C   UNL A   1      39.703  22.941  26.527  1.00  0.00     0.040 A 
ATOM     83  F   UNL A   1      39.726  25.241  26.063  1.00  0.00    -0.206 F 
ATOM     84  C   UNL A   1      40.214  21.841  27.211  1.00  0.00     0.006 A 
ENDBRANCH  56  77
BRANCH  68  85
ATOM     85  C   UNL A   1      47.286  27.464  25.923  1.00  0.00     0.057 A 
ATOM     86  C   UNL A   1      48.335  26.845  26.617  1.00  0.00     0.134 A 
ATOM     87  C   UNL A   1      47.404  27.560  24.530  1.00  0.00     0.134 A 
ATOM     88  F   UNL A   1      48.290  26.728  27.952  1.00  0.00    -0.206 F 
ATOM     89  C   UNL A   1      49.470  26.374  25.955  1.00  0.00     0.040 A 
ATOM     90  C   UNL A   1      48.519  27.063  23.853  1.00  0.00     0.040 A 
ATOM     91  F   UNL A   1      46.432  28.128  23.801  1.00  0.00    -0.206 F 
ATOM     92  C   UNL A   1      49.560  26.477  24.568  1.00  0.00     0.006 A 
ENDBRANCH  68  85
ENDBRANCH  42  43
ENDBRANCH  35  37
ENDBRANCH  34  35
ENDBRANCH  33  34
ENDBRANCH  32  33
ENDBRANCH  31  32
ENDBRANCH  30  31
ENDBRANCH  29  30
ENDBRANCH  28  29
ENDBRANCH   1  28
TORSDOF 24
ENDMDL
MODEL 2
REMARK VINA RESULT:     -10.6      4.944     10.307
REMARK SMILES Cc1ccc(/C=C/C(=O)N2C[C@@H](O)C[C@H]2C(=O)OCCOCCOCCOCCOC(=O)c2ccc(-c3c4nc(c(-c5c(F)cccc5F)c5ccc([nH]5)c(-c5c(F)cccc5F)c5nc(c(-c6c(F)cccc6F)c6ccc3[nH]6)C=C5)C=C4)cc2)c(C)c1
REMARK SMILES IDX 23 1 22 2 21 3 20 4 19 5 18 6 16 7 17 8 15 9 10 10 11 11
REMARK SMILES IDX 12 12 14 13 8 14 9 15 7 16 6 17 5 18 1 19 2 20 3 21 89 22
REMARK SMILES IDX 4 23 87 24 88 25 13 26 24 28 25 29 26 30 27 31 28 32 29 33
REMARK SMILES IDX 30 34 31 35 32 36 33 37 34 38 86 39 35 40 85 41 36 42 37 43
REMARK SMILES IDX 38 44 79 45 39 46 84 47 78 48 80 49 40 50 83 51 77 52 76 53
REMARK SMILES IDX 41 55 67 56 50 57 66 58 51 59 54 60 65 61 81 62 52 63 53 64
REMARK SMILES IDX 64 66 82 67 55 68 42 69 43 70 48 71 44 72 45 73 47 74 49 75
REMARK SMILES IDX 46 76 68 77 69 78 74 79 70 80 71 81 73 82 75 83 72 84 56 85
REMARK SMILES IDX 57 86 62 87 58 88 59 89 61 90 63 91 60 92
REMARK H PARENT 13 27 80 54 54 65
REMARK Flexibility Score: inf
ROOT
ATOM      1  C   UNL A   1      39.845  22.467  26.431  1.00  0.00     0.188 C 
ENDROOT
BRANCH   1   2
ATOM      2  C   UNL A   1      38.795  23.586  26.518  1.00  0.00     0.188 C 
BRANCH   2   3
ATOM      3  O   UNL A   1      37.505  23.207  26.104  1.00  0.00    -0.376 OA
BRANCH   3   4
ATOM      4  C   UNL A   1      37.318  22.495  24.900  1.00  0.00     0.202 C 
BRANCH   4   5
ATOM      5  C   UNL A   1      35.997  21.834  24.455  1.00  0.00     0.261 C 
BRANCH   5   6
ATOM      6  O   UNL A   1      35.275  21.000  25.376  1.00  0.00    -0.462 OA
BRANCH   6   7
ATOM      7  C   UNL A   1      34.940  19.754  24.952  1.00  0.00     0.329 C 
ATOM      8  O   UNL A   1      35.770  18.908  24.627  1.00  0.00    -0.250 OA
BRANCH   7   9
ATOM      9  C   UNL A   1      33.417  19.540  24.745  1.00  0.00     0.198 C 
ATOM     10  N   UNL A   1      32.534  20.546  24.107  1.00  0.00    -0.323 N 
ATOM     11  C   UNL A   1      32.200  20.151  22.756  1.00  0.00     0.152 C 
ATOM     12  C   UNL A   1      32.139  18.633  22.881  1.00  0.00     0.136 C 
ATOM     13  C   UNL A   1      33.291  18.310  23.830  1.00  0.00     0.071 C 
BRANCH  10  14
ATOM     14  C   UNL A   1      31.832  21.455  24.871  1.00  0.00     0.247 C 
ATOM     15  O   UNL A   1      31.067  21.115  25.772  1.00  0.00    -0.270 OA
BRANCH  14  16
ATOM     16  C   UNL A   1      32.027  22.903  24.596  1.00  0.00     0.072 C 
ATOM     17  C   UNL A   1      31.806  23.738  25.623  1.00  0.00     0.014 C 
BRANCH  17  18
ATOM     18  C   UNL A   1      32.047  25.191  25.720  1.00  0.00    -0.023 A 
ATOM     19  C   UNL A   1      32.430  29.295  27.067  1.00  0.00     0.044 C 
ATOM     20  C   UNL A   1      32.274  27.906  26.520  1.00  0.00    -0.051 A 
ATOM     21  C   UNL A   1      31.023  27.302  26.432  1.00  0.00     0.004 A 
ATOM     22  C   UNL A   1      33.400  27.170  26.135  1.00  0.00     0.007 A 
ATOM     23  C   UNL A   1      30.914  25.966  26.038  1.00  0.00     0.008 A 
ATOM     24  C   UNL A   1      33.309  25.817  25.729  1.00  0.00    -0.044 A 
ATOM     25  C   UNL A   1      34.614  25.132  25.429  1.00  0.00     0.045 C 
ENDBRANCH  17  18
ENDBRANCH  14  16
ENDBRANCH  10  14
BRANCH  12  26
ATOM     26  O   UNL A   1      32.274  17.964  21.643  1.00  0.00    -0.391 OA
ATOM     27  H   UNL A   1      32.816  18.499  21.043  1.00  0.00     0.211 HD
ENDBRANCH  12  26
ENDBRANCH   7   9
ENDBRANCH   6   7
ENDBRANCH   5   6
ENDBRANCH   4   5
ENDBRANCH   3   4
ENDBRANCH   2   3
ENDBRANCH   1   2
BRANCH   1  28
ATOM     28  O   UNL A   1      40.074  21.537  27.477  1.00  0.00    -0.377 OA
BRANCH  28  29
ATOM     29  C   UNL A   1      41.237  20.735  27.468  1.00  0.00     0.188 C 
BRANCH  29  30
ATOM     30  C   UNL A   1      41.901  20.372  26.129  1.00  0.00     0.188 C 
BRANCH  30  31
ATOM     31  O   UNL A   1      43.296  20.146  26.206  1.00  0.00    -0.376 OA
BRANCH  31  32
ATOM     32  C   UNL A   1      44.105  20.573  25.123  1.00  0.00     0.202 C 
BRANCH  32  33
ATOM     33  C   UNL A   1      44.798  21.942  25.221  1.00  0.00     0.261 C 
BRANCH  33  34
ATOM     34  O   UNL A   1      43.943  23.093  25.220  1.00  0.00    -0.460 OA
BRANCH  34  35
ATOM     35  C   UNL A   1      44.543  24.303  25.280  1.00  0.00     0.338 C 
ATOM     36  O   UNL A   1      45.486  24.694  24.627  1.00  0.00    -0.246 OA
BRANCH  35  37
ATOM     37  C   UNL A   1      43.727  25.152  26.173  1.00  0.00     0.060 A 
ATOM     38  C   UNL A   1      44.054  26.508  26.290  1.00  0.00     0.016 A 
ATOM     39  C   UNL A   1      42.647  24.616  26.878  1.00  0.00     0.016 A 
ATOM     40  C   UNL A   1      43.315  27.330  27.137  1.00  0.00     0.010 A 
ATOM     41  C   UNL A   1      41.926  25.433  27.752  1.00  0.00     0.010 A 
ATOM     42  C   UNL A   1      42.283  26.785  27.911  1.00  0.00    -0.014 A 
BRANCH  42  43
ATOM     43  C   UNL A   1      41.756  27.576  29.047  1.00  0.00     0.031 A 
ATOM     44  C   UNL A   1      42.459  27.461  30.370  1.00  0.00     0.074 A 
ATOM     45  C   UNL A   1      40.725  28.425  28.893  1.00  0.00     0.049 A 
ATOM     46  N   UNL A   1      42.206  28.061  31.504  1.00  0.00    -0.248 NA
ATOM     47  C   UNL A   1      43.610  26.543  30.418  1.00  0.00     0.031 C 
ATOM     48  C   UNL A   1      39.995  28.652  27.649  1.00  0.00     0.029 A 
ATOM     49  N   UNL A   1      40.119  29.254  29.801  1.00  0.00    -0.354 N 
ATOM     50  C   UNL A   1      43.164  27.597  32.396  1.00  0.00     0.074 A 
ATOM     51  C   UNL A   1      43.977  26.634  31.685  1.00  0.00     0.031 C 
ATOM     52  C   UNL A   1      39.026  29.557  27.875  1.00  0.00     0.029 A 
ATOM     53  C   UNL A   1      39.053  29.949  29.283  1.00  0.00     0.049 A 
ATOM     54  H   UNL A   1      40.418  29.344  30.734  1.00  0.00     0.167 HD
ATOM     55  C   UNL A   1      43.360  27.951  33.687  1.00  0.00     0.037 A 
ATOM     56  C   UNL A   1      38.191  30.790  29.888  1.00  0.00     0.037 A 
ATOM     57  C   UNL A   1      42.539  28.898  34.393  1.00  0.00     0.049 A 
ATOM     58  C   UNL A   1      38.378  31.110  31.348  1.00  0.00     0.074 A 
ATOM     59  C   UNL A   1      42.648  29.327  35.703  1.00  0.00     0.029 A 
ATOM     60  N   UNL A   1      41.445  29.553  33.846  1.00  0.00    -0.354 N 
ATOM     61  N   UNL A   1      39.299  30.685  32.180  1.00  0.00    -0.248 NA
ATOM     62  C   UNL A   1      37.410  32.037  31.952  1.00  0.00     0.031 C 
ATOM     63  C   UNL A   1      41.584  30.197  35.966  1.00  0.00     0.029 A 
ATOM     64  C   UNL A   1      40.853  30.363  34.800  1.00  0.00     0.049 A 
ATOM     65  H   UNL A   1      41.135  29.456  32.917  1.00  0.00     0.167 HD
ATOM     66  C   UNL A   1      39.041  31.312  33.393  1.00  0.00     0.074 A 
ATOM     67  C   UNL A   1      37.886  32.160  33.183  1.00  0.00     0.031 C 
ATOM     68  C   UNL A   1      39.701  31.201  34.574  1.00  0.00     0.037 A 
BRANCH  55  69
ATOM     69  C   UNL A   1      44.483  27.276  34.420  1.00  0.00     0.057 A 
ATOM     70  C   UNL A   1      45.774  27.822  34.471  1.00  0.00     0.134 A 
ATOM     71  C   UNL A   1      44.273  26.059  35.081  1.00  0.00     0.134 A 
ATOM     72  F   UNL A   1      46.050  28.976  33.844  1.00  0.00    -0.206 F 
ATOM     73  C   UNL A   1      46.820  27.167  35.125  1.00  0.00     0.040 A 
ATOM     74  C   UNL A   1      45.303  25.411  35.764  1.00  0.00     0.040 A 
ATOM     75  F   UNL A   1      43.064  25.480  35.073  1.00  0.00    -0.206 F 
ATOM     76  C   UNL A   1      46.584  25.959  35.779  1.00  0.00     0.006 A 
ENDBRANCH  55  69
BRANCH  56  77
ATOM     77  C   UNL A   1      37.060  31.373  29.119  1.00  0.00     0.057 A 
ATOM     78  C   UNL A   1      37.076  32.703  28.687  1.00  0.00     0.134 A 
ATOM     79  C   UNL A   1      35.924  30.611  28.815  1.00  0.00     0.134 A 
ATOM     80  F   UNL A   1      38.124  33.492  28.966  1.00  0.00    -0.206 F 
ATOM     81  C   UNL A   1      35.998  33.262  27.997  1.00  0.00     0.040 A 
ATOM     82  C   UNL A   1      34.851  31.148  28.101  1.00  0.00     0.040 A 
ATOM     83  F   UNL A   1      35.844  29.329  29.200  1.00  0.00    -0.206 F 
ATOM     84  C   UNL A   1      34.883  32.481  27.697  1.00  0.00     0.006 A 
ENDBRANCH  56  77
BRANCH  68  85
ATOM     85  C   UNL A   1      39.215  32.047  35.717  1.00  0.00     0.057 A 
ATOM     86  C   UNL A   1      38.291  31.570  36.657  1.00  0.00     0.134 A 
ATOM     87  C   UNL A   1      39.705  33.347  35.899  1.00  0.00     0.134 A 
ATOM     88  F   UNL A   1      37.775  30.337  36.538  1.00  0.00    -0.206 F 
ATOM     89  C   UNL A   1      37.848  32.367  37.714  1.00  0.00     0.040 A 
ATOM     90  C   UNL A   1      39.294  34.141  36.970  1.00  0.00     0.040 A 
ATOM     91  F   UNL A   1      40.602  33.863  35.045  1.00  0.00    -0.206 F 
ATOM     92  C   UNL A   1      38.355  33.654  37.876  1.00  0.00     0.006 A 
ENDBRANCH  68  85
ENDBRANCH  42  43
ENDBRANCH  35  37
ENDBRANCH  34  35
ENDBRANCH  33  34
ENDBRANCH  32  33
ENDBRANCH  31  32
ENDBRANCH  30  31
ENDBRANCH  29  30
ENDBRANCH  28  29
ENDBRANCH   1  28
TORSDOF 24
ENDMDL
MODEL 3
REMARK VINA RESULT:     -10.6      4.420     10.299
REMARK SMILES Cc1ccc(/C=C/C(=O)N2C[C@@H](O)C[C@H]2C(=O)OCCOCCOCCOCCOC(=O)c2ccc(-c3c4nc(c(-c5c(F)cccc5F)c5ccc([nH]5)c(-c5c(F)cccc5F)c5nc(c(-c6c(F)cccc6F)c6ccc3[nH]6)C=C5)C=C4)cc2)c(C)c1
REMARK SMILES IDX 23 1 22 2 21 3 20 4 19 5 18 6 16 7 17 8 15 9 10 10 11 11
REMARK SMILES IDX 12 12 14 13 8 14 9 15 7 16 6 17 5 18 1 19 2 20 3 21 89 22
REMARK SMILES IDX 4 23 87 24 88 25 13 26 24 28 25 29 26 30 27 31 28 32 29 33
REMARK SMILES IDX 30 34 31 35 32 36 33 37 34 38 86 39 35 40 85 41 36 42 37 43
REMARK SMILES IDX 38 44 79 45 39 46 84 47 78 48 80 49 40 50 83 51 77 52 76 53
REMARK SMILES IDX 41 55 67 56 50 57 66 58 51 59 54 60 65 61 81 62 52 63 53 64
REMARK SMILES IDX 64 66 82 67 55 68 42 69 43 70 48 71 44 72 45 73 47 74 49 75
REMARK SMILES IDX 46 76 68 77 69 78 74 79 70 80 71 81 73 82 75 83 72 84 56 85
REMARK SMILES IDX 57 86 62 87 58 88 59 89 61 90 63 91 60 92
REMARK H PARENT 13 27 80 54 54 65
REMARK Flexibility Score: inf
ROOT
ATOM      1  C   UNL A   1      38.451  21.910  25.823  1.00  0.00     0.188 C 
ENDROOT
BRANCH   1   2
ATOM      2  C   UNL A   1      37.311  21.413  24.920  1.00  0.00     0.188 C 
BRANCH   2   3
ATOM      3  O   UNL A   1      36.102  21.161  25.593  1.00  0.00    -0.376 OA
BRANCH   3   4
ATOM      4  C   UNL A   1      35.418  22.204  26.253  1.00  0.00     0.202 C 
BRANCH   4   5
ATOM      5  C   UNL A   1      34.063  22.059  26.976  1.00  0.00     0.261 C 
BRANCH   5   6
ATOM      6  O   UNL A   1      32.844  22.311  26.257  1.00  0.00    -0.462 OA
BRANCH   6   7
ATOM      7  C   UNL A   1      32.191  23.470  26.532  1.00  0.00     0.329 C 
ATOM      8  O   UNL A   1      31.469  23.618  27.515  1.00  0.00    -0.250 OA
BRANCH   7   9
ATOM      9  C   UNL A   1      32.289  24.538  25.410  1.00  0.00     0.198 C 
ATOM     10  N   UNL A   1      33.412  25.500  25.300  1.00  0.00    -0.323 N 
ATOM     11  C   UNL A   1      34.313  25.116  24.236  1.00  0.00     0.152 C 
ATOM     12  C   UNL A   1      33.354  24.506  23.220  1.00  0.00     0.136 C 
ATOM     13  C   UNL A   1      32.353  23.750  24.091  1.00  0.00     0.071 C 
BRANCH  10  14
ATOM     14  C   UNL A   1      33.318  26.761  25.854  1.00  0.00     0.247 C 
ATOM     15  O   UNL A   1      34.213  27.254  26.538  1.00  0.00    -0.270 OA
BRANCH  14  16
ATOM     16  C   UNL A   1      32.086  27.552  25.594  1.00  0.00     0.072 C 
ATOM     17  C   UNL A   1      32.257  28.726  24.968  1.00  0.00     0.014 C 
BRANCH  17  18
ATOM     18  C   UNL A   1      31.246  29.665  24.443  1.00  0.00    -0.023 A 
ATOM     19  C   UNL A   1      27.576  31.587  23.161  1.00  0.00     0.044 C 
ATOM     20  C   UNL A   1      28.889  30.965  23.539  1.00  0.00    -0.051 A 
ATOM     21  C   UNL A   1      29.380  29.852  22.862  1.00  0.00     0.004 A 
ATOM     22  C   UNL A   1      29.621  31.468  24.620  1.00  0.00     0.007 A 
ATOM     23  C   UNL A   1      30.541  29.214  23.310  1.00  0.00     0.008 A 
ATOM     24  C   UNL A   1      30.800  30.838  25.085  1.00  0.00    -0.044 A 
ATOM     25  C   UNL A   1      31.429  31.443  26.309  1.00  0.00     0.045 C 
ENDBRANCH  17  18
ENDBRANCH  14  16
ENDBRANCH  10  14
BRANCH  12  26
ATOM     26  O   UNL A   1      33.992  23.653  22.291  1.00  0.00    -0.391 OA
ATOM     27  H   UNL A   1      34.155  22.790  22.703  1.00  0.00     0.211 HD
ENDBRANCH  12  26
ENDBRANCH   7   9
ENDBRANCH   6   7
ENDBRANCH   5   6
ENDBRANCH   4   5
ENDBRANCH   3   4
ENDBRANCH   2   3
ENDBRANCH   1   2
BRANCH   1  28
ATOM     28  O   UNL A   1      39.693  21.236  25.942  1.00  0.00    -0.377 OA
BRANCH  28  29
ATOM     29  C   UNL A   1      40.457  21.368  27.123  1.00  0.00     0.188 C 
BRANCH  29  30
ATOM     30  C   UNL A   1      41.772  20.583  27.270  1.00  0.00     0.188 C 
BRANCH  30  31
ATOM     31  O   UNL A   1      42.202  19.926  26.091  1.00  0.00    -0.376 OA
BRANCH  31  32
ATOM     32  C   UNL A   1      43.395  20.374  25.471  1.00  0.00     0.202 C 
BRANCH  32  33
ATOM     33  C   UNL A   1      43.914  21.781  25.811  1.00  0.00     0.261 C 
BRANCH  33  34
ATOM     34  O   UNL A   1      43.296  22.875  25.122  1.00  0.00    -0.460 OA
BRANCH  34  35
ATOM     35  C   UNL A   1      43.971  24.046  25.099  1.00  0.00     0.338 C 
ATOM     36  O   UNL A   1      44.901  24.349  24.384  1.00  0.00    -0.246 OA
BRANCH  35  37
ATOM     37  C   UNL A   1      43.256  24.981  25.993  1.00  0.00     0.060 A 
ATOM     38  C   UNL A   1      43.812  26.245  26.221  1.00  0.00     0.016 A 
ATOM     39  C   UNL A   1      42.048  24.615  26.590  1.00  0.00     0.016 A 
ATOM     40  C   UNL A   1      43.171  27.142  27.072  1.00  0.00     0.010 A 
ATOM     41  C   UNL A   1      41.422  25.502  27.469  1.00  0.00     0.010 A 
ATOM     42  C   UNL A   1      42.002  26.754  27.740  1.00  0.00    -0.014 A 
BRANCH  42  43
ATOM     43  C   UNL A   1      41.541  27.567  28.890  1.00  0.00     0.031 A 
ATOM     44  C   UNL A   1      42.305  27.456  30.179  1.00  0.00     0.074 A 
ATOM     45  C   UNL A   1      40.518  28.430  28.775  1.00  0.00     0.049 A 
ATOM     46  N   UNL A   1      42.115  28.072  31.317  1.00  0.00    -0.248 NA
ATOM     47  C   UNL A   1      43.443  26.520  30.184  1.00  0.00     0.031 C 
ATOM     48  C   UNL A   1      39.732  28.655  27.565  1.00  0.00     0.029 A 
ATOM     49  N   UNL A   1      39.968  29.279  29.701  1.00  0.00    -0.354 N 
ATOM     50  C   UNL A   1      43.108  27.602  32.168  1.00  0.00     0.074 A 
ATOM     51  C   UNL A   1      43.871  26.619  31.431  1.00  0.00     0.031 C 
ATOM     52  C   UNL A   1      38.789  29.577  27.826  1.00  0.00     0.029 A 
ATOM     53  C   UNL A   1      38.889  29.984  29.226  1.00  0.00     0.049 A 
ATOM     54  H   UNL A   1      40.313  29.374  30.617  1.00  0.00     0.167 HD
ATOM     55  C   UNL A   1      43.370  27.968  33.444  1.00  0.00     0.037 A 
ATOM     56  C   UNL A   1      38.070  30.845  29.861  1.00  0.00     0.037 A 
ATOM     57  C   UNL A   1      42.598  28.935  34.177  1.00  0.00     0.049 A 
ATOM     58  C   UNL A   1      38.331  31.179  31.307  1.00  0.00     0.074 A 
ATOM     59  C   UNL A   1      42.776  29.377  35.475  1.00  0.00     0.029 A 
ATOM     60  N   UNL A   1      41.489  29.602  33.675  1.00  0.00    -0.354 N 
ATOM     61  N   UNL A   1      39.285  30.749  32.099  1.00  0.00    -0.248 NA
ATOM     62  C   UNL A   1      37.407  32.127  31.945  1.00  0.00     0.031 C 
ATOM     63  C   UNL A   1      41.739  30.267  35.778  1.00  0.00     0.029 A 
ATOM     64  C   UNL A   1      40.956  30.432  34.646  1.00  0.00     0.049 A 
ATOM     65  H   UNL A   1      41.134  29.499  32.762  1.00  0.00     0.167 HD
ATOM     66  C   UNL A   1      39.094  31.393  33.315  1.00  0.00     0.074 A 
ATOM     67  C   UNL A   1      37.943  32.257  33.150  1.00  0.00     0.031 C 
ATOM     68  C   UNL A   1      39.807  31.285  34.465  1.00  0.00     0.037 A 
BRANCH  55  69
ATOM     69  C   UNL A   1      44.517  27.283  34.131  1.00  0.00     0.057 A 
ATOM     70  C   UNL A   1      45.815  27.816  34.124  1.00  0.00     0.134 A 
ATOM     71  C   UNL A   1      44.323  26.072  34.806  1.00  0.00     0.134 A 
ATOM     72  F   UNL A   1      46.076  28.963  33.480  1.00  0.00    -0.206 F 
ATOM     73  C   UNL A   1      46.881  27.152  34.735  1.00  0.00     0.040 A 
ATOM     74  C   UNL A   1      45.374  25.415  35.447  1.00  0.00     0.040 A 
ATOM     75  F   UNL A   1      43.107  25.506  34.853  1.00  0.00    -0.206 F 
ATOM     76  C   UNL A   1      46.660  25.949  35.404  1.00  0.00     0.006 A 
ENDBRANCH  55  69
BRANCH  56  77
ATOM     77  C   UNL A   1      36.913  31.437  29.140  1.00  0.00     0.057 A 
ATOM     78  C   UNL A   1      35.741  30.708  28.909  1.00  0.00     0.134 A 
ATOM     79  C   UNL A   1      36.963  32.747  28.645  1.00  0.00     0.134 A 
ATOM     80  F   UNL A   1      35.639  29.441  29.336  1.00  0.00    -0.206 F 
ATOM     81  C   UNL A   1      34.668  31.252  28.199  1.00  0.00     0.040 A 
ATOM     82  C   UNL A   1      35.888  33.314  27.959  1.00  0.00     0.040 A 
ATOM     83  F   UNL A   1      38.057  33.501  28.832  1.00  0.00    -0.206 F 
ATOM     84  C   UNL A   1      34.738  32.562  27.726  1.00  0.00     0.006 A 
ENDBRANCH  56  77
BRANCH  68  85
ATOM     85  C   UNL A   1      39.389  32.151  35.620  1.00  0.00     0.057 A 
ATOM     86  C   UNL A   1      39.870  33.456  35.786  1.00  0.00     0.134 A 
ATOM     87  C   UNL A   1      38.463  31.681  36.562  1.00  0.00     0.134 A 
ATOM     88  F   UNL A   1      40.765  33.965  34.926  1.00  0.00    -0.206 F 
ATOM     89  C   UNL A   1      39.472  34.249  36.865  1.00  0.00     0.040 A 
ATOM     90  C   UNL A   1      38.033  32.475  37.625  1.00  0.00     0.040 A 
ATOM     91  F   UNL A   1      37.950  30.445  36.456  1.00  0.00    -0.206 F 
ATOM     92  C   UNL A   1      38.546  33.760  37.784  1.00  0.00     0.006 A 
ENDBRANCH  68  85
ENDBRANCH  42  43
ENDBRANCH  35  37
ENDBRANCH  34  35
ENDBRANCH  33  34
ENDBRANCH  32  33
ENDBRANCH  31  32
ENDBRANCH  30  31
ENDBRANCH  29  30
ENDBRANCH  28  29
ENDBRANCH   1  28
TORSDOF 24
ENDMDL
