MODEL 1
REMARK VINA RESULT:      -8.6      0.000      0.000
REMARK SMILES O=C(N/N=C/c1ccc(C(=O)OCCOCCOCCOCCOC(=O)c2ccc(-c3c4nc(c(-c5c(F)cccc5F)c5ccc([nH]5)c(-c5c(F)cccc5F)c5nc(c(-c6c(F)cccc6F)c6ccc3[nH]6)C=C5)C=C4)cc2)cc1)C(=O)Nc1cccc(Br)c1
REMARK SMILES IDX 17 1 16 2 15 3 14 4 13 5 12 6 10 7 11 8 9 9 6 10 7 11 82 12
REMARK SMILES IDX 8 13 81 14 5 15 4 16 3 17 1 18 2 19 83 21 84 22 85 23 86 25
REMARK SMILES IDX 87 26 92 27 88 28 90 29 89 30 91 31 18 32 19 33 20 34 21 35
REMARK SMILES IDX 22 36 23 37 24 38 25 39 26 40 27 41 28 42 80 43 29 44 79 45
REMARK SMILES IDX 30 46 31 47 32 48 73 49 33 50 78 51 72 52 74 53 34 54 77 55
REMARK SMILES IDX 71 56 70 57 35 59 61 60 44 61 60 62 45 63 48 64 59 65 75 66
REMARK SMILES IDX 46 67 47 68 58 70 76 71 49 72 36 73 37 74 42 75 38 76 39 77
REMARK SMILES IDX 41 78 43 79 40 80 62 81 63 82 68 83 64 84 65 85 67 86 69 87
REMARK SMILES IDX 66 88 50 89 51 90 56 91 52 92 53 93 55 94 57 95 54 96
REMARK H PARENT 3 20 85 24 74 58 48 69
REMARK Flexibility Score: inf
ROOT
ATOM      1  C   UNL A   1      32.558  35.912  30.725  1.00  0.00     0.188 C 
ENDROOT
BRANCH   1   2
ATOM      2  C   UNL A   1      33.246  35.221  29.531  1.00  0.00     0.188 C 
BRANCH   2   3
ATOM      3  O   UNL A   1      34.512  34.659  29.860  1.00  0.00    -0.376 OA
BRANCH   3   4
ATOM      4  C   UNL A   1      35.116  33.788  28.920  1.00  0.00     0.202 C 
BRANCH   4   5
ATOM      5  C   UNL A   1      34.179  32.883  28.107  1.00  0.00     0.261 C 
BRANCH   5   6
ATOM      6  O   UNL A   1      34.069  31.536  28.578  1.00  0.00    -0.460 OA
BRANCH   6   7
ATOM      7  C   UNL A   1      34.574  30.580  27.776  1.00  0.00     0.338 C 
ATOM      8  O   UNL A   1      34.096  30.170  26.732  1.00  0.00    -0.246 OA
BRANCH   7   9
ATOM      9  C   UNL A   1      35.927  30.230  28.252  1.00  0.00     0.060 A 
ATOM     10  C   UNL A   1      38.633  29.091  29.050  1.00  0.00    -0.005 A 
ATOM     11  C   UNL A   1      38.248  29.754  27.759  1.00  0.00     0.010 A 
ATOM     12  C   UNL A   1      37.561  29.663  29.943  1.00  0.00     0.010 A 
ATOM     13  C   UNL A   1      36.961  30.175  27.347  1.00  0.00     0.016 A 
ATOM     14  C   UNL A   1      36.267  30.126  29.578  1.00  0.00     0.016 A 
BRANCH  10  15
ATOM     15  C   UNL A   1      40.135  27.624  29.408  1.00  0.00     0.141 C 
ATOM     16  N   UNL A   1      41.414  27.604  29.906  1.00  0.00    -0.180 NA
BRANCH  16  17
ATOM     17  N   UNL A   1      42.209  26.642  29.385  1.00  0.00    -0.239 N 
ATOM     18  O   UNL A   1      44.320  26.311  28.702  1.00  0.00    -0.262 OA
ATOM     19  C   UNL A   1      43.291  26.983  28.579  1.00  0.00     0.329 C 
ATOM     20  H   UNL A   1      42.021  25.695  29.577  1.00  0.00     0.194 HD
BRANCH  19  21
ATOM     21  C   UNL A   1      43.271  28.079  27.472  1.00  0.00     0.315 C 
ATOM     22  O   UNL A   1      43.273  29.253  27.863  1.00  0.00    -0.263 OA
ATOM     23  N   UNL A   1      43.314  27.919  26.089  1.00  0.00    -0.318 N 
ATOM     24  H   UNL A   1      43.131  28.724  25.553  1.00  0.00     0.170 HD
BRANCH  23  25
ATOM     25  C   UNL A   1      43.587  26.753  25.373  1.00  0.00     0.042 A 
ATOM     26  C   UNL A   1      45.372  26.406  25.151  1.00  0.00     0.026 A 
ATOM     27  C   UNL A   1      42.376  25.395  25.486  1.00  0.00     0.041 A 
ATOM     28  C   UNL A   1      45.936  24.665  25.025  1.00  0.00     0.003 A 
ATOM     29  C   UNL A   1      42.984  23.667  25.565  1.00  0.00     0.020 A 
ATOM     30  C   UNL A   1      44.753  23.312  25.297  1.00  0.00     0.016 A 
ATOM     31  Br  UNL A   1      41.813  22.270  26.099  1.00  0.00    -0.051 Br
ENDBRANCH  23  25
ENDBRANCH  19  21
ENDBRANCH  16  17
ENDBRANCH  10  15
ENDBRANCH   7   9
ENDBRANCH   6   7
ENDBRANCH   5   6
ENDBRANCH   4   5
ENDBRANCH   3   4
ENDBRANCH   2   3
ENDBRANCH   1   2
BRANCH   1  32
ATOM     32  O   UNL A   1      32.975  37.235  31.011  1.00  0.00    -0.377 OA
BRANCH  32  33
ATOM     33  C   UNL A   1      33.792  37.467  32.160  1.00  0.00     0.188 C 
BRANCH  33  34
ATOM     34  C   UNL A   1      33.979  36.414  33.283  1.00  0.00     0.188 C 
BRANCH  34  35
ATOM     35  O   UNL A   1      35.212  35.710  33.258  1.00  0.00    -0.376 OA
BRANCH  35  36
ATOM     36  C   UNL A   1      35.211  34.392  33.783  1.00  0.00     0.202 C 
BRANCH  36  37
ATOM     37  C   UNL A   1      36.604  33.772  33.945  1.00  0.00     0.261 C 
BRANCH  37  38
ATOM     38  O   UNL A   1      36.615  32.416  34.417  1.00  0.00    -0.460 OA
BRANCH  38  39
ATOM     39  C   UNL A   1      37.657  32.044  35.192  1.00  0.00     0.338 C 
ATOM     40  O   UNL A   1      37.641  31.780  36.379  1.00  0.00    -0.246 OA
BRANCH  39  41
ATOM     41  C   UNL A   1      38.815  31.825  34.305  1.00  0.00     0.060 A 
ATOM     42  C   UNL A   1      38.651  31.049  33.150  1.00  0.00     0.016 A 
ATOM     43  C   UNL A   1      40.053  32.391  34.616  1.00  0.00     0.016 A 
ATOM     44  C   UNL A   1      39.745  30.798  32.322  1.00  0.00     0.010 A 
ATOM     45  C   UNL A   1      41.150  32.123  33.799  1.00  0.00     0.010 A 
ATOM     46  C   UNL A   1      41.008  31.293  32.673  1.00  0.00    -0.014 A 
BRANCH  46  47
ATOM     47  C   UNL A   1      42.216  30.752  32.009  1.00  0.00     0.031 A 
ATOM     48  C   UNL A   1      42.755  29.437  32.497  1.00  0.00     0.074 A 
ATOM     49  C   UNL A   1      42.814  31.399  30.995  1.00  0.00     0.049 A 
ATOM     50  N   UNL A   1      43.820  28.780  32.116  1.00  0.00    -0.248 NA
ATOM     51  C   UNL A   1      41.988  28.775  33.565  1.00  0.00     0.031 C 
ATOM     52  C   UNL A   1      42.361  32.657  30.407  1.00  0.00     0.029 A 
ATOM     53  N   UNL A   1      43.944  31.079  30.288  1.00  0.00    -0.354 N 
ATOM     54  C   UNL A   1      43.851  27.633  32.899  1.00  0.00     0.074 A 
ATOM     55  C   UNL A   1      42.722  27.702  33.802  1.00  0.00     0.031 C 
ATOM     56  C   UNL A   1      43.214  33.009  29.428  1.00  0.00     0.029 A 
ATOM     57  C   UNL A   1      44.286  32.017  29.344  1.00  0.00     0.049 A 
ATOM     58  H   UNL A   1      44.461  30.256  30.440  1.00  0.00     0.167 HD
ATOM     59  C   UNL A   1      44.735  26.609  32.866  1.00  0.00     0.037 A 
ATOM     60  C   UNL A   1      45.353  32.072  28.525  1.00  0.00     0.037 A 
ATOM     61  C   UNL A   1      45.865  26.551  31.979  1.00  0.00     0.049 A 
ATOM     62  C   UNL A   1      46.373  30.962  28.563  1.00  0.00     0.074 A 
ATOM     63  C   UNL A   1      46.819  25.556  31.861  1.00  0.00     0.029 A 
ATOM     64  N   UNL A   1      46.198  27.537  31.063  1.00  0.00    -0.354 N 
ATOM     65  N   UNL A   1      46.385  29.871  29.291  1.00  0.00    -0.248 NA
ATOM     66  C   UNL A   1      47.527  31.094  27.662  1.00  0.00     0.031 C 
ATOM     67  C   UNL A   1      47.760  25.966  30.909  1.00  0.00     0.029 A 
ATOM     68  C   UNL A   1      47.358  27.188  30.392  1.00  0.00     0.049 A 
ATOM     69  H   UNL A   1      45.687  28.365  30.912  1.00  0.00     0.167 HD
ATOM     70  C   UNL A   1      47.524  29.170  28.910  1.00  0.00     0.074 A 
ATOM     71  C   UNL A   1      48.175  29.958  27.884  1.00  0.00     0.031 C 
ATOM     72  C   UNL A   1      47.987  27.979  29.365  1.00  0.00     0.037 A 
BRANCH  59  73
ATOM     73  C   UNL A   1      44.525  25.492  33.847  1.00  0.00     0.057 A 
ATOM     74  C   UNL A   1      44.848  25.626  35.204  1.00  0.00     0.134 A 
ATOM     75  C   UNL A   1      43.997  24.265  33.427  1.00  0.00     0.134 A 
ATOM     76  F   UNL A   1      45.376  26.769  35.668  1.00  0.00    -0.206 F 
ATOM     77  C   UNL A   1      44.687  24.568  36.100  1.00  0.00     0.040 A 
ATOM     78  C   UNL A   1      43.804  23.211  34.320  1.00  0.00     0.040 A 
ATOM     79  F   UNL A   1      43.666  24.070  32.141  1.00  0.00    -0.206 F 
ATOM     80  C   UNL A   1      44.158  23.357  35.659  1.00  0.00     0.006 A 
ENDBRANCH  59  73
BRANCH  60  81
ATOM     81  C   UNL A   1      45.517  33.216  27.593  1.00  0.00     0.057 A 
ATOM     82  C   UNL A   1      44.861  33.242  26.357  1.00  0.00     0.134 A 
ATOM     83  C   UNL A   1      46.345  34.301  27.907  1.00  0.00     0.134 A 
ATOM     84  F   UNL A   1      44.074  32.221  25.989  1.00  0.00    -0.206 F 
ATOM     85  C   UNL A   1      45.032  34.298  25.460  1.00  0.00     0.040 A 
ATOM     86  C   UNL A   1      46.506  35.375  27.030  1.00  0.00     0.040 A 
ATOM     87  F   UNL A   1      47.002  34.336  29.075  1.00  0.00    -0.206 F 
ATOM     88  C   UNL A   1      45.853  35.372  25.800  1.00  0.00     0.006 A 
ENDBRANCH  60  81
BRANCH  72  89
ATOM     89  C   UNL A   1      49.228  27.427  28.722  1.00  0.00     0.057 A 
ATOM     90  C   UNL A   1      50.511  27.752  29.179  1.00  0.00     0.134 A 
ATOM     91  C   UNL A   1      49.133  26.520  27.658  1.00  0.00     0.134 A 
ATOM     92  F   UNL A   1      50.675  28.623  30.187  1.00  0.00    -0.206 F 
ATOM     93  C   UNL A   1      51.655  27.214  28.585  1.00  0.00     0.040 A 
ATOM     94  C   UNL A   1      50.266  25.953  27.076  1.00  0.00     0.040 A 
ATOM     95  F   UNL A   1      47.932  26.156  27.179  1.00  0.00    -0.206 F 
ATOM     96  C   UNL A   1      51.533  26.305  27.535  1.00  0.00     0.006 A 
ENDBRANCH  72  89
ENDBRANCH  46  47
ENDBRANCH  39  41
ENDBRANCH  38  39
ENDBRANCH  37  38
ENDBRANCH  36  37
ENDBRANCH  35  36
ENDBRANCH  34  35
ENDBRANCH  33  34
ENDBRANCH  32  33
ENDBRANCH   1  32
TORSDOF 24
ENDMDL
MODEL 2
REMARK VINA RESULT:      -8.6      1.482      2.474
REMARK SMILES O=C(N/N=C/c1ccc(C(=O)OCCOCCOCCOCCOC(=O)c2ccc(-c3c4nc(c(-c5c(F)cccc5F)c5ccc([nH]5)c(-c5c(F)cccc5F)c5nc(c(-c6c(F)cccc6F)c6ccc3[nH]6)C=C5)C=C4)cc2)cc1)C(=O)Nc1cccc(Br)c1
REMARK SMILES IDX 17 1 16 2 15 3 14 4 13 5 12 6 10 7 11 8 9 9 6 10 7 11 82 12
REMARK SMILES IDX 8 13 81 14 5 15 4 16 3 17 1 18 2 19 83 21 84 22 85 23 86 25
REMARK SMILES IDX 87 26 92 27 88 28 90 29 89 30 91 31 18 32 19 33 20 34 21 35
REMARK SMILES IDX 22 36 23 37 24 38 25 39 26 40 27 41 28 42 80 43 29 44 79 45
REMARK SMILES IDX 30 46 31 47 32 48 73 49 33 50 78 51 72 52 74 53 34 54 77 55
REMARK SMILES IDX 71 56 70 57 35 59 61 60 44 61 60 62 45 63 48 64 59 65 75 66
REMARK SMILES IDX 46 67 47 68 58 70 76 71 49 72 36 73 37 74 42 75 38 76 39 77
REMARK SMILES IDX 41 78 43 79 40 80 62 81 63 82 68 83 64 84 65 85 67 86 69 87
REMARK SMILES IDX 66 88 50 89 51 90 56 91 52 92 53 93 55 94 57 95 54 96
REMARK H PARENT 3 20 85 24 74 58 48 69
REMARK Flexibility Score: inf
ROOT
ATOM      1  C   UNL A   1      32.370  35.888  31.095  1.00  0.00     0.188 C 
ENDROOT
BRANCH   1   2
ATOM      2  C   UNL A   1      33.240  34.808  30.423  1.00  0.00     0.188 C 
BRANCH   2   3
ATOM      3  O   UNL A   1      33.914  35.273  29.260  1.00  0.00    -0.376 OA
BRANCH   3   4
ATOM      4  C   UNL A   1      34.457  34.308  28.375  1.00  0.00     0.202 C 
BRANCH   4   5
ATOM      5  C   UNL A   1      34.738  32.913  28.955  1.00  0.00     0.261 C 
BRANCH   5   6
ATOM      6  O   UNL A   1      35.870  32.237  28.401  1.00  0.00    -0.460 OA
BRANCH   6   7
ATOM      7  C   UNL A   1      36.924  32.067  29.222  1.00  0.00     0.338 C 
ATOM      8  O   UNL A   1      37.087  32.569  30.321  1.00  0.00    -0.246 OA
BRANCH   7   9
ATOM      9  C   UNL A   1      37.784  31.001  28.671  1.00  0.00     0.060 A 
ATOM     10  C   UNL A   1      39.827  29.147  27.388  1.00  0.00    -0.005 A 
ATOM     11  C   UNL A   1      39.833  29.717  28.777  1.00  0.00     0.010 A 
ATOM     12  C   UNL A   1      38.355  29.264  27.087  1.00  0.00     0.010 A 
ATOM     13  C   UNL A   1      38.946  30.671  29.330  1.00  0.00     0.016 A 
ATOM     14  C   UNL A   1      37.415  30.181  27.633  1.00  0.00     0.016 A 
BRANCH  10  15
ATOM     15  C   UNL A   1      41.475  28.555  26.176  1.00  0.00     0.141 C 
ATOM     16  N   UNL A   1      41.816  27.463  25.417  1.00  0.00    -0.180 NA
BRANCH  16  17
ATOM     17  N   UNL A   1      43.144  27.215  25.348  1.00  0.00    -0.239 N 
ATOM     18  O   UNL A   1      44.594  25.505  25.297  1.00  0.00    -0.262 OA
ATOM     19  C   UNL A   1      43.676  26.058  25.909  1.00  0.00     0.329 C 
ATOM     20  H   UNL A   1      43.739  27.858  24.897  1.00  0.00     0.194 HD
BRANCH  19  21
ATOM     21  C   UNL A   1      43.266  25.465  27.290  1.00  0.00     0.315 C 
ATOM     22  O   UNL A   1      43.663  26.078  28.289  1.00  0.00    -0.263 OA
ATOM     23  N   UNL A   1      42.456  24.365  27.558  1.00  0.00    -0.318 N 
ATOM     24  H   UNL A   1      42.444  24.051  28.491  1.00  0.00     0.170 HD
BRANCH  23  25
ATOM     25  C   UNL A   1      41.657  23.655  26.661  1.00  0.00     0.042 A 
ATOM     26  C   UNL A   1      41.961  21.849  26.648  1.00  0.00     0.026 A 
ATOM     27  C   UNL A   1      40.004  24.330  26.292  1.00  0.00     0.041 A 
ATOM     28  C   UNL A   1      40.579  20.713  26.241  1.00  0.00     0.003 A 
ATOM     29  C   UNL A   1      38.597  23.172  26.092  1.00  0.00     0.020 A 
ATOM     30  C   UNL A   1      38.899  21.374  26.032  1.00  0.00     0.016 A 
ATOM     31  Br  UNL A   1      36.814  23.827  26.129  1.00  0.00    -0.051 Br
ENDBRANCH  23  25
ENDBRANCH  19  21
ENDBRANCH  16  17
ENDBRANCH  10  15
ENDBRANCH   7   9
ENDBRANCH   6   7
ENDBRANCH   5   6
ENDBRANCH   4   5
ENDBRANCH   3   4
ENDBRANCH   2   3
ENDBRANCH   1   2
BRANCH   1  32
ATOM     32  O   UNL A   1      32.869  37.212  31.056  1.00  0.00    -0.377 OA
BRANCH  32  33
ATOM     33  C   UNL A   1      33.608  37.704  32.175  1.00  0.00     0.188 C 
BRANCH  33  34
ATOM     34  C   UNL A   1      33.781  36.896  33.487  1.00  0.00     0.188 C 
BRANCH  34  35
ATOM     35  O   UNL A   1      35.003  36.183  33.606  1.00  0.00    -0.376 OA
BRANCH  35  36
ATOM     36  C   UNL A   1      34.922  34.767  33.634  1.00  0.00     0.202 C 
BRANCH  36  37
ATOM     37  C   UNL A   1      36.176  34.049  33.120  1.00  0.00     0.261 C 
BRANCH  37  38
ATOM     38  O   UNL A   1      36.311  32.684  33.544  1.00  0.00    -0.460 OA
BRANCH  38  39
ATOM     39  C   UNL A   1      37.107  32.448  34.609  1.00  0.00     0.338 C 
ATOM     40  O   UNL A   1      36.845  32.623  35.784  1.00  0.00    -0.246 OA
BRANCH  39  41
ATOM     41  C   UNL A   1      38.311  31.751  34.120  1.00  0.00     0.060 A 
ATOM     42  C   UNL A   1      39.563  32.114  34.632  1.00  0.00     0.016 A 
ATOM     43  C   UNL A   1      38.196  30.740  33.163  1.00  0.00     0.016 A 
ATOM     44  C   UNL A   1      40.716  31.493  34.151  1.00  0.00     0.010 A 
ATOM     45  C   UNL A   1      39.349  30.135  32.667  1.00  0.00     0.010 A 
ATOM     46  C   UNL A   1      40.615  30.538  33.130  1.00  0.00    -0.014 A 
BRANCH  46  47
ATOM     47  C   UNL A   1      41.826  30.137  32.380  1.00  0.00     0.031 A 
ATOM     48  C   UNL A   1      42.505  28.856  32.775  1.00  0.00     0.074 A 
ATOM     49  C   UNL A   1      42.308  30.879  31.368  1.00  0.00     0.049 A 
ATOM     50  N   UNL A   1      43.601  28.314  32.309  1.00  0.00    -0.248 NA
ATOM     51  C   UNL A   1      41.859  28.083  33.850  1.00  0.00     0.031 C 
ATOM     52  C   UNL A   1      41.714  32.114  30.865  1.00  0.00     0.029 A 
ATOM     53  N   UNL A   1      43.420  30.692  30.589  1.00  0.00    -0.354 N 
ATOM     54  C   UNL A   1      43.775  27.143  33.034  1.00  0.00     0.074 A 
ATOM     55  C   UNL A   1      42.697  27.071  33.996  1.00  0.00     0.031 C 
ATOM     56  C   UNL A   1      42.477  32.583  29.861  1.00  0.00     0.029 A 
ATOM     57  C   UNL A   1      43.626  31.697  29.675  1.00  0.00     0.049 A 
ATOM     58  H   UNL A   1      44.016  29.913  30.675  1.00  0.00     0.167 HD
ATOM     59  C   UNL A   1      44.743  26.204  32.907  1.00  0.00     0.037 A 
ATOM     60  C   UNL A   1      44.637  31.882  28.805  1.00  0.00     0.037 A 
ATOM     61  C   UNL A   1      45.822  26.287  31.960  1.00  0.00     0.049 A 
ATOM     62  C   UNL A   1      45.751  30.869  28.737  1.00  0.00     0.074 A 
ATOM     63  C   UNL A   1      46.852  25.388  31.746  1.00  0.00     0.029 A 
ATOM     64  N   UNL A   1      46.016  27.337  31.076  1.00  0.00    -0.354 N 
ATOM     65  N   UNL A   1      45.899  29.753  29.410  1.00  0.00    -0.248 NA
ATOM     66  C   UNL A   1      46.837  31.142  27.784  1.00  0.00     0.031 C 
ATOM     67  C   UNL A   1      47.699  25.921  30.767  1.00  0.00     0.029 A 
ATOM     68  C   UNL A   1      47.163  27.124  30.331  1.00  0.00     0.049 A 
ATOM     69  H   UNL A   1      45.426  28.122  30.992  1.00  0.00     0.167 HD
ATOM     70  C   UNL A   1      47.072  29.174  28.938  1.00  0.00     0.074 A 
ATOM     71  C   UNL A   1      47.593  30.061  27.918  1.00  0.00     0.031 C 
ATOM     72  C   UNL A   1      47.662  28.011  29.311  1.00  0.00     0.037 A 
BRANCH  59  73
ATOM     73  C   UNL A   1      44.686  25.033  33.842  1.00  0.00     0.057 A 
ATOM     74  C   UNL A   1      44.117  23.809  33.464  1.00  0.00     0.134 A 
ATOM     75  C   UNL A   1      45.201  25.132  35.141  1.00  0.00     0.134 A 
ATOM     76  F   UNL A   1      43.588  23.653  32.241  1.00  0.00    -0.206 F 
ATOM     77  C   UNL A   1      44.032  22.737  34.356  1.00  0.00     0.040 A 
ATOM     78  C   UNL A   1      45.148  24.058  36.030  1.00  0.00     0.040 A 
ATOM     79  F   UNL A   1      45.759  26.275  35.566  1.00  0.00    -0.206 F 
ATOM     80  C   UNL A   1      44.553  22.860  35.642  1.00  0.00     0.006 A 
ENDBRANCH  59  73
BRANCH  60  81
ATOM     81  C   UNL A   1      44.647  33.076  27.921  1.00  0.00     0.057 A 
ATOM     82  C   UNL A   1      45.133  34.308  28.375  1.00  0.00     0.134 A 
ATOM     83  C   UNL A   1      44.158  33.019  26.611  1.00  0.00     0.134 A 
ATOM     84  F   UNL A   1      45.594  34.431  29.629  1.00  0.00    -0.206 F 
ATOM     85  C   UNL A   1      45.120  35.444  27.563  1.00  0.00     0.040 A 
ATOM     86  C   UNL A   1      44.160  34.141  25.780  1.00  0.00     0.040 A 
ATOM     87  F   UNL A   1      43.676  31.869  26.117  1.00  0.00    -0.206 F 
ATOM     88  C   UNL A   1      44.636  35.359  26.259  1.00  0.00     0.006 A 
ENDBRANCH  60  81
BRANCH  72  89
ATOM     89  C   UNL A   1      48.909  27.602  28.579  1.00  0.00     0.057 A 
ATOM     90  C   UNL A   1      50.179  28.046  28.966  1.00  0.00     0.134 A 
ATOM     91  C   UNL A   1      48.837  26.711  27.499  1.00  0.00     0.134 A 
ATOM     92  F   UNL A   1      50.318  28.907  29.985  1.00  0.00    -0.206 F 
ATOM     93  C   UNL A   1      51.331  27.638  28.290  1.00  0.00     0.040 A 
ATOM     94  C   UNL A   1      49.982  26.275  26.834  1.00  0.00     0.040 A 
ATOM     95  F   UNL A   1      47.651  26.238  27.084  1.00  0.00    -0.206 F 
ATOM     96  C   UNL A   1      51.235  26.744  27.225  1.00  0.00     0.006 A 
ENDBRANCH  72  89
ENDBRANCH  46  47
ENDBRANCH  39  41
ENDBRANCH  38  39
ENDBRANCH  37  38
ENDBRANCH  36  37
ENDBRANCH  35  36
ENDBRANCH  34  35
ENDBRANCH  33  34
ENDBRANCH  32  33
ENDBRANCH   1  32
TORSDOF 24
ENDMDL
MODEL 3
REMARK VINA RESULT:      -8.4      1.592      2.301
REMARK SMILES O=C(N/N=C/c1ccc(C(=O)OCCOCCOCCOCCOC(=O)c2ccc(-c3c4nc(c(-c5c(F)cccc5F)c5ccc([nH]5)c(-c5c(F)cccc5F)c5nc(c(-c6c(F)cccc6F)c6ccc3[nH]6)C=C5)C=C4)cc2)cc1)C(=O)Nc1cccc(Br)c1
REMARK SMILES IDX 17 1 16 2 15 3 14 4 13 5 12 6 10 7 11 8 9 9 6 10 7 11 82 12
REMARK SMILES IDX 8 13 81 14 5 15 4 16 3 17 1 18 2 19 83 21 84 22 85 23 86 25
REMARK SMILES IDX 87 26 92 27 88 28 90 29 89 30 91 31 18 32 19 33 20 34 21 35
REMARK SMILES IDX 22 36 23 37 24 38 25 39 26 40 27 41 28 42 80 43 29 44 79 45
REMARK SMILES IDX 30 46 31 47 32 48 73 49 33 50 78 51 72 52 74 53 34 54 77 55
REMARK SMILES IDX 71 56 70 57 35 59 61 60 44 61 60 62 45 63 48 64 59 65 75 66
REMARK SMILES IDX 46 67 47 68 58 70 76 71 49 72 36 73 37 74 42 75 38 76 39 77
REMARK SMILES IDX 41 78 43 79 40 80 62 81 63 82 68 83 64 84 65 85 67 86 69 87
REMARK SMILES IDX 66 88 50 89 51 90 56 91 52 92 53 93 55 94 57 95 54 96
REMARK H PARENT 3 20 85 24 74 58 48 69
REMARK Flexibility Score: inf
ROOT
ATOM      1  C   UNL A   1      34.444  35.720  32.372  1.00  0.00     0.188 C 
ENDROOT
BRANCH   1   2
ATOM      2  C   UNL A   1      34.117  34.552  31.420  1.00  0.00     0.188 C 
BRANCH   2   3
ATOM      3  O   UNL A   1      34.561  34.773  30.087  1.00  0.00    -0.376 OA
BRANCH   3   4
ATOM      4  C   UNL A   1      33.651  34.512  29.032  1.00  0.00     0.202 C 
BRANCH   4   5
ATOM      5  C   UNL A   1      33.894  33.242  28.203  1.00  0.00     0.261 C 
BRANCH   5   6
ATOM      6  O   UNL A   1      34.440  32.135  28.925  1.00  0.00    -0.460 OA
BRANCH   6   7
ATOM      7  C   UNL A   1      34.924  31.119  28.185  1.00  0.00     0.338 C 
ATOM      8  O   UNL A   1      34.502  30.729  27.110  1.00  0.00    -0.246 OA
BRANCH   7   9
ATOM      9  C   UNL A   1      36.193  30.661  28.782  1.00  0.00     0.060 A 
ATOM     10  C   UNL A   1      38.969  29.701  29.580  1.00  0.00    -0.005 A 
ATOM     11  C   UNL A   1      38.495  31.112  29.378  1.00  0.00     0.010 A 
ATOM     12  C   UNL A   1      37.641  29.038  29.843  1.00  0.00     0.010 A 
ATOM     13  C   UNL A   1      37.239  31.548  28.893  1.00  0.00     0.016 A 
ATOM     14  C   UNL A   1      36.351  29.448  29.406  1.00  0.00     0.016 A 
BRANCH  10  15
ATOM     15  C   UNL A   1      40.927  28.899  29.346  1.00  0.00     0.141 C 
ATOM     16  N   UNL A   1      41.842  28.775  28.330  1.00  0.00    -0.180 NA
BRANCH  16  17
ATOM     17  N   UNL A   1      42.642  27.689  28.418  1.00  0.00    -0.239 N 
ATOM     18  O   UNL A   1      44.089  26.489  27.194  1.00  0.00    -0.262 OA
ATOM     19  C   UNL A   1      42.943  26.941  27.284  1.00  0.00     0.329 C 
ATOM     20  H   UNL A   1      43.014  27.425  29.291  1.00  0.00     0.194 HD
BRANCH  19  21
ATOM     21  C   UNL A   1      41.923  26.552  26.173  1.00  0.00     0.315 C 
ATOM     22  O   UNL A   1      41.623  27.444  25.368  1.00  0.00    -0.263 OA
ATOM     23  N   UNL A   1      41.344  25.311  25.919  1.00  0.00    -0.318 N 
ATOM     24  H   UNL A   1      40.602  25.302  25.272  1.00  0.00     0.170 HD
BRANCH  23  25
ATOM     25  C   UNL A   1      41.692  24.079  26.473  1.00  0.00     0.042 A 
ATOM     26  C   UNL A   1      40.266  22.993  26.850  1.00  0.00     0.026 A 
ATOM     27  C   UNL A   1      43.308  23.376  26.008  1.00  0.00     0.041 A 
ATOM     28  C   UNL A   1      40.482  21.173  26.772  1.00  0.00     0.003 A 
ATOM     29  C   UNL A   1      43.444  21.567  25.737  1.00  0.00     0.020 A 
ATOM     30  C   UNL A   1      42.043  20.476  26.154  1.00  0.00     0.016 A 
ATOM     31  Br  UNL A   1      44.967  20.849  24.856  1.00  0.00    -0.051 Br
ENDBRANCH  23  25
ENDBRANCH  19  21
ENDBRANCH  16  17
ENDBRANCH  10  15
ENDBRANCH   7   9
ENDBRANCH   6   7
ENDBRANCH   5   6
ENDBRANCH   4   5
ENDBRANCH   3   4
ENDBRANCH   2   3
ENDBRANCH   1   2
BRANCH   1  32
ATOM     32  O   UNL A   1      35.073  35.379  33.594  1.00  0.00    -0.377 OA
BRANCH  32  33
ATOM     33  C   UNL A   1      35.287  34.000  33.897  1.00  0.00     0.188 C 
BRANCH  33  34
ATOM     34  C   UNL A   1      36.637  33.458  34.436  1.00  0.00     0.188 C 
BRANCH  34  35
ATOM     35  O   UNL A   1      37.683  34.413  34.524  1.00  0.00    -0.376 OA
BRANCH  35  36
ATOM     36  C   UNL A   1      38.379  34.494  35.759  1.00  0.00     0.202 C 
BRANCH  36  37
ATOM     37  C   UNL A   1      37.992  33.416  36.778  1.00  0.00     0.261 C 
BRANCH  37  38
ATOM     38  O   UNL A   1      38.984  32.401  36.997  1.00  0.00    -0.460 OA
BRANCH  38  39
ATOM     39  C   UNL A   1      38.779  31.205  36.404  1.00  0.00     0.338 C 
ATOM     40  O   UNL A   1      37.897  30.401  36.640  1.00  0.00    -0.246 OA
BRANCH  39  41
ATOM     41  C   UNL A   1      39.712  31.107  35.266  1.00  0.00     0.060 A 
ATOM     42  C   UNL A   1      39.241  30.620  34.039  1.00  0.00     0.016 A 
ATOM     43  C   UNL A   1      41.043  31.503  35.413  1.00  0.00     0.016 A 
ATOM     44  C   UNL A   1      40.119  30.483  32.964  1.00  0.00     0.010 A 
ATOM     45  C   UNL A   1      41.924  31.346  34.345  1.00  0.00     0.010 A 
ATOM     46  C   UNL A   1      41.474  30.798  33.131  1.00  0.00    -0.014 A 
BRANCH  46  47
ATOM     47  C   UNL A   1      42.461  30.334  32.130  1.00  0.00     0.031 A 
ATOM     48  C   UNL A   1      43.048  28.962  32.306  1.00  0.00     0.074 A 
ATOM     49  C   UNL A   1      42.822  31.100  31.086  1.00  0.00     0.049 A 
ATOM     50  N   UNL A   1      43.961  28.348  31.598  1.00  0.00    -0.248 NA
ATOM     51  C   UNL A   1      42.536  28.177  33.442  1.00  0.00     0.031 C 
ATOM     52  C   UNL A   1      42.291  32.427  30.785  1.00  0.00     0.029 A 
ATOM     53  N   UNL A   1      43.732  30.861  30.089  1.00  0.00    -0.354 N 
ATOM     54  C   UNL A   1      44.133  27.110  32.205  1.00  0.00     0.074 A 
ATOM     55  C   UNL A   1      43.261  27.074  33.358  1.00  0.00     0.031 C 
ATOM     56  C   UNL A   1      42.895  32.892  29.677  1.00  0.00     0.029 A 
ATOM     57  C   UNL A   1      43.873  31.908  29.212  1.00  0.00     0.049 A 
ATOM     58  H   UNL A   1      44.237  30.020  30.009  1.00  0.00     0.167 HD
ATOM     59  C   UNL A   1      44.940  26.090  31.831  1.00  0.00     0.037 A 
ATOM     60  C   UNL A   1      44.712  32.057  28.168  1.00  0.00     0.037 A 
ATOM     61  C   UNL A   1      45.818  26.134  30.693  1.00  0.00     0.049 A 
ATOM     62  C   UNL A   1      45.664  30.941  27.820  1.00  0.00     0.074 A 
ATOM     63  C   UNL A   1      46.673  25.154  30.224  1.00  0.00     0.029 A 
ATOM     64  N   UNL A   1      45.959  27.226  29.850  1.00  0.00    -0.354 N 
ATOM     65  N   UNL A   1      45.807  29.766  28.384  1.00  0.00    -0.248 NA
ATOM     66  C   UNL A   1      46.569  31.176  26.685  1.00  0.00     0.031 C 
ATOM     67  C   UNL A   1      47.372  25.672  29.128  1.00  0.00     0.029 A 
ATOM     68  C   UNL A   1      46.907  26.954  28.878  1.00  0.00     0.049 A 
ATOM     69  H   UNL A   1      45.461  28.072  29.931  1.00  0.00     0.167 HD
ATOM     70  C   UNL A   1      46.790  29.108  27.652  1.00  0.00     0.074 A 
ATOM     71  C   UNL A   1      47.204  30.014  26.601  1.00  0.00     0.031 C 
ATOM     72  C   UNL A   1      47.300  27.864  27.831  1.00  0.00     0.037 A 
BRANCH  59  73
ATOM     73  C   UNL A   1      44.928  24.859  32.690  1.00  0.00     0.057 A 
ATOM     74  C   UNL A   1      45.635  24.791  33.898  1.00  0.00     0.134 A 
ATOM     75  C   UNL A   1      44.205  23.725  32.300  1.00  0.00     0.134 A 
ATOM     76  F   UNL A   1      46.364  25.836  34.320  1.00  0.00    -0.206 F 
ATOM     77  C   UNL A   1      45.651  23.628  34.670  1.00  0.00     0.040 A 
ATOM     78  C   UNL A   1      44.190  22.567  33.078  1.00  0.00     0.040 A 
ATOM     79  F   UNL A   1      43.507  23.723  31.155  1.00  0.00    -0.206 F 
ATOM     80  C   UNL A   1      44.922  22.513  34.262  1.00  0.00     0.006 A 
ENDBRANCH  59  73
BRANCH  60  81
ATOM     81  C   UNL A   1      44.691  33.309  27.371  1.00  0.00     0.057 A 
ATOM     82  C   UNL A   1      44.071  33.359  26.117  1.00  0.00     0.134 A 
ATOM     83  C   UNL A   1      45.304  34.480  27.834  1.00  0.00     0.134 A 
ATOM     84  F   UNL A   1      43.487  32.264  25.609  1.00  0.00    -0.206 F 
ATOM     85  C   UNL A   1      44.073  34.523  25.346  1.00  0.00     0.040 A 
ATOM     86  C   UNL A   1      45.293  35.657  27.084  1.00  0.00     0.040 A 
ATOM     87  F   UNL A   1      45.917  34.498  29.027  1.00  0.00    -0.206 F 
ATOM     88  C   UNL A   1      44.681  35.678  25.833  1.00  0.00     0.006 A 
ENDBRANCH  60  81
BRANCH  72  89
ATOM     89  C   UNL A   1      48.324  27.387  26.841  1.00  0.00     0.057 A 
ATOM     90  C   UNL A   1      47.966  26.747  25.648  1.00  0.00     0.134 A 
ATOM     91  C   UNL A   1      49.689  27.614  27.066  1.00  0.00     0.134 A 
ATOM     92  F   UNL A   1      46.677  26.489  25.374  1.00  0.00    -0.206 F 
ATOM     93  C   UNL A   1      48.928  26.330  24.726  1.00  0.00     0.040 A 
ATOM     94  C   UNL A   1      50.657  27.228  26.141  1.00  0.00     0.040 A 
ATOM     95  F   UNL A   1      50.100  28.233  28.184  1.00  0.00    -0.206 F 
ATOM     96  C   UNL A   1      50.278  26.577  24.968  1.00  0.00     0.006 A 
ENDBRANCH  72  89
ENDBRANCH  46  47
ENDBRANCH  39  41
ENDBRANCH  38  39
ENDBRANCH  37  38
ENDBRANCH  36  37
ENDBRANCH  35  36
ENDBRANCH  34  35
ENDBRANCH  33  34
ENDBRANCH  32  33
ENDBRANCH   1  32
TORSDOF 24
ENDMDL
