MODEL 1
REMARK VINA RESULT:     -10.9      0.000      0.000
REMARK SMILES CCCCc1cc(S(F)(F)(F)(F)F)cc2c1O[C@@H](C(F)(F)F)C(C(=O)OCCOCCOCCOCCOC(=O)c1ccc(-c3c4nc(c(-c5c(F)cccc5F)c5ccc([nH]5)c(-c5c(F)cccc5F)c5nc(c(-c6c(F)cccc6F)c6ccc3[nH]6)C=C5)C=C4)cc1)=C2
REMARK SMILES IDX 31 1 30 2 29 3 28 4 27 5 26 6 24 7 25 8 23 9 5 10 6 11 16 12
REMARK SMILES IDX 7 13 15 14 17 15 14 16 95 17 18 18 4 19 3 20 2 21 1 22 8 23
REMARK SMILES IDX 9 24 10 25 11 26 12 27 13 28 19 29 20 30 21 31 22 32 32 33
REMARK SMILES IDX 33 34 34 35 35 36 36 37 37 38 38 39 39 40 40 41 41 42 42 43
REMARK SMILES IDX 94 44 43 45 93 46 44 47 45 48 46 49 87 50 47 51 92 52 86 53
REMARK SMILES IDX 88 54 48 55 91 56 85 57 84 58 49 60 75 61 58 62 74 63 59 64
REMARK SMILES IDX 62 65 73 66 89 67 60 68 61 69 72 71 90 72 63 73 50 74 51 75
REMARK SMILES IDX 56 76 52 77 53 78 55 79 57 80 54 81 76 82 77 83 82 84 78 85
REMARK SMILES IDX 79 86 81 87 83 88 80 89 64 90 65 91 70 92 66 93 67 94 69 95
REMARK SMILES IDX 71 96 68 97
REMARK H PARENT 88 59 62 70
REMARK Flexibility Score: inf
ROOT
ATOM      1  C   UNL A   1      33.716  21.145  26.370  1.00  0.00     0.188 C 
ENDROOT
BRANCH   1   2
ATOM      2  C   UNL A   1      33.217  19.892  25.669  1.00  0.00     0.188 C 
BRANCH   2   3
ATOM      3  O   UNL A   1      32.077  20.211  24.885  1.00  0.00    -0.376 OA
BRANCH   3   4
ATOM      4  C   UNL A   1      32.422  20.167  23.508  1.00  0.00     0.202 C 
BRANCH   4   5
ATOM      5  C   UNL A   1      31.790  21.348  22.789  1.00  0.00     0.261 C 
BRANCH   5   6
ATOM      6  O   UNL A   1      32.141  22.551  23.459  1.00  0.00    -0.460 OA
BRANCH   6   7
ATOM      7  C   UNL A   1      32.810  23.587  22.754  1.00  0.00     0.338 C 
ATOM      8  O   UNL A   1      33.617  23.299  21.816  1.00  0.00    -0.246 OA
BRANCH   7   9
ATOM      9  C   UNL A   1      32.558  25.041  23.121  1.00  0.00     0.087 C 
ATOM     10  C   UNL A   1      31.714  28.860  24.586  1.00  0.00    -0.004 A 
ATOM     11  C   UNL A   1      30.673  29.593  24.043  1.00  0.00     0.032 A 
ATOM     12  C   UNL A   1      31.936  27.586  24.121  1.00  0.00     0.131 A 
ATOM     13  C   UNL A   1      29.873  29.062  23.066  1.00  0.00     0.108 A 
ATOM     14  C   UNL A   1      31.160  27.025  23.123  1.00  0.00     0.019 A 
ATOM     15  O   UNL A   1      32.898  26.832  24.747  1.00  0.00    -0.475 OA
ATOM     16  C   UNL A   1      30.120  27.787  22.603  1.00  0.00     0.036 A 
ATOM     17  C   UNL A   1      31.450  25.657  22.729  1.00  0.00     0.027 C 
ATOM     18  C   UNL A   1      33.573  25.822  23.946  1.00  0.00     0.316 C 
BRANCH  10  19
ATOM     19  C   UNL A   1      32.594  29.453  25.672  1.00  0.00     0.039 C 
BRANCH  19  20
ATOM     20  C   UNL A   1      31.771  30.403  26.528  1.00  0.00     0.005 C 
BRANCH  20  21
ATOM     21  C   UNL A   1      32.699  31.368  27.248  1.00  0.00    -0.003 C 
ATOM     22  C   UNL A   1      34.097  30.774  27.314  1.00  0.00     0.004 C 
ENDBRANCH  20  21
ENDBRANCH  19  20
ENDBRANCH  10  19
BRANCH  13  23
ATOM     23  S   UNL A   1      28.501  30.028  22.386  1.00  0.00     0.310 S 
ATOM     24  F   UNL A   1      28.167  30.667  23.799  1.00  0.00    -0.094 F 
ATOM     25  F   UNL A   1      27.519  28.855  22.762  1.00  0.00    -0.094 F 
ATOM     26  F   UNL A   1      27.325  30.861  21.801  1.00  0.00    -0.094 F 
ATOM     27  F   UNL A   1      29.475  31.249  22.145  1.00  0.00    -0.094 F 
ATOM     28  F   UNL A   1      29.683  29.240  23.080  1.00  0.00    -0.094 F 
ENDBRANCH  13  23
BRANCH  18  29
ATOM     29  C   UNL A   1      34.304  24.863  24.870  1.00  0.00     0.430 C 
ATOM     30  F   UNL A   1      33.420  24.103  25.512  1.00  0.00    -0.167 F 
ATOM     31  F   UNL A   1      35.116  24.090  24.156  1.00  0.00    -0.167 F 
ATOM     32  F   UNL A   1      35.016  25.556  25.755  1.00  0.00    -0.167 F 
ENDBRANCH  18  29
ENDBRANCH   7   9
ENDBRANCH   6   7
ENDBRANCH   5   6
ENDBRANCH   4   5
ENDBRANCH   3   4
ENDBRANCH   2   3
ENDBRANCH   1   2
BRANCH   1  33
ATOM     33  O   UNL A   1      35.123  21.249  26.210  1.00  0.00    -0.377 OA
BRANCH  33  34
ATOM     34  C   UNL A   1      35.491  20.753  24.931  1.00  0.00     0.188 C 
BRANCH  34  35
ATOM     35  C   UNL A   1      36.882  20.147  25.005  1.00  0.00     0.188 C 
BRANCH  35  36
ATOM     36  O   UNL A   1      37.852  21.158  24.774  1.00  0.00    -0.376 OA
BRANCH  36  37
ATOM     37  C   UNL A   1      38.915  21.014  25.704  1.00  0.00     0.202 C 
BRANCH  37  38
ATOM     38  C   UNL A   1      39.113  19.541  26.022  1.00  0.00     0.261 C 
BRANCH  38  39
ATOM     39  O   UNL A   1      40.286  19.070  25.376  1.00  0.00    -0.460 OA
BRANCH  39  40
ATOM     40  C   UNL A   1      41.553  19.229  26.000  1.00  0.00     0.338 C 
ATOM     41  O   UNL A   1      42.279  18.212  26.232  1.00  0.00    -0.246 OA
BRANCH  40  42
ATOM     42  C   UNL A   1      42.039  20.615  26.390  1.00  0.00     0.060 A 
ATOM     43  C   UNL A   1      42.145  20.944  27.732  1.00  0.00     0.016 A 
ATOM     44  C   UNL A   1      42.354  21.487  25.440  1.00  0.00     0.016 A 
ATOM     45  C   UNL A   1      42.319  22.327  27.971  1.00  0.00     0.010 A 
ATOM     46  C   UNL A   1      42.645  22.792  25.758  1.00  0.00     0.010 A 
ATOM     47  C   UNL A   1      42.709  23.202  27.061  1.00  0.00    -0.014 A 
BRANCH  47  48
ATOM     48  C   UNL A   1      43.202  24.587  27.442  1.00  0.00     0.031 A 
ATOM     49  C   UNL A   1      44.574  24.839  27.378  1.00  0.00     0.074 A 
ATOM     50  C   UNL A   1      42.260  25.527  27.829  1.00  0.00     0.049 A 
ATOM     51  N   UNL A   1      45.203  25.986  27.633  1.00  0.00    -0.248 NA
ATOM     52  C   UNL A   1      45.578  23.833  27.000  1.00  0.00     0.031 C 
ATOM     53  C   UNL A   1      40.874  25.284  27.888  1.00  0.00     0.029 A 
ATOM     54  N   UNL A   1      42.477  26.829  28.220  1.00  0.00    -0.354 N 
ATOM     55  C   UNL A   1      46.517  25.842  27.445  1.00  0.00     0.074 A 
ATOM     56  C   UNL A   1      46.777  24.454  27.042  1.00  0.00     0.031 C 
ATOM     57  C   UNL A   1      40.265  26.420  28.318  1.00  0.00     0.029 A 
ATOM     58  C   UNL A   1      41.261  27.392  28.535  1.00  0.00     0.049 A 
ATOM     59  H   UNL A   1      43.351  27.281  28.265  1.00  0.00     0.167 HD
ATOM     60  C   UNL A   1      47.507  26.815  27.593  1.00  0.00     0.037 A 
ATOM     61  C   UNL A   1      41.012  28.678  28.989  1.00  0.00     0.037 A 
ATOM     62  C   UNL A   1      47.254  28.114  28.006  1.00  0.00     0.049 A 
ATOM     63  C   UNL A   1      42.010  29.634  29.193  1.00  0.00     0.074 A 
ATOM     64  C   UNL A   1      48.239  29.108  28.153  1.00  0.00     0.029 A 
ATOM     65  N   UNL A   1      46.040  28.669  28.345  1.00  0.00    -0.354 N 
ATOM     66  N   UNL A   1      43.318  29.502  28.968  1.00  0.00    -0.248 NA
ATOM     67  C   UNL A   1      41.762  30.989  29.704  1.00  0.00     0.031 C 
ATOM     68  C   UNL A   1      47.630  30.246  28.583  1.00  0.00     0.029 A 
ATOM     69  C   UNL A   1      46.253  29.979  28.714  1.00  0.00     0.049 A 
ATOM     70  H   UNL A   1      45.169  28.209  28.327  1.00  0.00     0.167 HD
ATOM     71  C   UNL A   1      43.952  30.638  29.262  1.00  0.00     0.074 A 
ATOM     72  C   UNL A   1      42.961  31.609  29.748  1.00  0.00     0.031 C 
ATOM     73  C   UNL A   1      45.317  30.906  29.143  1.00  0.00     0.037 A 
BRANCH  60  74
ATOM     74  C   UNL A   1      48.944  26.428  27.284  1.00  0.00     0.057 A 
ATOM     75  C   UNL A   1      49.751  25.883  28.268  1.00  0.00     0.134 A 
ATOM     76  C   UNL A   1      49.367  26.541  26.030  1.00  0.00     0.134 A 
ATOM     77  F   UNL A   1      49.294  25.519  29.463  1.00  0.00    -0.206 F 
ATOM     78  C   UNL A   1      51.108  25.749  27.888  1.00  0.00     0.040 A 
ATOM     79  C   UNL A   1      50.672  26.262  25.704  1.00  0.00     0.040 A 
ATOM     80  F   UNL A   1      48.519  26.926  25.081  1.00  0.00    -0.206 F 
ATOM     81  C   UNL A   1      51.542  25.776  26.641  1.00  0.00     0.006 A 
ENDBRANCH  60  74
BRANCH  61  82
ATOM     82  C   UNL A   1      39.573  29.069  29.282  1.00  0.00     0.057 A 
ATOM     83  C   UNL A   1      39.068  28.927  30.563  1.00  0.00     0.134 A 
ATOM     84  C   UNL A   1      38.798  29.459  28.276  1.00  0.00     0.134 A 
ATOM     85  F   UNL A   1      39.843  28.789  31.636  1.00  0.00    -0.206 F 
ATOM     86  C   UNL A   1      37.655  28.941  30.628  1.00  0.00     0.040 A 
ATOM     87  C   UNL A   1      37.439  29.582  28.446  1.00  0.00     0.040 A 
ATOM     88  F   UNL A   1      39.341  29.731  27.093  1.00  0.00    -0.206 F 
ATOM     89  C   UNL A   1      36.865  29.397  29.674  1.00  0.00     0.006 A 
ENDBRANCH  61  82
BRANCH  73  90
ATOM     90  C   UNL A   1      45.805  32.299  29.505  1.00  0.00     0.057 A 
ATOM     91  C   UNL A   1      46.225  32.555  30.800  1.00  0.00     0.134 A 
ATOM     92  C   UNL A   1      45.821  33.247  28.576  1.00  0.00     0.134 A 
ATOM     93  F   UNL A   1      46.466  31.595  31.688  1.00  0.00    -0.206 F 
ATOM     94  C   UNL A   1      46.373  33.931  31.093  1.00  0.00     0.040 A 
ATOM     95  C   UNL A   1      46.107  34.549  28.909  1.00  0.00     0.040 A 
ATOM     96  F   UNL A   1      45.556  32.934  27.311  1.00  0.00    -0.206 F 
ATOM     97  C   UNL A   1      46.472  34.884  30.184  1.00  0.00     0.006 A 
ENDBRANCH  73  90
ENDBRANCH  47  48
ENDBRANCH  40  42
ENDBRANCH  39  40
ENDBRANCH  38  39
ENDBRANCH  37  38
ENDBRANCH  36  37
ENDBRANCH  35  36
ENDBRANCH  34  35
ENDBRANCH  33  34
ENDBRANCH   1  33
TORSDOF 25
ENDMDL
MODEL 2
REMARK VINA RESULT:     -10.7      1.275      5.801
REMARK SMILES CCCCc1cc(S(F)(F)(F)(F)F)cc2c1O[C@@H](C(F)(F)F)C(C(=O)OCCOCCOCCOCCOC(=O)c1ccc(-c3c4nc(c(-c5c(F)cccc5F)c5ccc([nH]5)c(-c5c(F)cccc5F)c5nc(c(-c6c(F)cccc6F)c6ccc3[nH]6)C=C5)C=C4)cc1)=C2
REMARK SMILES IDX 31 1 30 2 29 3 28 4 27 5 26 6 24 7 25 8 23 9 5 10 6 11 16 12
REMARK SMILES IDX 7 13 15 14 17 15 14 16 95 17 18 18 4 19 3 20 2 21 1 22 8 23
REMARK SMILES IDX 9 24 10 25 11 26 12 27 13 28 19 29 20 30 21 31 22 32 32 33
REMARK SMILES IDX 33 34 34 35 35 36 36 37 37 38 38 39 39 40 40 41 41 42 42 43
REMARK SMILES IDX 94 44 43 45 93 46 44 47 45 48 46 49 87 50 47 51 92 52 86 53
REMARK SMILES IDX 88 54 48 55 91 56 85 57 84 58 49 60 75 61 58 62 74 63 59 64
REMARK SMILES IDX 62 65 73 66 89 67 60 68 61 69 72 71 90 72 63 73 50 74 51 75
REMARK SMILES IDX 56 76 52 77 53 78 55 79 57 80 54 81 76 82 77 83 82 84 78 85
REMARK SMILES IDX 79 86 81 87 83 88 80 89 64 90 65 91 70 92 66 93 67 94 69 95
REMARK SMILES IDX 71 96 68 97
REMARK H PARENT 88 59 62 70
REMARK Flexibility Score: inf
ROOT
ATOM      1  C   UNL A   1      33.572  20.957  26.082  1.00  0.00     0.188 C 
ENDROOT
BRANCH   1   2
ATOM      2  C   UNL A   1      33.117  19.707  25.346  1.00  0.00     0.188 C 
BRANCH   2   3
ATOM      3  O   UNL A   1      32.004  20.023  24.522  1.00  0.00    -0.376 OA
BRANCH   3   4
ATOM      4  C   UNL A   1      32.446  20.228  23.188  1.00  0.00     0.202 C 
BRANCH   4   5
ATOM      5  C   UNL A   1      31.715  21.418  22.589  1.00  0.00     0.261 C 
BRANCH   5   6
ATOM      6  O   UNL A   1      32.068  22.596  23.301  1.00  0.00    -0.460 OA
BRANCH   6   7
ATOM      7  C   UNL A   1      32.740  23.655  22.633  1.00  0.00     0.338 C 
ATOM      8  O   UNL A   1      33.507  23.401  21.651  1.00  0.00    -0.246 OA
BRANCH   7   9
ATOM      9  C   UNL A   1      32.540  25.090  23.090  1.00  0.00     0.087 C 
ATOM     10  C   UNL A   1      31.802  28.837  24.781  1.00  0.00    -0.004 A 
ATOM     11  C   UNL A   1      30.834  29.662  24.236  1.00  0.00     0.032 A 
ATOM     12  C   UNL A   1      31.987  27.589  24.237  1.00  0.00     0.131 A 
ATOM     13  C   UNL A   1      30.068  29.246  23.179  1.00  0.00     0.108 A 
ATOM     14  C   UNL A   1      31.246  27.142  23.159  1.00  0.00     0.019 A 
ATOM     15  O   UNL A   1      32.871  26.741  24.859  1.00  0.00    -0.475 OA
ATOM     16  C   UNL A   1      30.278  27.994  22.638  1.00  0.00     0.036 A 
ATOM     17  C   UNL A   1      31.490  25.792  22.683  1.00  0.00     0.027 C 
ATOM     18  C   UNL A   1      33.542  25.755  24.026  1.00  0.00     0.316 C 
BRANCH  10  19
ATOM     19  C   UNL A   1      32.644  29.304  25.956  1.00  0.00     0.039 C 
BRANCH  19  20
ATOM     20  C   UNL A   1      32.055  30.585  26.525  1.00  0.00     0.005 C 
BRANCH  20  21
ATOM     21  C   UNL A   1      33.139  31.360  27.256  1.00  0.00    -0.003 C 
ATOM     22  C   UNL A   1      32.650  32.771  27.538  1.00  0.00     0.004 C 
ENDBRANCH  20  21
ENDBRANCH  19  20
ENDBRANCH  10  19
BRANCH  13  23
ATOM     23  S   UNL A   1      28.790  30.331  22.495  1.00  0.00     0.310 S 
ATOM     24  F   UNL A   1      28.032  29.114  21.816  1.00  0.00    -0.094 F 
ATOM     25  F   UNL A   1      29.635  30.453  21.171  1.00  0.00    -0.094 F 
ATOM     26  F   UNL A   1      27.690  31.263  21.912  1.00  0.00    -0.094 F 
ATOM     27  F   UNL A   1      27.893  30.084  23.771  1.00  0.00    -0.094 F 
ATOM     28  F   UNL A   1      29.845  29.294  23.054  1.00  0.00    -0.094 F 
ENDBRANCH  13  23
BRANCH  18  29
ATOM     29  C   UNL A   1      34.167  24.695  24.917  1.00  0.00     0.430 C 
ATOM     30  F   UNL A   1      34.974  25.277  25.800  1.00  0.00    -0.167 F 
ATOM     31  F   UNL A   1      33.209  24.035  25.561  1.00  0.00    -0.167 F 
ATOM     32  F   UNL A   1      34.867  23.844  24.171  1.00  0.00    -0.167 F 
ENDBRANCH  18  29
ENDBRANCH   7   9
ENDBRANCH   6   7
ENDBRANCH   5   6
ENDBRANCH   4   5
ENDBRANCH   3   4
ENDBRANCH   2   3
ENDBRANCH   1   2
BRANCH   1  33
ATOM     33  O   UNL A   1      34.982  21.085  25.969  1.00  0.00    -0.377 OA
BRANCH  33  34
ATOM     34  C   UNL A   1      35.425  20.413  24.799  1.00  0.00     0.188 C 
BRANCH  34  35
ATOM     35  C   UNL A   1      36.870  19.978  24.982  1.00  0.00     0.188 C 
BRANCH  35  36
ATOM     36  O   UNL A   1      37.733  21.069  24.697  1.00  0.00    -0.376 OA
BRANCH  36  37
ATOM     37  C   UNL A   1      38.841  21.039  25.584  1.00  0.00     0.202 C 
BRANCH  37  38
ATOM     38  C   UNL A   1      39.232  19.596  25.857  1.00  0.00     0.261 C 
BRANCH  38  39
ATOM     39  O   UNL A   1      40.531  19.351  25.339  1.00  0.00    -0.460 OA
BRANCH  39  40
ATOM     40  C   UNL A   1      41.675  19.590  26.146  1.00  0.00     0.338 C 
ATOM     41  O   UNL A   1      42.465  18.637  26.427  1.00  0.00    -0.246 OA
BRANCH  40  42
ATOM     42  C   UNL A   1      41.952  20.988  26.675  1.00  0.00     0.060 A 
ATOM     43  C   UNL A   1      42.375  21.973  25.797  1.00  0.00     0.016 A 
ATOM     44  C   UNL A   1      41.785  21.242  27.967  1.00  0.00     0.016 A 
ATOM     45  C   UNL A   1      42.879  23.131  26.435  1.00  0.00     0.010 A 
ATOM     46  C   UNL A   1      42.177  22.448  28.499  1.00  0.00     0.010 A 
ATOM     47  C   UNL A   1      42.659  23.446  27.699  1.00  0.00    -0.014 A 
BRANCH  47  48
ATOM     48  C   UNL A   1      42.929  24.842  28.235  1.00  0.00     0.031 A 
ATOM     49  C   UNL A   1      41.856  25.731  28.325  1.00  0.00     0.074 A 
ATOM     50  C   UNL A   1      44.226  25.154  28.608  1.00  0.00     0.049 A 
ATOM     51  N   UNL A   1      41.870  26.978  28.797  1.00  0.00    -0.248 NA
ATOM     52  C   UNL A   1      40.485  25.412  27.898  1.00  0.00     0.031 C 
ATOM     53  C   UNL A   1      45.312  24.261  28.528  1.00  0.00     0.029 A 
ATOM     54  N   UNL A   1      44.697  26.347  29.107  1.00  0.00    -0.354 N 
ATOM     55  C   UNL A   1      40.646  27.506  28.739  1.00  0.00     0.074 A 
ATOM     56  C   UNL A   1      39.739  26.510  28.154  1.00  0.00     0.031 C 
ATOM     57  C   UNL A   1      46.424  24.910  28.963  1.00  0.00     0.029 A 
ATOM     58  C   UNL A   1      46.051  26.219  29.322  1.00  0.00     0.049 A 
ATOM     59  H   UNL A   1      44.159  27.154  29.282  1.00  0.00     0.167 HD
ATOM     60  C   UNL A   1      40.250  28.779  29.152  1.00  0.00     0.037 A 
ATOM     61  C   UNL A   1      46.930  27.178  29.802  1.00  0.00     0.037 A 
ATOM     62  C   UNL A   1      41.121  29.724  29.672  1.00  0.00     0.049 A 
ATOM     63  C   UNL A   1      46.544  28.472  30.161  1.00  0.00     0.074 A 
ATOM     64  C   UNL A   1      40.737  31.009  30.100  1.00  0.00     0.029 A 
ATOM     65  N   UNL A   1      42.479  29.604  29.863  1.00  0.00    -0.354 N 
ATOM     66  N   UNL A   1      45.314  28.986  30.140  1.00  0.00    -0.248 NA
ATOM     67  C   UNL A   1      47.471  29.506  30.640  1.00  0.00     0.031 C 
ATOM     68  C   UNL A   1      41.850  31.658  30.536  1.00  0.00     0.029 A 
ATOM     69  C   UNL A   1      42.948  30.789  30.385  1.00  0.00     0.049 A 
ATOM     70  H   UNL A   1      43.023  28.807  29.662  1.00  0.00     0.167 HD
ATOM     71  C   UNL A   1      45.336  30.248  30.573  1.00  0.00     0.074 A 
ATOM     72  C   UNL A   1      46.725  30.603  30.894  1.00  0.00     0.031 C 
ATOM     73  C   UNL A   1      44.252  31.117  30.717  1.00  0.00     0.037 A 
BRANCH  60  74
ATOM     74  C   UNL A   1      38.781  29.151  29.024  1.00  0.00     0.057 A 
ATOM     75  C   UNL A   1      38.279  29.623  27.823  1.00  0.00     0.134 A 
ATOM     76  C   UNL A   1      37.985  28.921  30.062  1.00  0.00     0.134 A 
ATOM     77  F   UNL A   1      38.982  29.629  26.694  1.00  0.00    -0.206 F 
ATOM     78  C   UNL A   1      36.950  30.102  27.907  1.00  0.00     0.040 A 
ATOM     79  C   UNL A   1      36.662  29.291  30.024  1.00  0.00     0.040 A 
ATOM     80  F   UNL A   1      38.471  28.326  31.147  1.00  0.00    -0.206 F 
ATOM     81  C   UNL A   1      36.113  29.820  28.889  1.00  0.00     0.006 A 
ENDBRANCH  60  74
BRANCH  61  82
ATOM     82  C   UNL A   1      48.395  26.801  29.945  1.00  0.00     0.057 A 
ATOM     83  C   UNL A   1      49.268  27.021  28.894  1.00  0.00     0.134 A 
ATOM     84  C   UNL A   1      48.791  26.181  31.052  1.00  0.00     0.134 A 
ATOM     85  F   UNL A   1      48.996  27.846  27.887  1.00  0.00    -0.206 F 
ATOM     86  C   UNL A   1      50.475  26.289  28.987  1.00  0.00     0.040 A 
ATOM     87  C   UNL A   1      50.037  25.604  31.123  1.00  0.00     0.040 A 
ATOM     88  F   UNL A   1      47.976  26.118  32.100  1.00  0.00    -0.206 F 
ATOM     89  C   UNL A   1      50.930  25.732  30.094  1.00  0.00     0.006 A 
ENDBRANCH  61  82
BRANCH  73  90
ATOM     90  C   UNL A   1      44.521  32.506  31.272  1.00  0.00     0.057 A 
ATOM     91  C   UNL A   1      44.501  32.705  32.643  1.00  0.00     0.134 A 
ATOM     92  C   UNL A   1      44.767  33.507  30.435  1.00  0.00     0.134 A 
ATOM     93  F   UNL A   1      44.512  31.706  33.520  1.00  0.00    -0.206 F 
ATOM     94  C   UNL A   1      44.469  34.067  33.025  1.00  0.00     0.040 A 
ATOM     95  C   UNL A   1      44.857  34.798  30.895  1.00  0.00     0.040 A 
ATOM     96  F   UNL A   1      44.927  33.257  29.139  1.00  0.00    -0.206 F 
ATOM     97  C   UNL A   1      44.788  35.074  32.232  1.00  0.00     0.006 A 
ENDBRANCH  73  90
ENDBRANCH  47  48
ENDBRANCH  40  42
ENDBRANCH  39  40
ENDBRANCH  38  39
ENDBRANCH  37  38
ENDBRANCH  36  37
ENDBRANCH  35  36
ENDBRANCH  34  35
ENDBRANCH  33  34
ENDBRANCH   1  33
TORSDOF 25
ENDMDL
MODEL 3
REMARK VINA RESULT:     -10.5      1.260      5.872
REMARK SMILES CCCCc1cc(S(F)(F)(F)(F)F)cc2c1O[C@@H](C(F)(F)F)C(C(=O)OCCOCCOCCOCCOC(=O)c1ccc(-c3c4nc(c(-c5c(F)cccc5F)c5ccc([nH]5)c(-c5c(F)cccc5F)c5nc(c(-c6c(F)cccc6F)c6ccc3[nH]6)C=C5)C=C4)cc1)=C2
REMARK SMILES IDX 31 1 30 2 29 3 28 4 27 5 26 6 24 7 25 8 23 9 5 10 6 11 16 12
REMARK SMILES IDX 7 13 15 14 17 15 14 16 95 17 18 18 4 19 3 20 2 21 1 22 8 23
REMARK SMILES IDX 9 24 10 25 11 26 12 27 13 28 19 29 20 30 21 31 22 32 32 33
REMARK SMILES IDX 33 34 34 35 35 36 36 37 37 38 38 39 39 40 40 41 41 42 42 43
REMARK SMILES IDX 94 44 43 45 93 46 44 47 45 48 46 49 87 50 47 51 92 52 86 53
REMARK SMILES IDX 88 54 48 55 91 56 85 57 84 58 49 60 75 61 58 62 74 63 59 64
REMARK SMILES IDX 62 65 73 66 89 67 60 68 61 69 72 71 90 72 63 73 50 74 51 75
REMARK SMILES IDX 56 76 52 77 53 78 55 79 57 80 54 81 76 82 77 83 82 84 78 85
REMARK SMILES IDX 79 86 81 87 83 88 80 89 64 90 65 91 70 92 66 93 67 94 69 95
REMARK SMILES IDX 71 96 68 97
REMARK H PARENT 88 59 62 70
REMARK Flexibility Score: inf
ROOT
ATOM      1  C   UNL A   1      35.490  22.589  23.404  1.00  0.00     0.188 C 
ENDROOT
BRANCH   1   2
ATOM      2  C   UNL A   1      34.900  23.848  22.789  1.00  0.00     0.188 C 
BRANCH   2   3
ATOM      3  O   UNL A   1      33.572  23.588  22.361  1.00  0.00    -0.376 OA
BRANCH   3   4
ATOM      4  C   UNL A   1      33.183  22.289  22.787  1.00  0.00     0.202 C 
BRANCH   4   5
ATOM      5  C   UNL A   1      31.690  22.276  23.072  1.00  0.00     0.261 C 
BRANCH   5   6
ATOM      6  O   UNL A   1      31.476  22.085  24.463  1.00  0.00    -0.460 OA
BRANCH   6   7
ATOM      7  C   UNL A   1      30.840  23.098  25.229  1.00  0.00     0.338 C 
ATOM      8  O   UNL A   1      30.080  22.780  26.197  1.00  0.00    -0.246 OA
BRANCH   7   9
ATOM      9  C   UNL A   1      31.069  24.562  24.892  1.00  0.00     0.087 C 
ATOM     10  C   UNL A   1      31.636  28.679  24.468  1.00  0.00    -0.004 A 
ATOM     11  C   UNL A   1      30.704  29.437  23.780  1.00  0.00     0.032 A 
ATOM     12  C   UNL A   1      31.397  27.336  24.638  1.00  0.00     0.131 A 
ATOM     13  C   UNL A   1      29.563  28.866  23.281  1.00  0.00     0.108 A 
ATOM     14  C   UNL A   1      30.266  26.723  24.132  1.00  0.00     0.019 A 
ATOM     15  O   UNL A   1      32.273  26.621  25.418  1.00  0.00    -0.475 OA
ATOM     16  C   UNL A   1      29.348  27.515  23.450  1.00  0.00     0.036 A 
ATOM     17  C   UNL A   1      30.086  25.307  24.400  1.00  0.00     0.027 C 
ATOM     18  C   UNL A   1      32.431  25.207  25.113  1.00  0.00     0.316 C 
BRANCH  10  19
ATOM     19  C   UNL A   1      32.897  29.318  25.023  1.00  0.00     0.039 C 
BRANCH  19  20
ATOM     20  C   UNL A   1      32.532  30.243  26.173  1.00  0.00     0.005 C 
BRANCH  20  21
ATOM     21  C   UNL A   1      33.594  30.149  27.256  1.00  0.00    -0.003 C 
ATOM     22  C   UNL A   1      34.003  31.547  27.689  1.00  0.00     0.004 C 
ENDBRANCH  20  21
ENDBRANCH  19  20
ENDBRANCH  10  19
BRANCH  13  23
ATOM     23  S   UNL A   1      28.345  29.880  22.405  1.00  0.00     0.310 S 
ATOM     24  F   UNL A   1      28.745  31.179  23.222  1.00  0.00    -0.094 F 
ATOM     25  F   UNL A   1      27.302  29.569  23.544  1.00  0.00    -0.094 F 
ATOM     26  F   UNL A   1      27.302  30.751  21.649  1.00  0.00    -0.094 F 
ATOM     27  F   UNL A   1      29.444  30.294  21.349  1.00  0.00    -0.094 F 
ATOM     28  F   UNL A   1      29.447  29.091  23.220  1.00  0.00    -0.094 F 
ENDBRANCH  13  23
BRANCH  18  29
ATOM     29  C   UNL A   1      33.122  24.522  26.280  1.00  0.00     0.430 C 
ATOM     30  F   UNL A   1      32.233  24.274  27.238  1.00  0.00    -0.167 F 
ATOM     31  F   UNL A   1      33.659  23.378  25.868  1.00  0.00    -0.167 F 
ATOM     32  F   UNL A   1      34.077  25.315  26.758  1.00  0.00    -0.167 F 
ENDBRANCH  18  29
ENDBRANCH   7   9
ENDBRANCH   6   7
ENDBRANCH   5   6
ENDBRANCH   4   5
ENDBRANCH   3   4
ENDBRANCH   2   3
ENDBRANCH   1   2
BRANCH   1  33
ATOM     33  O   UNL A   1      36.717  22.907  24.046  1.00  0.00    -0.377 OA
BRANCH  33  34
ATOM     34  C   UNL A   1      36.815  22.181  25.263  1.00  0.00     0.188 C 
BRANCH  34  35
ATOM     35  C   UNL A   1      36.313  20.763  25.049  1.00  0.00     0.188 C 
BRANCH  35  36
ATOM     36  O   UNL A   1      37.395  19.932  24.657  1.00  0.00    -0.376 OA
BRANCH  36  37
ATOM     37  C   UNL A   1      38.578  20.347  25.325  1.00  0.00     0.202 C 
BRANCH  37  38
ATOM     38  C   UNL A   1      39.330  19.126  25.828  1.00  0.00     0.261 C 
BRANCH  38  39
ATOM     39  O   UNL A   1      40.697  19.227  25.460  1.00  0.00    -0.460 OA
BRANCH  39  40
ATOM     40  C   UNL A   1      41.675  19.543  26.441  1.00  0.00     0.338 C 
ATOM     41  O   UNL A   1      42.267  18.612  27.071  1.00  0.00    -0.246 OA
BRANCH  40  42
ATOM     42  C   UNL A   1      42.013  20.995  26.737  1.00  0.00     0.060 A 
ATOM     43  C   UNL A   1      42.466  21.342  27.999  1.00  0.00     0.016 A 
ATOM     44  C   UNL A   1      41.869  21.906  25.782  1.00  0.00     0.016 A 
ATOM     45  C   UNL A   1      42.466  22.735  28.245  1.00  0.00     0.010 A 
ATOM     46  C   UNL A   1      42.016  23.243  26.064  1.00  0.00     0.010 A 
ATOM     47  C   UNL A   1      42.404  23.662  27.306  1.00  0.00    -0.014 A 
BRANCH  47  48
ATOM     48  C   UNL A   1      42.745  25.114  27.591  1.00  0.00     0.031 A 
ATOM     49  C   UNL A   1      41.738  25.941  28.092  1.00  0.00     0.074 A 
ATOM     50  C   UNL A   1      44.040  25.538  27.340  1.00  0.00     0.049 A 
ATOM     51  N   UNL A   1      41.836  27.225  28.439  1.00  0.00    -0.248 NA
ATOM     52  C   UNL A   1      40.354  25.503  28.327  1.00  0.00     0.031 C 
ATOM     53  C   UNL A   1      45.064  24.709  26.843  1.00  0.00     0.029 A 
ATOM     54  N   UNL A   1      44.566  26.798  27.514  1.00  0.00    -0.354 N 
ATOM     55  C   UNL A   1      40.663  27.670  28.893  1.00  0.00     0.074 A 
ATOM     56  C   UNL A   1      39.692  26.571  28.822  1.00  0.00     0.031 C 
ATOM     57  C   UNL A   1      46.188  25.461  26.710  1.00  0.00     0.029 A 
ATOM     58  C   UNL A   1      45.885  26.772  27.121  1.00  0.00     0.049 A 
ATOM     59  H   UNL A   1      44.082  27.583  27.861  1.00  0.00     0.167 HD
ATOM     60  C   UNL A   1      40.366  28.950  29.366  1.00  0.00     0.037 A 
ATOM     61  C   UNL A   1      46.790  27.823  27.113  1.00  0.00     0.037 A 
ATOM     62  C   UNL A   1      41.282  29.990  29.398  1.00  0.00     0.049 A 
ATOM     63  C   UNL A   1      46.476  29.119  27.531  1.00  0.00     0.074 A 
ATOM     64  C   UNL A   1      41.002  31.282  29.878  1.00  0.00     0.029 A 
ATOM     65  N   UNL A   1      42.595  29.970  28.982  1.00  0.00    -0.354 N 
ATOM     66  N   UNL A   1      45.315  29.554  28.022  1.00  0.00    -0.248 NA
ATOM     67  C   UNL A   1      47.417  30.246  27.497  1.00  0.00     0.031 C 
ATOM     68  C   UNL A   1      42.127  32.036  29.745  1.00  0.00     0.029 A 
ATOM     69  C   UNL A   1      43.128  31.224  29.178  1.00  0.00     0.049 A 
ATOM     70  H   UNL A   1      43.071  29.193  28.607  1.00  0.00     0.167 HD
ATOM     71  C   UNL A   1      45.403  30.849  28.331  1.00  0.00     0.074 A 
ATOM     72  C   UNL A   1      46.754  31.315  27.990  1.00  0.00     0.031 C 
ATOM     73  C   UNL A   1      44.411  31.659  28.886  1.00  0.00     0.037 A 
BRANCH  60  74
ATOM     74  C   UNL A   1      38.958  29.218  29.874  1.00  0.00     0.057 A 
ATOM     75  C   UNL A   1      37.967  29.641  29.004  1.00  0.00     0.134 A 
ATOM     76  C   UNL A   1      38.690  28.947  31.146  1.00  0.00     0.134 A 
ATOM     77  F   UNL A   1      38.128  29.681  27.684  1.00  0.00    -0.206 F 
ATOM     78  C   UNL A   1      36.768  30.028  29.647  1.00  0.00     0.040 A 
ATOM     79  C   UNL A   1      37.452  29.225  31.674  1.00  0.00     0.040 A 
ATOM     80  F   UNL A   1      39.626  28.400  31.915  1.00  0.00    -0.206 F 
ATOM     81  C   UNL A   1      36.442  29.702  30.884  1.00  0.00     0.006 A 
ENDBRANCH  60  74
BRANCH  61  82
ATOM     82  C   UNL A   1      48.201  27.550  26.621  1.00  0.00     0.057 A 
ATOM     83  C   UNL A   1      49.193  27.210  27.527  1.00  0.00     0.134 A 
ATOM     84  C   UNL A   1      48.477  27.731  25.334  1.00  0.00     0.134 A 
ATOM     85  F   UNL A   1      48.932  26.776  28.757  1.00  0.00    -0.206 F 
ATOM     86  C   UNL A   1      50.506  27.369  27.025  1.00  0.00     0.040 A 
ATOM     87  C   UNL A   1      49.778  27.739  24.891  1.00  0.00     0.040 A 
ATOM     88  F   UNL A   1      47.485  27.907  24.466  1.00  0.00    -0.206 F 
ATOM     89  C   UNL A   1      50.812  27.470  25.745  1.00  0.00     0.006 A 
ENDBRANCH  61  82
BRANCH  73  90
ATOM     90  C   UNL A   1      44.760  33.108  29.188  1.00  0.00     0.057 A 
ATOM     91  C   UNL A   1      44.533  34.076  28.224  1.00  0.00     0.134 A 
ATOM     92  C   UNL A   1      45.278  33.421  30.370  1.00  0.00     0.134 A 
ATOM     93  F   UNL A   1      43.794  33.860  27.140  1.00  0.00    -0.206 F 
ATOM     94  C   UNL A   1      45.158  35.316  28.497  1.00  0.00     0.040 A 
ATOM     95  C   UNL A   1      45.747  34.689  30.614  1.00  0.00     0.040 A 
ATOM     96  F   UNL A   1      45.345  32.499  31.325  1.00  0.00    -0.206 F 
ATOM     97  C   UNL A   1      45.608  35.681  29.684  1.00  0.00     0.006 A 
ENDBRANCH  73  90
ENDBRANCH  47  48
ENDBRANCH  40  42
ENDBRANCH  39  40
ENDBRANCH  38  39
ENDBRANCH  37  38
ENDBRANCH  36  37
ENDBRANCH  35  36
ENDBRANCH  34  35
ENDBRANCH  33  34
ENDBRANCH   1  33
TORSDOF 25
ENDMDL
