MODEL 1
REMARK VINA RESULT:     -11.1      0.000      0.000
REMARK SMILES CN1C(=O)C[C@H](C(=O)OCCOCCOCCOCCOC(=O)c2ccc(-c3c4nc(c(-c5c(F)cccc5F)c5ccc([nH]5)c(-c5c(F)cccc5F)c5nc(c(-c6c(F)cccc6F)c6ccc3[nH]6)C=C5)C=C4)cc2)C12CC[NH+](Cc1ccc(Cl)c(F)c1)CC2
REMARK SMILES IDX 15 1 14 2 13 3 12 4 11 5 10 6 9 7 7 8 8 9 6 10 1 11 2 12
REMARK SMILES IDX 3 13 78 14 4 15 5 16 79 17 92 18 80 19 91 20 81 21 82 23
REMARK SMILES IDX 83 24 84 25 90 26 85 27 88 28 86 29 89 30 87 31 16 32 17 33
REMARK SMILES IDX 18 34 19 35 20 36 21 37 22 38 23 39 24 40 25 41 77 42 26 43
REMARK SMILES IDX 76 44 27 45 28 46 29 47 70 48 30 49 75 50 69 51 71 52 31 53
REMARK SMILES IDX 74 54 68 55 67 56 32 58 58 59 41 60 57 61 42 62 45 63 56 64
REMARK SMILES IDX 72 65 43 66 44 67 55 69 73 70 46 71 33 72 34 73 39 74 35 75
REMARK SMILES IDX 36 76 38 77 40 78 37 79 59 80 60 81 65 82 61 83 62 84 64 85
REMARK SMILES IDX 66 86 63 87 47 88 48 89 53 90 49 91 50 92 52 93 54 94 51 95
REMARK H PARENT 81 22 71 57 45 68
REMARK Flexibility Score: inf
ROOT
ATOM      1  O   UNL A   1      34.370  32.932  28.782  1.00  0.00    -0.377 OA
ENDROOT
BRANCH   1   2
ATOM      2  C   UNL A   1      33.715  32.318  27.689  1.00  0.00     0.188 C 
BRANCH   2   3
ATOM      3  C   UNL A   1      33.661  30.777  27.569  1.00  0.00     0.188 C 
BRANCH   3   4
ATOM      4  O   UNL A   1      32.653  30.241  26.730  1.00  0.00    -0.376 OA
BRANCH   4   5
ATOM      5  C   UNL A   1      31.831  29.217  27.263  1.00  0.00     0.202 C 
BRANCH   5   6
ATOM      6  C   UNL A   1      31.986  27.861  26.566  1.00  0.00     0.261 C 
BRANCH   6   7
ATOM      7  O   UNL A   1      31.682  27.910  25.160  1.00  0.00    -0.463 OA
BRANCH   7   8
ATOM      8  C   UNL A   1      32.659  27.487  24.309  1.00  0.00     0.311 C 
ATOM      9  O   UNL A   1      33.790  27.943  24.288  1.00  0.00    -0.252 OA
BRANCH   8  10
ATOM     10  C   UNL A   1      32.101  26.390  23.413  1.00  0.00     0.134 C 
ATOM     11  C   UNL A   1      33.341  23.217  21.766  1.00  0.00     0.147 C 
ATOM     12  N   UNL A   1      32.943  24.547  22.199  1.00  0.00    -0.339 N 
ATOM     13  C   UNL A   1      32.822  25.570  21.281  1.00  0.00     0.223 C 
ATOM     14  C   UNL A   1      32.569  24.903  23.599  1.00  0.00     0.067 C 
ATOM     15  O   UNL A   1      32.995  25.496  20.075  1.00  0.00    -0.275 OA
ATOM     16  C   UNL A   1      32.465  26.824  21.995  1.00  0.00     0.118 C 
ATOM     17  C   UNL A   1      31.418  23.941  24.038  1.00  0.00     0.091 C 
ATOM     18  C   UNL A   1      33.757  24.695  24.550  1.00  0.00     0.091 C 
ATOM     19  C   UNL A   1      31.181  23.707  25.532  1.00  0.00     0.265 C 
ATOM     20  C   UNL A   1      33.398  24.694  26.041  1.00  0.00     0.265 C 
ATOM     21  N   UNL A   1      32.329  23.778  26.420  1.00  0.00    -0.331 N 
ATOM     22  H   UNL A   1      31.922  24.274  27.215  1.00  0.00     0.348 HD
BRANCH  21  23
ATOM     23  C   UNL A   1      32.752  22.512  27.037  1.00  0.00     0.299 C 
BRANCH  23  24
ATOM     24  C   UNL A   1      33.242  21.490  26.037  1.00  0.00     0.009 A 
ATOM     25  C   UNL A   1      34.608  21.367  25.752  1.00  0.00     0.011 A 
ATOM     26  C   UNL A   1      32.348  20.543  25.516  1.00  0.00     0.050 A 
ATOM     27  C   UNL A   1      35.085  20.247  25.066  1.00  0.00     0.024 A 
ATOM     28  C   UNL A   1      32.831  19.408  24.876  1.00  0.00     0.142 A 
ATOM     29  C   UNL A   1      34.198  19.246  24.669  1.00  0.00     0.076 A 
ATOM     30  F   UNL A   1      31.964  18.439  24.553  1.00  0.00    -0.205 F 
ATOM     31  Cl  UNL A   1      34.814  17.789  23.994  1.00  0.00    -0.081 Cl
ENDBRANCH  23  24
ENDBRANCH  21  23
ENDBRANCH   8  10
ENDBRANCH   7   8
ENDBRANCH   6   7
ENDBRANCH   5   6
ENDBRANCH   4   5
ENDBRANCH   3   4
ENDBRANCH   2   3
ENDBRANCH   1   2
BRANCH   1  32
ATOM     32  C   UNL A   1      34.623  34.322  28.691  1.00  0.00     0.188 C 
BRANCH  32  33
ATOM     33  C   UNL A   1      33.753  35.287  29.534  1.00  0.00     0.188 C 
BRANCH  33  34
ATOM     34  O   UNL A   1      33.129  34.688  30.662  1.00  0.00    -0.376 OA
BRANCH  34  35
ATOM     35  C   UNL A   1      33.790  34.745  31.912  1.00  0.00     0.202 C 
BRANCH  35  36
ATOM     36  C   UNL A   1      34.145  33.411  32.586  1.00  0.00     0.261 C 
BRANCH  36  37
ATOM     37  O   UNL A   1      35.284  32.724  32.054  1.00  0.00    -0.460 OA
BRANCH  37  38
ATOM     38  C   UNL A   1      36.491  33.019  32.580  1.00  0.00     0.338 C 
ATOM     39  O   UNL A   1      36.719  33.694  33.569  1.00  0.00    -0.246 OA
BRANCH  38  40
ATOM     40  C   UNL A   1      37.484  32.183  31.874  1.00  0.00     0.060 A 
ATOM     41  C   UNL A   1      38.376  31.403  32.628  1.00  0.00     0.016 A 
ATOM     42  C   UNL A   1      37.471  32.096  30.479  1.00  0.00     0.016 A 
ATOM     43  C   UNL A   1      39.249  30.526  31.988  1.00  0.00     0.010 A 
ATOM     44  C   UNL A   1      38.385  31.262  29.836  1.00  0.00     0.010 A 
ATOM     45  C   UNL A   1      39.292  30.495  30.589  1.00  0.00    -0.014 A 
BRANCH  45  46
ATOM     46  C   UNL A   1      40.471  29.909  29.918  1.00  0.00     0.031 A 
ATOM     47  C   UNL A   1      41.637  30.825  29.675  1.00  0.00     0.074 A 
ATOM     48  C   UNL A   1      40.516  28.622  29.537  1.00  0.00     0.049 A 
ATOM     49  N   UNL A   1      42.757  30.601  29.041  1.00  0.00    -0.248 NA
ATOM     50  C   UNL A   1      41.515  32.188  30.223  1.00  0.00     0.031 C 
ATOM     51  C   UNL A   1      39.469  27.630  29.765  1.00  0.00     0.029 A 
ATOM     52  N   UNL A   1      41.492  27.937  28.859  1.00  0.00    -0.354 N 
ATOM     53  C   UNL A   1      43.465  31.794  29.108  1.00  0.00     0.074 A 
ATOM     54  C   UNL A   1      42.642  32.746  29.816  1.00  0.00     0.031 C 
ATOM     55  C   UNL A   1      39.852  26.462  29.216  1.00  0.00     0.029 A 
ATOM     56  C   UNL A   1      41.152  26.638  28.570  1.00  0.00     0.049 A 
ATOM     57  H   UNL A   1      42.355  28.338  28.605  1.00  0.00     0.167 HD
ATOM     58  C   UNL A   1      44.697  32.071  28.623  1.00  0.00     0.037 A 
ATOM     59  C   UNL A   1      41.809  25.717  27.838  1.00  0.00     0.037 A 
ATOM     60  C   UNL A   1      45.500  31.125  27.900  1.00  0.00     0.049 A 
ATOM     61  C   UNL A   1      43.140  26.075  27.227  1.00  0.00     0.074 A 
ATOM     62  C   UNL A   1      46.763  31.299  27.365  1.00  0.00     0.029 A 
ATOM     63  N   UNL A   1      45.108  29.830  27.597  1.00  0.00    -0.354 N 
ATOM     64  N   UNL A   1      43.817  27.197  27.309  1.00  0.00    -0.248 NA
ATOM     65  C   UNL A   1      43.801  25.039  26.419  1.00  0.00     0.031 C 
ATOM     66  C   UNL A   1      47.111  30.126  26.687  1.00  0.00     0.029 A 
ATOM     67  C   UNL A   1      46.094  29.200  26.858  1.00  0.00     0.049 A 
ATOM     68  H   UNL A   1      44.255  29.419  27.869  1.00  0.00     0.167 HD
ATOM     69  C   UNL A   1      44.993  26.989  26.597  1.00  0.00     0.074 A 
ATOM     70  C   UNL A   1      44.941  25.631  26.097  1.00  0.00     0.031 C 
ATOM     71  C   UNL A   1      46.027  27.842  26.380  1.00  0.00     0.037 A 
BRANCH  58  72
ATOM     72  C   UNL A   1      45.216  33.463  28.827  1.00  0.00     0.057 A 
ATOM     73  C   UNL A   1      45.876  33.847  30.003  1.00  0.00     0.134 A 
ATOM     74  C   UNL A   1      45.048  34.436  27.834  1.00  0.00     0.134 A 
ATOM     75  F   UNL A   1      46.046  32.971  31.004  1.00  0.00    -0.206 F 
ATOM     76  C   UNL A   1      46.326  35.155  30.193  1.00  0.00     0.040 A 
ATOM     77  C   UNL A   1      45.521  35.738  27.999  1.00  0.00     0.040 A 
ATOM     78  F   UNL A   1      44.421  34.137  26.686  1.00  0.00    -0.206 F 
ATOM     79  C   UNL A   1      46.155  36.102  29.186  1.00  0.00     0.006 A 
ENDBRANCH  58  72
BRANCH  59  80
ATOM     80  C   UNL A   1      41.217  24.371  27.625  1.00  0.00     0.057 A 
ATOM     81  C   UNL A   1      41.710  23.246  28.298  1.00  0.00     0.134 A 
ATOM     82  C   UNL A   1      40.167  24.169  26.721  1.00  0.00     0.134 A 
ATOM     83  F   UNL A   1      42.732  23.368  29.157  1.00  0.00    -0.206 F 
ATOM     84  C   UNL A   1      41.192  21.969  28.069  1.00  0.00     0.040 A 
ATOM     85  C   UNL A   1      39.621  22.903  26.502  1.00  0.00     0.040 A 
ATOM     86  F   UNL A   1      39.651  25.203  26.040  1.00  0.00    -0.206 F 
ATOM     87  C   UNL A   1      40.140  21.796  27.172  1.00  0.00     0.006 A 
ENDBRANCH  59  80
BRANCH  71  88
ATOM     88  C   UNL A   1      47.209  27.319  25.614  1.00  0.00     0.057 A 
ATOM     89  C   UNL A   1      47.369  27.550  24.242  1.00  0.00     0.134 A 
ATOM     90  C   UNL A   1      48.229  26.622  26.275  1.00  0.00     0.134 A 
ATOM     91  F   UNL A   1      46.426  28.203  23.546  1.00  0.00    -0.206 F 
ATOM     92  C   UNL A   1      48.489  27.083  23.552  1.00  0.00     0.040 A 
ATOM     93  C   UNL A   1      49.368  26.180  25.602  1.00  0.00     0.040 A 
ATOM     94  F   UNL A   1      48.145  26.379  27.592  1.00  0.00    -0.206 F 
ATOM     95  C   UNL A   1      49.497  26.404  24.234  1.00  0.00     0.006 A 
ENDBRANCH  71  88
ENDBRANCH  45  46
ENDBRANCH  38  40
ENDBRANCH  37  38
ENDBRANCH  36  37
ENDBRANCH  35  36
ENDBRANCH  34  35
ENDBRANCH  33  34
ENDBRANCH  32  33
ENDBRANCH   1  32
TORSDOF 22
ENDMDL
MODEL 2
REMARK VINA RESULT:     -10.8      1.302      6.106
REMARK SMILES CN1C(=O)C[C@H](C(=O)OCCOCCOCCOCCOC(=O)c2ccc(-c3c4nc(c(-c5c(F)cccc5F)c5ccc([nH]5)c(-c5c(F)cccc5F)c5nc(c(-c6c(F)cccc6F)c6ccc3[nH]6)C=C5)C=C4)cc2)C12CC[NH+](Cc1ccc(Cl)c(F)c1)CC2
REMARK SMILES IDX 15 1 14 2 13 3 12 4 11 5 10 6 9 7 7 8 8 9 6 10 1 11 2 12
REMARK SMILES IDX 3 13 78 14 4 15 5 16 79 17 92 18 80 19 91 20 81 21 82 23
REMARK SMILES IDX 83 24 84 25 90 26 85 27 88 28 86 29 89 30 87 31 16 32 17 33
REMARK SMILES IDX 18 34 19 35 20 36 21 37 22 38 23 39 24 40 25 41 77 42 26 43
REMARK SMILES IDX 76 44 27 45 28 46 29 47 70 48 30 49 75 50 69 51 71 52 31 53
REMARK SMILES IDX 74 54 68 55 67 56 32 58 58 59 41 60 57 61 42 62 45 63 56 64
REMARK SMILES IDX 72 65 43 66 44 67 55 69 73 70 46 71 33 72 34 73 39 74 35 75
REMARK SMILES IDX 36 76 38 77 40 78 37 79 59 80 60 81 65 82 61 83 62 84 64 85
REMARK SMILES IDX 66 86 63 87 47 88 48 89 53 90 49 91 50 92 52 93 54 94 51 95
REMARK H PARENT 81 22 71 57 45 68
REMARK Flexibility Score: inf
ROOT
ATOM      1  O   UNL A   1      33.655  32.720  27.708  1.00  0.00    -0.377 OA
ENDROOT
BRANCH   1   2
ATOM      2  C   UNL A   1      34.476  31.578  27.569  1.00  0.00     0.188 C 
BRANCH   2   3
ATOM      3  C   UNL A   1      33.854  30.162  27.520  1.00  0.00     0.188 C 
BRANCH   3   4
ATOM      4  O   UNL A   1      33.734  29.565  26.240  1.00  0.00    -0.376 OA
BRANCH   4   5
ATOM      5  C   UNL A   1      32.514  29.749  25.542  1.00  0.00     0.202 C 
BRANCH   5   6
ATOM      6  C   UNL A   1      31.570  28.543  25.602  1.00  0.00     0.261 C 
BRANCH   6   7
ATOM      7  O   UNL A   1      31.254  28.007  24.305  1.00  0.00    -0.463 OA
BRANCH   7   8
ATOM      8  C   UNL A   1      30.403  26.942  24.275  1.00  0.00     0.311 C 
ATOM      9  O   UNL A   1      29.348  26.896  24.884  1.00  0.00    -0.252 OA
BRANCH   8  10
ATOM     10  C   UNL A   1      30.992  25.857  23.385  1.00  0.00     0.134 C 
ATOM     11  C   UNL A   1      34.361  24.234  22.803  1.00  0.00     0.147 C 
ATOM     12  N   UNL A   1      33.138  25.019  22.862  1.00  0.00    -0.339 N 
ATOM     13  C   UNL A   1      32.825  25.898  21.845  1.00  0.00     0.223 C 
ATOM     14  C   UNL A   1      32.110  24.902  23.936  1.00  0.00     0.067 C 
ATOM     15  O   UNL A   1      33.471  26.101  20.828  1.00  0.00    -0.275 OA
ATOM     16  C   UNL A   1      31.565  26.608  22.185  1.00  0.00     0.118 C 
ATOM     17  C   UNL A   1      31.668  23.405  24.005  1.00  0.00     0.091 C 
ATOM     18  C   UNL A   1      32.701  25.291  25.300  1.00  0.00     0.091 C 
ATOM     19  C   UNL A   1      31.040  22.878  25.298  1.00  0.00     0.265 C 
ATOM     20  C   UNL A   1      31.853  24.882  26.512  1.00  0.00     0.265 C 
ATOM     21  N   UNL A   1      31.466  23.477  26.551  1.00  0.00    -0.331 N 
ATOM     22  H   UNL A   1      30.574  23.535  27.045  1.00  0.00     0.348 HD
BRANCH  21  23
ATOM     23  C   UNL A   1      32.253  22.616  27.447  1.00  0.00     0.299 C 
BRANCH  23  24
ATOM     24  C   UNL A   1      33.598  22.227  26.878  1.00  0.00     0.009 A 
ATOM     25  C   UNL A   1      33.747  21.048  26.135  1.00  0.00     0.011 A 
ATOM     26  C   UNL A   1      34.670  23.130  26.946  1.00  0.00     0.050 A 
ATOM     27  C   UNL A   1      34.898  20.839  25.372  1.00  0.00     0.024 A 
ATOM     28  C   UNL A   1      35.792  22.940  26.150  1.00  0.00     0.142 A 
ATOM     29  C   UNL A   1      35.900  21.810  25.345  1.00  0.00     0.076 A 
ATOM     30  F   UNL A   1      36.713  23.912  26.102  1.00  0.00    -0.205 F 
ATOM     31  Cl  UNL A   1      37.222  21.631  24.261  1.00  0.00    -0.081 Cl
ENDBRANCH  23  24
ENDBRANCH  21  23
ENDBRANCH   8  10
ENDBRANCH   7   8
ENDBRANCH   6   7
ENDBRANCH   5   6
ENDBRANCH   4   5
ENDBRANCH   3   4
ENDBRANCH   2   3
ENDBRANCH   1   2
BRANCH   1  32
ATOM     32  C   UNL A   1      33.954  33.611  28.767  1.00  0.00     0.188 C 
BRANCH  32  33
ATOM     33  C   UNL A   1      35.441  33.869  29.117  1.00  0.00     0.188 C 
BRANCH  33  34
ATOM     34  O   UNL A   1      35.695  34.078  30.500  1.00  0.00    -0.376 OA
BRANCH  34  35
ATOM     35  C   UNL A   1      34.602  34.071  31.398  1.00  0.00     0.202 C 
BRANCH  35  36
ATOM     36  C   UNL A   1      34.611  33.018  32.516  1.00  0.00     0.261 C 
BRANCH  36  37
ATOM     37  O   UNL A   1      35.484  31.900  32.317  1.00  0.00    -0.460 OA
BRANCH  37  38
ATOM     38  C   UNL A   1      36.602  31.842  33.070  1.00  0.00     0.338 C 
ATOM     39  O   UNL A   1      36.692  32.031  34.272  1.00  0.00    -0.246 OA
BRANCH  38  40
ATOM     40  C   UNL A   1      37.668  31.277  32.217  1.00  0.00     0.060 A 
ATOM     41  C   UNL A   1      38.778  30.671  32.826  1.00  0.00     0.016 A 
ATOM     42  C   UNL A   1      37.524  31.259  30.827  1.00  0.00     0.016 A 
ATOM     43  C   UNL A   1      39.743  30.036  32.047  1.00  0.00     0.010 A 
ATOM     44  C   UNL A   1      38.519  30.676  30.043  1.00  0.00     0.010 A 
ATOM     45  C   UNL A   1      39.642  30.087  30.651  1.00  0.00    -0.014 A 
BRANCH  45  46
ATOM     46  C   UNL A   1      40.840  29.803  29.832  1.00  0.00     0.031 A 
ATOM     47  C   UNL A   1      40.954  28.420  29.257  1.00  0.00     0.074 A 
ATOM     48  C   UNL A   1      41.788  30.725  29.602  1.00  0.00     0.049 A 
ATOM     49  N   UNL A   1      41.927  27.877  28.575  1.00  0.00    -0.248 NA
ATOM     50  C   UNL A   1      39.808  27.523  29.492  1.00  0.00     0.031 C 
ATOM     51  C   UNL A   1      41.759  32.110  30.063  1.00  0.00     0.029 A 
ATOM     52  N   UNL A   1      42.976  30.617  28.924  1.00  0.00    -0.354 N 
ATOM     53  C   UNL A   1      41.513  26.579  28.309  1.00  0.00     0.074 A 
ATOM     54  C   UNL A   1      40.219  26.403  28.924  1.00  0.00     0.031 C 
ATOM     55  C   UNL A   1      42.892  32.722  29.670  1.00  0.00     0.029 A 
ATOM     56  C   UNL A   1      43.737  31.760  28.963  1.00  0.00     0.049 A 
ATOM     57  H   UNL A   1      43.256  29.799  28.454  1.00  0.00     0.167 HD
ATOM     58  C   UNL A   1      42.156  25.616  27.610  1.00  0.00     0.037 A 
ATOM     59  C   UNL A   1      44.984  31.982  28.506  1.00  0.00     0.037 A 
ATOM     60  C   UNL A   1      43.454  25.791  27.020  1.00  0.00     0.049 A 
ATOM     61  C   UNL A   1      45.722  30.866  27.809  1.00  0.00     0.074 A 
ATOM     62  C   UNL A   1      44.198  24.884  26.289  1.00  0.00     0.029 A 
ATOM     63  N   UNL A   1      44.208  26.951  27.110  1.00  0.00    -0.354 N 
ATOM     64  N   UNL A   1      45.321  29.646  27.541  1.00  0.00    -0.248 NA
ATOM     65  C   UNL A   1      47.089  31.157  27.352  1.00  0.00     0.031 C 
ATOM     66  C   UNL A   1      45.428  25.476  25.986  1.00  0.00     0.029 A 
ATOM     67  C   UNL A   1      45.422  26.774  26.470  1.00  0.00     0.049 A 
ATOM     68  H   UNL A   1      43.921  27.778  27.561  1.00  0.00     0.167 HD
ATOM     69  C   UNL A   1      46.367  29.039  26.855  1.00  0.00     0.074 A 
ATOM     70  C   UNL A   1      47.418  30.028  26.741  1.00  0.00     0.031 C 
ATOM     71  C   UNL A   1      46.451  27.778  26.358  1.00  0.00     0.037 A 
BRANCH  58  72
ATOM     72  C   UNL A   1      41.476  24.285  27.491  1.00  0.00     0.057 A 
ATOM     73  C   UNL A   1      40.396  24.075  26.622  1.00  0.00     0.134 A 
ATOM     74  C   UNL A   1      41.903  23.197  28.263  1.00  0.00     0.134 A 
ATOM     75  F   UNL A   1      39.919  25.082  25.874  1.00  0.00    -0.206 F 
ATOM     76  C   UNL A   1      39.751  22.840  26.545  1.00  0.00     0.040 A 
ATOM     77  C   UNL A   1      41.286  21.949  28.172  1.00  0.00     0.040 A 
ATOM     78  F   UNL A   1      42.927  23.331  29.120  1.00  0.00    -0.206 F 
ATOM     79  C   UNL A   1      40.201  21.771  27.317  1.00  0.00     0.006 A 
ENDBRANCH  58  72
BRANCH  59  80
ATOM     80  C   UNL A   1      45.628  33.306  28.701  1.00  0.00     0.057 A 
ATOM     81  C   UNL A   1      45.564  34.298  27.715  1.00  0.00     0.134 A 
ATOM     82  C   UNL A   1      46.350  33.604  29.865  1.00  0.00     0.134 A 
ATOM     83  F   UNL A   1      44.912  34.066  26.567  1.00  0.00    -0.206 F 
ATOM     84  C   UNL A   1      46.206  35.529  27.870  1.00  0.00     0.040 A 
ATOM     85  C   UNL A   1      46.973  34.840  30.045  1.00  0.00     0.040 A 
ATOM     86  F   UNL A   1      46.453  32.697  30.848  1.00  0.00    -0.206 F 
ATOM     87  C   UNL A   1      46.909  35.804  29.041  1.00  0.00     0.006 A 
ENDBRANCH  59  80
BRANCH  71  88
ATOM     88  C   UNL A   1      47.696  27.412  25.602  1.00  0.00     0.057 A 
ATOM     89  C   UNL A   1      48.822  26.870  26.235  1.00  0.00     0.134 A 
ATOM     90  C   UNL A   1      47.744  27.552  24.208  1.00  0.00     0.134 A 
ATOM     91  F   UNL A   1      48.845  26.717  27.568  1.00  0.00    -0.206 F 
ATOM     92  C   UNL A   1      49.959  26.506  25.512  1.00  0.00     0.040 A 
ATOM     93  C   UNL A   1      48.863  27.161  23.472  1.00  0.00     0.040 A 
ATOM     94  F   UNL A   1      46.695  28.051  23.537  1.00  0.00    -0.206 F 
ATOM     95  C   UNL A   1      49.978  26.643  24.125  1.00  0.00     0.006 A 
ENDBRANCH  71  88
ENDBRANCH  45  46
ENDBRANCH  38  40
ENDBRANCH  37  38
ENDBRANCH  36  37
ENDBRANCH  35  36
ENDBRANCH  34  35
ENDBRANCH  33  34
ENDBRANCH  32  33
ENDBRANCH   1  32
TORSDOF 22
ENDMDL
MODEL 3
REMARK VINA RESULT:     -10.4      4.511      8.871
REMARK SMILES CN1C(=O)C[C@H](C(=O)OCCOCCOCCOCCOC(=O)c2ccc(-c3c4nc(c(-c5c(F)cccc5F)c5ccc([nH]5)c(-c5c(F)cccc5F)c5nc(c(-c6c(F)cccc6F)c6ccc3[nH]6)C=C5)C=C4)cc2)C12CC[NH+](Cc1ccc(Cl)c(F)c1)CC2
REMARK SMILES IDX 15 1 14 2 13 3 12 4 11 5 10 6 9 7 7 8 8 9 6 10 1 11 2 12
REMARK SMILES IDX 3 13 78 14 4 15 5 16 79 17 92 18 80 19 91 20 81 21 82 23
REMARK SMILES IDX 83 24 84 25 90 26 85 27 88 28 86 29 89 30 87 31 16 32 17 33
REMARK SMILES IDX 18 34 19 35 20 36 21 37 22 38 23 39 24 40 25 41 77 42 26 43
REMARK SMILES IDX 76 44 27 45 28 46 29 47 70 48 30 49 75 50 69 51 71 52 31 53
REMARK SMILES IDX 74 54 68 55 67 56 32 58 58 59 41 60 57 61 42 62 45 63 56 64
REMARK SMILES IDX 72 65 43 66 44 67 55 69 73 70 46 71 33 72 34 73 39 74 35 75
REMARK SMILES IDX 36 76 38 77 40 78 37 79 59 80 60 81 65 82 61 83 62 84 64 85
REMARK SMILES IDX 66 86 63 87 47 88 48 89 53 90 49 91 50 92 52 93 54 94 51 95
REMARK H PARENT 81 22 71 57 45 68
REMARK Flexibility Score: inf
ROOT
ATOM      1  O   UNL A   1      31.087  27.503  27.227  1.00  0.00    -0.377 OA
ENDROOT
BRANCH   1   2
ATOM      2  C   UNL A   1      30.416  26.393  26.664  1.00  0.00     0.188 C 
BRANCH   2   3
ATOM      3  C   UNL A   1      31.137  25.034  26.508  1.00  0.00     0.188 C 
BRANCH   3   4
ATOM      4  O   UNL A   1      30.587  23.938  27.218  1.00  0.00    -0.376 OA
BRANCH   4   5
ATOM      5  C   UNL A   1      30.428  22.716  26.519  1.00  0.00     0.202 C 
BRANCH   5   6
ATOM      6  C   UNL A   1      31.746  22.018  26.167  1.00  0.00     0.261 C 
BRANCH   6   7
ATOM      7  O   UNL A   1      31.586  20.958  25.207  1.00  0.00    -0.463 OA
BRANCH   7   8
ATOM      8  C   UNL A   1      32.631  20.741  24.358  1.00  0.00     0.311 C 
ATOM      9  O   UNL A   1      32.555  20.070  23.342  1.00  0.00    -0.252 OA
BRANCH   8  10
ATOM     10  C   UNL A   1      33.867  21.450  24.894  1.00  0.00     0.134 C 
ATOM     11  C   UNL A   1      37.026  23.004  23.508  1.00  0.00     0.147 C 
ATOM     12  N   UNL A   1      35.939  22.201  24.044  1.00  0.00    -0.339 N 
ATOM     13  C   UNL A   1      36.200  20.978  24.627  1.00  0.00     0.223 C 
ATOM     14  C   UNL A   1      34.512  22.633  24.088  1.00  0.00     0.067 C 
ATOM     15  O   UNL A   1      37.294  20.458  24.779  1.00  0.00    -0.275 OA
ATOM     16  C   UNL A   1      34.916  20.348  25.032  1.00  0.00     0.118 C 
ATOM     17  C   UNL A   1      34.455  24.000  24.843  1.00  0.00     0.091 C 
ATOM     18  C   UNL A   1      33.963  22.846  22.669  1.00  0.00     0.091 C 
ATOM     19  C   UNL A   1      33.259  24.925  24.607  1.00  0.00     0.265 C 
ATOM     20  C   UNL A   1      32.637  23.613  22.597  1.00  0.00     0.265 C 
ATOM     21  N   UNL A   1      32.620  24.889  23.303  1.00  0.00    -0.331 N 
ATOM     22  H   UNL A   1      31.637  24.948  23.572  1.00  0.00     0.348 HD
BRANCH  21  23
ATOM     23  C   UNL A   1      32.780  26.089  22.468  1.00  0.00     0.299 C 
BRANCH  23  24
ATOM     24  C   UNL A   1      31.822  27.202  22.826  1.00  0.00     0.009 A 
ATOM     25  C   UNL A   1      32.184  28.543  22.647  1.00  0.00     0.011 A 
ATOM     26  C   UNL A   1      30.499  26.894  23.179  1.00  0.00     0.050 A 
ATOM     27  C   UNL A   1      31.212  29.546  22.695  1.00  0.00     0.024 A 
ATOM     28  C   UNL A   1      29.529  27.888  23.180  1.00  0.00     0.142 A 
ATOM     29  C   UNL A   1      29.877  29.210  22.917  1.00  0.00     0.076 A 
ATOM     30  F   UNL A   1      28.247  27.531  23.343  1.00  0.00    -0.205 F 
ATOM     31  Cl  UNL A   1      28.666  30.424  22.788  1.00  0.00    -0.081 Cl
ENDBRANCH  23  24
ENDBRANCH  21  23
ENDBRANCH   8  10
ENDBRANCH   7   8
ENDBRANCH   6   7
ENDBRANCH   5   6
ENDBRANCH   4   5
ENDBRANCH   3   4
ENDBRANCH   2   3
ENDBRANCH   1   2
BRANCH   1  32
ATOM     32  C   UNL A   1      32.388  27.788  26.746  1.00  0.00     0.188 C 
BRANCH  32  33
ATOM     33  C   UNL A   1      32.706  29.235  26.292  1.00  0.00     0.188 C 
BRANCH  33  34
ATOM     34  O   UNL A   1      32.144  30.249  27.113  1.00  0.00    -0.376 OA
BRANCH  34  35
ATOM     35  C   UNL A   1      31.411  31.292  26.498  1.00  0.00     0.202 C 
BRANCH  35  36
ATOM     36  C   UNL A   1      31.779  32.734  26.876  1.00  0.00     0.261 C 
BRANCH  36  37
ATOM     37  O   UNL A   1      33.077  32.920  27.450  1.00  0.00    -0.460 OA
BRANCH  37  38
ATOM     38  C   UNL A   1      33.260  33.998  28.241  1.00  0.00     0.338 C 
ATOM     39  O   UNL A   1      32.528  34.968  28.346  1.00  0.00    -0.246 OA
BRANCH  38  40
ATOM     40  C   UNL A   1      34.394  33.689  29.136  1.00  0.00     0.060 A 
ATOM     41  C   UNL A   1      35.689  34.070  28.751  1.00  0.00     0.016 A 
ATOM     42  C   UNL A   1      34.167  33.116  30.391  1.00  0.00     0.016 A 
ATOM     43  C   UNL A   1      36.760  33.888  29.624  1.00  0.00     0.010 A 
ATOM     44  C   UNL A   1      35.247  32.879  31.241  1.00  0.00     0.010 A 
ATOM     45  C   UNL A   1      36.547  33.241  30.848  1.00  0.00    -0.014 A 
BRANCH  45  46
ATOM     46  C   UNL A   1      37.704  32.672  31.571  1.00  0.00     0.031 A 
ATOM     47  C   UNL A   1      38.387  31.494  30.936  1.00  0.00     0.074 A 
ATOM     48  C   UNL A   1      38.138  33.171  32.739  1.00  0.00     0.049 A 
ATOM     49  N   UNL A   1      39.364  30.754  31.385  1.00  0.00    -0.248 NA
ATOM     50  C   UNL A   1      37.887  31.094  29.608  1.00  0.00     0.031 C 
ATOM     51  C   UNL A   1      37.589  34.340  33.423  1.00  0.00     0.029 A 
ATOM     52  N   UNL A   1      39.145  32.737  33.564  1.00  0.00    -0.354 N 
ATOM     53  C   UNL A   1      39.590  29.801  30.401  1.00  0.00     0.074 A 
ATOM     54  C   UNL A   1      38.632  30.034  29.346  1.00  0.00     0.031 C 
ATOM     55  C   UNL A   1      38.256  34.518  34.579  1.00  0.00     0.029 A 
ATOM     56  C   UNL A   1      39.250  33.457  34.729  1.00  0.00     0.049 A 
ATOM     57  H   UNL A   1      39.735  31.982  33.342  1.00  0.00     0.167 HD
ATOM     58  C   UNL A   1      40.517  28.817  30.377  1.00  0.00     0.037 A 
ATOM     59  C   UNL A   1      40.040  33.253  35.801  1.00  0.00     0.037 A 
ATOM     60  C   UNL A   1      41.452  28.576  31.441  1.00  0.00     0.049 A 
ATOM     61  C   UNL A   1      41.005  32.093  35.794  1.00  0.00     0.074 A 
ATOM     62  C   UNL A   1      42.435  27.608  31.521  1.00  0.00     0.029 A 
ATOM     63  N   UNL A   1      41.506  29.305  32.619  1.00  0.00    -0.354 N 
ATOM     64  N   UNL A   1      41.229  31.206  34.854  1.00  0.00    -0.248 NA
ATOM     65  C   UNL A   1      41.825  31.904  37.000  1.00  0.00     0.031 C 
ATOM     66  C   UNL A   1      43.046  27.714  32.774  1.00  0.00     0.029 A 
ATOM     67  C   UNL A   1      42.489  28.791  33.446  1.00  0.00     0.049 A 
ATOM     68  H   UNL A   1      40.931  30.075  32.835  1.00  0.00     0.167 HD
ATOM     69  C   UNL A   1      42.239  30.380  35.338  1.00  0.00     0.074 A 
ATOM     70  C   UNL A   1      42.587  30.878  36.652  1.00  0.00     0.031 C 
ATOM     71  C   UNL A   1      42.828  29.310  34.747  1.00  0.00     0.037 A 
BRANCH  58  72
ATOM     72  C   UNL A   1      40.525  27.911  29.182  1.00  0.00     0.057 A 
ATOM     73  C   UNL A   1      41.333  28.160  28.064  1.00  0.00     0.134 A 
ATOM     74  C   UNL A   1      39.706  26.775  29.146  1.00  0.00     0.134 A 
ATOM     75  F   UNL A   1      42.121  29.245  28.022  1.00  0.00    -0.206 F 
ATOM     76  C   UNL A   1      41.306  27.326  26.944  1.00  0.00     0.040 A 
ATOM     77  C   UNL A   1      39.693  25.918  28.046  1.00  0.00     0.040 A 
ATOM     78  F   UNL A   1      38.903  26.482  30.180  1.00  0.00    -0.206 F 
ATOM     79  C   UNL A   1      40.490  26.197  26.937  1.00  0.00     0.006 A 
ENDBRANCH  58  72
BRANCH  59  80
ATOM     80  C   UNL A   1      39.949  34.153  36.980  1.00  0.00     0.057 A 
ATOM     81  C   UNL A   1      39.056  33.891  38.026  1.00  0.00     0.134 A 
ATOM     82  C   UNL A   1      40.729  35.312  37.077  1.00  0.00     0.134 A 
ATOM     83  F   UNL A   1      38.262  32.811  37.980  1.00  0.00    -0.206 F 
ATOM     84  C   UNL A   1      38.930  34.755  39.116  1.00  0.00     0.040 A 
ATOM     85  C   UNL A   1      40.633  36.171  38.173  1.00  0.00     0.040 A 
ATOM     86  F   UNL A   1      41.602  35.624  36.108  1.00  0.00    -0.206 F 
ATOM     87  C   UNL A   1      39.724  35.897  39.193  1.00  0.00     0.006 A 
ENDBRANCH  59  80
BRANCH  71  88
ATOM     88  C   UNL A   1      43.946  28.635  35.491  1.00  0.00     0.057 A 
ATOM     89  C   UNL A   1      43.721  27.559  36.360  1.00  0.00     0.134 A 
ATOM     90  C   UNL A   1      45.273  29.036  35.289  1.00  0.00     0.134 A 
ATOM     91  F   UNL A   1      42.474  27.131  36.604  1.00  0.00    -0.206 F 
ATOM     92  C   UNL A   1      44.775  26.924  37.019  1.00  0.00     0.040 A 
ATOM     93  C   UNL A   1      46.337  28.387  35.917  1.00  0.00     0.040 A 
ATOM     94  F   UNL A   1      45.560  30.050  34.459  1.00  0.00    -0.206 F 
ATOM     95  C   UNL A   1      46.088  27.332  36.791  1.00  0.00     0.006 A 
ENDBRANCH  71  88
ENDBRANCH  45  46
ENDBRANCH  38  40
ENDBRANCH  37  38
ENDBRANCH  36  37
ENDBRANCH  35  36
ENDBRANCH  34  35
ENDBRANCH  33  34
ENDBRANCH  32  33
ENDBRANCH   1  32
TORSDOF 22
ENDMDL
