MODEL 1
REMARK VINA RESULT:     -10.2      0.000      0.000
REMARK SMILES CCCC1CN(c2cc(C(=O)OCCOCCOCCOCCOC(=O)c3ccc(-c4c5nc(c(-c6c(F)cccc6F)c6ccc([nH]6)c(-c6c(F)cccc6F)c6nc(c(-c7c(F)cccc7F)c7ccc4[nH]7)C=C6)C=C5)cc3)ccc2C)C1
REMARK SMILES IDX 17 1 16 2 15 3 14 4 13 5 12 6 10 7 11 8 9 9 7 10 8 11 83 12
REMARK SMILES IDX 82 13 84 14 81 15 6 16 4 17 5 18 85 19 3 20 2 21 1 22 18 23
REMARK SMILES IDX 19 24 20 25 21 26 22 27 23 28 24 29 25 30 26 31 27 32 28 33
REMARK SMILES IDX 80 34 29 35 79 36 30 37 31 38 32 39 73 40 33 41 78 42 72 43
REMARK SMILES IDX 74 44 34 45 77 46 71 47 70 48 35 50 61 51 44 52 60 53 45 54
REMARK SMILES IDX 48 55 59 56 75 57 46 58 47 59 58 61 76 62 49 63 36 64 37 65
REMARK SMILES IDX 42 66 38 67 39 68 41 69 43 70 40 71 62 72 63 73 68 74 64 75
REMARK SMILES IDX 65 76 67 77 69 78 66 79 50 80 51 81 56 82 52 83 53 84 55 85
REMARK SMILES IDX 57 86 54 87
REMARK H PARENT 74 49 48 60
REMARK Flexibility Score: inf
ROOT
ATOM      1  C   UNL A   1      33.222  29.783  26.097  1.00  0.00     0.188 C 
ENDROOT
BRANCH   1   2
ATOM      2  C   UNL A   1      32.415  28.485  26.201  1.00  0.00     0.188 C 
BRANCH   2   3
ATOM      3  O   UNL A   1      31.235  28.426  25.426  1.00  0.00    -0.376 OA
BRANCH   3   4
ATOM      4  C   UNL A   1      30.867  27.161  24.882  1.00  0.00     0.202 C 
BRANCH   4   5
ATOM      5  C   UNL A   1      31.172  27.011  23.399  1.00  0.00     0.261 C 
BRANCH   5   6
ATOM      6  O   UNL A   1      32.550  27.121  23.039  1.00  0.00    -0.460 OA
BRANCH   6   7
ATOM      7  C   UNL A   1      33.192  26.087  22.449  1.00  0.00     0.338 C 
ATOM      8  O   UNL A   1      33.514  25.923  21.286  1.00  0.00    -0.246 OA
BRANCH   7   9
ATOM      9  C   UNL A   1      33.665  25.222  23.535  1.00  0.00     0.062 A 
ATOM     10  C   UNL A   1      33.544  23.108  24.710  1.00  0.00     0.040 A 
ATOM     11  C   UNL A   1      33.335  23.867  23.559  1.00  0.00     0.041 A 
ATOM     12  C   UNL A   1      34.137  23.728  25.828  1.00  0.00    -0.028 A 
ATOM     13  C   UNL A   1      34.534  25.078  25.760  1.00  0.00     0.006 A 
ATOM     14  C   UNL A   1      34.340  23.016  27.135  1.00  0.00     0.046 C 
ATOM     15  C   UNL A   1      34.300  25.826  24.616  1.00  0.00     0.016 A 
BRANCH  10  16
ATOM     16  N   UNL A   1      33.096  21.769  24.752  1.00  0.00    -0.371 N 
ATOM     17  C   UNL A   1      33.130  19.971  23.682  1.00  0.00     0.028 C 
ATOM     18  C   UNL A   1      32.219  21.205  23.759  1.00  0.00     0.122 C 
ATOM     19  C   UNL A   1      33.918  20.595  24.836  1.00  0.00     0.122 C 
BRANCH  17  20
ATOM     20  C   UNL A   1      32.503  18.616  24.004  1.00  0.00     0.007 C 
BRANCH  20  21
ATOM     21  C   UNL A   1      32.942  17.537  23.015  1.00  0.00    -0.003 C 
ATOM     22  C   UNL A   1      34.078  16.680  23.561  1.00  0.00     0.004 C 
ENDBRANCH  20  21
ENDBRANCH  17  20
ENDBRANCH  10  16
ENDBRANCH   7   9
ENDBRANCH   6   7
ENDBRANCH   5   6
ENDBRANCH   4   5
ENDBRANCH   3   4
ENDBRANCH   2   3
ENDBRANCH   1   2
BRANCH   1  23
ATOM     23  O   UNL A   1      33.557  30.414  27.331  1.00  0.00    -0.377 OA
BRANCH  23  24
ATOM     24  C   UNL A   1      33.289  31.808  27.442  1.00  0.00     0.188 C 
BRANCH  24  25
ATOM     25  C   UNL A   1      34.391  32.567  28.185  1.00  0.00     0.188 C 
BRANCH  25  26
ATOM     26  O   UNL A   1      34.430  33.931  27.797  1.00  0.00    -0.376 OA
BRANCH  26  27
ATOM     27  C   UNL A   1      34.428  34.900  28.836  1.00  0.00     0.202 C 
BRANCH  27  28
ATOM     28  C   UNL A   1      33.026  35.461  29.078  1.00  0.00     0.261 C 
BRANCH  28  29
ATOM     29  O   UNL A   1      32.529  34.932  30.321  1.00  0.00    -0.460 OA
BRANCH  29  30
ATOM     30  C   UNL A   1      32.814  35.665  31.428  1.00  0.00     0.338 C 
ATOM     31  O   UNL A   1      32.410  36.796  31.664  1.00  0.00    -0.246 OA
BRANCH  30  32
ATOM     32  C   UNL A   1      33.841  34.973  32.255  1.00  0.00     0.060 A 
ATOM     33  C   UNL A   1      35.091  35.580  32.447  1.00  0.00     0.016 A 
ATOM     34  C   UNL A   1      33.648  33.662  32.685  1.00  0.00     0.016 A 
ATOM     35  C   UNL A   1      36.160  34.857  33.003  1.00  0.00     0.010 A 
ATOM     36  C   UNL A   1      34.723  32.936  33.193  1.00  0.00     0.010 A 
ATOM     37  C   UNL A   1      36.003  33.506  33.339  1.00  0.00    -0.014 A 
BRANCH  37  38
ATOM     38  C   UNL A   1      37.132  32.571  33.570  1.00  0.00     0.031 A 
ATOM     39  C   UNL A   1      37.362  31.310  32.783  1.00  0.00     0.074 A 
ATOM     40  C   UNL A   1      38.261  33.131  34.068  1.00  0.00     0.049 A 
ATOM     41  N   UNL A   1      38.431  30.575  32.888  1.00  0.00    -0.248 NA
ATOM     42  C   UNL A   1      36.409  30.730  31.835  1.00  0.00     0.031 C 
ATOM     43  C   UNL A   1      39.585  32.917  33.498  1.00  0.00     0.029 A 
ATOM     44  N   UNL A   1      38.488  34.012  35.124  1.00  0.00    -0.354 N 
ATOM     45  C   UNL A   1      38.524  29.859  31.717  1.00  0.00     0.074 A 
ATOM     46  C   UNL A   1      37.163  29.788  31.249  1.00  0.00     0.031 C 
ATOM     47  C   UNL A   1      40.509  33.480  34.271  1.00  0.00     0.029 A 
ATOM     48  C   UNL A   1      39.850  34.007  35.440  1.00  0.00     0.049 A 
ATOM     49  H   UNL A   1      37.800  34.552  35.575  1.00  0.00     0.167 HD
ATOM     50  C   UNL A   1      39.745  29.594  31.158  1.00  0.00     0.037 A 
ATOM     51  C   UNL A   1      40.440  34.076  36.656  1.00  0.00     0.037 A 
ATOM     52  C   UNL A   1      40.889  29.967  32.014  1.00  0.00     0.049 A 
ATOM     53  C   UNL A   1      41.330  32.885  36.841  1.00  0.00     0.074 A 
ATOM     54  C   UNL A   1      42.038  30.713  31.800  1.00  0.00     0.029 A 
ATOM     55  N   UNL A   1      40.893  29.653  33.377  1.00  0.00    -0.354 N 
ATOM     56  N   UNL A   1      41.166  31.846  36.065  1.00  0.00    -0.248 NA
ATOM     57  C   UNL A   1      42.435  32.689  37.772  1.00  0.00     0.031 C 
ATOM     58  C   UNL A   1      42.723  30.846  33.040  1.00  0.00     0.029 A 
ATOM     59  C   UNL A   1      42.008  30.164  34.013  1.00  0.00     0.049 A 
ATOM     60  H   UNL A   1      40.189  29.133  33.828  1.00  0.00     0.167 HD
ATOM     61  C   UNL A   1      42.163  30.954  36.260  1.00  0.00     0.074 A 
ATOM     62  C   UNL A   1      42.877  31.463  37.415  1.00  0.00     0.031 C 
ATOM     63  C   UNL A   1      42.299  29.893  35.421  1.00  0.00     0.037 A 
BRANCH  50  64
ATOM     64  C   UNL A   1      39.944  29.122  29.716  1.00  0.00     0.057 A 
ATOM     65  C   UNL A   1      40.822  28.059  29.416  1.00  0.00     0.134 A 
ATOM     66  C   UNL A   1      39.360  29.710  28.573  1.00  0.00     0.134 A 
ATOM     67  F   UNL A   1      41.499  27.418  30.380  1.00  0.00    -0.206 F 
ATOM     68  C   UNL A   1      41.057  27.595  28.108  1.00  0.00     0.040 A 
ATOM     69  C   UNL A   1      39.530  29.210  27.270  1.00  0.00     0.040 A 
ATOM     70  F   UNL A   1      38.642  30.838  28.637  1.00  0.00    -0.206 F 
ATOM     71  C   UNL A   1      40.384  28.148  27.031  1.00  0.00     0.006 A 
ENDBRANCH  50  64
BRANCH  51  72
ATOM     72  C   UNL A   1      39.844  35.078  37.553  1.00  0.00     0.057 A 
ATOM     73  C   UNL A   1      39.134  34.546  38.648  1.00  0.00     0.134 A 
ATOM     74  C   UNL A   1      40.459  36.321  37.737  1.00  0.00     0.134 A 
ATOM     75  F   UNL A   1      38.518  33.358  38.536  1.00  0.00    -0.206 F 
ATOM     76  C   UNL A   1      39.185  35.135  39.914  1.00  0.00     0.040 A 
ATOM     77  C   UNL A   1      40.521  36.917  39.004  1.00  0.00     0.040 A 
ATOM     78  F   UNL A   1      41.203  36.857  36.760  1.00  0.00    -0.206 F 
ATOM     79  C   UNL A   1      39.921  36.300  40.103  1.00  0.00     0.006 A 
ENDBRANCH  51  72
BRANCH  63  80
ATOM     80  C   UNL A   1      42.755  28.536  35.863  1.00  0.00     0.057 A 
ATOM     81  C   UNL A   1      41.872  27.570  36.373  1.00  0.00     0.134 A 
ATOM     82  C   UNL A   1      44.046  28.071  35.542  1.00  0.00     0.134 A 
ATOM     83  F   UNL A   1      40.595  27.863  36.659  1.00  0.00    -0.206 F 
ATOM     84  C   UNL A   1      42.248  26.235  36.553  1.00  0.00     0.040 A 
ATOM     85  C   UNL A   1      44.419  26.733  35.684  1.00  0.00     0.040 A 
ATOM     86  F   UNL A   1      44.983  28.884  35.033  1.00  0.00    -0.206 F 
ATOM     87  C   UNL A   1      43.519  25.808  36.191  1.00  0.00     0.006 A 
ENDBRANCH  63  80
ENDBRANCH  37  38
ENDBRANCH  30  32
ENDBRANCH  29  30
ENDBRANCH  28  29
ENDBRANCH  27  28
ENDBRANCH  26  27
ENDBRANCH  25  26
ENDBRANCH  24  25
ENDBRANCH  23  24
ENDBRANCH   1  23
TORSDOF 23
ENDMDL
MODEL 2
REMARK VINA RESULT:     -10.2      1.268      2.239
REMARK SMILES CCCC1CN(c2cc(C(=O)OCCOCCOCCOCCOC(=O)c3ccc(-c4c5nc(c(-c6c(F)cccc6F)c6ccc([nH]6)c(-c6c(F)cccc6F)c6nc(c(-c7c(F)cccc7F)c7ccc4[nH]7)C=C6)C=C5)cc3)ccc2C)C1
REMARK SMILES IDX 17 1 16 2 15 3 14 4 13 5 12 6 10 7 11 8 9 9 7 10 8 11 83 12
REMARK SMILES IDX 82 13 84 14 81 15 6 16 4 17 5 18 85 19 3 20 2 21 1 22 18 23
REMARK SMILES IDX 19 24 20 25 21 26 22 27 23 28 24 29 25 30 26 31 27 32 28 33
REMARK SMILES IDX 80 34 29 35 79 36 30 37 31 38 32 39 73 40 33 41 78 42 72 43
REMARK SMILES IDX 74 44 34 45 77 46 71 47 70 48 35 50 61 51 44 52 60 53 45 54
REMARK SMILES IDX 48 55 59 56 75 57 46 58 47 59 58 61 76 62 49 63 36 64 37 65
REMARK SMILES IDX 42 66 38 67 39 68 41 69 43 70 40 71 62 72 63 73 68 74 64 75
REMARK SMILES IDX 65 76 67 77 69 78 66 79 50 80 51 81 56 82 52 83 53 84 55 85
REMARK SMILES IDX 57 86 54 87
REMARK H PARENT 74 49 48 60
REMARK Flexibility Score: inf
ROOT
ATOM      1  C   UNL A   1      34.374  30.155  26.921  1.00  0.00     0.188 C 
ENDROOT
BRANCH   1   2
ATOM      2  C   UNL A   1      33.835  28.732  27.096  1.00  0.00     0.188 C 
BRANCH   2   3
ATOM      3  O   UNL A   1      32.593  28.460  26.478  1.00  0.00    -0.376 OA
BRANCH   3   4
ATOM      4  C   UNL A   1      32.457  27.220  25.790  1.00  0.00     0.202 C 
BRANCH   4   5
ATOM      5  C   UNL A   1      32.373  27.355  24.277  1.00  0.00     0.261 C 
BRANCH   5   6
ATOM      6  O   UNL A   1      33.546  26.973  23.557  1.00  0.00    -0.460 OA
BRANCH   6   7
ATOM      7  C   UNL A   1      33.465  26.123  22.508  1.00  0.00     0.338 C 
ATOM      8  O   UNL A   1      33.649  26.322  21.321  1.00  0.00    -0.246 OA
BRANCH   7   9
ATOM      9  C   UNL A   1      33.316  24.780  23.078  1.00  0.00     0.062 A 
ATOM     10  C   UNL A   1      34.342  22.782  23.983  1.00  0.00     0.040 A 
ATOM     11  C   UNL A   1      34.397  24.143  23.689  1.00  0.00     0.041 A 
ATOM     12  C   UNL A   1      33.157  22.076  23.695  1.00  0.00    -0.028 A 
ATOM     13  C   UNL A   1      32.047  22.752  23.148  1.00  0.00     0.006 A 
ATOM     14  C   UNL A   1      33.022  20.597  23.911  1.00  0.00     0.046 C 
ATOM     15  C   UNL A   1      32.124  24.102  22.840  1.00  0.00     0.016 A 
BRANCH  10  16
ATOM     16  N   UNL A   1      35.488  22.133  24.494  1.00  0.00    -0.371 N 
ATOM     17  C   UNL A   1      37.403  22.496  25.256  1.00  0.00     0.028 C 
ATOM     18  C   UNL A   1      36.784  22.231  23.875  1.00  0.00     0.122 C 
ATOM     19  C   UNL A   1      36.007  22.238  25.829  1.00  0.00     0.122 C 
BRANCH  17  20
ATOM     20  C   UNL A   1      38.475  21.523  25.741  1.00  0.00     0.007 C 
BRANCH  20  21
ATOM     21  C   UNL A   1      39.585  22.239  26.512  1.00  0.00    -0.003 C 
ATOM     22  C   UNL A   1      39.264  23.708  26.756  1.00  0.00     0.004 C 
ENDBRANCH  20  21
ENDBRANCH  17  20
ENDBRANCH  10  16
ENDBRANCH   7   9
ENDBRANCH   6   7
ENDBRANCH   5   6
ENDBRANCH   4   5
ENDBRANCH   3   4
ENDBRANCH   2   3
ENDBRANCH   1   2
BRANCH   1  23
ATOM     23  O   UNL A   1      34.667  30.867  28.121  1.00  0.00    -0.377 OA
BRANCH  23  24
ATOM     24  C   UNL A   1      34.024  32.124  28.304  1.00  0.00     0.188 C 
BRANCH  24  25
ATOM     25  C   UNL A   1      35.013  33.290  28.374  1.00  0.00     0.188 C 
BRANCH  25  26
ATOM     26  O   UNL A   1      34.461  34.468  27.806  1.00  0.00    -0.376 OA
BRANCH  26  27
ATOM     27  C   UNL A   1      34.353  35.605  28.652  1.00  0.00     0.202 C 
BRANCH  27  28
ATOM     28  C   UNL A   1      32.901  35.870  29.053  1.00  0.00     0.261 C 
BRANCH  28  29
ATOM     29  O   UNL A   1      32.595  35.076  30.214  1.00  0.00    -0.460 OA
BRANCH  29  30
ATOM     30  C   UNL A   1      32.731  35.707  31.409  1.00  0.00     0.338 C 
ATOM     31  O   UNL A   1      32.193  36.758  31.732  1.00  0.00    -0.246 OA
BRANCH  30  32
ATOM     32  C   UNL A   1      33.775  35.036  32.232  1.00  0.00     0.060 A 
ATOM     33  C   UNL A   1      35.044  35.624  32.344  1.00  0.00     0.016 A 
ATOM     34  C   UNL A   1      33.573  33.753  32.737  1.00  0.00     0.016 A 
ATOM     35  C   UNL A   1      36.119  34.906  32.896  1.00  0.00     0.010 A 
ATOM     36  C   UNL A   1      34.652  33.030  33.241  1.00  0.00     0.010 A 
ATOM     37  C   UNL A   1      35.947  33.578  33.308  1.00  0.00    -0.014 A 
BRANCH  37  38
ATOM     38  C   UNL A   1      37.066  32.632  33.544  1.00  0.00     0.031 A 
ATOM     39  C   UNL A   1      37.278  31.361  32.767  1.00  0.00     0.074 A 
ATOM     40  C   UNL A   1      38.203  33.182  34.035  1.00  0.00     0.049 A 
ATOM     41  N   UNL A   1      38.338  30.614  32.876  1.00  0.00    -0.248 NA
ATOM     42  C   UNL A   1      36.316  30.786  31.826  1.00  0.00     0.031 C 
ATOM     43  C   UNL A   1      39.522  32.946  33.465  1.00  0.00     0.029 A 
ATOM     44  N   UNL A   1      38.443  34.068  35.083  1.00  0.00    -0.354 N 
ATOM     45  C   UNL A   1      38.420  29.887  31.711  1.00  0.00     0.074 A 
ATOM     46  C   UNL A   1      37.057  29.830  31.247  1.00  0.00     0.031 C 
ATOM     47  C   UNL A   1      40.455  33.504  34.231  1.00  0.00     0.029 A 
ATOM     48  C   UNL A   1      39.805  34.049  35.396  1.00  0.00     0.049 A 
ATOM     49  H   UNL A   1      37.762  34.621  35.531  1.00  0.00     0.167 HD
ATOM     50  C   UNL A   1      39.636  29.603  31.152  1.00  0.00     0.037 A 
ATOM     51  C   UNL A   1      40.399  34.121  36.610  1.00  0.00     0.037 A 
ATOM     52  C   UNL A   1      40.787  29.968  32.002  1.00  0.00     0.049 A 
ATOM     53  C   UNL A   1      41.274  32.921  36.804  1.00  0.00     0.074 A 
ATOM     54  C   UNL A   1      41.944  30.699  31.779  1.00  0.00     0.029 A 
ATOM     55  N   UNL A   1      40.789  29.665  33.368  1.00  0.00    -0.354 N 
ATOM     56  N   UNL A   1      41.096  31.877  36.037  1.00  0.00    -0.248 NA
ATOM     57  C   UNL A   1      42.379  32.719  37.735  1.00  0.00     0.031 C 
ATOM     58  C   UNL A   1      42.633  30.833  33.017  1.00  0.00     0.029 A 
ATOM     59  C   UNL A   1      41.912  30.168  33.997  1.00  0.00     0.049 A 
ATOM     60  H   UNL A   1      40.080  29.158  33.825  1.00  0.00     0.167 HD
ATOM     61  C   UNL A   1      42.082  30.975  36.237  1.00  0.00     0.074 A 
ATOM     62  C   UNL A   1      42.805  31.484  37.386  1.00  0.00     0.031 C 
ATOM     63  C   UNL A   1      42.204  29.905  35.407  1.00  0.00     0.037 A 
BRANCH  50  64
ATOM     64  C   UNL A   1      39.826  29.117  29.713  1.00  0.00     0.057 A 
ATOM     65  C   UNL A   1      40.677  28.028  29.422  1.00  0.00     0.134 A 
ATOM     66  C   UNL A   1      39.261  29.713  28.565  1.00  0.00     0.134 A 
ATOM     67  F   UNL A   1      41.333  27.376  30.392  1.00  0.00    -0.206 F 
ATOM     68  C   UNL A   1      40.903  27.550  28.118  1.00  0.00     0.040 A 
ATOM     69  C   UNL A   1      39.421  29.200  27.266  1.00  0.00     0.040 A 
ATOM     70  F   UNL A   1      38.573  30.860  28.620  1.00  0.00    -0.206 F 
ATOM     71  C   UNL A   1      40.247  28.114  27.035  1.00  0.00     0.006 A 
ENDBRANCH  50  64
BRANCH  51  72
ATOM     72  C   UNL A   1      39.817  35.138  37.501  1.00  0.00     0.057 A 
ATOM     73  C   UNL A   1      38.989  34.629  38.521  1.00  0.00     0.134 A 
ATOM     74  C   UNL A   1      40.511  36.321  37.776  1.00  0.00     0.134 A 
ATOM     75  F   UNL A   1      38.293  33.497  38.320  1.00  0.00    -0.206 F 
ATOM     76  C   UNL A   1      38.991  35.170  39.809  1.00  0.00     0.040 A 
ATOM     77  C   UNL A   1      40.525  36.868  39.066  1.00  0.00     0.040 A 
ATOM     78  F   UNL A   1      41.365  36.827  36.875  1.00  0.00    -0.206 F 
ATOM     79  C   UNL A   1      39.799  36.266  40.095  1.00  0.00     0.006 A 
ENDBRANCH  51  72
BRANCH  63  80
ATOM     80  C   UNL A   1      42.643  28.546  35.859  1.00  0.00     0.057 A 
ATOM     81  C   UNL A   1      43.996  28.185  35.970  1.00  0.00     0.134 A 
ATOM     82  C   UNL A   1      41.724  27.651  36.445  1.00  0.00     0.134 A 
ATOM     83  F   UNL A   1      44.976  28.978  35.514  1.00  0.00    -0.206 F 
ATOM     84  C   UNL A   1      44.407  27.016  36.619  1.00  0.00     0.040 A 
ATOM     85  C   UNL A   1      42.127  26.500  37.125  1.00  0.00     0.040 A 
ATOM     86  F   UNL A   1      40.403  27.881  36.423  1.00  0.00    -0.206 F 
ATOM     87  C   UNL A   1      43.473  26.178  37.215  1.00  0.00     0.006 A 
ENDBRANCH  63  80
ENDBRANCH  37  38
ENDBRANCH  30  32
ENDBRANCH  29  30
ENDBRANCH  28  29
ENDBRANCH  27  28
ENDBRANCH  26  27
ENDBRANCH  25  26
ENDBRANCH  24  25
ENDBRANCH  23  24
ENDBRANCH   1  23
TORSDOF 23
ENDMDL
MODEL 3
REMARK VINA RESULT:     -10.1      1.894      3.041
REMARK SMILES CCCC1CN(c2cc(C(=O)OCCOCCOCCOCCOC(=O)c3ccc(-c4c5nc(c(-c6c(F)cccc6F)c6ccc([nH]6)c(-c6c(F)cccc6F)c6nc(c(-c7c(F)cccc7F)c7ccc4[nH]7)C=C6)C=C5)cc3)ccc2C)C1
REMARK SMILES IDX 17 1 16 2 15 3 14 4 13 5 12 6 10 7 11 8 9 9 7 10 8 11 83 12
REMARK SMILES IDX 82 13 84 14 81 15 6 16 4 17 5 18 85 19 3 20 2 21 1 22 18 23
REMARK SMILES IDX 19 24 20 25 21 26 22 27 23 28 24 29 25 30 26 31 27 32 28 33
REMARK SMILES IDX 80 34 29 35 79 36 30 37 31 38 32 39 73 40 33 41 78 42 72 43
REMARK SMILES IDX 74 44 34 45 77 46 71 47 70 48 35 50 61 51 44 52 60 53 45 54
REMARK SMILES IDX 48 55 59 56 75 57 46 58 47 59 58 61 76 62 49 63 36 64 37 65
REMARK SMILES IDX 42 66 38 67 39 68 41 69 43 70 40 71 62 72 63 73 68 74 64 75
REMARK SMILES IDX 65 76 67 77 69 78 66 79 50 80 51 81 56 82 52 83 53 84 55 85
REMARK SMILES IDX 57 86 54 87
REMARK H PARENT 74 49 48 60
REMARK Flexibility Score: inf
ROOT
ATOM      1  C   UNL A   1      31.818  28.955  25.743  1.00  0.00     0.188 C 
ENDROOT
BRANCH   1   2
ATOM      2  C   UNL A   1      31.282  27.522  25.819  1.00  0.00     0.188 C 
BRANCH   2   3
ATOM      3  O   UNL A   1      30.338  27.160  24.831  1.00  0.00    -0.376 OA
BRANCH   3   4
ATOM      4  C   UNL A   1      30.510  25.903  24.184  1.00  0.00     0.202 C 
BRANCH   4   5
ATOM      5  C   UNL A   1      31.200  25.989  22.831  1.00  0.00     0.261 C 
BRANCH   5   6
ATOM      6  O   UNL A   1      32.547  25.514  22.794  1.00  0.00    -0.460 OA
BRANCH   6   7
ATOM      7  C   UNL A   1      32.894  24.491  21.980  1.00  0.00     0.338 C 
ATOM      8  O   UNL A   1      33.225  24.499  20.808  1.00  0.00    -0.246 OA
BRANCH   7   9
ATOM      9  C   UNL A   1      33.026  23.309  22.837  1.00  0.00     0.062 A 
ATOM     10  C   UNL A   1      34.441  21.819  24.117  1.00  0.00     0.040 A 
ATOM     11  C   UNL A   1      34.213  23.061  23.527  1.00  0.00     0.041 A 
ATOM     12  C   UNL A   1      33.431  20.839  24.041  1.00  0.00    -0.028 A 
ATOM     13  C   UNL A   1      32.208  21.134  23.407  1.00  0.00     0.006 A 
ATOM     14  C   UNL A   1      33.607  19.451  24.584  1.00  0.00     0.046 C 
ATOM     15  C   UNL A   1      32.003  22.367  22.805  1.00  0.00     0.016 A 
BRANCH  10  16
ATOM     16  N   UNL A   1      35.695  21.549  24.710  1.00  0.00    -0.371 N 
ATOM     17  C   UNL A   1      37.375  22.479  25.543  1.00  0.00     0.028 C 
ATOM     18  C   UNL A   1      36.940  22.005  24.148  1.00  0.00     0.122 C 
ATOM     19  C   UNL A   1      36.083  21.841  26.061  1.00  0.00     0.122 C 
BRANCH  17  20
ATOM     20  C   UNL A   1      38.653  21.878  26.121  1.00  0.00     0.007 C 
BRANCH  20  21
ATOM     21  C   UNL A   1      39.586  22.954  26.678  1.00  0.00    -0.003 C 
ATOM     22  C   UNL A   1      40.859  22.364  27.273  1.00  0.00     0.004 C 
ENDBRANCH  20  21
ENDBRANCH  17  20
ENDBRANCH  10  16
ENDBRANCH   7   9
ENDBRANCH   6   7
ENDBRANCH   5   6
ENDBRANCH   4   5
ENDBRANCH   3   4
ENDBRANCH   2   3
ENDBRANCH   1   2
BRANCH   1  23
ATOM     23  O   UNL A   1      32.265  29.524  26.972  1.00  0.00    -0.377 OA
BRANCH  23  24
ATOM     24  C   UNL A   1      32.652  30.893  26.951  1.00  0.00     0.188 C 
BRANCH  24  25
ATOM     25  C   UNL A   1      33.860  31.182  27.846  1.00  0.00     0.188 C 
BRANCH  25  26
ATOM     26  O   UNL A   1      34.642  32.247  27.329  1.00  0.00    -0.376 OA
BRANCH  26  27
ATOM     27  C   UNL A   1      35.023  33.270  28.238  1.00  0.00     0.202 C 
BRANCH  27  28
ATOM     28  C   UNL A   1      33.836  34.158  28.615  1.00  0.00     0.261 C 
BRANCH  28  29
ATOM     29  O   UNL A   1      33.477  33.885  29.981  1.00  0.00    -0.460 OA
BRANCH  29  30
ATOM     30  C   UNL A   1      34.024  34.713  30.909  1.00  0.00     0.338 C 
ATOM     31  O   UNL A   1      33.762  35.899  31.057  1.00  0.00    -0.246 OA
BRANCH  30  32
ATOM     32  C   UNL A   1      35.133  34.025  31.624  1.00  0.00     0.060 A 
ATOM     33  C   UNL A   1      36.461  34.344  31.304  1.00  0.00     0.016 A 
ATOM     34  C   UNL A   1      34.879  32.945  32.469  1.00  0.00     0.016 A 
ATOM     35  C   UNL A   1      37.522  33.549  31.769  1.00  0.00     0.010 A 
ATOM     36  C   UNL A   1      35.930  32.134  32.890  1.00  0.00     0.010 A 
ATOM     37  C   UNL A   1      37.265  32.401  32.531  1.00  0.00    -0.014 A 
BRANCH  37  38
ATOM     38  C   UNL A   1      38.250  31.312  32.748  1.00  0.00     0.031 A 
ATOM     39  C   UNL A   1      38.345  30.075  31.897  1.00  0.00     0.074 A 
ATOM     40  C   UNL A   1      39.421  31.688  33.317  1.00  0.00     0.049 A 
ATOM     41  N   UNL A   1      39.302  29.198  31.998  1.00  0.00    -0.248 NA
ATOM     42  C   UNL A   1      37.366  29.679  30.885  1.00  0.00     0.031 C 
ATOM     43  C   UNL A   1      40.728  31.328  32.784  1.00  0.00     0.029 A 
ATOM     44  N   UNL A   1      39.717  32.473  34.430  1.00  0.00    -0.354 N 
ATOM     45  C   UNL A   1      39.350  28.538  30.792  1.00  0.00     0.074 A 
ATOM     46  C   UNL A   1      38.012  28.677  30.272  1.00  0.00     0.031 C 
ATOM     47  C   UNL A   1      41.684  31.720  33.621  1.00  0.00     0.029 A 
ATOM     48  C   UNL A   1      41.051  32.268  34.794  1.00  0.00     0.049 A 
ATOM     49  H   UNL A   1      39.087  33.077  34.886  1.00  0.00     0.167 HD
ATOM     50  C   UNL A   1      40.547  28.142  30.263  1.00  0.00     0.037 A 
ATOM     51  C   UNL A   1      41.591  32.194  36.032  1.00  0.00     0.037 A 
ATOM     52  C   UNL A   1      41.693  28.311  31.179  1.00  0.00     0.049 A 
ATOM     53  C   UNL A   1      42.307  30.886  36.180  1.00  0.00     0.074 A 
ATOM     54  C   UNL A   1      42.939  28.907  31.050  1.00  0.00     0.029 A 
ATOM     55  N   UNL A   1      41.596  27.928  32.521  1.00  0.00    -0.354 N 
ATOM     56  N   UNL A   1      42.041  29.921  35.340  1.00  0.00    -0.248 NA
ATOM     57  C   UNL A   1      43.335  30.494  37.137  1.00  0.00     0.031 C 
ATOM     58  C   UNL A   1      43.581  28.881  32.320  1.00  0.00     0.029 A 
ATOM     59  C   UNL A   1      42.740  28.251  33.225  1.00  0.00     0.049 A 
ATOM     60  H   UNL A   1      40.810  27.485  32.916  1.00  0.00     0.167 HD
ATOM     61  C   UNL A   1      42.901  28.894  35.518  1.00  0.00     0.074 A 
ATOM     62  C   UNL A   1      43.626  29.240  36.725  1.00  0.00     0.031 C 
ATOM     63  C   UNL A   1      42.932  27.869  34.625  1.00  0.00     0.037 A 
BRANCH  50  64
ATOM     64  C   UNL A   1      40.745  27.724  28.804  1.00  0.00     0.057 A 
ATOM     65  C   UNL A   1      41.278  28.626  27.858  1.00  0.00     0.134 A 
ATOM     66  C   UNL A   1      40.371  26.481  28.249  1.00  0.00     0.134 A 
ATOM     67  F   UNL A   1      41.643  29.868  28.204  1.00  0.00    -0.206 F 
ATOM     68  C   UNL A   1      41.465  28.302  26.501  1.00  0.00     0.040 A 
ATOM     69  C   UNL A   1      40.619  26.121  26.913  1.00  0.00     0.040 A 
ATOM     70  F   UNL A   1      39.687  25.565  28.945  1.00  0.00    -0.206 F 
ATOM     71  C   UNL A   1      41.167  27.033  26.030  1.00  0.00     0.006 A 
ENDBRANCH  50  64
BRANCH  51  72
ATOM     72  C   UNL A   1      41.095  33.219  36.964  1.00  0.00     0.057 A 
ATOM     73  C   UNL A   1      41.662  34.498  36.795  1.00  0.00     0.134 A 
ATOM     74  C   UNL A   1      39.784  33.163  37.448  1.00  0.00     0.134 A 
ATOM     75  F   UNL A   1      42.919  34.621  36.336  1.00  0.00    -0.206 F 
ATOM     76  C   UNL A   1      40.903  35.663  36.929  1.00  0.00     0.040 A 
ATOM     77  C   UNL A   1      39.012  34.325  37.581  1.00  0.00     0.040 A 
ATOM     78  F   UNL A   1      39.161  31.983  37.574  1.00  0.00    -0.206 F 
ATOM     79  C   UNL A   1      39.559  35.573  37.278  1.00  0.00     0.006 A 
ENDBRANCH  51  72
BRANCH  63  80
ATOM     80  C   UNL A   1      43.184  26.442  35.003  1.00  0.00     0.057 A 
ATOM     81  C   UNL A   1      42.149  25.506  35.162  1.00  0.00     0.134 A 
ATOM     82  C   UNL A   1      44.488  25.906  34.961  1.00  0.00     0.134 A 
ATOM     83  F   UNL A   1      40.859  25.874  35.153  1.00  0.00    -0.206 F 
ATOM     84  C   UNL A   1      42.392  24.133  35.271  1.00  0.00     0.040 A 
ATOM     85  C   UNL A   1      44.738  24.534  35.033  1.00  0.00     0.040 A 
ATOM     86  F   UNL A   1      45.567  26.686  34.800  1.00  0.00    -0.206 F 
ATOM     87  C   UNL A   1      43.689  23.641  35.188  1.00  0.00     0.006 A 
ENDBRANCH  63  80
ENDBRANCH  37  38
ENDBRANCH  30  32
ENDBRANCH  29  30
ENDBRANCH  28  29
ENDBRANCH  27  28
ENDBRANCH  26  27
ENDBRANCH  25  26
ENDBRANCH  24  25
ENDBRANCH  23  24
ENDBRANCH   1  23
TORSDOF 23
ENDMDL
