MODEL 1
REMARK VINA RESULT:      -9.3      0.000      0.000
REMARK SMILES Cc1cc(C(=O)Nc2nc(CC(=O)OCCOCCOCCOCCOC(=O)c3ccc(-c4c5nc(c(-c6c(F)cccc6F)c6ccc([nH]6)c(-c6c(F)cccc6F)c6nc(c(-c7c(F)cccc7F)c7ccc4[nH]7)C=C6)C=C5)cc3)cs2)sc1C
REMARK SMILES IDX 19 1 18 2 17 3 16 4 15 5 14 6 12 7 13 8 11 9 10 10 8 11 9 12
REMARK SMILES IDX 84 13 83 14 7 15 5 16 6 17 4 19 1 20 2 21 3 22 86 23 85 24
REMARK SMILES IDX 87 25 20 26 21 27 22 28 23 29 24 30 25 31 26 32 27 33 28 34
REMARK SMILES IDX 29 35 30 36 82 37 31 38 81 39 32 40 33 41 34 42 75 43 35 44
REMARK SMILES IDX 80 45 74 46 76 47 36 48 79 49 73 50 72 51 37 53 63 54 46 55
REMARK SMILES IDX 62 56 47 57 50 58 61 59 77 60 48 61 49 62 60 64 78 65 51 66
REMARK SMILES IDX 38 67 39 68 44 69 40 70 41 71 43 72 45 73 42 74 64 75 65 76
REMARK SMILES IDX 70 77 66 78 67 79 69 80 71 81 68 82 52 83 53 84 58 85 54 86
REMARK SMILES IDX 55 87 57 88 59 89 56 90
REMARK H PARENT 7 18 76 52 50 63
REMARK Flexibility Score: inf
ROOT
ATOM      1  C   UNL A   1      27.800  31.601  23.266  1.00  0.00     0.188 C 
ENDROOT
BRANCH   1   2
ATOM      2  C   UNL A   1      27.914  31.041  21.844  1.00  0.00     0.188 C 
BRANCH   2   3
ATOM      3  O   UNL A   1      28.642  29.847  21.598  1.00  0.00    -0.376 OA
BRANCH   3   4
ATOM      4  C   UNL A   1      30.058  29.846  21.699  1.00  0.00     0.202 C 
BRANCH   4   5
ATOM      5  C   UNL A   1      30.774  28.636  22.336  1.00  0.00     0.261 C 
BRANCH   5   6
ATOM      6  O   UNL A   1      32.146  28.820  22.769  1.00  0.00    -0.463 OA
BRANCH   6   7
ATOM      7  C   UNL A   1      33.052  27.907  22.339  1.00  0.00     0.311 C 
ATOM      8  O   UNL A   1      34.157  28.217  21.896  1.00  0.00    -0.252 OA
BRANCH   7   9
ATOM      9  C   UNL A   1      32.663  26.442  22.429  1.00  0.00     0.179 C 
BRANCH   9  10
ATOM     10  C   UNL A   1      32.140  25.831  23.700  1.00  0.00     0.065 A 
ATOM     11  C   UNL A   1      31.345  24.124  24.853  1.00  0.00     0.189 A 
ATOM     12  N   UNL A   1      31.532  24.580  23.639  1.00  0.00    -0.224 NA
ATOM     13  S   UNL A   1      31.590  25.227  26.128  1.00  0.00    -0.105 S 
ATOM     14  C   UNL A   1      32.451  26.208  25.005  1.00  0.00     0.093 A 
BRANCH  11  15
ATOM     15  N   UNL A   1      31.191  22.836  25.260  1.00  0.00    -0.297 N 
ATOM     16  C   UNL A   1      32.179  21.874  25.198  1.00  0.00     0.267 C 
ATOM     17  O   UNL A   1      31.817  20.702  25.343  1.00  0.00    -0.268 OA
ATOM     18  H   UNL A   1      30.315  22.571  25.623  1.00  0.00     0.172 HD
BRANCH  16  19
ATOM     19  C   UNL A   1      33.600  22.221  25.083  1.00  0.00     0.093 A 
ATOM     20  C   UNL A   1      36.754  22.763  23.083  1.00  0.00     0.045 C 
ATOM     21  C   UNL A   1      35.720  22.679  24.152  1.00  0.00    -0.037 A 
ATOM     22  C   UNL A   1      34.369  22.235  23.930  1.00  0.00     0.029 A 
ATOM     23  C   UNL A   1      35.895  23.046  25.475  1.00  0.00     0.005 A 
ATOM     24  S   UNL A   1      34.651  22.385  26.433  1.00  0.00    -0.135 S 
ATOM     25  C   UNL A   1      37.006  23.799  26.125  1.00  0.00     0.056 C 
ENDBRANCH  16  19
ENDBRANCH  11  15
ENDBRANCH   9  10
ENDBRANCH   7   9
ENDBRANCH   6   7
ENDBRANCH   5   6
ENDBRANCH   4   5
ENDBRANCH   3   4
ENDBRANCH   2   3
ENDBRANCH   1   2
BRANCH   1  26
ATOM     26  O   UNL A   1      28.932  32.254  23.792  1.00  0.00    -0.377 OA
BRANCH  26  27
ATOM     27  C   UNL A   1      29.785  31.502  24.629  1.00  0.00     0.188 C 
BRANCH  27  28
ATOM     28  C   UNL A   1      30.603  32.290  25.659  1.00  0.00     0.188 C 
BRANCH  28  29
ATOM     29  O   UNL A   1      31.331  31.462  26.559  1.00  0.00    -0.376 OA
BRANCH  29  30
ATOM     30  C   UNL A   1      31.938  30.278  26.061  1.00  0.00     0.202 C 
BRANCH  30  31
ATOM     31  C   UNL A   1      33.276  29.835  26.682  1.00  0.00     0.261 C 
BRANCH  31  32
ATOM     32  O   UNL A   1      33.590  30.354  27.984  1.00  0.00    -0.460 OA
BRANCH  32  33
ATOM     33  C   UNL A   1      34.603  31.243  28.076  1.00  0.00     0.338 C 
ATOM     34  O   UNL A   1      34.513  32.451  28.123  1.00  0.00    -0.246 OA
BRANCH  33  35
ATOM     35  C   UNL A   1      35.855  30.491  28.326  1.00  0.00     0.060 A 
ATOM     36  C   UNL A   1      35.932  29.705  29.481  1.00  0.00     0.016 A 
ATOM     37  C   UNL A   1      36.940  30.563  27.447  1.00  0.00     0.016 A 
ATOM     38  C   UNL A   1      37.110  29.025  29.785  1.00  0.00     0.010 A 
ATOM     39  C   UNL A   1      38.130  29.898  27.766  1.00  0.00     0.010 A 
ATOM     40  C   UNL A   1      38.233  29.158  28.957  1.00  0.00    -0.014 A 
BRANCH  40  41
ATOM     41  C   UNL A   1      39.542  28.668  29.454  1.00  0.00     0.031 A 
ATOM     42  C   UNL A   1      40.138  29.311  30.677  1.00  0.00     0.074 A 
ATOM     43  C   UNL A   1      40.146  27.608  28.887  1.00  0.00     0.049 A 
ATOM     44  N   UNL A   1      41.228  29.002  31.333  1.00  0.00    -0.248 NA
ATOM     45  C   UNL A   1      39.403  30.456  31.239  1.00  0.00     0.031 C 
ATOM     46  C   UNL A   1      39.650  26.874  27.724  1.00  0.00     0.029 A 
ATOM     47  N   UNL A   1      41.305  26.956  29.228  1.00  0.00    -0.354 N 
ATOM     48  C   UNL A   1      41.303  29.906  32.387  1.00  0.00     0.074 A 
ATOM     49  C   UNL A   1      40.174  30.802  32.258  1.00  0.00     0.031 C 
ATOM     50  C   UNL A   1      40.498  25.868  27.449  1.00  0.00     0.029 A 
ATOM     51  C   UNL A   1      41.608  25.902  28.401  1.00  0.00     0.049 A 
ATOM     52  H   UNL A   1      41.867  27.219  29.992  1.00  0.00     0.167 HD
ATOM     53  C   UNL A   1      42.221  29.975  33.381  1.00  0.00     0.037 A 
ATOM     54  C   UNL A   1      42.665  25.067  28.408  1.00  0.00     0.037 A 
ATOM     55  C   UNL A   1      43.350  29.089  33.503  1.00  0.00     0.049 A 
ATOM     56  C   UNL A   1      43.713  25.214  29.482  1.00  0.00     0.074 A 
ATOM     57  C   UNL A   1      44.334  29.073  34.476  1.00  0.00     0.029 A 
ATOM     58  N   UNL A   1      43.654  28.068  32.614  1.00  0.00    -0.354 N 
ATOM     59  N   UNL A   1      43.757  26.051  30.491  1.00  0.00    -0.248 NA
ATOM     60  C   UNL A   1      44.853  24.289  29.422  1.00  0.00     0.031 C 
ATOM     61  C   UNL A   1      45.263  28.082  34.145  1.00  0.00     0.029 A 
ATOM     62  C   UNL A   1      44.823  27.435  33.001  1.00  0.00     0.049 A 
ATOM     63  H   UNL A   1      43.116  27.829  31.825  1.00  0.00     0.167 HD
ATOM     64  C   UNL A   1      44.911  25.734  31.200  1.00  0.00     0.074 A 
ATOM     65  C   UNL A   1      45.520  24.610  30.520  1.00  0.00     0.031 C 
ATOM     66  C   UNL A   1      45.423  26.319  32.312  1.00  0.00     0.037 A 
BRANCH  53  67
ATOM     67  C   UNL A   1      42.056  31.065  34.402  1.00  0.00     0.057 A 
ATOM     68  C   UNL A   1      42.626  32.333  34.233  1.00  0.00     0.134 A 
ATOM     69  C   UNL A   1      41.286  30.853  35.553  1.00  0.00     0.134 A 
ATOM     70  F   UNL A   1      43.388  32.600  33.161  1.00  0.00    -0.206 F 
ATOM     71  C   UNL A   1      42.455  33.343  35.182  1.00  0.00     0.040 A 
ATOM     72  C   UNL A   1      41.084  31.863  36.494  1.00  0.00     0.040 A 
ATOM     73  F   UNL A   1      40.708  29.662  35.777  1.00  0.00    -0.206 F 
ATOM     74  C   UNL A   1      41.675  33.112  36.313  1.00  0.00     0.006 A 
ENDBRANCH  53  67
BRANCH  54  75
ATOM     75  C   UNL A   1      42.802  24.019  27.362  1.00  0.00     0.057 A 
ATOM     76  C   UNL A   1      43.482  24.265  26.164  1.00  0.00     0.134 A 
ATOM     77  C   UNL A   1      42.213  22.758  27.519  1.00  0.00     0.134 A 
ATOM     78  F   UNL A   1      44.046  25.461  25.941  1.00  0.00    -0.206 F 
ATOM     79  C   UNL A   1      43.548  23.307  25.149  1.00  0.00     0.040 A 
ATOM     80  C   UNL A   1      42.298  21.781  26.527  1.00  0.00     0.040 A 
ATOM     81  F   UNL A   1      41.544  22.457  28.643  1.00  0.00    -0.206 F 
ATOM     82  C   UNL A   1      42.959  22.058  25.332  1.00  0.00     0.006 A 
ENDBRANCH  54  75
BRANCH  66  83
ATOM     83  C   UNL A   1      46.686  25.729  32.876  1.00  0.00     0.057 A 
ATOM     84  C   UNL A   1      47.956  26.147  32.456  1.00  0.00     0.134 A 
ATOM     85  C   UNL A   1      46.629  24.726  33.853  1.00  0.00     0.134 A 
ATOM     86  F   UNL A   1      48.084  27.097  31.518  1.00  0.00    -0.206 F 
ATOM     87  C   UNL A   1      49.121  25.555  32.950  1.00  0.00     0.040 A 
ATOM     88  C   UNL A   1      47.788  24.152  34.381  1.00  0.00     0.040 A 
ATOM     89  F   UNL A   1      45.449  24.287  34.314  1.00  0.00    -0.206 F 
ATOM     90  C   UNL A   1      49.038  24.556  33.918  1.00  0.00     0.006 A 
ENDBRANCH  66  83
ENDBRANCH  40  41
ENDBRANCH  33  35
ENDBRANCH  32  33
ENDBRANCH  31  32
ENDBRANCH  30  31
ENDBRANCH  29  30
ENDBRANCH  28  29
ENDBRANCH  27  28
ENDBRANCH  26  27
ENDBRANCH   1  26
TORSDOF 23
ENDMDL
MODEL 2
REMARK VINA RESULT:      -9.3      1.670      6.027
REMARK SMILES Cc1cc(C(=O)Nc2nc(CC(=O)OCCOCCOCCOCCOC(=O)c3ccc(-c4c5nc(c(-c6c(F)cccc6F)c6ccc([nH]6)c(-c6c(F)cccc6F)c6nc(c(-c7c(F)cccc7F)c7ccc4[nH]7)C=C6)C=C5)cc3)cs2)sc1C
REMARK SMILES IDX 19 1 18 2 17 3 16 4 15 5 14 6 12 7 13 8 11 9 10 10 8 11 9 12
REMARK SMILES IDX 84 13 83 14 7 15 5 16 6 17 4 19 1 20 2 21 3 22 86 23 85 24
REMARK SMILES IDX 87 25 20 26 21 27 22 28 23 29 24 30 25 31 26 32 27 33 28 34
REMARK SMILES IDX 29 35 30 36 82 37 31 38 81 39 32 40 33 41 34 42 75 43 35 44
REMARK SMILES IDX 80 45 74 46 76 47 36 48 79 49 73 50 72 51 37 53 63 54 46 55
REMARK SMILES IDX 62 56 47 57 50 58 61 59 77 60 48 61 49 62 60 64 78 65 51 66
REMARK SMILES IDX 38 67 39 68 44 69 40 70 41 71 43 72 45 73 42 74 64 75 65 76
REMARK SMILES IDX 70 77 66 78 67 79 69 80 71 81 68 82 52 83 53 84 58 85 54 86
REMARK SMILES IDX 55 87 57 88 59 89 56 90
REMARK H PARENT 7 18 76 52 50 63
REMARK Flexibility Score: inf
ROOT
ATOM      1  C   UNL A   1      27.988  31.619  23.174  1.00  0.00     0.188 C 
ENDROOT
BRANCH   1   2
ATOM      2  C   UNL A   1      28.118  30.960  21.797  1.00  0.00     0.188 C 
BRANCH   2   3
ATOM      3  O   UNL A   1      28.554  29.613  21.682  1.00  0.00    -0.376 OA
BRANCH   3   4
ATOM      4  C   UNL A   1      28.391  28.720  22.773  1.00  0.00     0.202 C 
BRANCH   4   5
ATOM      5  C   UNL A   1      29.522  27.727  23.118  1.00  0.00     0.261 C 
BRANCH   5   6
ATOM      6  O   UNL A   1      30.771  28.277  23.606  1.00  0.00    -0.463 OA
BRANCH   6   7
ATOM      7  C   UNL A   1      31.908  27.841  23.010  1.00  0.00     0.311 C 
ATOM      8  O   UNL A   1      32.681  28.589  22.412  1.00  0.00    -0.252 OA
BRANCH   7   9
ATOM      9  C   UNL A   1      32.223  26.359  23.108  1.00  0.00     0.179 C 
BRANCH   9  10
ATOM     10  C   UNL A   1      31.793  25.527  24.285  1.00  0.00     0.065 A 
ATOM     11  C   UNL A   1      31.196  23.605  25.193  1.00  0.00     0.189 A 
ATOM     12  N   UNL A   1      31.308  24.242  24.053  1.00  0.00    -0.224 NA
ATOM     13  S   UNL A   1      31.365  24.536  26.608  1.00  0.00    -0.105 S 
ATOM     14  C   UNL A   1      32.099  25.746  25.627  1.00  0.00     0.093 A 
BRANCH  11  15
ATOM     15  N   UNL A   1      31.178  22.263  25.414  1.00  0.00    -0.297 N 
ATOM     16  C   UNL A   1      32.240  21.416  25.170  1.00  0.00     0.267 C 
ATOM     17  O   UNL A   1      31.989  20.207  25.159  1.00  0.00    -0.268 OA
ATOM     18  H   UNL A   1      30.349  21.869  25.772  1.00  0.00     0.172 HD
BRANCH  16  19
ATOM     19  C   UNL A   1      33.617  21.909  25.045  1.00  0.00     0.093 A 
ATOM     20  C   UNL A   1      36.620  22.951  23.011  1.00  0.00     0.045 C 
ATOM     21  C   UNL A   1      35.645  22.660  24.099  1.00  0.00    -0.037 A 
ATOM     22  C   UNL A   1      34.331  22.113  23.876  1.00  0.00     0.029 A 
ATOM     23  C   UNL A   1      35.841  22.905  25.447  1.00  0.00     0.005 A 
ATOM     24  S   UNL A   1      34.705  22.034  26.370  1.00  0.00    -0.135 S 
ATOM     25  C   UNL A   1      36.905  23.691  26.135  1.00  0.00     0.056 C 
ENDBRANCH  16  19
ENDBRANCH  11  15
ENDBRANCH   9  10
ENDBRANCH   7   9
ENDBRANCH   6   7
ENDBRANCH   5   6
ENDBRANCH   4   5
ENDBRANCH   3   4
ENDBRANCH   2   3
ENDBRANCH   1   2
BRANCH   1  26
ATOM     26  O   UNL A   1      29.134  32.252  23.694  1.00  0.00    -0.377 OA
BRANCH  26  27
ATOM     27  C   UNL A   1      29.911  31.527  24.624  1.00  0.00     0.188 C 
BRANCH  27  28
ATOM     28  C   UNL A   1      30.626  32.346  25.705  1.00  0.00     0.188 C 
BRANCH  28  29
ATOM     29  O   UNL A   1      31.442  31.559  26.567  1.00  0.00    -0.376 OA
BRANCH  29  30
ATOM     30  C   UNL A   1      31.848  30.269  26.133  1.00  0.00     0.202 C 
BRANCH  30  31
ATOM     31  C   UNL A   1      33.331  29.887  26.291  1.00  0.00     0.261 C 
BRANCH  31  32
ATOM     32  O   UNL A   1      33.826  29.744  27.632  1.00  0.00    -0.460 OA
BRANCH  32  33
ATOM     33  C   UNL A   1      34.644  30.710  28.104  1.00  0.00     0.338 C 
ATOM     34  O   UNL A   1      34.327  31.819  28.476  1.00  0.00    -0.246 OA
BRANCH  33  35
ATOM     35  C   UNL A   1      35.990  30.120  28.295  1.00  0.00     0.060 A 
ATOM     36  C   UNL A   1      36.316  29.618  29.560  1.00  0.00     0.016 A 
ATOM     37  C   UNL A   1      36.921  30.069  27.253  1.00  0.00     0.016 A 
ATOM     38  C   UNL A   1      37.589  29.106  29.801  1.00  0.00     0.010 A 
ATOM     39  C   UNL A   1      38.208  29.576  27.503  1.00  0.00     0.010 A 
ATOM     40  C   UNL A   1      38.559  29.128  28.789  1.00  0.00    -0.014 A 
BRANCH  40  41
ATOM     41  C   UNL A   1      39.971  28.852  29.154  1.00  0.00     0.031 A 
ATOM     42  C   UNL A   1      40.588  27.550  28.718  1.00  0.00     0.074 A 
ATOM     43  C   UNL A   1      40.719  29.779  29.778  1.00  0.00     0.049 A 
ATOM     44  N   UNL A   1      41.819  27.125  28.856  1.00  0.00    -0.248 NA
ATOM     45  C   UNL A   1      39.699  26.601  28.029  1.00  0.00     0.031 C 
ATOM     46  C   UNL A   1      40.248  31.092  30.215  1.00  0.00     0.029 A 
ATOM     47  N   UNL A   1      42.044  29.758  30.138  1.00  0.00    -0.354 N 
ATOM     48  C   UNL A   1      41.853  25.867  28.265  1.00  0.00     0.074 A 
ATOM     49  C   UNL A   1      40.511  25.579  27.807  1.00  0.00     0.031 C 
ATOM     50  C   UNL A   1      41.271  31.754  30.782  1.00  0.00     0.029 A 
ATOM     51  C   UNL A   1      42.461  30.905  30.769  1.00  0.00     0.049 A 
ATOM     52  H   UNL A   1      42.639  28.994  29.961  1.00  0.00     0.167 HD
ATOM     53  C   UNL A   1      42.908  25.034  28.105  1.00  0.00     0.037 A 
ATOM     54  C   UNL A   1      43.663  31.225  31.286  1.00  0.00     0.037 A 
ATOM     55  C   UNL A   1      44.241  25.317  28.571  1.00  0.00     0.049 A 
ATOM     56  C   UNL A   1      44.803  30.246  31.160  1.00  0.00     0.074 A 
ATOM     57  C   UNL A   1      45.380  24.540  28.454  1.00  0.00     0.029 A 
ATOM     58  N   UNL A   1      44.612  26.466  29.256  1.00  0.00    -0.354 N 
ATOM     59  N   UNL A   1      44.831  29.074  30.572  1.00  0.00    -0.248 NA
ATOM     60  C   UNL A   1      46.083  30.644  31.764  1.00  0.00     0.031 C 
ATOM     61  C   UNL A   1      46.426  25.191  29.117  1.00  0.00     0.029 A 
ATOM     62  C   UNL A   1      45.955  26.405  29.590  1.00  0.00     0.049 A 
ATOM     63  H   UNL A   1      44.010  27.213  29.471  1.00  0.00     0.167 HD
ATOM     64  C   UNL A   1      46.136  28.609  30.709  1.00  0.00     0.074 A 
ATOM     65  C   UNL A   1      46.871  29.640  31.411  1.00  0.00     0.031 C 
ATOM     66  C   UNL A   1      46.676  27.436  30.295  1.00  0.00     0.037 A 
BRANCH  53  67
ATOM     67  C   UNL A   1      42.656  23.721  27.421  1.00  0.00     0.057 A 
ATOM     68  C   UNL A   1      42.675  23.594  26.026  1.00  0.00     0.134 A 
ATOM     69  C   UNL A   1      42.425  22.559  28.169  1.00  0.00     0.134 A 
ATOM     70  F   UNL A   1      42.874  24.669  25.248  1.00  0.00    -0.206 F 
ATOM     71  C   UNL A   1      42.452  22.366  25.400  1.00  0.00     0.040 A 
ATOM     72  C   UNL A   1      42.230  21.320  27.556  1.00  0.00     0.040 A 
ATOM     73  F   UNL A   1      42.397  22.607  29.510  1.00  0.00    -0.206 F 
ATOM     74  C   UNL A   1      42.237  21.223  26.167  1.00  0.00     0.006 A 
ENDBRANCH  53  67
BRANCH  54  75
ATOM     75  C   UNL A   1      43.861  32.525  31.978  1.00  0.00     0.057 A 
ATOM     76  C   UNL A   1      44.373  33.642  31.307  1.00  0.00     0.134 A 
ATOM     77  C   UNL A   1      43.587  32.668  33.345  1.00  0.00     0.134 A 
ATOM     78  F   UNL A   1      44.680  33.565  30.004  1.00  0.00    -0.206 F 
ATOM     79  C   UNL A   1      44.629  34.843  31.973  1.00  0.00     0.040 A 
ATOM     80  C   UNL A   1      43.809  33.871  34.016  1.00  0.00     0.040 A 
ATOM     81  F   UNL A   1      43.097  31.636  34.049  1.00  0.00    -0.206 F 
ATOM     82  C   UNL A   1      44.342  34.961  33.331  1.00  0.00     0.006 A 
ENDBRANCH  54  75
BRANCH  66  83
ATOM     83  C   UNL A   1      48.141  27.226  30.562  1.00  0.00     0.057 A 
ATOM     84  C   UNL A   1      49.129  27.652  29.664  1.00  0.00     0.134 A 
ATOM     85  C   UNL A   1      48.569  26.586  31.733  1.00  0.00     0.134 A 
ATOM     86  F   UNL A   1      48.790  28.264  28.520  1.00  0.00    -0.206 F 
ATOM     87  C   UNL A   1      50.484  27.406  29.897  1.00  0.00     0.040 A 
ATOM     88  C   UNL A   1      49.923  26.367  31.994  1.00  0.00     0.040 A 
ATOM     89  F   UNL A   1      47.680  26.166  32.644  1.00  0.00    -0.206 F 
ATOM     90  C   UNL A   1      50.884  26.764  31.067  1.00  0.00     0.006 A 
ENDBRANCH  66  83
ENDBRANCH  40  41
ENDBRANCH  33  35
ENDBRANCH  32  33
ENDBRANCH  31  32
ENDBRANCH  30  31
ENDBRANCH  29  30
ENDBRANCH  28  29
ENDBRANCH  27  28
ENDBRANCH  26  27
ENDBRANCH   1  26
TORSDOF 23
ENDMDL
MODEL 3
REMARK VINA RESULT:      -9.2      1.357      6.493
REMARK SMILES Cc1cc(C(=O)Nc2nc(CC(=O)OCCOCCOCCOCCOC(=O)c3ccc(-c4c5nc(c(-c6c(F)cccc6F)c6ccc([nH]6)c(-c6c(F)cccc6F)c6nc(c(-c7c(F)cccc7F)c7ccc4[nH]7)C=C6)C=C5)cc3)cs2)sc1C
REMARK SMILES IDX 19 1 18 2 17 3 16 4 15 5 14 6 12 7 13 8 11 9 10 10 8 11 9 12
REMARK SMILES IDX 84 13 83 14 7 15 5 16 6 17 4 19 1 20 2 21 3 22 86 23 85 24
REMARK SMILES IDX 87 25 20 26 21 27 22 28 23 29 24 30 25 31 26 32 27 33 28 34
REMARK SMILES IDX 29 35 30 36 82 37 31 38 81 39 32 40 33 41 34 42 75 43 35 44
REMARK SMILES IDX 80 45 74 46 76 47 36 48 79 49 73 50 72 51 37 53 63 54 46 55
REMARK SMILES IDX 62 56 47 57 50 58 61 59 77 60 48 61 49 62 60 64 78 65 51 66
REMARK SMILES IDX 38 67 39 68 44 69 40 70 41 71 43 72 45 73 42 74 64 75 65 76
REMARK SMILES IDX 70 77 66 78 67 79 69 80 71 81 68 82 52 83 53 84 58 85 54 86
REMARK SMILES IDX 55 87 57 88 59 89 56 90
REMARK H PARENT 7 18 76 52 50 63
REMARK Flexibility Score: inf
ROOT
ATOM      1  C   UNL A   1      29.907  27.473  22.793  1.00  0.00     0.188 C 
ENDROOT
BRANCH   1   2
ATOM      2  C   UNL A   1      30.037  26.449  23.926  1.00  0.00     0.188 C 
BRANCH   2   3
ATOM      3  O   UNL A   1      31.213  26.403  24.721  1.00  0.00    -0.376 OA
BRANCH   3   4
ATOM      4  C   UNL A   1      31.113  26.213  26.125  1.00  0.00     0.202 C 
BRANCH   4   5
ATOM      5  C   UNL A   1      32.031  25.183  26.818  1.00  0.00     0.261 C 
BRANCH   5   6
ATOM      6  O   UNL A   1      31.397  24.073  27.502  1.00  0.00    -0.463 OA
BRANCH   6   7
ATOM      7  C   UNL A   1      31.998  22.862  27.393  1.00  0.00     0.311 C 
ATOM      8  O   UNL A   1      33.014  22.559  28.018  1.00  0.00    -0.252 OA
BRANCH   7   9
ATOM      9  C   UNL A   1      31.360  21.849  26.460  1.00  0.00     0.179 C 
BRANCH   9  10
ATOM     10  C   UNL A   1      31.577  21.884  24.972  1.00  0.00     0.065 A 
ATOM     11  C   UNL A   1      31.957  22.971  23.088  1.00  0.00     0.189 A 
ATOM     12  N   UNL A   1      31.533  23.114  24.320  1.00  0.00    -0.224 NA
ATOM     13  S   UNL A   1      32.154  21.374  22.529  1.00  0.00    -0.105 S 
ATOM     14  C   UNL A   1      32.127  20.880  24.178  1.00  0.00     0.093 A 
BRANCH  11  15
ATOM     15  N   UNL A   1      32.472  23.914  22.255  1.00  0.00    -0.297 N 
ATOM     16  C   UNL A   1      33.672  24.565  22.459  1.00  0.00     0.267 C 
ATOM     17  O   UNL A   1      33.874  25.576  21.777  1.00  0.00    -0.268 OA
ATOM     18  H   UNL A   1      31.953  24.149  21.452  1.00  0.00     0.172 HD
BRANCH  16  19
ATOM     19  C   UNL A   1      34.708  24.030  23.349  1.00  0.00     0.093 A 
ATOM     20  C   UNL A   1      37.355  21.496  24.249  1.00  0.00     0.045 C 
ATOM     21  C   UNL A   1      36.437  22.667  24.201  1.00  0.00    -0.037 A 
ATOM     22  C   UNL A   1      35.461  22.882  23.164  1.00  0.00     0.029 A 
ATOM     23  C   UNL A   1      36.417  23.715  25.104  1.00  0.00     0.005 A 
ATOM     24  S   UNL A   1      34.961  24.587  24.956  1.00  0.00    -0.135 S 
ATOM     25  C   UNL A   1      37.390  24.080  26.175  1.00  0.00     0.056 C 
ENDBRANCH  16  19
ENDBRANCH  11  15
ENDBRANCH   9  10
ENDBRANCH   7   9
ENDBRANCH   6   7
ENDBRANCH   5   6
ENDBRANCH   4   5
ENDBRANCH   3   4
ENDBRANCH   2   3
ENDBRANCH   1   2
BRANCH   1  26
ATOM     26  O   UNL A   1      31.092  28.085  22.341  1.00  0.00    -0.377 OA
BRANCH  26  27
ATOM     27  C   UNL A   1      31.373  29.385  22.815  1.00  0.00     0.188 C 
BRANCH  27  28
ATOM     28  C   UNL A   1      30.640  29.823  24.090  1.00  0.00     0.188 C 
BRANCH  28  29
ATOM     29  O   UNL A   1      31.417  29.667  25.273  1.00  0.00    -0.376 OA
BRANCH  29  30
ATOM     30  C   UNL A   1      32.833  29.700  25.170  1.00  0.00     0.202 C 
BRANCH  30  31
ATOM     31  C   UNL A   1      33.657  29.302  26.409  1.00  0.00     0.261 C 
BRANCH  31  32
ATOM     32  O   UNL A   1      33.632  30.209  27.523  1.00  0.00    -0.460 OA
BRANCH  32  33
ATOM     33  C   UNL A   1      34.641  31.100  27.628  1.00  0.00     0.338 C 
ATOM     34  O   UNL A   1      34.560  32.308  27.556  1.00  0.00    -0.246 OA
BRANCH  33  35
ATOM     35  C   UNL A   1      35.856  30.371  28.061  1.00  0.00     0.060 A 
ATOM     36  C   UNL A   1      35.822  29.707  29.293  1.00  0.00     0.016 A 
ATOM     37  C   UNL A   1      37.013  30.347  27.278  1.00  0.00     0.016 A 
ATOM     38  C   UNL A   1      36.959  29.056  29.767  1.00  0.00     0.010 A 
ATOM     39  C   UNL A   1      38.162  29.712  27.766  1.00  0.00     0.010 A 
ATOM     40  C   UNL A   1      38.151  29.097  29.030  1.00  0.00    -0.014 A 
BRANCH  40  41
ATOM     41  C   UNL A   1      39.406  28.654  29.687  1.00  0.00     0.031 A 
ATOM     42  C   UNL A   1      40.169  27.505  29.085  1.00  0.00     0.074 A 
ATOM     43  C   UNL A   1      39.908  29.318  30.743  1.00  0.00     0.049 A 
ATOM     44  N   UNL A   1      41.322  26.995  29.439  1.00  0.00    -0.248 NA
ATOM     45  C   UNL A   1      39.552  26.845  27.923  1.00  0.00     0.031 C 
ATOM     46  C   UNL A   1      39.283  30.469  31.392  1.00  0.00     0.029 A 
ATOM     47  N   UNL A   1      41.071  29.125  31.445  1.00  0.00    -0.354 N 
ATOM     48  C   UNL A   1      41.571  25.963  28.540  1.00  0.00     0.074 A 
ATOM     49  C   UNL A   1      40.430  25.892  27.653  1.00  0.00     0.031 C 
ATOM     50  C   UNL A   1      40.073  30.884  32.398  1.00  0.00     0.029 A 
ATOM     51  C   UNL A   1      41.246  30.014  32.477  1.00  0.00     0.049 A 
ATOM     52  H   UNL A   1      41.719  28.416  31.230  1.00  0.00     0.167 HD
ATOM     53  C   UNL A   1      42.657  25.159  28.452  1.00  0.00     0.037 A 
ATOM     54  C   UNL A   1      42.235  30.107  33.387  1.00  0.00     0.037 A 
ATOM     55  C   UNL A   1      43.787  25.225  29.343  1.00  0.00     0.049 A 
ATOM     56  C   UNL A   1      43.397  29.149  33.313  1.00  0.00     0.074 A 
ATOM     57  C   UNL A   1      44.938  24.457  29.334  1.00  0.00     0.029 A 
ATOM     58  N   UNL A   1      43.902  26.103  30.411  1.00  0.00    -0.354 N 
ATOM     59  N   UNL A   1      43.637  28.199  32.440  1.00  0.00    -0.248 NA
ATOM     60  C   UNL A   1      44.432  29.286  34.347  1.00  0.00     0.031 C 
ATOM     61  C   UNL A   1      45.723  24.831  30.430  1.00  0.00     0.029 A 
ATOM     62  C   UNL A   1      45.092  25.877  31.083  1.00  0.00     0.049 A 
ATOM     63  H   UNL A   1      43.236  26.786  30.654  1.00  0.00     0.167 HD
ATOM     64  C   UNL A   1      44.861  27.647  32.803  1.00  0.00     0.074 A 
ATOM     65  C   UNL A   1      45.325  28.389  33.957  1.00  0.00     0.031 C 
ATOM     66  C   UNL A   1      45.540  26.619  32.236  1.00  0.00     0.037 A 
BRANCH  53  67
ATOM     67  C   UNL A   1      42.661  24.117  27.370  1.00  0.00     0.057 A 
ATOM     68  C   UNL A   1      43.172  24.376  26.091  1.00  0.00     0.134 A 
ATOM     69  C   UNL A   1      42.178  22.826  27.621  1.00  0.00     0.134 A 
ATOM     70  F   UNL A   1      43.635  25.596  25.778  1.00  0.00    -0.206 F 
ATOM     71  C   UNL A   1      43.183  23.396  25.097  1.00  0.00     0.040 A 
ATOM     72  C   UNL A   1      42.211  21.830  26.644  1.00  0.00     0.040 A 
ATOM     73  F   UNL A   1      41.677  22.508  28.825  1.00  0.00    -0.206 F 
ATOM     74  C   UNL A   1      42.709  22.116  25.375  1.00  0.00     0.006 A 
ENDBRANCH  53  67
BRANCH  54  75
ATOM     75  C   UNL A   1      42.177  31.137  34.458  1.00  0.00     0.057 A 
ATOM     76  C   UNL A   1      41.491  30.908  35.656  1.00  0.00     0.134 A 
ATOM     77  C   UNL A   1      42.769  32.395  34.286  1.00  0.00     0.134 A 
ATOM     78  F   UNL A   1      40.882  29.734  35.873  1.00  0.00    -0.206 F 
ATOM     79  C   UNL A   1      41.373  31.900  36.633  1.00  0.00     0.040 A 
ATOM     80  C   UNL A   1      42.685  33.384  35.266  1.00  0.00     0.040 A 
ATOM     81  F   UNL A   1      43.440  32.680  33.160  1.00  0.00    -0.206 F 
ATOM     82  C   UNL A   1      41.975  33.141  36.441  1.00  0.00     0.006 A 
ENDBRANCH  54  75
BRANCH  66  83
ATOM     83  C   UNL A   1      46.872  26.264  32.837  1.00  0.00     0.057 A 
ATOM     84  C   UNL A   1      48.054  26.921  32.468  1.00  0.00     0.134 A 
ATOM     85  C   UNL A   1      46.973  25.250  33.799  1.00  0.00     0.134 A 
ATOM     86  F   UNL A   1      48.031  27.896  31.547  1.00  0.00    -0.206 F 
ATOM     87  C   UNL A   1      49.293  26.549  32.995  1.00  0.00     0.040 A 
ATOM     88  C   UNL A   1      48.201  24.894  34.360  1.00  0.00     0.040 A 
ATOM     89  F   UNL A   1      45.882  24.590  34.212  1.00  0.00    -0.206 F 
ATOM     90  C   UNL A   1      49.368  25.534  33.947  1.00  0.00     0.006 A 
ENDBRANCH  66  83
ENDBRANCH  40  41
ENDBRANCH  33  35
ENDBRANCH  32  33
ENDBRANCH  31  32
ENDBRANCH  30  31
ENDBRANCH  29  30
ENDBRANCH  28  29
ENDBRANCH  27  28
ENDBRANCH  26  27
ENDBRANCH   1  26
TORSDOF 23
ENDMDL
