MODEL 1
REMARK VINA RESULT:     -10.9      0.000      0.000
REMARK SMILES CC(=O)Nc1cccc(-c2cc(F)ccc2C(=O)OCCOCCOCCOCCOC(=O)c2ccc(-c3c4nc(c(-c5c(F)cccc5F)c5ccc([nH]5)c(-c5c(F)cccc5F)c5nc(c(-c6c(F)cccc6F)c6ccc3[nH]6)C=C5)C=C4)cc2)c1
REMARK SMILES IDX 25 1 24 2 23 3 22 4 21 5 20 6 19 7 17 8 18 9 16 10 10 11
REMARK SMILES IDX 11 12 12 13 15 14 13 15 14 16 9 17 5 18 6 19 88 20 7 21 8 22
REMARK SMILES IDX 4 23 1 24 2 25 3 26 26 28 27 29 28 30 29 31 30 32 31 33
REMARK SMILES IDX 32 34 33 35 34 36 35 37 87 38 36 39 86 40 37 41 38 42 39 43
REMARK SMILES IDX 80 44 40 45 85 46 79 47 81 48 41 49 84 50 78 51 77 52 42 54
REMARK SMILES IDX 68 55 51 56 67 57 52 58 55 59 66 60 82 61 53 62 54 63 65 65
REMARK SMILES IDX 83 66 56 67 43 68 44 69 49 70 45 71 46 72 48 73 50 74 47 75
REMARK SMILES IDX 69 76 70 77 75 78 71 79 72 80 74 81 76 82 73 83 57 84 58 85
REMARK SMILES IDX 63 86 59 87 60 88 62 89 64 90 61 91
REMARK H PARENT 4 27 81 53 55 64
REMARK Flexibility Score: inf
ROOT
ATOM      1  O   UNL A   1      41.634  19.108  25.774  1.00  0.00    -0.377 OA
ENDROOT
BRANCH   1   2
ATOM      2  C   UNL A   1      40.886  19.958  26.628  1.00  0.00     0.188 C 
BRANCH   2   3
ATOM      3  C   UNL A   1      40.547  21.401  26.203  1.00  0.00     0.188 C 
BRANCH   3   4
ATOM      4  O   UNL A   1      39.216  21.829  26.480  1.00  0.00    -0.376 OA
BRANCH   4   5
ATOM      5  C   UNL A   1      38.763  22.943  25.718  1.00  0.00     0.202 C 
BRANCH   5   6
ATOM      6  C   UNL A   1      37.281  23.236  25.930  1.00  0.00     0.261 C 
BRANCH   6   7
ATOM      7  O   UNL A   1      36.710  23.917  24.804  1.00  0.00    -0.460 OA
BRANCH   7   8
ATOM      8  C   UNL A   1      36.290  23.170  23.767  1.00  0.00     0.338 C 
ATOM      9  O   UNL A   1      36.929  22.911  22.759  1.00  0.00    -0.246 OA
BRANCH   8  10
ATOM     10  C   UNL A   1      34.959  22.583  24.084  1.00  0.00     0.068 A 
ATOM     11  C   UNL A   1      33.712  23.224  23.837  1.00  0.00    -0.001 A 
ATOM     12  C   UNL A   1      32.549  22.526  24.227  1.00  0.00     0.048 A 
ATOM     13  C   UNL A   1      32.623  21.290  24.867  1.00  0.00     0.123 A 
ATOM     14  C   UNL A   1      35.013  21.328  24.725  1.00  0.00     0.019 A 
ATOM     15  F   UNL A   1      31.493  20.680  25.249  1.00  0.00    -0.207 F 
ATOM     16  C   UNL A   1      33.843  20.690  25.129  1.00  0.00     0.040 A 
BRANCH  11  17
ATOM     17  C   UNL A   1      33.571  24.589  23.264  1.00  0.00    -0.015 A 
ATOM     18  C   UNL A   1      33.474  27.017  23.580  1.00  0.00     0.041 A 
ATOM     19  C   UNL A   1      32.945  27.153  22.292  1.00  0.00     0.026 A 
ATOM     20  C   UNL A   1      33.843  25.744  24.024  1.00  0.00     0.034 A 
ATOM     21  C   UNL A   1      32.761  26.038  21.478  1.00  0.00     0.003 A 
ATOM     22  C   UNL A   1      33.051  24.766  21.970  1.00  0.00     0.009 A 
BRANCH  18  23
ATOM     23  N   UNL A   1      33.472  28.175  24.379  1.00  0.00    -0.326 N 
ATOM     24  C   UNL A   1      31.535  27.833  25.924  1.00  0.00     0.114 C 
ATOM     25  C   UNL A   1      32.613  28.676  25.310  1.00  0.00     0.221 C 
ATOM     26  O   UNL A   1      32.765  29.848  25.668  1.00  0.00    -0.275 OA
ATOM     27  H   UNL A   1      34.260  28.746  24.233  1.00  0.00     0.169 HD
ENDBRANCH  18  23
ENDBRANCH  11  17
ENDBRANCH   8  10
ENDBRANCH   7   8
ENDBRANCH   6   7
ENDBRANCH   5   6
ENDBRANCH   4   5
ENDBRANCH   3   4
ENDBRANCH   2   3
ENDBRANCH   1   2
BRANCH   1  28
ATOM     28  C   UNL A   1      43.031  18.951  25.985  1.00  0.00     0.188 C 
BRANCH  28  29
ATOM     29  C   UNL A   1      44.017  19.116  24.812  1.00  0.00     0.188 C 
BRANCH  29  30
ATOM     30  O   UNL A   1      44.353  20.461  24.497  1.00  0.00    -0.376 OA
BRANCH  30  31
ATOM     31  C   UNL A   1      45.528  20.971  25.113  1.00  0.00     0.202 C 
BRANCH  31  32
ATOM     32  C   UNL A   1      45.264  22.061  26.158  1.00  0.00     0.261 C 
BRANCH  32  33
ATOM     33  O   UNL A   1      44.027  22.771  25.983  1.00  0.00    -0.460 OA
BRANCH  33  34
ATOM     34  C   UNL A   1      44.095  23.979  25.386  1.00  0.00     0.338 C 
ATOM     35  O   UNL A   1      44.521  24.241  24.277  1.00  0.00    -0.246 OA
BRANCH  34  36
ATOM     36  C   UNL A   1      43.404  24.944  26.258  1.00  0.00     0.060 A 
ATOM     37  C   UNL A   1      43.868  26.263  26.309  1.00  0.00     0.016 A 
ATOM     38  C   UNL A   1      42.311  24.535  27.024  1.00  0.00     0.016 A 
ATOM     39  C   UNL A   1      43.257  27.176  27.167  1.00  0.00     0.010 A 
ATOM     40  C   UNL A   1      41.711  25.444  27.895  1.00  0.00     0.010 A 
ATOM     41  C   UNL A   1      42.205  26.756  27.993  1.00  0.00    -0.014 A 
BRANCH  41  42
ATOM     42  C   UNL A   1      41.751  27.622  29.103  1.00  0.00     0.031 A 
ATOM     43  C   UNL A   1      42.456  27.511  30.424  1.00  0.00     0.074 A 
ATOM     44  C   UNL A   1      40.721  28.470  28.948  1.00  0.00     0.049 A 
ATOM     45  N   UNL A   1      42.216  28.132  31.549  1.00  0.00    -0.248 NA
ATOM     46  C   UNL A   1      43.581  26.564  30.483  1.00  0.00     0.031 C 
ATOM     47  C   UNL A   1      39.966  28.669  27.714  1.00  0.00     0.029 A 
ATOM     48  N   UNL A   1      40.126  29.310  29.854  1.00  0.00    -0.354 N 
ATOM     49  C   UNL A   1      43.156  27.649  32.450  1.00  0.00     0.074 A 
ATOM     50  C   UNL A   1      43.949  26.662  31.751  1.00  0.00     0.031 C 
ATOM     51  C   UNL A   1      38.987  29.563  27.947  1.00  0.00     0.029 A 
ATOM     52  C   UNL A   1      39.039  29.977  29.349  1.00  0.00     0.049 A 
ATOM     53  H   UNL A   1      40.448  29.425  30.777  1.00  0.00     0.167 HD
ATOM     54  C   UNL A   1      43.346  28.001  33.743  1.00  0.00     0.037 A 
ATOM     55  C   UNL A   1      38.175  30.811  29.959  1.00  0.00     0.037 A 
ATOM     56  C   UNL A   1      42.550  28.974  34.439  1.00  0.00     0.049 A 
ATOM     57  C   UNL A   1      38.375  31.158  31.409  1.00  0.00     0.074 A 
ATOM     58  C   UNL A   1      42.689  29.435  35.736  1.00  0.00     0.029 A 
ATOM     59  N   UNL A   1      41.453  29.626  33.897  1.00  0.00    -0.354 N 
ATOM     60  N   UNL A   1      39.303  30.743  32.238  1.00  0.00    -0.248 NA
ATOM     61  C   UNL A   1      37.413  32.094  32.007  1.00  0.00     0.031 C 
ATOM     62  C   UNL A   1      41.643  30.330  35.994  1.00  0.00     0.029 A 
ATOM     63  C   UNL A   1      40.883  30.460  34.843  1.00  0.00     0.049 A 
ATOM     64  H   UNL A   1      41.127  29.512  32.975  1.00  0.00     0.167 HD
ATOM     65  C   UNL A   1      39.048  31.379  33.448  1.00  0.00     0.074 A 
ATOM     66  C   UNL A   1      37.885  32.217  33.240  1.00  0.00     0.031 C 
ATOM     67  C   UNL A   1      39.719  31.281  34.623  1.00  0.00     0.037 A 
BRANCH  54  68
ATOM     68  C   UNL A   1      44.440  27.295  34.485  1.00  0.00     0.057 A 
ATOM     69  C   UNL A   1      44.224  26.077  35.141  1.00  0.00     0.134 A 
ATOM     70  C   UNL A   1      45.724  27.849  34.554  1.00  0.00     0.134 A 
ATOM     71  F   UNL A   1      43.010  25.504  35.130  1.00  0.00    -0.206 F 
ATOM     72  C   UNL A   1      45.237  25.450  35.869  1.00  0.00     0.040 A 
ATOM     73  C   UNL A   1      46.752  27.220  35.258  1.00  0.00     0.040 A 
ATOM     74  F   UNL A   1      45.997  29.014  33.948  1.00  0.00    -0.206 F 
ATOM     75  C   UNL A   1      46.507  26.021  35.925  1.00  0.00     0.006 A 
ENDBRANCH  54  68
BRANCH  55  76
ATOM     76  C   UNL A   1      37.033  31.367  29.192  1.00  0.00     0.057 A 
ATOM     77  C   UNL A   1      35.880  30.612  28.953  1.00  0.00     0.134 A 
ATOM     78  C   UNL A   1      37.064  32.676  28.695  1.00  0.00     0.134 A 
ATOM     79  F   UNL A   1      35.803  29.344  29.386  1.00  0.00    -0.206 F 
ATOM     80  C   UNL A   1      34.801  31.136  28.241  1.00  0.00     0.040 A 
ATOM     81  C   UNL A   1      35.984  33.219  27.999  1.00  0.00     0.040 A 
ATOM     82  F   UNL A   1      38.140  33.452  28.897  1.00  0.00    -0.206 F 
ATOM     83  C   UNL A   1      34.848  32.445  27.768  1.00  0.00     0.006 A 
ENDBRANCH  55  76
BRANCH  67  84
ATOM     84  C   UNL A   1      39.222  32.109  35.771  1.00  0.00     0.057 A 
ATOM     85  C   UNL A   1      39.612  33.443  35.941  1.00  0.00     0.134 A 
ATOM     86  C   UNL A   1      38.302  31.582  36.685  1.00  0.00     0.134 A 
ATOM     87  F   UNL A   1      40.498  34.004  35.106  1.00  0.00    -0.206 F 
ATOM     88  C   UNL A   1      39.117  34.218  36.992  1.00  0.00     0.040 A 
ATOM     89  C   UNL A   1      37.782  32.354  37.726  1.00  0.00     0.040 A 
ATOM     90  F   UNL A   1      37.879  30.313  36.573  1.00  0.00    -0.206 F 
ATOM     91  C   UNL A   1      38.194  33.675  37.884  1.00  0.00     0.006 A 
ENDBRANCH  67  84
ENDBRANCH  41  42
ENDBRANCH  34  36
ENDBRANCH  33  34
ENDBRANCH  32  33
ENDBRANCH  31  32
ENDBRANCH  30  31
ENDBRANCH  29  30
ENDBRANCH  28  29
ENDBRANCH   1  28
TORSDOF 22
ENDMDL
MODEL 2
REMARK VINA RESULT:     -10.2      3.808      9.176
REMARK SMILES CC(=O)Nc1cccc(-c2cc(F)ccc2C(=O)OCCOCCOCCOCCOC(=O)c2ccc(-c3c4nc(c(-c5c(F)cccc5F)c5ccc([nH]5)c(-c5c(F)cccc5F)c5nc(c(-c6c(F)cccc6F)c6ccc3[nH]6)C=C5)C=C4)cc2)c1
REMARK SMILES IDX 25 1 24 2 23 3 22 4 21 5 20 6 19 7 17 8 18 9 16 10 10 11
REMARK SMILES IDX 11 12 12 13 15 14 13 15 14 16 9 17 5 18 6 19 88 20 7 21 8 22
REMARK SMILES IDX 4 23 1 24 2 25 3 26 26 28 27 29 28 30 29 31 30 32 31 33
REMARK SMILES IDX 32 34 33 35 34 36 35 37 87 38 36 39 86 40 37 41 38 42 39 43
REMARK SMILES IDX 80 44 40 45 85 46 79 47 81 48 41 49 84 50 78 51 77 52 42 54
REMARK SMILES IDX 68 55 51 56 67 57 52 58 55 59 66 60 82 61 53 62 54 63 65 65
REMARK SMILES IDX 83 66 56 67 43 68 44 69 49 70 45 71 46 72 48 73 50 74 47 75
REMARK SMILES IDX 69 76 70 77 75 78 71 79 72 80 74 81 76 82 73 83 57 84 58 85
REMARK SMILES IDX 63 86 59 87 60 88 62 89 64 90 61 91
REMARK H PARENT 4 27 81 53 55 64
REMARK Flexibility Score: inf
ROOT
ATOM      1  O   UNL A   1      30.677  29.009  24.406  1.00  0.00    -0.377 OA
ENDROOT
BRANCH   1   2
ATOM      2  C   UNL A   1      30.491  28.781  23.018  1.00  0.00     0.188 C 
BRANCH   2   3
ATOM      3  C   UNL A   1      30.828  27.412  22.392  1.00  0.00     0.188 C 
BRANCH   3   4
ATOM      4  O   UNL A   1      30.950  26.329  23.310  1.00  0.00    -0.376 OA
BRANCH   4   5
ATOM      5  C   UNL A   1      31.420  25.107  22.752  1.00  0.00     0.202 C 
BRANCH   5   6
ATOM      6  C   UNL A   1      30.877  23.881  23.478  1.00  0.00     0.261 C 
BRANCH   6   7
ATOM      7  O   UNL A   1      31.082  23.970  24.895  1.00  0.00    -0.460 OA
BRANCH   7   8
ATOM      8  C   UNL A   1      31.721  22.953  25.500  1.00  0.00     0.338 C 
ATOM      9  O   UNL A   1      31.197  22.009  26.071  1.00  0.00    -0.246 OA
BRANCH   8  10
ATOM     10  C   UNL A   1      33.186  23.074  25.262  1.00  0.00     0.068 A 
ATOM     11  C   UNL A   1      33.996  22.065  24.670  1.00  0.00    -0.001 A 
ATOM     12  C   UNL A   1      35.373  22.345  24.546  1.00  0.00     0.048 A 
ATOM     13  C   UNL A   1      35.919  23.534  25.024  1.00  0.00     0.123 A 
ATOM     14  C   UNL A   1      33.755  24.275  25.732  1.00  0.00     0.019 A 
ATOM     15  F   UNL A   1      37.238  23.743  24.914  1.00  0.00    -0.207 F 
ATOM     16  C   UNL A   1      35.125  24.497  25.626  1.00  0.00     0.040 A 
BRANCH  11  17
ATOM     17  C   UNL A   1      33.494  20.730  24.245  1.00  0.00    -0.015 A 
ATOM     18  C   UNL A   1      33.769  18.297  24.152  1.00  0.00     0.041 A 
ATOM     19  C   UNL A   1      32.789  18.235  23.156  1.00  0.00     0.026 A 
ATOM     20  C   UNL A   1      34.061  19.535  24.731  1.00  0.00     0.034 A 
ATOM     21  C   UNL A   1      32.137  19.389  22.728  1.00  0.00     0.003 A 
ATOM     22  C   UNL A   1      32.504  20.627  23.252  1.00  0.00     0.009 A 
BRANCH  18  23
ATOM     23  N   UNL A   1      34.479  17.108  24.401  1.00  0.00    -0.326 N 
ATOM     24  C   UNL A   1      32.871  15.716  25.717  1.00  0.00     0.114 C 
ATOM     25  C   UNL A   1      34.235  16.008  25.166  1.00  0.00     0.221 C 
ATOM     26  O   UNL A   1      35.170  15.227  25.372  1.00  0.00    -0.275 OA
ATOM     27  H   UNL A   1      35.336  17.062  23.919  1.00  0.00     0.169 HD
ENDBRANCH  18  23
ENDBRANCH  11  17
ENDBRANCH   8  10
ENDBRANCH   7   8
ENDBRANCH   6   7
ENDBRANCH   5   6
ENDBRANCH   4   5
ENDBRANCH   3   4
ENDBRANCH   2   3
ENDBRANCH   1   2
BRANCH   1  28
ATOM     28  C   UNL A   1      31.947  29.428  24.886  1.00  0.00     0.188 C 
BRANCH  28  29
ATOM     29  C   UNL A   1      32.045  30.401  26.077  1.00  0.00     0.188 C 
BRANCH  29  30
ATOM     30  O   UNL A   1      32.780  29.911  27.191  1.00  0.00    -0.376 OA
BRANCH  30  31
ATOM     31  C   UNL A   1      33.701  30.820  27.780  1.00  0.00     0.202 C 
BRANCH  31  32
ATOM     32  C   UNL A   1      33.591  32.254  27.249  1.00  0.00     0.261 C 
BRANCH  32  33
ATOM     33  O   UNL A   1      32.691  33.098  27.986  1.00  0.00    -0.460 OA
BRANCH  33  34
ATOM     34  C   UNL A   1      33.198  34.246  28.482  1.00  0.00     0.338 C 
ATOM     35  O   UNL A   1      32.746  35.371  28.372  1.00  0.00    -0.246 OA
BRANCH  34  36
ATOM     36  C   UNL A   1      34.341  33.892  29.339  1.00  0.00     0.060 A 
ATOM     37  C   UNL A   1      35.632  34.239  28.924  1.00  0.00     0.016 A 
ATOM     38  C   UNL A   1      34.130  33.210  30.539  1.00  0.00     0.016 A 
ATOM     39  C   UNL A   1      36.729  33.867  29.700  1.00  0.00     0.010 A 
ATOM     40  C   UNL A   1      35.228  32.823  31.305  1.00  0.00     0.010 A 
ATOM     41  C   UNL A   1      36.532  33.120  30.870  1.00  0.00    -0.014 A 
BRANCH  41  42
ATOM     42  C   UNL A   1      37.684  32.473  31.533  1.00  0.00     0.031 A 
ATOM     43  C   UNL A   1      38.358  31.330  30.831  1.00  0.00     0.074 A 
ATOM     44  C   UNL A   1      38.109  32.878  32.741  1.00  0.00     0.049 A 
ATOM     45  N   UNL A   1      39.355  30.584  31.227  1.00  0.00    -0.248 NA
ATOM     46  C   UNL A   1      37.825  30.976  29.505  1.00  0.00     0.031 C 
ATOM     47  C   UNL A   1      37.541  33.979  33.514  1.00  0.00     0.029 A 
ATOM     48  N   UNL A   1      39.114  32.386  33.533  1.00  0.00    -0.354 N 
ATOM     49  C   UNL A   1      39.569  29.671  30.202  1.00  0.00     0.074 A 
ATOM     50  C   UNL A   1      38.577  29.935  29.182  1.00  0.00     0.031 C 
ATOM     51  C   UNL A   1      38.194  34.065  34.686  1.00  0.00     0.029 A 
ATOM     52  C   UNL A   1      39.209  33.013  34.749  1.00  0.00     0.049 A 
ATOM     53  H   UNL A   1      39.711  31.653  33.256  1.00  0.00     0.167 HD
ATOM     54  C   UNL A   1      40.510  28.702  30.115  1.00  0.00     0.037 A 
ATOM     55  C   UNL A   1      40.011  32.752  35.799  1.00  0.00     0.037 A 
ATOM     56  C   UNL A   1      41.487  28.434  31.134  1.00  0.00     0.049 A 
ATOM     57  C   UNL A   1      41.024  31.642  35.702  1.00  0.00     0.074 A 
ATOM     58  C   UNL A   1      42.512  27.505  31.123  1.00  0.00     0.029 A 
ATOM     59  N   UNL A   1      41.549  29.086  32.355  1.00  0.00    -0.354 N 
ATOM     60  N   UNL A   1      41.259  30.823  34.705  1.00  0.00    -0.248 NA
ATOM     61  C   UNL A   1      41.886  31.426  36.872  1.00  0.00     0.031 C 
ATOM     62  C   UNL A   1      43.164  27.562  32.360  1.00  0.00     0.029 A 
ATOM     63  C   UNL A   1      42.574  28.558  33.122  1.00  0.00     0.049 A 
ATOM     64  H   UNL A   1      40.952  29.817  32.636  1.00  0.00     0.167 HD
ATOM     65  C   UNL A   1      42.306  30.007  35.119  1.00  0.00     0.074 A 
ATOM     66  C   UNL A   1      42.667  30.439  36.453  1.00  0.00     0.031 C 
ATOM     67  C   UNL A   1      42.915  28.994  34.453  1.00  0.00     0.037 A 
BRANCH  54  68
ATOM     68  C   UNL A   1      40.492  27.848  28.883  1.00  0.00     0.057 A 
ATOM     69  C   UNL A   1      41.252  28.164  27.750  1.00  0.00     0.134 A 
ATOM     70  C   UNL A   1      39.691  26.700  28.827  1.00  0.00     0.134 A 
ATOM     71  F   UNL A   1      42.024  29.262  27.734  1.00  0.00    -0.206 F 
ATOM     72  C   UNL A   1      41.192  27.387  26.592  1.00  0.00     0.040 A 
ATOM     73  C   UNL A   1      39.641  25.902  27.683  1.00  0.00     0.040 A 
ATOM     74  F   UNL A   1      38.938  26.342  29.877  1.00  0.00    -0.206 F 
ATOM     75  C   UNL A   1      40.387  26.251  26.558  1.00  0.00     0.006 A 
ENDBRANCH  54  68
BRANCH  55  76
ATOM     76  C   UNL A   1      39.878  33.555  37.038  1.00  0.00     0.057 A 
ATOM     77  C   UNL A   1      39.036  33.152  38.080  1.00  0.00     0.134 A 
ATOM     78  C   UNL A   1      40.605  34.740  37.215  1.00  0.00     0.134 A 
ATOM     79  F   UNL A   1      38.299  32.038  37.958  1.00  0.00    -0.206 F 
ATOM     80  C   UNL A   1      38.916  33.901  39.251  1.00  0.00     0.040 A 
ATOM     81  C   UNL A   1      40.509  35.488  38.388  1.00  0.00     0.040 A 
ATOM     82  F   UNL A   1      41.433  35.175  36.254  1.00  0.00    -0.206 F 
ATOM     83  C   UNL A   1      39.659  35.069  39.410  1.00  0.00     0.006 A 
ENDBRANCH  55  76
BRANCH  67  84
ATOM     84  C   UNL A   1      44.042  28.292  35.149  1.00  0.00     0.057 A 
ATOM     85  C   UNL A   1      45.367  28.735  35.038  1.00  0.00     0.134 A 
ATOM     86  C   UNL A   1      43.795  27.193  35.980  1.00  0.00     0.134 A 
ATOM     87  F   UNL A   1      45.672  29.776  34.250  1.00  0.00    -0.206 F 
ATOM     88  C   UNL A   1      46.407  28.098  35.718  1.00  0.00     0.040 A 
ATOM     89  C   UNL A   1      44.823  26.563  36.683  1.00  0.00     0.040 A 
ATOM     90  F   UNL A   1      42.548  26.724  36.137  1.00  0.00    -0.206 F 
ATOM     91  C   UNL A   1      46.135  27.013  36.549  1.00  0.00     0.006 A 
ENDBRANCH  67  84
ENDBRANCH  41  42
ENDBRANCH  34  36
ENDBRANCH  33  34
ENDBRANCH  32  33
ENDBRANCH  31  32
ENDBRANCH  30  31
ENDBRANCH  29  30
ENDBRANCH  28  29
ENDBRANCH   1  28
TORSDOF 22
ENDMDL
MODEL 3
REMARK VINA RESULT:     -10.1      4.616      6.923
REMARK SMILES CC(=O)Nc1cccc(-c2cc(F)ccc2C(=O)OCCOCCOCCOCCOC(=O)c2ccc(-c3c4nc(c(-c5c(F)cccc5F)c5ccc([nH]5)c(-c5c(F)cccc5F)c5nc(c(-c6c(F)cccc6F)c6ccc3[nH]6)C=C5)C=C4)cc2)c1
REMARK SMILES IDX 25 1 24 2 23 3 22 4 21 5 20 6 19 7 17 8 18 9 16 10 10 11
REMARK SMILES IDX 11 12 12 13 15 14 13 15 14 16 9 17 5 18 6 19 88 20 7 21 8 22
REMARK SMILES IDX 4 23 1 24 2 25 3 26 26 28 27 29 28 30 29 31 30 32 31 33
REMARK SMILES IDX 32 34 33 35 34 36 35 37 87 38 36 39 86 40 37 41 38 42 39 43
REMARK SMILES IDX 80 44 40 45 85 46 79 47 81 48 41 49 84 50 78 51 77 52 42 54
REMARK SMILES IDX 68 55 51 56 67 57 52 58 55 59 66 60 82 61 53 62 54 63 65 65
REMARK SMILES IDX 83 66 56 67 43 68 44 69 49 70 45 71 46 72 48 73 50 74 47 75
REMARK SMILES IDX 69 76 70 77 75 78 71 79 72 80 74 81 76 82 73 83 57 84 58 85
REMARK SMILES IDX 63 86 59 87 60 88 62 89 64 90 61 91
REMARK H PARENT 4 27 81 53 55 64
REMARK Flexibility Score: inf
ROOT
ATOM      1  O   UNL A   1      40.031  22.295  27.201  1.00  0.00    -0.377 OA
ENDROOT
BRANCH   1   2
ATOM      2  C   UNL A   1      39.195  22.696  26.127  1.00  0.00     0.188 C 
BRANCH   2   3
ATOM      3  C   UNL A   1      38.109  23.772  26.334  1.00  0.00     0.188 C 
BRANCH   3   4
ATOM      4  O   UNL A   1      36.837  23.480  25.762  1.00  0.00    -0.376 OA
BRANCH   4   5
ATOM      5  C   UNL A   1      36.846  22.513  24.717  1.00  0.00     0.202 C 
BRANCH   5   6
ATOM      6  C   UNL A   1      35.808  22.803  23.638  1.00  0.00     0.261 C 
BRANCH   6   7
ATOM      7  O   UNL A   1      35.032  23.969  23.950  1.00  0.00    -0.460 OA
BRANCH   7   8
ATOM      8  C   UNL A   1      33.841  24.111  23.340  1.00  0.00     0.338 C 
ATOM      9  O   UNL A   1      33.658  24.265  22.143  1.00  0.00    -0.246 OA
BRANCH   8  10
ATOM     10  C   UNL A   1      32.748  23.921  24.333  1.00  0.00     0.068 A 
ATOM     11  C   UNL A   1      32.000  24.976  24.925  1.00  0.00    -0.001 A 
ATOM     12  C   UNL A   1      31.016  24.609  25.868  1.00  0.00     0.048 A 
ATOM     13  C   UNL A   1      30.821  23.278  26.234  1.00  0.00     0.123 A 
ATOM     14  C   UNL A   1      32.530  22.579  24.710  1.00  0.00     0.019 A 
ATOM     15  F   UNL A   1      29.898  22.980  27.158  1.00  0.00    -0.207 F 
ATOM     16  C   UNL A   1      31.576  22.262  25.672  1.00  0.00     0.040 A 
BRANCH  11  17
ATOM     17  C   UNL A   1      32.238  26.421  24.664  1.00  0.00    -0.015 A 
ATOM     18  C   UNL A   1      31.763  28.443  23.363  1.00  0.00     0.041 A 
ATOM     19  C   UNL A   1      32.915  29.038  23.889  1.00  0.00     0.026 A 
ATOM     20  C   UNL A   1      31.403  27.168  23.809  1.00  0.00     0.034 A 
ATOM     21  C   UNL A   1      33.705  28.362  24.815  1.00  0.00     0.003 A 
ATOM     22  C   UNL A   1      33.380  27.057  25.180  1.00  0.00     0.009 A 
BRANCH  18  23
ATOM     23  N   UNL A   1      31.125  29.138  22.320  1.00  0.00    -0.326 N 
ATOM     24  C   UNL A   1      29.336  30.446  23.479  1.00  0.00     0.114 C 
ATOM     25  C   UNL A   1      30.004  29.908  22.248  1.00  0.00     0.221 C 
ATOM     26  O   UNL A   1      29.561  30.185  21.129  1.00  0.00    -0.275 OA
ATOM     27  H   UNL A   1      31.587  29.048  21.456  1.00  0.00     0.169 HD
ENDBRANCH  18  23
ENDBRANCH  11  17
ENDBRANCH   8  10
ENDBRANCH   7   8
ENDBRANCH   6   7
ENDBRANCH   5   6
ENDBRANCH   4   5
ENDBRANCH   3   4
ENDBRANCH   2   3
ENDBRANCH   1   2
BRANCH   1  28
ATOM     28  C   UNL A   1      40.695  21.039  27.144  1.00  0.00     0.188 C 
BRANCH  28  29
ATOM     29  C   UNL A   1      40.223  19.954  26.157  1.00  0.00     0.188 C 
BRANCH  29  30
ATOM     30  O   UNL A   1      41.236  19.055  25.725  1.00  0.00    -0.376 OA
BRANCH  30  31
ATOM     31  C   UNL A   1      42.459  19.100  26.448  1.00  0.00     0.202 C 
BRANCH  31  32
ATOM     32  C   UNL A   1      43.593  18.288  25.811  1.00  0.00     0.261 C 
BRANCH  32  33
ATOM     33  O   UNL A   1      44.757  19.057  25.463  1.00  0.00    -0.460 OA
BRANCH  33  34
ATOM     34  C   UNL A   1      44.671  19.831  24.361  1.00  0.00     0.338 C 
ATOM     35  O   UNL A   1      44.239  19.525  23.266  1.00  0.00    -0.246 OA
BRANCH  34  36
ATOM     36  C   UNL A   1      45.049  21.199  24.750  1.00  0.00     0.060 A 
ATOM     37  C   UNL A   1      45.420  21.448  26.077  1.00  0.00     0.016 A 
ATOM     38  C   UNL A   1      45.024  22.227  23.805  1.00  0.00     0.016 A 
ATOM     39  C   UNL A   1      45.733  22.747  26.473  1.00  0.00     0.010 A 
ATOM     40  C   UNL A   1      45.319  23.529  24.206  1.00  0.00     0.010 A 
ATOM     41  C   UNL A   1      45.641  23.798  25.549  1.00  0.00    -0.014 A 
BRANCH  41  42
ATOM     42  C   UNL A   1      45.680  25.199  26.020  1.00  0.00     0.031 A 
ATOM     43  C   UNL A   1      47.002  25.908  26.028  1.00  0.00     0.074 A 
ATOM     44  C   UNL A   1      44.569  25.819  26.451  1.00  0.00     0.049 A 
ATOM     45  N   UNL A   1      47.294  27.117  26.431  1.00  0.00    -0.248 NA
ATOM     46  C   UNL A   1      48.154  25.144  25.521  1.00  0.00     0.031 C 
ATOM     47  C   UNL A   1      43.231  25.236  26.482  1.00  0.00     0.029 A 
ATOM     48  N   UNL A   1      44.406  27.080  26.964  1.00  0.00    -0.354 N 
ATOM     49  C   UNL A   1      48.661  27.258  26.229  1.00  0.00     0.074 A 
ATOM     50  C   UNL A   1      49.146  26.003  25.699  1.00  0.00     0.031 C 
ATOM     51  C   UNL A   1      42.381  26.135  27.012  1.00  0.00     0.029 A 
ATOM     52  C   UNL A   1      43.123  27.342  27.373  1.00  0.00     0.049 A 
ATOM     53  H   UNL A   1      45.138  27.735  27.032  1.00  0.00     0.167 HD
ATOM     54  C   UNL A   1      49.442  28.339  26.459  1.00  0.00     0.037 A 
ATOM     55  C   UNL A   1      42.615  28.428  27.988  1.00  0.00     0.037 A 
ATOM     56  C   UNL A   1      48.961  29.582  26.997  1.00  0.00     0.049 A 
ATOM     57  C   UNL A   1      43.508  29.605  28.277  1.00  0.00     0.074 A 
ATOM     58  C   UNL A   1      49.662  30.752  27.225  1.00  0.00     0.029 A 
ATOM     59  N   UNL A   1      47.657  29.809  27.405  1.00  0.00    -0.354 N 
ATOM     60  N   UNL A   1      44.787  29.752  28.026  1.00  0.00    -0.248 NA
ATOM     61  C   UNL A   1      42.885  30.767  28.924  1.00  0.00     0.031 C 
ATOM     62  C   UNL A   1      48.791  31.673  27.819  1.00  0.00     0.029 A 
ATOM     63  C   UNL A   1      47.537  31.090  27.917  1.00  0.00     0.049 A 
ATOM     64  H   UNL A   1      46.922  29.156  27.341  1.00  0.00     0.167 HD
ATOM     65  C   UNL A   1      45.118  31.028  28.470  1.00  0.00     0.074 A 
ATOM     66  C   UNL A   1      43.902  31.616  28.993  1.00  0.00     0.031 C 
ATOM     67  C   UNL A   1      46.320  31.657  28.442  1.00  0.00     0.037 A 
BRANCH  54  68
ATOM     68  C   UNL A   1      50.904  28.197  26.157  1.00  0.00     0.057 A 
ATOM     69  C   UNL A   1      51.409  28.335  24.859  1.00  0.00     0.134 A 
ATOM     70  C   UNL A   1      51.815  27.903  27.179  1.00  0.00     0.134 A 
ATOM     71  F   UNL A   1      50.585  28.596  23.832  1.00  0.00    -0.206 F 
ATOM     72  C   UNL A   1      52.765  28.154  24.581  1.00  0.00     0.040 A 
ATOM     73  C   UNL A   1      53.176  27.743  26.918  1.00  0.00     0.040 A 
ATOM     74  F   UNL A   1      51.396  27.756  28.445  1.00  0.00    -0.206 F 
ATOM     75  C   UNL A   1      53.653  27.860  25.613  1.00  0.00     0.006 A 
ENDBRANCH  54  68
BRANCH  55  76
ATOM     76  C   UNL A   1      41.185  28.442  28.381  1.00  0.00     0.057 A 
ATOM     77  C   UNL A   1      40.193  28.886  27.501  1.00  0.00     0.134 A 
ATOM     78  C   UNL A   1      40.777  27.993  29.644  1.00  0.00     0.134 A 
ATOM     79  F   UNL A   1      40.527  29.348  26.287  1.00  0.00    -0.206 F 
ATOM     80  C   UNL A   1      38.845  28.891  27.864  1.00  0.00     0.040 A 
ATOM     81  C   UNL A   1      39.432  27.974  30.013  1.00  0.00     0.040 A 
ATOM     82  F   UNL A   1      41.681  27.549  30.529  1.00  0.00    -0.206 F 
ATOM     83  C   UNL A   1      38.461  28.427  29.121  1.00  0.00     0.006 A 
ENDBRANCH  55  76
BRANCH  67  84
ATOM     84  C   UNL A   1      46.378  33.056  28.980  1.00  0.00     0.057 A 
ATOM     85  C   UNL A   1      46.120  34.168  28.169  1.00  0.00     0.134 A 
ATOM     86  C   UNL A   1      46.643  33.290  30.335  1.00  0.00     0.134 A 
ATOM     87  F   UNL A   1      45.869  34.013  26.861  1.00  0.00    -0.206 F 
ATOM     88  C   UNL A   1      46.140  35.466  28.685  1.00  0.00     0.040 A 
ATOM     89  C   UNL A   1      46.642  34.580  30.867  1.00  0.00     0.040 A 
ATOM     90  F   UNL A   1      46.889  32.267  31.168  1.00  0.00    -0.206 F 
ATOM     91  C   UNL A   1      46.395  35.673  30.039  1.00  0.00     0.006 A 
ENDBRANCH  67  84
ENDBRANCH  41  42
ENDBRANCH  34  36
ENDBRANCH  33  34
ENDBRANCH  32  33
ENDBRANCH  31  32
ENDBRANCH  30  31
ENDBRANCH  29  30
ENDBRANCH  28  29
ENDBRANCH   1  28
TORSDOF 22
ENDMDL
