MODEL 1
REMARK VINA RESULT:     -10.2      0.000      0.000
REMARK SMILES CC(C)c1cc2c(cc1Cl)C=C(C(=O)OCCOCCOCCOCCOC(=O)c1ccc(-c3c4nc(c(-c5c(F)cccc5F)c5ccc([nH]5)c(-c5c(F)cccc5F)c5nc(c(-c6c(F)cccc6F)c6ccc3[nH]6)C=C5)C=C4)cc1)[C@@H](C(F)(F)F)O2
REMARK SMILES IDX 22 1 21 2 20 3 19 4 18 5 17 6 16 7 15 8 13 9 14 10 12 11
REMARK SMILES IDX 4 12 5 13 9 14 6 15 8 16 10 17 7 18 89 19 11 20 84 21 2 22
REMARK SMILES IDX 1 23 3 24 85 25 86 26 87 27 88 28 23 29 24 30 25 31 26 32
REMARK SMILES IDX 27 33 28 34 29 35 30 36 31 37 83 38 32 39 82 40 33 41 34 42
REMARK SMILES IDX 35 43 76 44 36 45 81 46 75 47 77 48 37 49 80 50 74 51 73 52
REMARK SMILES IDX 38 54 64 55 47 56 63 57 48 58 51 59 62 60 78 61 49 62 50 63
REMARK SMILES IDX 61 65 79 66 52 67 39 68 40 69 45 70 41 71 42 72 44 73 46 74
REMARK SMILES IDX 43 75 65 76 66 77 71 78 67 79 68 80 70 81 72 82 69 83 53 84
REMARK SMILES IDX 54 85 59 86 55 87 56 88 58 89 60 90 57 91
REMARK H PARENT 77 53 51 64
REMARK Flexibility Score: inf
ROOT
ATOM      1  C   UNL A   1      42.311  20.320  26.127  1.00  0.00     0.188 C 
ENDROOT
BRANCH   1   2
ATOM      2  O   UNL A   1      41.470  20.392  27.279  1.00  0.00    -0.377 OA
BRANCH   2   3
ATOM      3  C   UNL A   1      41.088  21.681  27.735  1.00  0.00     0.188 C 
BRANCH   3   4
ATOM      4  C   UNL A   1      40.135  22.403  26.765  1.00  0.00     0.188 C 
BRANCH   4   5
ATOM      5  O   UNL A   1      39.222  21.519  26.118  1.00  0.00    -0.376 OA
BRANCH   5   6
ATOM      6  C   UNL A   1      37.958  22.054  25.740  1.00  0.00     0.202 C 
BRANCH   6   7
ATOM      7  C   UNL A   1      36.931  21.070  25.157  1.00  0.00     0.261 C 
BRANCH   7   8
ATOM      8  O   UNL A   1      35.953  21.660  24.284  1.00  0.00    -0.460 OA
BRANCH   8   9
ATOM      9  C   UNL A   1      34.658  21.376  24.519  1.00  0.00     0.338 C 
ATOM     10  O   UNL A   1      34.160  20.270  24.630  1.00  0.00    -0.246 OA
BRANCH   9  11
ATOM     11  C   UNL A   1      33.958  22.649  24.792  1.00  0.00     0.087 C 
ATOM     12  C   UNL A   1      32.435  27.456  24.840  1.00  0.00    -0.023 A 
ATOM     13  C   UNL A   1      32.208  26.320  25.651  1.00  0.00     0.052 A 
ATOM     14  C   UNL A   1      33.089  27.247  23.616  1.00  0.00     0.045 A 
ATOM     15  C   UNL A   1      32.717  25.063  25.320  1.00  0.00     0.128 A 
ATOM     16  C   UNL A   1      33.628  25.989  23.300  1.00  0.00     0.032 A 
ATOM     17  Cl  UNL A   1      33.274  28.465  22.408  1.00  0.00    -0.084 Cl
ATOM     18  C   UNL A   1      33.486  24.909  24.175  1.00  0.00     0.019 A 
ATOM     19  O   UNL A   1      32.446  24.056  26.198  1.00  0.00    -0.475 OA
ATOM     20  C   UNL A   1      34.178  23.655  23.935  1.00  0.00     0.027 C 
ATOM     21  C   UNL A   1      32.983  22.728  25.941  1.00  0.00     0.316 C 
BRANCH  12  22
ATOM     22  C   UNL A   1      31.965  28.791  25.409  1.00  0.00     0.014 C 
ATOM     23  C   UNL A   1      33.051  29.808  25.775  1.00  0.00     0.012 C 
ATOM     24  C   UNL A   1      30.890  29.431  24.532  1.00  0.00     0.012 C 
ENDBRANCH  12  22
BRANCH  21  25
ATOM     25  C   UNL A   1      33.577  22.215  27.262  1.00  0.00     0.430 C 
ATOM     26  F   UNL A   1      32.865  22.665  28.325  1.00  0.00    -0.167 F 
ATOM     27  F   UNL A   1      33.574  20.865  27.341  1.00  0.00    -0.167 F 
ATOM     28  F   UNL A   1      34.855  22.626  27.429  1.00  0.00    -0.167 F 
ENDBRANCH  21  25
ENDBRANCH   9  11
ENDBRANCH   8   9
ENDBRANCH   7   8
ENDBRANCH   6   7
ENDBRANCH   5   6
ENDBRANCH   4   5
ENDBRANCH   3   4
ENDBRANCH   2   3
ENDBRANCH   1   2
BRANCH   1  29
ATOM     29  C   UNL A   1      43.434  21.350  25.868  1.00  0.00     0.188 C 
BRANCH  29  30
ATOM     30  O   UNL A   1      43.409  21.915  24.559  1.00  0.00    -0.376 OA
BRANCH  30  31
ATOM     31  C   UNL A   1      44.666  22.182  23.953  1.00  0.00     0.202 C 
BRANCH  31  32
ATOM     32  C   UNL A   1      45.434  23.335  24.608  1.00  0.00     0.261 C 
BRANCH  32  33
ATOM     33  O   UNL A   1      44.653  24.513  24.869  1.00  0.00    -0.460 OA
BRANCH  33  34
ATOM     34  C   UNL A   1      45.314  25.656  25.155  1.00  0.00     0.338 C 
ATOM     35  O   UNL A   1      46.245  26.145  24.542  1.00  0.00    -0.246 OA
BRANCH  34  36
ATOM     36  C   UNL A   1      44.574  26.329  26.243  1.00  0.00     0.060 A 
ATOM     37  C   UNL A   1      43.646  25.619  27.008  1.00  0.00     0.016 A 
ATOM     38  C   UNL A   1      44.785  27.695  26.469  1.00  0.00     0.016 A 
ATOM     39  C   UNL A   1      42.945  26.273  28.022  1.00  0.00     0.010 A 
ATOM     40  C   UNL A   1      44.076  28.350  27.479  1.00  0.00     0.010 A 
ATOM     41  C   UNL A   1      43.166  27.637  28.275  1.00  0.00    -0.014 A 
BRANCH  41  42
ATOM     42  C   UNL A   1      42.567  28.265  29.477  1.00  0.00     0.031 A 
ATOM     43  C   UNL A   1      43.217  28.185  30.823  1.00  0.00     0.074 A 
ATOM     44  C   UNL A   1      41.400  28.919  29.324  1.00  0.00     0.049 A 
ATOM     45  N   UNL A   1      42.845  28.746  31.947  1.00  0.00    -0.248 NA
ATOM     46  C   UNL A   1      44.434  27.370  30.927  1.00  0.00     0.031 C 
ATOM     47  C   UNL A   1      40.663  29.040  28.066  1.00  0.00     0.029 A 
ATOM     48  N   UNL A   1      40.634  29.605  30.229  1.00  0.00    -0.354 N 
ATOM     49  C   UNL A   1      43.794  28.375  32.891  1.00  0.00     0.074 A 
ATOM     50  C   UNL A   1      44.733  27.500  32.215  1.00  0.00     0.031 C 
ATOM     51  C   UNL A   1      39.556  29.769  28.275  1.00  0.00     0.029 A 
ATOM     52  C   UNL A   1      39.497  30.148  29.683  1.00  0.00     0.049 A 
ATOM     53  H   UNL A   1      40.875  29.700  31.179  1.00  0.00     0.167 HD
ATOM     54  C   UNL A   1      43.878  28.743  34.192  1.00  0.00     0.037 A 
ATOM     55  C   UNL A   1      38.516  30.870  30.252  1.00  0.00     0.037 A 
ATOM     56  C   UNL A   1      42.924  29.592  34.866  1.00  0.00     0.049 A 
ATOM     57  C   UNL A   1      38.607  31.212  31.711  1.00  0.00     0.074 A 
ATOM     58  C   UNL A   1      42.947  30.048  36.174  1.00  0.00     0.029 A 
ATOM     59  N   UNL A   1      41.768  30.097  34.290  1.00  0.00    -0.354 N 
ATOM     60  N   UNL A   1      39.554  30.927  32.571  1.00  0.00    -0.248 NA
ATOM     61  C   UNL A   1      37.495  31.988  32.276  1.00  0.00     0.031 C 
ATOM     62  C   UNL A   1      41.780  30.787  36.403  1.00  0.00     0.029 A 
ATOM     63  C   UNL A   1      41.054  30.834  35.225  1.00  0.00     0.049 A 
ATOM     64  H   UNL A   1      41.492  29.953  33.356  1.00  0.00     0.167 HD
ATOM     65  C   UNL A   1      39.168  31.513  33.769  1.00  0.00     0.074 A 
ATOM     66  C   UNL A   1      37.909  32.183  33.520  1.00  0.00     0.031 C 
ATOM     67  C   UNL A   1      39.801  31.497  34.967  1.00  0.00     0.037 A 
BRANCH  54  68
ATOM     68  C   UNL A   1      45.046  28.228  34.984  1.00  0.00     0.057 A 
ATOM     69  C   UNL A   1      44.935  27.069  35.762  1.00  0.00     0.134 A 
ATOM     70  C   UNL A   1      46.264  28.918  35.024  1.00  0.00     0.134 A 
ATOM     71  F   UNL A   1      43.792  26.367  35.779  1.00  0.00    -0.206 F 
ATOM     72  C   UNL A   1      45.994  26.614  36.551  1.00  0.00     0.040 A 
ATOM     73  C   UNL A   1      47.338  28.461  35.790  1.00  0.00     0.040 A 
ATOM     74  F   UNL A   1      46.438  30.035  34.301  1.00  0.00    -0.206 F 
ATOM     75  C   UNL A   1      47.202  27.308  36.562  1.00  0.00     0.006 A 
ENDBRANCH  54  68
BRANCH  55  76
ATOM     76  C   UNL A   1      37.368  31.336  29.439  1.00  0.00     0.057 A 
ATOM     77  C   UNL A   1      36.240  30.531  29.243  1.00  0.00     0.134 A 
ATOM     78  C   UNL A   1      37.361  32.612  28.863  1.00  0.00     0.134 A 
ATOM     79  F   UNL A   1      36.189  29.296  29.762  1.00  0.00    -0.206 F 
ATOM     80  C   UNL A   1      35.144  30.979  28.504  1.00  0.00     0.040 A 
ATOM     81  C   UNL A   1      36.262  33.082  28.144  1.00  0.00     0.040 A 
ATOM     82  F   UNL A   1      38.408  33.432  29.031  1.00  0.00    -0.206 F 
ATOM     83  C   UNL A   1      35.150  32.262  27.962  1.00  0.00     0.006 A 
ENDBRANCH  55  76
BRANCH  67  84
ATOM     84  C   UNL A   1      39.151  32.258  36.087  1.00  0.00     0.057 A 
ATOM     85  C   UNL A   1      38.181  31.649  36.895  1.00  0.00     0.134 A 
ATOM     86  C   UNL A   1      39.480  33.590  36.368  1.00  0.00     0.134 A 
ATOM     87  F   UNL A   1      37.814  30.377  36.678  1.00  0.00    -0.206 F 
ATOM     88  C   UNL A   1      37.565  32.337  37.941  1.00  0.00     0.040 A 
ATOM     89  C   UNL A   1      38.892  34.280  37.430  1.00  0.00     0.040 A 
ATOM     90  F   UNL A   1      40.415  34.226  35.645  1.00  0.00    -0.206 F 
ATOM     91  C   UNL A   1      37.928  33.654  38.217  1.00  0.00     0.006 A 
ENDBRANCH  67  84
ENDBRANCH  41  42
ENDBRANCH  34  36
ENDBRANCH  33  34
ENDBRANCH  32  33
ENDBRANCH  31  32
ENDBRANCH  30  31
ENDBRANCH  29  30
ENDBRANCH   1  29
TORSDOF 22
ENDMDL
MODEL 2
REMARK VINA RESULT:      -9.9      0.568      5.975
REMARK SMILES CC(C)c1cc2c(cc1Cl)C=C(C(=O)OCCOCCOCCOCCOC(=O)c1ccc(-c3c4nc(c(-c5c(F)cccc5F)c5ccc([nH]5)c(-c5c(F)cccc5F)c5nc(c(-c6c(F)cccc6F)c6ccc3[nH]6)C=C5)C=C4)cc1)[C@@H](C(F)(F)F)O2
REMARK SMILES IDX 22 1 21 2 20 3 19 4 18 5 17 6 16 7 15 8 13 9 14 10 12 11
REMARK SMILES IDX 4 12 5 13 9 14 6 15 8 16 10 17 7 18 89 19 11 20 84 21 2 22
REMARK SMILES IDX 1 23 3 24 85 25 86 26 87 27 88 28 23 29 24 30 25 31 26 32
REMARK SMILES IDX 27 33 28 34 29 35 30 36 31 37 83 38 32 39 82 40 33 41 34 42
REMARK SMILES IDX 35 43 76 44 36 45 81 46 75 47 77 48 37 49 80 50 74 51 73 52
REMARK SMILES IDX 38 54 64 55 47 56 63 57 48 58 51 59 62 60 78 61 49 62 50 63
REMARK SMILES IDX 61 65 79 66 52 67 39 68 40 69 45 70 41 71 42 72 44 73 46 74
REMARK SMILES IDX 43 75 65 76 66 77 71 78 67 79 68 80 70 81 72 82 69 83 53 84
REMARK SMILES IDX 54 85 59 86 55 87 56 88 58 89 60 90 57 91
REMARK H PARENT 77 53 51 64
REMARK Flexibility Score: inf
ROOT
ATOM      1  C   UNL A   1      42.323  20.637  26.135  1.00  0.00     0.188 C 
ENDROOT
BRANCH   1   2
ATOM      2  O   UNL A   1      41.530  20.573  27.321  1.00  0.00    -0.377 OA
BRANCH   2   3
ATOM      3  C   UNL A   1      41.022  21.793  27.839  1.00  0.00     0.188 C 
BRANCH   3   4
ATOM      4  C   UNL A   1      40.038  22.489  26.881  1.00  0.00     0.188 C 
BRANCH   4   5
ATOM      5  O   UNL A   1      38.996  21.627  26.428  1.00  0.00    -0.376 OA
BRANCH   5   6
ATOM      6  C   UNL A   1      38.126  22.134  25.421  1.00  0.00     0.202 C 
BRANCH   6   7
ATOM      7  C   UNL A   1      37.090  21.159  24.840  1.00  0.00     0.261 C 
BRANCH   7   8
ATOM      8  O   UNL A   1      36.009  21.778  24.124  1.00  0.00    -0.460 OA
BRANCH   8   9
ATOM      9  C   UNL A   1      34.756  21.510  24.537  1.00  0.00     0.338 C 
ATOM     10  O   UNL A   1      34.273  20.411  24.744  1.00  0.00    -0.246 OA
BRANCH   9  11
ATOM     11  C   UNL A   1      34.102  22.795  24.863  1.00  0.00     0.087 C 
ATOM     12  C   UNL A   1      32.767  27.650  25.132  1.00  0.00    -0.023 A 
ATOM     13  C   UNL A   1      32.484  26.485  25.882  1.00  0.00     0.052 A 
ATOM     14  C   UNL A   1      33.431  27.475  23.907  1.00  0.00     0.045 A 
ATOM     15  C   UNL A   1      32.949  25.227  25.495  1.00  0.00     0.128 A 
ATOM     16  C   UNL A   1      33.924  26.214  23.535  1.00  0.00     0.032 A 
ATOM     17  Cl  UNL A   1      33.680  28.744  22.763  1.00  0.00    -0.084 Cl
ATOM     18  C   UNL A   1      33.728  25.100  24.353  1.00  0.00     0.019 A 
ATOM     19  O   UNL A   1      32.626  24.189  26.318  1.00  0.00    -0.475 OA
ATOM     20  C   UNL A   1      34.374  23.832  24.060  1.00  0.00     0.027 C 
ATOM     21  C   UNL A   1      33.115  22.856  26.003  1.00  0.00     0.316 C 
BRANCH  12  22
ATOM     22  C   UNL A   1      32.341  28.973  25.760  1.00  0.00     0.014 C 
ATOM     23  C   UNL A   1      31.143  29.687  25.124  1.00  0.00     0.012 C 
ATOM     24  C   UNL A   1      32.164  28.849  27.272  1.00  0.00     0.012 C 
ENDBRANCH  12  22
BRANCH  21  25
ATOM     25  C   UNL A   1      33.668  22.255  27.304  1.00  0.00     0.430 C 
ATOM     26  F   UNL A   1      34.977  22.568  27.468  1.00  0.00    -0.167 F 
ATOM     27  F   UNL A   1      33.024  22.712  28.400  1.00  0.00    -0.167 F 
ATOM     28  F   UNL A   1      33.572  20.906  27.312  1.00  0.00    -0.167 F 
ENDBRANCH  21  25
ENDBRANCH   9  11
ENDBRANCH   8   9
ENDBRANCH   7   8
ENDBRANCH   6   7
ENDBRANCH   5   6
ENDBRANCH   4   5
ENDBRANCH   3   4
ENDBRANCH   2   3
ENDBRANCH   1   2
BRANCH   1  29
ATOM     29  C   UNL A   1      43.353  21.765  25.899  1.00  0.00     0.188 C 
BRANCH  29  30
ATOM     30  O   UNL A   1      43.781  21.882  24.544  1.00  0.00    -0.376 OA
BRANCH  30  31
ATOM     31  C   UNL A   1      45.120  22.308  24.331  1.00  0.00     0.202 C 
BRANCH  31  32
ATOM     32  C   UNL A   1      45.541  23.482  25.222  1.00  0.00     0.261 C 
BRANCH  32  33
ATOM     33  O   UNL A   1      44.680  24.631  25.161  1.00  0.00    -0.460 OA
BRANCH  33  34
ATOM     34  C   UNL A   1      45.246  25.850  25.301  1.00  0.00     0.338 C 
ATOM     35  O   UNL A   1      46.114  26.346  24.607  1.00  0.00    -0.246 OA
BRANCH  34  36
ATOM     36  C   UNL A   1      44.479  26.572  26.337  1.00  0.00     0.060 A 
ATOM     37  C   UNL A   1      43.621  25.876  27.192  1.00  0.00     0.016 A 
ATOM     38  C   UNL A   1      44.590  27.965  26.422  1.00  0.00     0.016 A 
ATOM     39  C   UNL A   1      42.892  26.575  28.155  1.00  0.00     0.010 A 
ATOM     40  C   UNL A   1      43.853  28.664  27.381  1.00  0.00     0.010 A 
ATOM     41  C   UNL A   1      43.016  27.970  28.268  1.00  0.00    -0.014 A 
BRANCH  41  42
ATOM     42  C   UNL A   1      42.394  28.669  29.417  1.00  0.00     0.031 A 
ATOM     43  C   UNL A   1      41.055  29.330  29.316  1.00  0.00     0.074 A 
ATOM     44  C   UNL A   1      43.078  28.698  30.577  1.00  0.00     0.049 A 
ATOM     45  N   UNL A   1      40.356  29.916  30.257  1.00  0.00    -0.248 NA
ATOM     46  C   UNL A   1      40.417  29.342  27.993  1.00  0.00     0.031 C 
ATOM     47  C   UNL A   1      44.403  28.110  30.785  1.00  0.00     0.029 A 
ATOM     48  N   UNL A   1      42.756  29.238  31.794  1.00  0.00    -0.354 N 
ATOM     49  C   UNL A   1      39.184  30.347  29.649  1.00  0.00     0.074 A 
ATOM     50  C   UNL A   1      39.289  29.995  28.246  1.00  0.00     0.031 C 
ATOM     51  C   UNL A   1      44.775  28.310  32.058  1.00  0.00     0.029 A 
ATOM     52  C   UNL A   1      43.727  29.055  32.747  1.00  0.00     0.049 A 
ATOM     53  H   UNL A   1      41.910  29.712  31.968  1.00  0.00     0.167 HD
ATOM     54  C   UNL A   1      38.119  30.964  30.216  1.00  0.00     0.037 A 
ATOM     55  C   UNL A   1      43.768  29.445  34.034  1.00  0.00     0.037 A 
ATOM     56  C   UNL A   1      38.033  31.336  31.607  1.00  0.00     0.049 A 
ATOM     57  C   UNL A   1      42.595  30.179  34.618  1.00  0.00     0.074 A 
ATOM     58  C   UNL A   1      36.977  31.932  32.279  1.00  0.00     0.029 A 
ATOM     59  N   UNL A   1      39.047  31.165  32.538  1.00  0.00    -0.354 N 
ATOM     60  N   UNL A   1      41.458  30.504  34.054  1.00  0.00    -0.248 NA
ATOM     61  C   UNL A   1      42.711  30.593  36.022  1.00  0.00     0.031 C 
ATOM     62  C   UNL A   1      37.373  32.166  33.602  1.00  0.00     0.029 A 
ATOM     63  C   UNL A   1      38.654  31.671  33.768  1.00  0.00     0.049 A 
ATOM     64  H   UNL A   1      39.919  30.746  32.353  1.00  0.00     0.167 HD
ATOM     65  C   UNL A   1      40.711  31.131  35.041  1.00  0.00     0.074 A 
ATOM     66  C   UNL A   1      41.518  31.127  36.243  1.00  0.00     0.031 C 
ATOM     67  C   UNL A   1      39.466  31.662  34.959  1.00  0.00     0.037 A 
BRANCH  54  68
ATOM     68  C   UNL A   1      36.949  31.281  29.328  1.00  0.00     0.057 A 
ATOM     69  C   UNL A   1      36.066  30.276  28.913  1.00  0.00     0.134 A 
ATOM     70  C   UNL A   1      36.734  32.574  28.833  1.00  0.00     0.134 A 
ATOM     71  F   UNL A   1      36.221  29.013  29.340  1.00  0.00    -0.206 F 
ATOM     72  C   UNL A   1      35.011  30.545  28.038  1.00  0.00     0.040 A 
ATOM     73  C   UNL A   1      35.669  32.861  27.977  1.00  0.00     0.040 A 
ATOM     74  F   UNL A   1      37.543  33.582  29.193  1.00  0.00    -0.206 F 
ATOM     75  C   UNL A   1      34.808  31.843  27.572  1.00  0.00     0.006 A 
ENDBRANCH  54  68
BRANCH  55  76
ATOM     76  C   UNL A   1      44.953  29.134  34.867  1.00  0.00     0.057 A 
ATOM     77  C   UNL A   1      46.028  30.025  34.967  1.00  0.00     0.134 A 
ATOM     78  C   UNL A   1      45.025  27.948  35.608  1.00  0.00     0.134 A 
ATOM     79  F   UNL A   1      46.022  31.174  34.275  1.00  0.00    -0.206 F 
ATOM     80  C   UNL A   1      47.131  29.749  35.775  1.00  0.00     0.040 A 
ATOM     81  C   UNL A   1      46.109  27.672  36.440  1.00  0.00     0.040 A 
ATOM     82  F   UNL A   1      44.017  27.064  35.564  1.00  0.00    -0.206 F 
ATOM     83  C   UNL A   1      47.168  28.575  36.523  1.00  0.00     0.006 A 
ENDBRANCH  55  76
BRANCH  67  84
ATOM     84  C   UNL A   1      38.896  32.251  36.218  1.00  0.00     0.057 A 
ATOM     85  C   UNL A   1      39.140  33.590  36.554  1.00  0.00     0.134 A 
ATOM     86  C   UNL A   1      38.109  31.498  37.099  1.00  0.00     0.134 A 
ATOM     87  F   UNL A   1      39.889  34.367  35.758  1.00  0.00    -0.206 F 
ATOM     88  C   UNL A   1      38.619  34.157  37.717  1.00  0.00     0.040 A 
ATOM     89  C   UNL A   1      37.559  32.062  38.251  1.00  0.00     0.040 A 
ATOM     90  F   UNL A   1      37.822  30.215  36.826  1.00  0.00    -0.206 F 
ATOM     91  C   UNL A   1      37.817  33.394  38.566  1.00  0.00     0.006 A 
ENDBRANCH  67  84
ENDBRANCH  41  42
ENDBRANCH  34  36
ENDBRANCH  33  34
ENDBRANCH  32  33
ENDBRANCH  31  32
ENDBRANCH  30  31
ENDBRANCH  29  30
ENDBRANCH   1  29
TORSDOF 22
ENDMDL
MODEL 3
REMARK VINA RESULT:      -9.8      3.814      8.624
REMARK SMILES CC(C)c1cc2c(cc1Cl)C=C(C(=O)OCCOCCOCCOCCOC(=O)c1ccc(-c3c4nc(c(-c5c(F)cccc5F)c5ccc([nH]5)c(-c5c(F)cccc5F)c5nc(c(-c6c(F)cccc6F)c6ccc3[nH]6)C=C5)C=C4)cc1)[C@@H](C(F)(F)F)O2
REMARK SMILES IDX 22 1 21 2 20 3 19 4 18 5 17 6 16 7 15 8 13 9 14 10 12 11
REMARK SMILES IDX 4 12 5 13 9 14 6 15 8 16 10 17 7 18 89 19 11 20 84 21 2 22
REMARK SMILES IDX 1 23 3 24 85 25 86 26 87 27 88 28 23 29 24 30 25 31 26 32
REMARK SMILES IDX 27 33 28 34 29 35 30 36 31 37 83 38 32 39 82 40 33 41 34 42
REMARK SMILES IDX 35 43 76 44 36 45 81 46 75 47 77 48 37 49 80 50 74 51 73 52
REMARK SMILES IDX 38 54 64 55 47 56 63 57 48 58 51 59 62 60 78 61 49 62 50 63
REMARK SMILES IDX 61 65 79 66 52 67 39 68 40 69 45 70 41 71 42 72 44 73 46 74
REMARK SMILES IDX 43 75 65 76 66 77 71 78 67 79 68 80 70 81 72 82 69 83 53 84
REMARK SMILES IDX 54 85 59 86 55 87 56 88 58 89 60 90 57 91
REMARK H PARENT 77 53 51 64
REMARK Flexibility Score: inf
ROOT
ATOM      1  C   UNL A   1      34.765  29.976  27.453  1.00  0.00     0.188 C 
ENDROOT
BRANCH   1   2
ATOM      2  O   UNL A   1      33.565  29.562  26.800  1.00  0.00    -0.377 OA
BRANCH   2   3
ATOM      3  C   UNL A   1      33.675  28.587  25.775  1.00  0.00     0.188 C 
BRANCH   3   4
ATOM      4  C   UNL A   1      33.101  29.064  24.428  1.00  0.00     0.188 C 
BRANCH   4   5
ATOM      5  O   UNL A   1      31.675  29.050  24.393  1.00  0.00    -0.376 OA
BRANCH   5   6
ATOM      6  C   UNL A   1      31.059  28.740  23.148  1.00  0.00     0.202 C 
BRANCH   6   7
ATOM      7  C   UNL A   1      31.513  27.450  22.447  1.00  0.00     0.261 C 
BRANCH   7   8
ATOM      8  O   UNL A   1      31.861  26.370  23.329  1.00  0.00    -0.460 OA
BRANCH   8   9
ATOM      9  C   UNL A   1      30.867  25.561  23.743  1.00  0.00     0.338 C 
ATOM     10  O   UNL A   1      29.677  25.822  23.777  1.00  0.00    -0.246 OA
BRANCH   9  11
ATOM     11  C   UNL A   1      31.446  24.226  23.998  1.00  0.00     0.087 C 
ATOM     12  C   UNL A   1      32.693  19.343  23.816  1.00  0.00    -0.023 A 
ATOM     13  C   UNL A   1      32.839  20.384  24.761  1.00  0.00     0.052 A 
ATOM     14  C   UNL A   1      32.264  19.704  22.528  1.00  0.00     0.045 A 
ATOM     15  C   UNL A   1      32.457  21.696  24.478  1.00  0.00     0.128 A 
ATOM     16  C   UNL A   1      31.850  21.017  22.256  1.00  0.00     0.032 A 
ATOM     17  Cl  UNL A   1      32.222  18.612  21.192  1.00  0.00    -0.084 Cl
ATOM     18  C   UNL A   1      31.899  22.003  23.244  1.00  0.00     0.019 A 
ATOM     19  O   UNL A   1      32.629  22.601  25.483  1.00  0.00    -0.475 OA
ATOM     20  C   UNL A   1      31.321  23.317  23.021  1.00  0.00     0.027 C 
ATOM     21  C   UNL A   1      32.210  23.980  25.276  1.00  0.00     0.316 C 
BRANCH  12  22
ATOM     22  C   UNL A   1      32.993  17.934  24.318  1.00  0.00     0.014 C 
ATOM     23  C   UNL A   1      34.375  17.361  23.987  1.00  0.00     0.012 C 
ATOM     24  C   UNL A   1      32.683  17.787  25.807  1.00  0.00     0.012 C 
ENDBRANCH  12  22
BRANCH  21  25
ATOM     25  C   UNL A   1      31.431  24.411  26.528  1.00  0.00     0.430 C 
ATOM     26  F   UNL A   1      31.857  23.737  27.624  1.00  0.00    -0.167 F 
ATOM     27  F   UNL A   1      31.582  25.726  26.803  1.00  0.00    -0.167 F 
ATOM     28  F   UNL A   1      30.106  24.175  26.398  1.00  0.00    -0.167 F 
ENDBRANCH  21  25
ENDBRANCH   9  11
ENDBRANCH   8   9
ENDBRANCH   7   8
ENDBRANCH   6   7
ENDBRANCH   5   6
ENDBRANCH   4   5
ENDBRANCH   3   4
ENDBRANCH   2   3
ENDBRANCH   1   2
BRANCH   1  29
ATOM     29  C   UNL A   1      34.927  31.393  28.049  1.00  0.00     0.188 C 
BRANCH  29  30
ATOM     30  O   UNL A   1      33.698  32.101  28.196  1.00  0.00    -0.376 OA
BRANCH  30  31
ATOM     31  C   UNL A   1      33.631  33.395  27.612  1.00  0.00     0.202 C 
BRANCH  31  32
ATOM     32  C   UNL A   1      32.915  34.429  28.487  1.00  0.00     0.261 C 
BRANCH  32  33
ATOM     33  O   UNL A   1      33.774  35.201  29.342  1.00  0.00    -0.460 OA
BRANCH  33  34
ATOM     34  C   UNL A   1      33.869  34.832  30.639  1.00  0.00     0.338 C 
ATOM     35  O   UNL A   1      33.042  34.996  31.517  1.00  0.00    -0.246 OA
BRANCH  34  36
ATOM     36  C   UNL A   1      35.086  34.004  30.770  1.00  0.00     0.060 A 
ATOM     37  C   UNL A   1      36.221  34.294  30.009  1.00  0.00     0.016 A 
ATOM     38  C   UNL A   1      35.072  32.903  31.634  1.00  0.00     0.016 A 
ATOM     39  C   UNL A   1      37.357  33.493  30.133  1.00  0.00     0.010 A 
ATOM     40  C   UNL A   1      36.207  32.096  31.751  1.00  0.00     0.010 A 
ATOM     41  C   UNL A   1      37.364  32.400  31.016  1.00  0.00    -0.014 A 
BRANCH  41  42
ATOM     42  C   UNL A   1      38.633  31.685  31.286  1.00  0.00     0.031 A 
ATOM     43  C   UNL A   1      39.573  32.113  32.369  1.00  0.00     0.074 A 
ATOM     44  C   UNL A   1      38.928  30.621  30.515  1.00  0.00     0.049 A 
ATOM     45  N   UNL A   1      40.683  31.542  32.766  1.00  0.00    -0.248 NA
ATOM     46  C   UNL A   1      39.231  33.341  33.100  1.00  0.00     0.031 C 
ATOM     47  C   UNL A   1      38.100  30.127  29.413  1.00  0.00     0.029 A 
ATOM     48  N   UNL A   1      39.997  29.764  30.541  1.00  0.00    -0.354 N 
ATOM     49  C   UNL A   1      41.164  32.323  33.808  1.00  0.00     0.074 A 
ATOM     50  C   UNL A   1      40.246  33.437  33.951  1.00  0.00     0.031 C 
ATOM     51  C   UNL A   1      38.686  29.046  28.876  1.00  0.00     0.029 A 
ATOM     52  C   UNL A   1      39.936  28.784  29.581  1.00  0.00     0.049 A 
ATOM     53  H   UNL A   1      40.737  29.844  31.185  1.00  0.00     0.167 HD
ATOM     54  C   UNL A   1      42.258  32.118  34.581  1.00  0.00     0.037 A 
ATOM     55  C   UNL A   1      40.792  27.786  29.301  1.00  0.00     0.037 A 
ATOM     56  C   UNL A   1      43.183  31.022  34.415  1.00  0.00     0.049 A 
ATOM     57  C   UNL A   1      42.027  27.619  30.137  1.00  0.00     0.074 A 
ATOM     58  C   UNL A   1      44.300  30.713  35.174  1.00  0.00     0.029 A 
ATOM     59  N   UNL A   1      43.108  30.066  33.413  1.00  0.00    -0.354 N 
ATOM     60  N   UNL A   1      42.424  28.314  31.175  1.00  0.00    -0.248 NA
ATOM     61  C   UNL A   1      42.930  26.521  29.768  1.00  0.00     0.031 C 
ATOM     62  C   UNL A   1      44.928  29.600  34.600  1.00  0.00     0.029 A 
ATOM     63  C   UNL A   1      44.176  29.186  33.515  1.00  0.00     0.049 A 
ATOM     64  H   UNL A   1      42.402  30.019  32.729  1.00  0.00     0.167 HD
ATOM     65  C   UNL A   1      43.604  27.720  31.601  1.00  0.00     0.074 A 
ATOM     66  C   UNL A   1      43.849  26.598  30.719  1.00  0.00     0.031 C 
ATOM     67  C   UNL A   1      44.411  28.072  32.632  1.00  0.00     0.037 A 
BRANCH  54  68
ATOM     68  C   UNL A   1      42.523  33.104  35.682  1.00  0.00     0.057 A 
ATOM     69  C   UNL A   1      41.872  32.997  36.918  1.00  0.00     0.134 A 
ATOM     70  C   UNL A   1      43.379  34.197  35.496  1.00  0.00     0.134 A 
ATOM     71  F   UNL A   1      41.030  31.981  37.158  1.00  0.00    -0.206 F 
ATOM     72  C   UNL A   1      42.062  33.942  37.929  1.00  0.00     0.040 A 
ATOM     73  C   UNL A   1      43.596  35.136  36.507  1.00  0.00     0.040 A 
ATOM     74  F   UNL A   1      44.035  34.358  34.337  1.00  0.00    -0.206 F 
ATOM     75  C   UNL A   1      42.931  35.012  37.726  1.00  0.00     0.006 A 
ENDBRANCH  54  68
BRANCH  55  76
ATOM     76  C   UNL A   1      40.504  26.850  28.187  1.00  0.00     0.057 A 
ATOM     77  C   UNL A   1      41.144  26.973  26.949  1.00  0.00     0.134 A 
ATOM     78  C   UNL A   1      39.601  25.792  28.348  1.00  0.00     0.134 A 
ATOM     79  F   UNL A   1      42.014  27.971  26.731  1.00  0.00    -0.206 F 
ATOM     80  C   UNL A   1      40.899  26.075  25.909  1.00  0.00     0.040 A 
ATOM     81  C   UNL A   1      39.366  24.873  27.326  1.00  0.00     0.040 A 
ATOM     82  F   UNL A   1      38.970  25.616  29.518  1.00  0.00    -0.206 F 
ATOM     83  C   UNL A   1      40.016  25.016  26.100  1.00  0.00     0.006 A 
ENDBRANCH  55  76
BRANCH  67  84
ATOM     84  C   UNL A   1      45.616  27.209  32.874  1.00  0.00     0.057 A 
ATOM     85  C   UNL A   1      46.856  27.540  32.311  1.00  0.00     0.134 A 
ATOM     86  C   UNL A   1      45.553  26.052  33.661  1.00  0.00     0.134 A 
ATOM     87  F   UNL A   1      46.987  28.632  31.543  1.00  0.00    -0.206 F 
ATOM     88  C   UNL A   1      47.988  26.752  32.525  1.00  0.00     0.040 A 
ATOM     89  C   UNL A   1      46.685  25.271  33.906  1.00  0.00     0.040 A 
ATOM     90  F   UNL A   1      44.400  25.689  34.245  1.00  0.00    -0.206 F 
ATOM     91  C   UNL A   1      47.906  25.619  33.333  1.00  0.00     0.006 A 
ENDBRANCH  67  84
ENDBRANCH  41  42
ENDBRANCH  34  36
ENDBRANCH  33  34
ENDBRANCH  32  33
ENDBRANCH  31  32
ENDBRANCH  30  31
ENDBRANCH  29  30
ENDBRANCH   1  29
TORSDOF 22
ENDMDL
